# DDEC6 charges by PACMAN v1.1 (https://github.com/mtap-research/PACMAN-charge/)
data_FIZQEN_ASR_pacman
_symmetry_space_group_name_H-M   'P 1'
_cell_length_a   18.06800000
_cell_length_b   18.98310000
_cell_length_c   22.53100000
_cell_angle_alpha   106.81300000
_cell_angle_beta   113.34300000
_cell_angle_gamma   96.95200000
_symmetry_Int_Tables_number   1
_chemical_formula_structural   EuH18(C7O3)3
_chemical_formula_sum   'Eu8 H144 C168 O72'
_cell_volume   6543.32742032
_cell_formula_units_Z   8
loop_
 _symmetry_equiv_pos_site_id
 _symmetry_equiv_pos_as_xyz
  1  'x, y, z'
loop_
 _atom_site_type_symbol
 _atom_site_label
 _atom_site_symmetry_multiplicity
 _atom_site_fract_x
 _atom_site_fract_y
 _atom_site_fract_z
 _atom_site_occupancy
 _atom_site_charge
Eu  Eu1  1  0.95850000  0.40561000  0.90841000  1.0 2.0172949718
Eu  Eu2  1  0.10219000  0.96094000  0.49718000  1.0 1.999372928
Eu  Eu3  1  0.45606000  0.09587000  0.00183000  1.0 2.0324316906
Eu  Eu4  1  0.48856000  0.54149000  0.59174000  1.0 2.0172949718
Eu  Eu5  1  0.04150000  0.59439000  0.09159000  1.0 2.0172949718
Eu  Eu6  1  0.89781000  0.03906000  0.50282000  1.0 1.999372928
Eu  Eu7  1  0.54394000  0.90413000  0.99817000  1.0 2.0324316906
Eu  Eu8  1  0.51144000  0.45851000  0.40826000  1.0 2.0172949718
H  H1  1  0.52510000  0.21763000  0.67223000  1.0 0.1003710913
H  H2  1  0.77627000  0.50823000  0.90393000  1.0 0.1298137258
H  H3  1  0.78385000  0.65211000  0.77034000  1.0 0.1396695325
H  H4  1  0.75361000  0.38165000  0.99001000  1.0 0.1298137258
H  H5  1  0.65968000  0.11806000  0.91371000  1.0 0.1195334412
H  H6  1  0.60779000  0.38744000  0.60308000  1.0 0.1298137258
H  H7  1  0.89123000  0.51187000  0.71915000  1.0 0.1195334412
H  H8  1  0.57895000  0.29411000  0.62153000  1.0 0.1003710913
H  H9  1  0.57049000  0.35336000  0.68217000  1.0 0.1195334412
H  H10  1  0.69426000  0.28509000  0.77266000  1.0 0.1704411692
H  H11  1  0.63474000  0.21226000  0.76947000  1.0 0.1396695325
H  H12  1  0.65575000  0.48027000  0.89810000  1.0 0.0930517686
H  H13  1  0.65683000  0.40285000  0.84832000  1.0 0.1195334412
H  H14  1  0.70708000  0.45443000  0.07007000  1.0 0.1195334412
H  H15  1  0.64547000  0.44014000  0.99229000  1.0 0.1099497038
H  H16  1  0.60507000  0.50466000  0.07777000  1.0 0.1298137258
H  H17  1  0.48382000  0.42843000  0.74104000  1.0 0.1704411692
H  H18  1  0.41910000  0.38764000  0.76151000  1.0 0.1298137258
H  H19  1  0.66899000  0.06883000  0.82591000  1.0 0.1003710913
H  H20  1  0.73622000  0.05545000  0.88881000  1.0 0.1099497038
H  H21  1  0.52464000  0.39059000  0.85731000  1.0 0.0930517686
H  H22  1  0.93972000  0.58063000  0.68423000  1.0 0.1099497038
H  H23  1  0.92034000  0.58313000  0.61167000  1.0 0.1099497038
H  H24  1  0.94366000  0.48351000  0.57768000  1.0 0.1099497038
H  H25  1  0.99309000  0.41715000  0.66778000  1.0 0.1646898078
H  H26  1  0.99597000  0.40165000  0.59466000  1.0 0.1499854119
H  H27  1  0.81546000  0.03328000  0.82700000  1.0 0.1195334412
H  H28  1  0.51340000  0.36292000  0.02049000  1.0 0.1781423575
H  H29  1  0.49555000  0.43864000  0.06117000  1.0 0.1499854119
H  H30  1  0.03485000  0.64363000  0.88039000  1.0 0.1298137258
H  H31  1  0.05620000  0.58134000  0.77149000  1.0 0.1298137258
H  H32  1  0.08756000  0.56990000  0.84484000  1.0 0.1396695325
H  H33  1  0.00767000  0.75535000  0.86540000  1.0 0.1195334412
H  H34  1  0.93441000  0.70075000  0.79218000  1.0 0.1099497038
H  H35  1  0.67367000  0.96437000  0.70625000  1.0 0.1396695325
H  H36  1  0.76712000  0.95699000  0.72309000  1.0 0.1396695325
H  H37  1  0.40229000  0.26588000  0.51387000  1.0 0.1195334412
H  H38  1  0.20261000  0.23981000  0.59244000  1.0 0.1298137258
H  H39  1  0.23895000  0.33406000  0.68923000  1.0 0.1099497038
H  H40  1  0.15864000  0.33660000  0.62664000  1.0 0.1099497038
H  H41  1  0.45926000  0.16179000  0.51487000  1.0 0.1099497038
H  H42  1  0.40255000  0.16394000  0.44197000  1.0 0.1099497038
H  H43  1  0.20792000  0.47353000  0.67353000  1.0 0.1195334412
H  H44  1  0.28624000  0.46841000  0.80281000  1.0 0.1298137258
H  H45  1  0.26357000  0.54088000  0.78338000  1.0 0.1499854119
H  H46  1  0.35331000  0.99895000  0.46602000  1.0 0.1704411692
H  H47  1  0.39021000  0.95038000  0.41828000  1.0 0.1499854119
H  H48  1  0.44720000  0.05602000  0.41156000  1.0 0.1099497038
H  H49  1  0.16858000  0.84787000  0.67988000  1.0 0.1298137258
H  H50  1  0.44506000  0.99213000  0.81453000  1.0 0.1298137258
H  H51  1  0.49792000  0.00863000  0.75544000  1.0 0.0930517686
H  H52  1  0.48660000  0.09146000  0.78171000  1.0 0.1195334412
H  H53  1  0.18661000  0.71116000  0.77081000  1.0 0.1298137258
H  H54  1  0.20473000  0.72446000  0.71132000  1.0 0.1099497038
H  H55  1  0.05355000  0.72602000  0.66372000  1.0 0.1003710913
H  H56  1  0.14650000  0.82455000  0.80609000  1.0 0.1981757047
H  H57  1  0.05165000  0.82368000  0.75961000  1.0 0.1298137258
H  H58  1  0.38198000  0.05302000  0.61076000  1.0 0.1781423575
H  H59  1  0.46031000  0.07766000  0.59688000  1.0 0.1298137258
H  H60  1  0.54835000  0.07734000  0.69827000  1.0 0.1003710913
H  H61  1  0.17325000  0.11293000  0.67630000  1.0 0.1298137258
H  H62  1  0.15725000  0.99023000  0.82326000  1.0 0.1298137258
H  H63  1  0.27961000  0.21429000  0.72925000  1.0 0.1003710913
H  H64  1  0.29611000  0.13878000  0.69060000  1.0 0.1195334412
H  H65  1  0.42620000  0.23993000  0.73472000  1.0 0.1003710913
H  H66  1  0.44536000  0.22115000  0.85927000  1.0 0.1781423575
H  H67  1  0.51960000  0.26363000  0.84901000  1.0 0.1298137258
H  H68  1  0.91295000  0.88486000  0.78614000  1.0 0.1003710913
H  H69  1  0.05854000  0.98695000  0.81246000  1.0 0.1396695325
H  H70  1  0.03583000  0.97647000  0.87223000  1.0 0.1499854119
H  H71  1  0.94023000  0.84558000  0.68019000  1.0 0.1099497038
H  H72  1  0.89181000  0.90932000  0.67614000  1.0 0.1195334412
H  H73  1  0.47490000  0.78237000  0.32777000  1.0 0.1003710913
H  H74  1  0.22373000  0.49177000  0.09607000  1.0 0.1298137258
H  H75  1  0.21615000  0.34789000  0.22966000  1.0 0.1396695325
H  H76  1  0.24639000  0.61835000  0.00999000  1.0 0.1298137258
H  H77  1  0.34032000  0.88194000  0.08629000  1.0 0.1195334412
H  H78  1  0.39221000  0.61256000  0.39692000  1.0 0.1298137258
H  H79  1  0.10877000  0.48813000  0.28085000  1.0 0.1195334412
H  H80  1  0.42105000  0.70589000  0.37847000  1.0 0.0930517686
H  H81  1  0.42951000  0.64664000  0.31783000  1.0 0.1195334412
H  H82  1  0.30574000  0.71491000  0.22734000  1.0 0.1704411692
H  H83  1  0.36526000  0.78774000  0.23053000  1.0 0.1396695325
H  H84  1  0.34425000  0.51973000  0.10190000  1.0 0.0930517686
H  H85  1  0.34317000  0.59715000  0.15168000  1.0 0.1195334412
H  H86  1  0.29292000  0.54557000  0.92993000  1.0 0.1195334412
H  H87  1  0.35453000  0.55986000  0.00771000  1.0 0.1099497038
H  H88  1  0.39493000  0.49534000  0.92223000  1.0 0.1298137258
H  H89  1  0.51618000  0.57157000  0.25896000  1.0 0.1704411692
H  H90  1  0.58090000  0.61236000  0.23849000  1.0 0.1298137258
H  H91  1  0.33101000  0.93117000  0.17409000  1.0 0.1003710913
H  H92  1  0.26378000  0.94455000  0.11119000  1.0 0.1099497038
H  H93  1  0.47536000  0.60941000  0.14269000  1.0 0.0930517686
H  H94  1  0.06028000  0.41937000  0.31577000  1.0 0.1099497038
H  H95  1  0.07966000  0.41687000  0.38833000  1.0 0.1099497038
H  H96  1  0.05634000  0.51649000  0.42232000  1.0 0.1099497038
H  H97  1  0.00691000  0.58285000  0.33222000  1.0 0.1646898078
H  H98  1  0.00403000  0.59835000  0.40534000  1.0 0.1499854119
H  H99  1  0.18454000  0.96672000  0.17300000  1.0 0.1195334412
H  H100  1  0.48660000  0.63708000  0.97951000  1.0 0.1781423575
H  H101  1  0.50445000  0.56136000  0.93883000  1.0 0.1499854119
H  H102  1  0.96515000  0.35637000  0.11961000  1.0 0.1298137258
H  H103  1  0.94380000  0.41866000  0.22851000  1.0 0.1298137258
H  H104  1  0.91244000  0.43010000  0.15516000  1.0 0.1396695325
H  H105  1  0.99233000  0.24465000  0.13460000  1.0 0.1195334412
H  H106  1  0.06559000  0.29925000  0.20782000  1.0 0.1099497038
H  H107  1  0.32633000  0.03563000  0.29375000  1.0 0.1396695325
H  H108  1  0.23288000  0.04301000  0.27691000  1.0 0.1396695325
H  H109  1  0.59771000  0.73412000  0.48613000  1.0 0.1195334412
H  H110  1  0.79739000  0.76019000  0.40756000  1.0 0.1298137258
H  H111  1  0.76105000  0.66594000  0.31077000  1.0 0.1099497038
H  H112  1  0.84136000  0.66340000  0.37336000  1.0 0.1099497038
H  H113  1  0.54074000  0.83821000  0.48513000  1.0 0.1099497038
H  H114  1  0.59745000  0.83606000  0.55803000  1.0 0.1099497038
H  H115  1  0.79208000  0.52647000  0.32647000  1.0 0.1195334412
H  H116  1  0.71376000  0.53159000  0.19719000  1.0 0.1298137258
H  H117  1  0.73643000  0.45912000  0.21662000  1.0 0.1499854119
H  H118  1  0.64669000  0.00105000  0.53398000  1.0 0.1704411692
H  H119  1  0.60979000  0.04962000  0.58172000  1.0 0.1499854119
H  H120  1  0.55280000  0.94398000  0.58844000  1.0 0.1099497038
H  H121  1  0.83142000  0.15213000  0.32012000  1.0 0.1298137258
H  H122  1  0.55494000  0.00787000  0.18547000  1.0 0.1298137258
H  H123  1  0.50208000  0.99137000  0.24456000  1.0 0.0930517686
H  H124  1  0.51340000  0.90854000  0.21829000  1.0 0.1195334412
H  H125  1  0.81339000  0.28884000  0.22919000  1.0 0.1195334412
H  H126  1  0.79527000  0.27554000  0.28868000  1.0 0.1099497038
H  H127  1  0.94645000  0.27398000  0.33628000  1.0 0.1003710913
H  H128  1  0.85350000  0.17545000  0.19391000  1.0 0.1981757047
H  H129  1  0.94835000  0.17632000  0.24039000  1.0 0.1298137258
H  H130  1  0.61802000  0.94698000  0.38924000  1.0 0.1781423575
H  H131  1  0.53969000  0.92234000  0.40312000  1.0 0.1298137258
H  H132  1  0.45165000  0.92266000  0.30173000  1.0 0.1003710913
H  H133  1  0.82675000  0.88707000  0.32370000  1.0 0.1298137258
H  H134  1  0.84275000  0.00977000  0.17674000  1.0 0.1298137258
H  H135  1  0.72039000  0.78571000  0.27075000  1.0 0.1003710913
H  H136  1  0.70389000  0.86122000  0.30940000  1.0 0.1195334412
H  H137  1  0.57380000  0.76007000  0.26528000  1.0 0.1003710913
H  H138  1  0.55464000  0.77885000  0.14073000  1.0 0.1781423575
H  H139  1  0.48040000  0.73637000  0.15099000  1.0 0.1298137258
H  H140  1  0.08705000  0.11514000  0.21386000  1.0 0.1003710913
H  H141  1  0.94146000  0.01305000  0.18754000  1.0 0.1396695325
H  H142  1  0.96417000  0.02353000  0.12777000  1.0 0.1499854119
H  H143  1  0.05977000  0.15442000  0.31981000  1.0 0.1099497038
H  H144  1  0.10819000  0.09068000  0.32386000  1.0 0.1195334412
C  C1  1  0.57800000  0.25200000  0.69500000  1.0 -0.0828460412
C  C2  1  0.58100000  0.17200000  0.97580000  1.0 0.5815395252
C  C3  1  0.64630000  0.47510000  0.54230000  1.0 0.6011471735
C  C4  1  0.83300000  0.32800000  0.92400000  1.0 0.561403452
C  C5  1  0.91900000  0.59080000  0.95200000  1.0 0.561403452
C  C6  1  0.70540000  0.52960000  0.81920000  1.0 0.2288277434
C  C7  1  0.77780000  0.53710000  0.87720000  1.0 -0.1969211711
C  C8  1  0.85240000  0.58760000  0.89510000  1.0 -0.1821327781
C  C9  1  0.85470000  0.63070000  0.85510000  1.0 0.2630325841
C  C10  1  0.78230000  0.62330000  0.79710000  1.0 -0.2064847984
C  C11  1  0.70770000  0.57270000  0.77910000  1.0 -0.111261312
C  C12  1  0.63300000  0.56390000  0.71720000  1.0 0.5815395252
C  C13  1  0.86000000  0.43100000  0.78000000  1.0 0.5440492319
C  C14  1  0.73480000  0.32880000  0.97470000  1.0 -0.2566827847
C  C15  1  0.76880000  0.28220000  0.93860000  1.0 -0.0699640557
C  C16  1  0.74060000  0.20330000  0.91570000  1.0 0.2066200511
C  C17  1  0.67850000  0.17090000  0.92900000  1.0 -0.25029155
C  C18  1  0.64450000  0.21750000  0.96510000  1.0 -0.0907167843
C  C19  1  0.67270000  0.29640000  0.98800000  1.0 0.2196596401
C  C20  1  0.71660000  0.40100000  0.68560000  1.0 0.2394916998
C  C21  1  0.66460000  0.41240000  0.62630000  1.0 -0.2310005738
C  C22  1  0.69750000  0.46100000  0.60190000  1.0 -0.1386335431
C  C23  1  0.78250000  0.49830000  0.63660000  1.0 0.2519546088
C  C24  1  0.83440000  0.48690000  0.69590000  1.0 -0.1969211711
C  C25  1  0.80150000  0.43830000  0.72040000  1.0 -0.1226312842
C  C26  1  0.59800000  0.31400000  0.67100000  1.0 -0.0073883102
C  C27  1  0.64300000  0.25000000  0.75200000  1.0 -0.34363337
C  C28  1  0.62800000  0.44300000  0.85100000  1.0 -0.0390218323
C  C29  1  0.65100000  0.42900000  0.03300000  1.0 -0.1226312842
C  C30  1  0.59300000  0.45300000  0.05300000  1.0 -0.0828460412
C  C31  1  0.47400000  0.40900000  0.77100000  1.0 -0.3456792994
C  C32  1  0.72800000  0.07400000  0.85100000  1.0 -0.0592340468
C  C33  1  0.53800000  0.41100000  0.82900000  1.0 -0.0699640557
C  C34  1  0.90700000  0.55100000  0.63500000  1.0 -0.0699640557
C  C35  1  0.94600000  0.48600000  0.62000000  1.0 -0.0497680053
C  C36  1  0.98200000  0.42900000  0.62800000  1.0 -0.3895724608
C  C37  1  0.75800000  0.02600000  0.80300000  1.0 -0.0497680053
C  C38  1  0.53000000  0.41500000  0.04400000  1.0 -0.2830662741
C  C39  1  0.02100000  0.64500000  0.83600000  1.0 -0.111261312
C  C40  1  0.05900000  0.59300000  0.81500000  1.0 -0.381206402
C  C41  1  0.97100000  0.70400000  0.83900000  1.0 -0.0390218323
C  C42  1  0.73000000  0.97800000  0.73700000  1.0 -0.381206402
C  C43  1  0.20500000  0.09800000  0.51900000  1.0 0.5914495276
C  C44  1  0.36230000  0.26070000  0.52960000  1.0 -0.2401406778
C  C45  1  0.34820000  0.32520000  0.56740000  1.0 -0.1226312842
C  C46  1  0.28840000  0.31740000  0.59090000  1.0 0.2196596401
C  C47  1  0.24260000  0.24500000  0.57670000  1.0 -0.25029155
C  C48  1  0.25670000  0.18050000  0.53900000  1.0 -0.0592340468
C  C49  1  0.31650000  0.18830000  0.51540000  1.0 0.1981757047
C  C50  1  0.21700000  0.36300000  0.66000000  1.0 -0.0497680053
C  C51  1  0.40900000  0.13400000  0.47100000  1.0 -0.0497680053
C  C52  1  0.39020000  0.40080000  0.57510000  1.0 0.6011471735
C  C53  1  0.22900000  0.44600000  0.70200000  1.0 -0.0699640557
C  C54  1  0.26300000  0.49000000  0.77000000  1.0 -0.3895724608
C  C55  1  0.38400000  0.99700000  0.44100000  1.0 -0.2977399094
C  C56  1  0.41700000  0.05900000  0.43700000  1.0 -0.0907167843
C  C57  1  0.35460000  0.91420000  0.81060000  1.0 -0.15860096
C  C58  1  0.27180000  0.87100000  0.77020000  1.0 0.2519546088
C  C59  1  0.22400000  0.87680000  0.70690000  1.0 -0.2064847984
C  C60  1  0.25900000  0.92580000  0.68380000  1.0 -0.0995975433
C  C61  1  0.34190000  0.96900000  0.72420000  1.0 0.2394916998
C  C62  1  0.38960000  0.96320000  0.78750000  1.0 -0.2190394266
C  C63  1  0.40400000  0.91100000  0.87300000  1.0 0.567665814
C  C64  1  0.20340000  0.93220000  0.61600000  1.0 0.5914495276
C  C65  1  0.47100000  0.04600000  0.74100000  1.0 -0.0390218323
C  C66  1  0.18400000  0.74400000  0.74500000  1.0 -0.0699640557
C  C67  1  0.09600000  0.75100000  0.70900000  1.0 -0.0592340468
C  C68  1  0.09800000  0.80500000  0.76400000  1.0 -0.4244459732
C  C69  1  0.43900000  0.06500000  0.62500000  1.0 -0.3561501069
C  C70  1  0.49200000  0.06500000  0.68700000  1.0 -0.0699640557
C  C71  1  0.09520000  0.03810000  0.68780000  1.0 -0.1691314293
C  C72  1  0.17000000  0.08830000  0.70580000  1.0 -0.2190394266
C  C73  1  0.24010000  0.10180000  0.76770000  1.0 0.2196596401
C  C74  1  0.23530000  0.06500000  0.81180000  1.0 -0.0995975433
C  C75  1  0.16050000  0.01480000  0.79380000  1.0 -0.1969211711
C  C76  1  0.09040000  0.00140000  0.73180000  1.0 0.2519546088
C  C77  1  0.03000000  0.02440000  0.62680000  1.0 0.5535413908
C  C78  1  0.30400000  0.07500000  0.88030000  1.0 0.5914495276
C  C79  1  0.31500000  0.18000000  0.73500000  1.0 -0.0187256834
C  C80  1  0.40800000  0.22400000  0.76300000  1.0 -0.0497680053
C  C81  1  0.46400000  0.23800000  0.83100000  1.0 -0.3895724608
C  C82  1  0.95200000  0.91100000  0.77700000  1.0 -0.0497680053
C  C83  1  0.02300000  0.96300000  0.82500000  1.0 -0.34363337
C  C84  1  0.94200000  0.89800000  0.70400000  1.0 -0.0592340468
C  C85  1  0.42200000  0.74800000  0.30500000  1.0 -0.0828460412
C  C86  1  0.41900000  0.82800000  0.02420000  1.0 0.5815395252
C  C87  1  0.35370000  0.52490000  0.45770000  1.0 0.6011471735
C  C88  1  0.16700000  0.67200000  0.07600000  1.0 0.561403452
C  C89  1  0.08100000  0.40920000  0.04800000  1.0 0.561403452
C  C90  1  0.29460000  0.47040000  0.18080000  1.0 0.2288277434
C  C91  1  0.22220000  0.46290000  0.12280000  1.0 -0.1969211711
C  C92  1  0.14760000  0.41240000  0.10490000  1.0 -0.1821327781
C  C93  1  0.14530000  0.36930000  0.14490000  1.0 0.2630325841
C  C94  1  0.21770000  0.37670000  0.20290000  1.0 -0.2064847984
C  C95  1  0.29230000  0.42730000  0.22090000  1.0 -0.111261312
C  C96  1  0.36700000  0.43610000  0.28280000  1.0 0.5815395252
C  C97  1  0.14000000  0.56900000  0.22000000  1.0 0.5440492319
C  C98  1  0.26520000  0.67120000  0.02530000  1.0 -0.2566827847
C  C99  1  0.23120000  0.71780000  0.06140000  1.0 -0.0699640557
C  C100  1  0.25940000  0.79670000  0.08430000  1.0 0.2066200511
C  C101  1  0.32150000  0.82910000  0.07100000  1.0 -0.25029155
C  C102  1  0.35550000  0.78250000  0.03490000  1.0 -0.0907167843
C  C103  1  0.32730000  0.70360000  0.01200000  1.0 0.2196596401
C  C104  1  0.28340000  0.59900000  0.31440000  1.0 0.2394916998
C  C105  1  0.33540000  0.58760000  0.37370000  1.0 -0.2310005738
C  C106  1  0.30250000  0.53900000  0.39810000  1.0 -0.1386335431
C  C107  1  0.21750000  0.50170000  0.36340000  1.0 0.2519546088
C  C108  1  0.16560000  0.51310000  0.30410000  1.0 -0.1969211711
C  C109  1  0.19850000  0.56170000  0.27960000  1.0 -0.1226312842
C  C110  1  0.40200000  0.68600000  0.32900000  1.0 -0.0073883102
C  C111  1  0.35700000  0.75000000  0.24800000  1.0 -0.3456792994
C  C112  1  0.37200000  0.55700000  0.14900000  1.0 -0.0390218323
C  C113  1  0.34900000  0.57100000  0.96700000  1.0 -0.1226312842
C  C114  1  0.40700000  0.54700000  0.94700000  1.0 -0.0828460412
C  C115  1  0.52600000  0.59100000  0.22900000  1.0 -0.3456792994
C  C116  1  0.27200000  0.92600000  0.14900000  1.0 -0.0592340468
C  C117  1  0.46200000  0.58900000  0.17100000  1.0 -0.0699640557
C  C118  1  0.09300000  0.44900000  0.36500000  1.0 -0.0699640557
C  C119  1  0.05400000  0.51400000  0.38000000  1.0 -0.0497680053
C  C120  1  0.01800000  0.57100000  0.37200000  1.0 -0.396726252
C  C121  1  0.24200000  0.97400000  0.19700000  1.0 -0.0497680053
C  C122  1  0.47000000  0.58500000  0.95600000  1.0 -0.2830662741
C  C123  1  0.97900000  0.35500000  0.16400000  1.0 -0.0995975433
C  C124  1  0.94100000  0.40700000  0.18500000  1.0 -0.381206402
C  C125  1  0.02900000  0.29600000  0.16100000  1.0 -0.0390218323
C  C126  1  0.27000000  0.02200000  0.26300000  1.0 -0.381206402
C  C127  1  0.79500000  0.90200000  0.48100000  1.0 0.5914495276
C  C128  1  0.63770000  0.73930000  0.47040000  1.0 -0.2401406778
C  C129  1  0.65180000  0.67480000  0.43260000  1.0 -0.1226312842
C  C130  1  0.71160000  0.68260000  0.40910000  1.0 0.2196596401
C  C131  1  0.75740000  0.75500000  0.42330000  1.0 -0.25029155
C  C132  1  0.74330000  0.81950000  0.46100000  1.0 -0.0592340468
C  C133  1  0.68350000  0.81170000  0.48460000  1.0 0.1981757047
C  C134  1  0.78300000  0.63700000  0.34000000  1.0 -0.0497680053
C  C135  1  0.59100000  0.86600000  0.52900000  1.0 -0.0497680053
C  C136  1  0.60980000  0.59920000  0.42490000  1.0 0.6011471735
C  C137  1  0.77100000  0.55400000  0.29800000  1.0 -0.0699640557
C  C138  1  0.73700000  0.51000000  0.23000000  1.0 -0.3895724608
C  C139  1  0.61600000  0.00300000  0.55900000  1.0 -0.2977399094
C  C140  1  0.58300000  0.94100000  0.56300000  1.0 -0.0907167843
C  C141  1  0.64540000  0.08580000  0.18940000  1.0 -0.15860096
C  C142  1  0.72820000  0.12900000  0.22980000  1.0 0.2519546088
C  C143  1  0.77600000  0.12320000  0.29310000  1.0 -0.2064847984
C  C144  1  0.74100000  0.07420000  0.31620000  1.0 -0.0995975433
C  C145  1  0.65810000  0.03100000  0.27580000  1.0 0.2394916998
C  C146  1  0.61040000  0.03680000  0.21250000  1.0 -0.2190394266
C  C147  1  0.59600000  0.08900000  0.12700000  1.0 0.567665814
C  C148  1  0.79660000  0.06780000  0.38400000  1.0 0.5914495276
C  C149  1  0.52900000  0.95400000  0.25900000  1.0 -0.0390218323
C  C150  1  0.81600000  0.25600000  0.25500000  1.0 -0.0699640557
C  C151  1  0.90400000  0.24900000  0.29100000  1.0 -0.0592340468
C  C152  1  0.90200000  0.19500000  0.23600000  1.0 -0.4244459732
C  C153  1  0.56100000  0.93500000  0.37500000  1.0 -0.3561501069
C  C154  1  0.50800000  0.93500000  0.31300000  1.0 -0.0699640557
C  C155  1  0.90480000  0.96190000  0.31220000  1.0 -0.1691314293
C  C156  1  0.83000000  0.91170000  0.29420000  1.0 -0.2190394266
C  C157  1  0.75990000  0.89820000  0.23230000  1.0 0.2196596401
C  C158  1  0.76470000  0.93500000  0.18820000  1.0 -0.0995975433
C  C159  1  0.83950000  0.98520000  0.20620000  1.0 -0.1969211711
C  C160  1  0.90960000  0.99860000  0.26820000  1.0 0.2519546088
C  C161  1  0.97000000  0.97560000  0.37320000  1.0 0.5535413908
C  C162  1  0.69600000  0.92500000  0.11970000  1.0 0.5914495276
C  C163  1  0.68500000  0.82000000  0.26500000  1.0 -0.0187256834
C  C164  1  0.59200000  0.77600000  0.23700000  1.0 -0.0497680053
C  C165  1  0.53600000  0.76200000  0.16900000  1.0 -0.3895724608
C  C166  1  0.04800000  0.08900000  0.22300000  1.0 -0.0497680053
C  C167  1  0.97700000  0.03700000  0.17500000  1.0 -0.3456792994
C  C168  1  0.05800000  0.10200000  0.29600000  1.0 -0.0592340468
O  O1  1  0.56470000  0.51380000  0.69400000  1.0 -0.5875703408
O  O2  1  0.54020000  0.21220000  0.01190000  1.0 -0.7233869943
O  O3  1  0.82860000  0.38100000  0.81070000  1.0 -0.7233869943
O  O4  1  0.56090000  0.10330000  0.95670000  1.0 -0.5454973889
O  O5  1  0.58070000  0.50220000  0.54260000  1.0 -0.7795403613
O  O6  1  0.95440000  0.64890000  0.00710000  1.0 -0.5454973889
O  O7  1  0.93530000  0.45080000  0.81150000  1.0 -0.5133711411
O  O8  1  0.86830000  0.28390000  0.89060000  1.0 -0.6398487402
O  O9  1  0.62640000  0.61000000  0.68700000  1.0 -0.5793014629
O  O10  1  0.95920000  0.53760000  0.95720000  1.0 -0.7324760271
O  O11  1  0.65250000  0.46040000  0.48950000  1.0 -0.4995981617
O  O12  1  0.85700000  0.39580000  0.95490000  1.0 -0.5306359543
O  O13  1  0.68470000  0.34570000  0.70570000  1.0 -0.15860096
O  O14  1  0.62940000  0.47930000  0.80170000  1.0 -0.2064847984
O  O15  1  0.92280000  0.68350000  0.87250000  1.0 -0.1283392212
O  O16  1  0.62990000  0.33940000  0.01550000  1.0 -0.1537160961
O  O17  1  0.77600000  0.15700000  0.88100000  1.0 -0.15860096
O  O18  1  0.82100000  0.54980000  0.62100000  1.0 -0.1386335431
O  O19  1  0.15030000  0.10390000  0.54390000  1.0 -0.6773583008
O  O20  1  0.21540000  0.03610000  0.48130000  1.0 -0.6497872932
O  O21  1  0.44140000  0.39880000  0.54900000  1.0 -0.6286926879
O  O22  1  0.34060000  0.12670000  0.48480000  1.0 -0.1537160961
O  O23  1  0.26800000  0.37920000  0.62700000  1.0 -0.1691314293
O  O24  1  0.38120000  0.46480000  0.60940000  1.0 -0.6286926879
O  O25  1  0.13450000  0.88340000  0.57340000  1.0 -0.6286926879
O  O26  1  0.23290000  0.98190000  0.59740000  1.0 -0.6286926879
O  O27  1  0.42870000  0.96470000  0.93320000  1.0 -0.7233869943
O  O28  1  0.37880000  0.01440000  0.70270000  1.0 -0.1283392212
O  O29  1  0.41680000  0.84810000  0.88150000  1.0 -0.5793014629
O  O30  1  0.23370000  0.82180000  0.79150000  1.0 -0.1821327781
O  O31  1  0.30010000  0.05260000  0.92770000  1.0 -0.6497872932
O  O32  1  0.31450000  0.15110000  0.78580000  1.0 -0.1537160961
O  O33  1  0.38020000  0.11820000  0.89620000  1.0 -0.6964440657
O  O34  1  0.02690000  0.99620000  0.56730000  1.0 -0.6719240262
O  O35  1  0.95670000  0.02980000  0.61920000  1.0 -0.5552968098
O  O36  1  0.01630000  0.95070000  0.71610000  1.0 -0.1969211711
O  O37  1  0.43530000  0.48620000  0.30600000  1.0 -0.5875703408
O  O38  1  0.45980000  0.78780000  0.98810000  1.0 -0.7233869943
O  O39  1  0.17140000  0.61900000  0.18930000  1.0 -0.7233869943
O  O40  1  0.43910000  0.89670000  0.04330000  1.0 -0.5442866994
O  O41  1  0.41930000  0.49780000  0.45740000  1.0 -0.7795403613
O  O42  1  0.04560000  0.35110000  0.99290000  1.0 -0.5454973889
O  O43  1  0.06470000  0.54920000  0.18850000  1.0 -0.5133711411
O  O44  1  0.13170000  0.71610000  0.10940000  1.0 -0.6398487402
O  O45  1  0.37360000  0.39000000  0.31300000  1.0 -0.5793014629
O  O46  1  0.04080000  0.46240000  0.04280000  1.0 -0.7324760271
O  O47  1  0.34750000  0.53960000  0.51050000  1.0 -0.4995981617
O  O48  1  0.14300000  0.60420000  0.04510000  1.0 -0.5306359543
O  O49  1  0.31530000  0.65430000  0.29430000  1.0 -0.15860096
O  O50  1  0.37060000  0.52070000  0.19830000  1.0 -0.2064847984
O  O51  1  0.07720000  0.31650000  0.12750000  1.0 -0.1283392212
O  O52  1  0.37010000  0.66060000  0.98450000  1.0 -0.1537160961
O  O53  1  0.22400000  0.84300000  0.11900000  1.0 -0.15860096
O  O54  1  0.17900000  0.45020000  0.37900000  1.0 -0.1386335431
O  O55  1  0.84970000  0.89610000  0.45610000  1.0 -0.6773583008
O  O56  1  0.78460000  0.96390000  0.51870000  1.0 -0.6497872932
O  O57  1  0.55860000  0.60120000  0.45100000  1.0 -0.6286926879
O  O58  1  0.65940000  0.87330000  0.51520000  1.0 -0.1537160961
O  O59  1  0.73200000  0.62080000  0.37300000  1.0 -0.1691314293
O  O60  1  0.61880000  0.53520000  0.39060000  1.0 -0.6286926879
O  O61  1  0.86550000  0.11660000  0.42660000  1.0 -0.6286926879
O  O62  1  0.76710000  0.01810000  0.40260000  1.0 -0.6286926879
O  O63  1  0.57130000  0.03530000  0.06680000  1.0 -0.7233869943
O  O64  1  0.62120000  0.98560000  0.29730000  1.0 -0.1283392212
O  O65  1  0.58320000  0.15190000  0.11850000  1.0 -0.5793014629
O  O66  1  0.76630000  0.17820000  0.20850000  1.0 -0.1821327781
O  O67  1  0.69990000  0.94740000  0.07230000  1.0 -0.6497872932
O  O68  1  0.68550000  0.84890000  0.21420000  1.0 -0.1537160961
O  O69  1  0.61980000  0.88180000  0.10380000  1.0 -0.6964440657
O  O70  1  0.97310000  0.00380000  0.43270000  1.0 -0.6719240262
O  O71  1  0.04330000  0.97020000  0.38080000  1.0 -0.5552968098
O  O72  1  0.98370000  0.04930000  0.28390000  1.0 -0.1969211711
