# DDEC6 charges by PACMAN v1.1 (https://github.com/mtap-research/PACMAN-charge/)
data_FOCZEE_ASR_pacman
_symmetry_space_group_name_H-M   'P 1'
_cell_length_a   9.68120000
_cell_length_b   12.28920000
_cell_length_c   15.74060000
_cell_angle_alpha   88.97700000
_cell_angle_beta   102.53700000
_cell_angle_gamma   110.25000000
_symmetry_Int_Tables_number   1
_chemical_formula_structural   NdH39(C25O4)2
_chemical_formula_sum   'Nd2 H78 C100 O16'
_cell_volume   1711.72381500
_cell_formula_units_Z   2
loop_
 _symmetry_equiv_pos_site_id
 _symmetry_equiv_pos_as_xyz
  1  'x, y, z'
loop_
 _atom_site_type_symbol
 _atom_site_label
 _atom_site_symmetry_multiplicity
 _atom_site_fract_x
 _atom_site_fract_y
 _atom_site_fract_z
 _atom_site_occupancy
 _atom_site_charge
Nd  Nd1  1  0.29837000  0.02684000  0.48431000  1.0 2.1726989154
Nd  Nd2  1  0.70163000  0.97316000  0.51569000  1.0 2.1726989154
H  H1  1  0.98610000  0.18700000  0.44230000  1.0 0.3763073984
H  H2  1  0.01390000  0.81300000  0.55770000  1.0 0.3763073984
H  H3  1  0.32030000  0.70600000  0.97420000  1.0 0.138865054
H  H4  1  0.67970000  0.29400000  0.02580000  1.0 0.138865054
H  H5  1  0.18000000  0.30840000  0.98890000  1.0 0.1295069584
H  H6  1  0.82000000  0.69160000  0.01110000  1.0 0.1295069584
H  H7  1  0.08830000  0.49260000  0.18200000  1.0 0.1210144234
H  H8  1  0.91170000  0.50740000  0.81800000  1.0 0.1210144234
H  H9  1  0.03800000  0.39260000  0.30500000  1.0 0.1089845849
H  H10  1  0.96200000  0.60740000  0.69500000  1.0 0.1089845849
H  H11  1  0.25510000  0.17980000  0.25380000  1.0 0.1295069584
H  H12  1  0.74490000  0.82020000  0.74620000  1.0 0.1295069584
H  H13  1  0.30030000  0.27820000  0.12850000  1.0 0.1210144234
H  H14  1  0.69970000  0.72180000  0.87150000  1.0 0.1210144234
H  H15  1  0.46270000  0.62280000  0.21350000  1.0 0.1295069584
H  H16  1  0.53730000  0.37720000  0.78650000  1.0 0.1295069584
H  H17  1  0.50780000  0.76270000  0.32340000  1.0 0.1210144234
H  H18  1  0.49220000  0.23730000  0.67660000  1.0 0.1210144234
H  H19  1  0.16490000  0.85520000  0.18700000  1.0 0.138865054
H  H20  1  0.83510000  0.14480000  0.81300000  1.0 0.138865054
H  H21  1  0.13480000  0.72710000  0.07050000  1.0 0.138865054
H  H22  1  0.86520000  0.27290000  0.92950000  1.0 0.138865054
H  H23  1  0.20830000  0.74100000  0.83950000  1.0 0.1210144234
H  H24  1  0.79170000  0.25900000  0.16050000  1.0 0.1210144234
H  H25  1  0.25250000  0.84160000  0.71730000  1.0 0.1295069584
H  H26  1  0.74750000  0.15840000  0.28270000  1.0 0.1295069584
H  H27  1  0.47040000  0.63540000  0.66040000  1.0 0.1295069584
H  H28  1  0.52960000  0.36460000  0.33960000  1.0 0.1295069584
H  H29  1  0.41310000  0.52660000  0.77900000  1.0 0.1210144234
H  H30  1  0.58690000  0.47340000  0.22100000  1.0 0.1210144234
H  H31  1  0.04540000  0.42290000  0.74830000  1.0 0.1089845849
H  H32  1  0.95460000  0.57710000  0.25170000  1.0 0.1089845849
H  H33  1  0.97810000  0.28950000  0.62910000  1.0 0.1210144234
H  H34  1  0.02190000  0.71050000  0.37090000  1.0 0.1210144234
H  H35  1  0.26090000  0.13430000  0.76100000  1.0 0.1295069584
H  H36  1  0.73910000  0.86570000  0.23900000  1.0 0.1295069584
H  H37  1  0.30950000  0.25610000  0.88370000  1.0 0.138865054
H  H38  1  0.69050000  0.74390000  0.11630000  1.0 0.138865054
H  H39  1  0.21890000  0.04460000  0.12710000  1.0 0.0702941268
H  H40  1  0.78110000  0.95540000  0.87290000  1.0 0.0702941268
H  H41  1  0.31670000  0.98590000  0.90060000  1.0 0.0702941268
H  H42  1  0.68330000  0.01410000  0.09940000  1.0 0.0702941268
H  H43  1  0.06890000  0.95570000  0.82890000  1.0 0.0702941268
H  H44  1  0.93110000  0.04430000  0.17110000  1.0 0.0702941268
H  H45  1  0.89620000  0.96970000  0.90560000  1.0 0.0702941268
H  H46  1  0.10380000  0.03030000  0.09440000  1.0 0.0702941268
H  H47  1  0.50080000  0.11340000  0.09800000  1.0 0.097704329
H  H48  1  0.49920000  0.88660000  0.90200000  1.0 0.097704329
H  H49  1  0.45440000  0.98030000  0.11310000  1.0 0.0894505325
H  H50  1  0.54560000  0.01970000  0.88690000  1.0 0.0894505325
H  H51  1  0.51210000  0.02790000  0.02940000  1.0 0.0792501007
H  H52  1  0.48790000  0.97210000  0.97060000  1.0 0.0792501007
H  H53  1  0.91700000  0.96260000  0.11920000  1.0 0.0894505325
H  H54  1  0.08300000  0.03740000  0.88080000  1.0 0.0894505325
H  H55  1  0.96170000  0.09530000  0.10280000  1.0 0.0894505325
H  H56  1  0.03830000  0.90470000  0.89720000  1.0 0.0894505325
H  H57  1  0.83040000  0.00350000  0.03620000  1.0 0.0792501007
H  H58  1  0.16960000  0.99650000  0.96380000  1.0 0.0792501007
H  H59  1  0.26200000  0.95310000  0.86090000  1.0 0.060529916
H  H60  1  0.73800000  0.04690000  0.13910000  1.0 0.060529916
H  H61  1  0.59470000  0.05040000  0.07770000  1.0 0.0702941268
H  H62  1  0.40530000  0.94960000  0.92230000  1.0 0.0702941268
H  H63  1  0.17950000  0.04700000  0.08270000  1.0 0.0702941268
H  H64  1  0.82050000  0.95300000  0.91730000  1.0 0.0702941268
H  H65  1  0.42830000  0.08040000  0.15290000  1.0 0.0792501007
H  H66  1  0.57170000  0.91960000  0.84710000  1.0 0.0792501007
H  H67  1  0.51680000  0.90080000  0.88790000  1.0 0.1089845849
H  H68  1  0.48320000  0.09920000  0.11210000  1.0 0.1089845849
H  H69  1  0.56100000  0.03060000  0.86290000  1.0 0.097704329
H  H70  1  0.43900000  0.96940000  0.13710000  1.0 0.097704329
H  H71  1  0.65200000  0.99780000  0.94840000  1.0 0.0894505325
H  H72  1  0.34800000  0.00220000  0.05160000  1.0 0.0894505325
H  H73  1  0.02820000  0.02310000  0.86990000  1.0 0.0894505325
H  H74  1  0.97180000  0.97690000  0.13010000  1.0 0.0894505325
H  H75  1  0.98370000  0.89400000  0.89620000  1.0 0.0792501007
H  H76  1  0.01630000  0.10600000  0.10380000  1.0 0.0792501007
H  H77  1  0.97820000  0.99040000  0.95800000  1.0 0.0792501007
H  H78  1  0.02180000  0.00960000  0.04200000  1.0 0.0792501007
C  C1  1  0.22940000  0.45630000  0.06180000  1.0 0.060529916
C  C2  1  0.77060000  0.54370000  0.93820000  1.0 0.060529916
C  C3  1  0.26950000  0.57740000  0.05620000  1.0 0.060529916
C  C4  1  0.73050000  0.42260000  0.94380000  1.0 0.060529916
C  C5  1  0.29040000  0.62400000  0.97690000  1.0 -0.2605210092
C  C6  1  0.70960000  0.37600000  0.02310000  1.0 -0.2605210092
C  C7  1  0.27020000  0.55770000  0.90090000  1.0 0.0515350926
C  C8  1  0.72980000  0.44230000  0.09910000  1.0 0.0515350926
C  C9  1  0.22500000  0.43660000  0.90490000  1.0 0.0515350926
C  C10  1  0.77500000  0.56340000  0.09510000  1.0 0.0515350926
C  C11  1  0.20800000  0.39030000  0.98580000  1.0 -0.2605210092
C  C12  1  0.79200000  0.60970000  0.01420000  1.0 -0.2605210092
C  C13  1  0.20050000  0.39630000  0.14250000  1.0 0.0702941268
C  C14  1  0.79950000  0.60370000  0.85750000  1.0 0.0702941268
C  C15  1  0.12180000  0.42900000  0.19610000  1.0 -0.0990617925
C  C16  1  0.87820000  0.57100000  0.80390000  1.0 -0.0990617925
C  C17  1  0.09240000  0.37000000  0.26940000  1.0 -0.061474932
C  C18  1  0.90760000  0.63000000  0.73060000  1.0 -0.061474932
C  C19  1  0.14230000  0.27690000  0.29160000  1.0 -0.0401237995
C  C20  1  0.85770000  0.72310000  0.70840000  1.0 -0.0401237995
C  C21  1  0.22070000  0.24280000  0.23910000  1.0 -0.2110466208
C  C22  1  0.77930000  0.75720000  0.76090000  1.0 -0.2110466208
C  C23  1  0.24820000  0.30210000  0.16480000  1.0 -0.2796989577
C  C24  1  0.75180000  0.69790000  0.83520000  1.0 -0.2796989577
C  C25  1  0.10810000  0.21020000  0.36810000  1.0 0.5931977633
C  C26  1  0.89190000  0.78980000  0.63190000  1.0 0.5931977633
C  C27  1  0.29560000  0.66050000  0.13100000  1.0 0.0702941268
C  C28  1  0.70440000  0.33950000  0.86900000  1.0 0.0702941268
C  C29  1  0.40410000  0.67170000  0.20680000  1.0 -0.0990617925
C  C30  1  0.59590000  0.32830000  0.79320000  1.0 -0.0990617925
C  C31  1  0.42870000  0.75320000  0.27330000  1.0 -0.0401237995
C  C32  1  0.57130000  0.24680000  0.72670000  1.0 -0.0401237995
C  C33  1  0.33940000  0.82090000  0.26730000  1.0 -0.0108322143
C  C34  1  0.66060000  0.17910000  0.73270000  1.0 -0.0108322143
C  C35  1  0.22770000  0.80970000  0.19160000  1.0 -0.2193913158
C  C36  1  0.77230000  0.19030000  0.80840000  1.0 -0.2193913158
C  C37  1  0.20770000  0.73190000  0.12280000  1.0 -0.2862068411
C  C38  1  0.79230000  0.26810000  0.87720000  1.0 -0.2862068411
C  C39  1  0.35340000  0.90190000  0.34150000  1.0 0.5810631517
C  C40  1  0.64660000  0.09810000  0.65850000  1.0 0.5810631517
C  C41  1  0.30160000  0.62140000  0.82110000  1.0 0.0702941268
C  C42  1  0.69840000  0.37860000  0.17890000  1.0 0.0702941268
C  C43  1  0.25850000  0.71700000  0.80190000  1.0 -0.2687122918
C  C44  1  0.74150000  0.28300000  0.19810000  1.0 -0.2687122918
C  C45  1  0.28630000  0.77800000  0.73000000  1.0 -0.1766277473
C  C46  1  0.71370000  0.22200000  0.27000000  1.0 -0.1766277473
C  C47  1  0.36360000  0.74730000  0.67550000  1.0 -0.0108322143
C  C48  1  0.63640000  0.25270000  0.32450000  1.0 -0.0108322143
C  C49  1  0.41340000  0.65510000  0.69570000  1.0 -0.061474932
C  C50  1  0.58660000  0.34490000  0.30430000  1.0 -0.061474932
C  C51  1  0.38110000  0.59130000  0.76700000  1.0 -0.0990617925
C  C52  1  0.61890000  0.40870000  0.23300000  1.0 -0.0990617925
C  C53  1  0.39740000  0.81670000  0.59770000  1.0 0.6492906812
C  C54  1  0.60260000  0.18330000  0.40230000  1.0 0.6492906812
C  C55  1  0.18620000  0.35470000  0.82820000  1.0 0.0792501007
C  C56  1  0.81380000  0.64530000  0.17180000  1.0 0.0792501007
C  C57  1  0.08750000  0.36320000  0.75160000  1.0 -0.0940240171
C  C58  1  0.91250000  0.63680000  0.24840000  1.0 -0.0940240171
C  C59  1  0.04980000  0.28520000  0.67970000  1.0 -0.061474932
C  C60  1  0.95020000  0.71480000  0.32030000  1.0 -0.061474932
C  C61  1  0.11660000  0.20100000  0.68180000  1.0 -0.0162807345
C  C62  1  0.88340000  0.79900000  0.31820000  1.0 -0.0162807345
C  C63  1  0.21510000  0.19170000  0.75850000  1.0 -0.2110466208
C  C64  1  0.78490000  0.80830000  0.24150000  1.0 -0.2110466208
C  C65  1  0.24620000  0.26580000  0.83100000  1.0 -0.2796989577
C  C66  1  0.75380000  0.73420000  0.16900000  1.0 -0.2687122918
C  C67  1  0.09260000  0.12880000  0.60040000  1.0 0.6492906812
C  C68  1  0.90740000  0.87120000  0.39960000  1.0 0.6492906812
C  C69  1  0.18870000  0.02670000  0.06720000  1.0 -0.1274220493
C  C70  1  0.81130000  0.97330000  0.93280000  1.0 -0.1274220493
C  C71  1  0.29480000  0.01830000  0.02190000  1.0 0.0019725918
C  C72  1  0.70520000  0.98170000  0.97810000  1.0 0.0019725918
C  C73  1  0.24810000  0.99160000  0.93200000  1.0 -0.0710690931
C  C74  1  0.75190000  0.00840000  0.06800000  1.0 -0.0710690931
C  C75  1  0.09900000  0.97350000  0.88870000  1.0 -0.0990617925
C  C76  1  0.90100000  0.02650000  0.11130000  1.0 -0.0990617925
C  C77  1  0.99530000  0.98200000  0.93490000  1.0 -0.0710690931
C  C78  1  0.00470000  0.01800000  0.06510000  1.0 -0.0710690931
C  C79  1  0.03910000  0.00880000  0.02520000  1.0 -0.0108322143
C  C80  1  0.96090000  0.99120000  0.97480000  1.0 -0.0108322143
C  C81  1  0.45510000  0.03670000  0.07000000  1.0 -0.1074893248
C  C82  1  0.54490000  0.96330000  0.93000000  1.0 -0.0990617925
C  C83  1  0.92690000  0.01840000  0.07540000  1.0 -0.0990617925
C  C84  1  0.07310000  0.98160000  0.92460000  1.0 -0.0990617925
C  C85  1  0.29540000  0.97870000  0.91950000  1.0 -0.1566162553
C  C86  1  0.70460000  0.02130000  0.08050000  1.0 -0.1566162553
C  C87  1  0.44660000  0.99870000  0.96080000  1.0 -0.0495452952
C  C88  1  0.55340000  0.00130000  0.03920000  1.0 -0.0495452952
C  C89  1  0.49500000  0.03690000  0.04900000  1.0 -0.061474932
C  C90  1  0.50500000  0.96310000  0.95100000  1.0 -0.061474932
C  C91  1  0.24540000  0.03470000  0.05210000  1.0 -0.0990617925
C  C92  1  0.75460000  0.96530000  0.94790000  1.0 -0.0990617925
C  C93  1  0.39490000  0.05490000  0.09430000  1.0 -0.1074893248
C  C94  1  0.60510000  0.94510000  0.90570000  1.0 -0.1074893248
C  C95  1  0.19350000  0.99610000  0.96370000  1.0 0.0442951735
C  C96  1  0.80650000  0.00390000  0.03630000  1.0 0.0442951735
C  C97  1  0.55390000  0.98030000  0.91040000  1.0 -0.1180734184
C  C98  1  0.44610000  0.01970000  0.08960000  1.0 -0.1180734184
C  C99  1  0.03110000  0.97390000  0.91780000  1.0 -0.1180734184
C  C100  1  0.96890000  0.02610000  0.08220000  1.0 -0.1180734184
O  O1  1  0.15860000  0.13340000  0.39334000  1.0 -0.6009199616
O  O2  1  0.84140000  0.86660000  0.60666000  1.0 -0.6009199616
O  O3  1  0.01490000  0.23720000  0.40688000  1.0 -0.4356420782
O  O4  1  0.98510000  0.76280000  0.59312000  1.0 -0.4356420782
O  O5  1  0.25570000  0.94690000  0.33762000  1.0 -0.5843629238
O  O6  1  0.74430000  0.05310000  0.66238000  1.0 -0.5843629238
O  O7  1  0.46150000  0.91800000  0.40871000  1.0 -0.741458356
O  O8  1  0.53850000  0.08200000  0.59129000  1.0 -0.741458356
O  O9  1  0.30400000  0.86320000  0.56220000  1.0 -0.6746457216
O  O10  1  0.69600000  0.13680000  0.43780000  1.0 -0.6746457216
O  O11  1  0.51750000  0.82550000  0.57522000  1.0 -0.6622130271
O  O12  1  0.48250000  0.17450000  0.42478000  1.0 -0.6622130271
O  O13  1  0.19720000  0.09530000  0.59093000  1.0 -0.6622130271
O  O14  1  0.80280000  0.90470000  0.40907000  1.0 -0.6622130271
O  O15  1  0.96880000  0.11010000  0.54348000  1.0 -0.6937415
O  O16  1  0.03120000  0.88990000  0.45652000  1.0 -0.6937415
