# DDEC6 charges by PACMAN v1.1 (https://github.com/mtap-research/PACMAN-charge/)
data_FOFCIO_FSR_pacman
_symmetry_space_group_name_H-M   'P 1'
_cell_length_a   9.74410000
_cell_length_b   12.33180000
_cell_length_c   15.77370000
_cell_angle_alpha   88.97900000
_cell_angle_beta   102.60100000
_cell_angle_gamma   110.50200000
_symmetry_Int_Tables_number   1
_chemical_formula_structural   CeH39(C25O4)2
_chemical_formula_sum   'Ce2 H78 C100 O16'
_cell_volume   1729.02348885
_cell_formula_units_Z   2
loop_
 _symmetry_equiv_pos_site_id
 _symmetry_equiv_pos_as_xyz
  1  'x, y, z'
loop_
 _atom_site_type_symbol
 _atom_site_label
 _atom_site_symmetry_multiplicity
 _atom_site_fract_x
 _atom_site_fract_y
 _atom_site_fract_z
 _atom_site_occupancy
 _atom_site_charge
Ce  Ce1  1  0.79883000  0.52797000  0.98441000  1.0 2.0458730227
Ce  Ce2  1  0.20117000  0.47203000  0.01559000  1.0 2.0435694224
H  H1  1  0.49290000  0.69250000  0.94560000  1.0 0.3710958129
H  H2  1  0.50710000  0.30750000  0.05440000  1.0 0.3710958129
H  H3  1  0.82220000  0.20620000  0.47550000  1.0 0.1298154869
H  H4  1  0.17780000  0.79380000  0.52450000  1.0 0.1298154869
H  H5  1  0.68010000  0.80710000  0.48980000  1.0 0.1298154869
H  H6  1  0.31990000  0.19290000  0.51020000  1.0 0.1298154869
H  H7  1  0.58790000  0.99050000  0.68130000  1.0 0.1214290213
H  H8  1  0.41210000  0.00950000  0.31870000  1.0 0.1118333863
H  H9  1  0.53730000  0.89120000  0.80390000  1.0 0.1118333863
H  H10  1  0.46270000  0.10880000  0.19610000  1.0 0.1118333863
H  H11  1  0.75080000  0.67930000  0.75340000  1.0 0.1298154869
H  H12  1  0.24920000  0.32070000  0.24660000  1.0 0.1298154869
H  H13  1  0.80230000  0.77990000  0.63060000  1.0 0.1214290213
H  H14  1  0.19770000  0.22010000  0.36940000  1.0 0.1214290213
H  H15  1  0.96020000  0.12160000  0.71490000  1.0 0.1214290213
H  H16  1  0.03980000  0.87840000  0.28510000  1.0 0.1214290213
H  H17  1  0.00210000  0.26140000  0.82500000  1.0 0.1214290213
H  H18  1  0.99790000  0.73860000  0.17500000  1.0 0.1214290213
H  H19  1  0.66420000  0.35310000  0.68570000  1.0 0.1392870313
H  H20  1  0.33580000  0.64690000  0.31430000  1.0 0.1392870313
H  H21  1  0.63700000  0.22680000  0.57050000  1.0 0.1298154869
H  H22  1  0.36300000  0.77320000  0.42950000  1.0 0.1298154869
H  H23  1  0.70750000  0.23910000  0.34140000  1.0 0.1214290213
H  H24  1  0.29250000  0.76090000  0.65860000  1.0 0.1214290213
H  H25  1  0.75110000  0.34040000  0.21900000  1.0 0.1214290213
H  H26  1  0.24890000  0.65960000  0.78100000  1.0 0.1214290213
H  H27  1  0.97030000  0.13570000  0.16280000  1.0 0.1214290213
H  H28  1  0.02970000  0.86430000  0.83720000  1.0 0.1214290213
H  H29  1  0.91310000  0.02750000  0.28090000  1.0 0.1118333863
H  H30  1  0.08690000  0.97250000  0.71910000  1.0 0.1118333863
H  H31  1  0.54360000  0.92020000  0.24970000  1.0 0.1118333863
H  H32  1  0.45640000  0.07980000  0.75030000  1.0 0.1118333863
H  H33  1  0.47910000  0.78820000  0.13130000  1.0 0.1214290213
H  H34  1  0.52090000  0.21180000  0.86870000  1.0 0.1214290213
H  H35  1  0.76320000  0.63810000  0.25900000  1.0 0.1298154869
H  H36  1  0.23680000  0.36190000  0.74100000  1.0 0.1298154869
H  H37  1  0.81330000  0.75960000  0.38350000  1.0 0.1298154869
H  H38  1  0.18670000  0.24040000  0.61650000  1.0 0.1298154869
H  H39  1  0.66860000  0.55360000  0.56900000  1.0 0.0696822731
H  H40  1  0.33140000  0.44640000  0.43100000  1.0 0.0696822731
H  H41  1  0.90820000  0.57850000  0.65350000  1.0 0.0878982908
H  H42  1  0.09180000  0.42150000  0.34650000  1.0 0.0878982908
H  H43  1  0.08480000  0.54090000  0.59060000  1.0 0.0595228073
H  H44  1  0.91520000  0.45910000  0.40940000  1.0 0.0595228073
H  H45  1  0.78220000  0.45360000  0.35890000  1.0 0.0696822731
H  H46  1  0.21780000  0.54640000  0.64110000  1.0 0.0696822731
H  H47  1  0.46530000  0.42480000  0.42950000  1.0 0.0804780244
H  H48  1  0.53470000  0.57520000  0.57050000  1.0 0.0804780244
H  H49  1  0.52640000  0.45990000  0.34280000  1.0 0.0878982908
H  H50  1  0.47360000  0.54010000  0.65720000  1.0 0.0878982908
H  H51  1  0.52100000  0.55770000  0.40600000  1.0 0.0878982908
H  H52  1  0.47900000  0.44230000  0.59400000  1.0 0.0878982908
H  H53  1  0.17790000  0.54530000  0.45470000  1.0 0.0878982908
H  H54  1  0.82210000  0.45470000  0.54530000  1.0 0.0878982908
H  H55  1  0.06720000  0.43880000  0.38780000  1.0 0.0804780244
H  H56  1  0.93280000  0.56120000  0.61220000  1.0 0.0804780244
H  H57  1  0.12050000  0.41720000  0.48800000  1.0 0.0804780244
H  H58  1  0.87950000  0.58280000  0.51200000  1.0 0.0804780244
H  H59  1  0.82770000  0.48380000  0.40850000  1.0 0.0595228073
H  H60  1  0.17230000  0.51620000  0.59150000  1.0 0.0595228073
H  H61  1  0.58100000  0.45130000  0.33180000  1.0 0.0804780244
H  H62  1  0.41900000  0.54870000  0.66820000  1.0 0.0804780244
H  H63  1  0.40390000  0.46800000  0.40490000  1.0 0.0696822731
H  H64  1  0.59610000  0.53200000  0.59510000  1.0 0.0696822731
H  H65  1  0.72020000  0.54970000  0.63140000  1.0 0.0595228073
H  H66  1  0.27980000  0.45030000  0.36860000  1.0 0.0595228073
H  H67  1  0.97740000  0.45860000  0.56910000  1.0 0.0878982908
H  H68  1  0.02260000  0.54140000  0.43090000  1.0 0.0878982908
H  H69  1  0.97940000  0.55430000  0.63700000  1.0 0.0804780244
H  H70  1  0.02060000  0.44570000  0.36300000  1.0 0.0804780244
H  H71  1  0.03480000  0.59290000  0.54920000  1.0 0.0804780244
H  H72  1  0.96520000  0.40710000  0.45080000  1.0 0.0804780244
H  H73  1  0.36980000  0.57820000  0.52290000  1.0 0.0878982908
H  H74  1  0.63020000  0.42180000  0.47710000  1.0 0.0878982908
H  H75  1  0.42070000  0.53250000  0.61580000  1.0 0.0696822731
H  H76  1  0.57930000  0.46750000  0.38420000  1.0 0.0696822731
H  H77  1  0.31540000  0.44200000  0.53620000  1.0 0.0804780244
H  H78  1  0.68460000  0.55800000  0.46380000  1.0 0.0804780244
C  C1  1  0.72840000  0.95580000  0.56210000  1.0 0.0595228073
C  C2  1  0.27160000  0.04420000  0.43790000  1.0 0.0595228073
C  C3  1  0.76940000  0.07590000  0.55740000  1.0 0.0595228073
C  C4  1  0.23060000  0.92410000  0.44260000  1.0 0.0595228073
C  C5  1  0.79170000  0.12430000  0.47810000  1.0 -0.2705527359
C  C6  1  0.20830000  0.87570000  0.52190000  1.0 -0.2705527359
C  C7  1  0.77110000  0.05700000  0.40250000  1.0 0.0498259245
C  C8  1  0.22890000  0.94300000  0.59750000  1.0 0.0498259245
C  C9  1  0.72590000  0.93660000  0.40650000  1.0 0.0595228073
C  C10  1  0.27410000  0.06340000  0.59350000  1.0 0.0595228073
C  C11  1  0.70770000  0.88870000  0.48680000  1.0 -0.2705527359
C  C12  1  0.29230000  0.11130000  0.51320000  1.0 -0.2705527359
C  C13  1  0.69890000  0.89420000  0.64260000  1.0 0.0804780244
C  C14  1  0.30110000  0.10580000  0.35740000  1.0 0.0804780244
C  C15  1  0.62090000  0.92710000  0.69560000  1.0 -0.0896310512
C  C16  1  0.37910000  0.07290000  0.30440000  1.0 -0.0896310512
C  C17  1  0.59130000  0.86840000  0.76870000  1.0 -0.0590059058
C  C18  1  0.40870000  0.13160000  0.23130000  1.0 -0.0590059058
C  C19  1  0.63960000  0.77660000  0.79110000  1.0 -0.0404863208
C  C20  1  0.36040000  0.22340000  0.20890000  1.0 -0.0404863208
C  C21  1  0.71800000  0.74270000  0.73890000  1.0 -0.2101481715
C  C22  1  0.28200000  0.25730000  0.26110000  1.0 -0.2101481715
C  C23  1  0.74770000  0.80240000  0.66560000  1.0 -0.2910968894
C  C24  1  0.25230000  0.19760000  0.33440000  1.0 -0.2910968894
C  C25  1  0.60420000  0.70940000  0.86750000  1.0 0.5888564354
C  C26  1  0.39580000  0.29060000  0.13250000  1.0 0.5888564354
C  C27  1  0.79340000  0.15900000  0.63160000  1.0 0.0804780244
C  C28  1  0.20660000  0.84100000  0.36840000  1.0 0.0804780244
C  C29  1  0.90160000  0.17000000  0.70800000  1.0 -0.0896310512
C  C30  1  0.09840000  0.83000000  0.29200000  1.0 -0.0896310512
C  C31  1  0.92450000  0.25190000  0.77430000  1.0 -0.0311014969
C  C32  1  0.07550000  0.74810000  0.22570000  1.0 -0.0311014969
C  C33  1  0.83590000  0.31940000  0.76730000  1.0 -0.0194892684
C  C34  1  0.16410000  0.68060000  0.23270000  1.0 -0.0194892684
C  C35  1  0.72660000  0.30780000  0.69110000  1.0 -0.2339622537
C  C36  1  0.27340000  0.69220000  0.30890000  1.0 -0.2339622537
C  C37  1  0.70820000  0.23090000  0.62330000  1.0 -0.3033519769
C  C38  1  0.29180000  0.76910000  0.37670000  1.0 -0.3033519769
C  C39  1  0.84940000  0.39960000  0.84020000  1.0 0.5838494069
C  C40  1  0.15060000  0.60040000  0.15980000  1.0 0.5838494069
C  C41  1  0.80240000  0.12110000  0.32340000  1.0 0.0696822731
C  C42  1  0.19760000  0.87890000  0.67660000  1.0 0.0696822731
C  C43  1  0.75810000  0.21610000  0.30400000  1.0 -0.2705527359
C  C44  1  0.24190000  0.78390000  0.69600000  1.0 -0.2754351729
C  C45  1  0.78580000  0.27770000  0.23200000  1.0 -0.1906223828
C  C46  1  0.21420000  0.72230000  0.76800000  1.0 -0.1906223828
C  C47  1  0.86510000  0.24770000  0.17810000  1.0 -0.005563917
C  C48  1  0.13490000  0.75230000  0.82190000  1.0 -0.005563917
C  C49  1  0.91400000  0.15550000  0.19800000  1.0 -0.052706823
C  C50  1  0.08600000  0.84450000  0.80200000  1.0 -0.052706823
C  C51  1  0.88130000  0.09190000  0.26910000  1.0 -0.0999306673
C  C52  1  0.11870000  0.90810000  0.73090000  1.0 -0.0999306673
C  C53  1  0.89920000  0.31710000  0.10070000  1.0 0.6354804403
C  C54  1  0.10080000  0.68290000  0.89930000  1.0 0.6354804403
C  C55  1  0.68750000  0.85540000  0.32880000  1.0 0.0804780244
C  C56  1  0.31250000  0.14460000  0.67120000  1.0 0.0804780244
C  C57  1  0.58750000  0.86210000  0.25280000  1.0 -0.0896310512
C  C58  1  0.41250000  0.13790000  0.74720000  1.0 -0.0896310512
C  C59  1  0.55130000  0.78500000  0.18180000  1.0 -0.052706823
C  C60  1  0.44870000  0.21500000  0.81820000  1.0 -0.052706823
C  C61  1  0.61920000  0.70350000  0.18360000  1.0 -0.0194892684
C  C62  1  0.38080000  0.29650000  0.81640000  1.0 -0.0194892684
C  C63  1  0.71690000  0.69460000  0.25750000  1.0 -0.2101481715
C  C64  1  0.28310000  0.30540000  0.74250000  1.0 -0.2101481715
C  C65  1  0.74900000  0.76860000  0.33130000  1.0 -0.2910968894
C  C66  1  0.25100000  0.23140000  0.66870000  1.0 -0.2910968894
C  C67  1  0.59290000  0.63110000  0.10160000  1.0 0.6480975515
C  C68  1  0.40710000  0.36890000  0.89840000  1.0 0.6480975515
C  C69  1  0.70300000  0.50100000  0.45600000  1.0 -0.0194892684
C  C70  1  0.29700000  0.49900000  0.54400000  1.0 -0.0194892684
C  C71  1  0.74000000  0.53800000  0.54350000  1.0 -0.0404863208
C  C72  1  0.26000000  0.46200000  0.45650000  1.0 -0.0404863208
C  C73  1  0.88300000  0.55300000  0.59370000  1.0 -0.0896310512
C  C74  1  0.11700000  0.44700000  0.40630000  1.0 -0.0896310512
C  C75  1  0.98800000  0.53100000  0.55640000  1.0 -0.0896310512
C  C76  1  0.01200000  0.46900000  0.44360000  1.0 -0.0896310512
C  C77  1  0.95000000  0.49400000  0.46890000  1.0 -0.0404863208
C  C78  1  0.05000000  0.50600000  0.53110000  1.0 -0.0404863208
C  C79  1  0.80800000  0.47900000  0.41870000  1.0 -0.1845674747
C  C80  1  0.19200000  0.52100000  0.58130000  1.0 -0.1845674747
C  C81  1  0.53800000  0.48400000  0.40400000  1.0 -0.0896310512
C  C82  1  0.46200000  0.51600000  0.59600000  1.0 -0.0896310512
C  C83  1  0.09300000  0.47200000  0.44800000  1.0 -0.052706823
C  C84  1  0.90700000  0.52800000  0.55200000  1.0 -0.052706823
C  C85  1  0.79700000  0.52000000  0.52710000  1.0 -0.0194892684
C  C86  1  0.20300000  0.48000000  0.47290000  1.0 -0.0194892684
C  C87  1  0.75600000  0.49100000  0.43820000  1.0 -0.0590059058
C  C88  1  0.24400000  0.50900000  0.56180000  1.0 -0.0590059058
C  C89  1  0.60900000  0.47100000  0.39260000  1.0 -0.068257221
C  C90  1  0.39100000  0.52900000  0.60740000  1.0 -0.068257221
C  C91  1  0.50400000  0.48100000  0.43600000  1.0 -0.0896310512
C  C92  1  0.49600000  0.51900000  0.56400000  1.0 -0.0896310512
C  C93  1  0.54500000  0.51000000  0.52500000  1.0 -0.0311014969
C  C94  1  0.45500000  0.49000000  0.47500000  1.0 -0.0311014969
C  C95  1  0.69200000  0.53000000  0.57060000  1.0 -0.1497600013
C  C96  1  0.30800000  0.47000000  0.42940000  1.0 -0.1497600013
C  C97  1  0.96300000  0.53300000  0.57500000  1.0 -0.0896310512
C  C98  1  0.03700000  0.46700000  0.42500000  1.0 -0.0896310512
C  C99  1  0.39800000  0.51600000  0.55300000  1.0 -0.0404863208
C  C100  1  0.60200000  0.48400000  0.44700000  1.0 -0.0404863208
O  O1  1  0.65670000  0.63430000  0.89220000  1.0 -0.5723006064
O  O2  1  0.34330000  0.36570000  0.10780000  1.0 -0.5723006064
O  O3  1  0.51480000  0.73800000  0.90630000  1.0 -0.421666705
O  O4  1  0.48520000  0.26200000  0.09370000  1.0 -0.421666705
O  O5  1  0.75410000  0.44790000  0.83390000  1.0 -0.5723006064
O  O6  1  0.24590000  0.55210000  0.16610000  1.0 -0.5723006064
O  O7  1  0.95350000  0.41540000  0.90860000  1.0 -0.7046481007
O  O8  1  0.04650000  0.58460000  0.09140000  1.0 -0.7046481007
O  O9  1  0.01610000  0.32330000  0.07740000  1.0 -0.6236956352
O  O10  1  0.98390000  0.67670000  0.92260000  1.0 -0.6236956352
O  O11  1  0.80630000  0.36510000  0.06640000  1.0 -0.643743419
O  O12  1  0.19370000  0.63490000  0.93360000  1.0 -0.643743419
O  O13  1  0.69530000  0.59640000  0.09180000  1.0 -0.6236956352
O  O14  1  0.30470000  0.40360000  0.90820000  1.0 -0.6236956352
O  O15  1  0.46890000  0.61270000  0.04420000  1.0 -0.6700172657
O  O16  1  0.53110000  0.38730000  0.95580000  1.0 -0.6700172657
