# DDEC6 charges by PACMAN v1.1 (https://github.com/mtap-research/PACMAN-charge/)
data_FOFDAH_FSR_pacman
_symmetry_space_group_name_H-M   'P 1'
_cell_length_a   10.42710000
_cell_length_b   10.57830000
_cell_length_c   16.92100000
_cell_angle_alpha   76.31400000
_cell_angle_beta   83.15800000
_cell_angle_gamma   70.02300000
_symmetry_Int_Tables_number   1
_chemical_formula_structural   CeH35C38O11
_chemical_formula_sum   'Ce2 H70 C76 O22'
_cell_volume   1702.79736859
_cell_formula_units_Z   2
loop_
 _symmetry_equiv_pos_site_id
 _symmetry_equiv_pos_as_xyz
  1  'x, y, z'
loop_
 _atom_site_type_symbol
 _atom_site_label
 _atom_site_symmetry_multiplicity
 _atom_site_fract_x
 _atom_site_fract_y
 _atom_site_fract_z
 _atom_site_occupancy
 _atom_site_charge
Ce  Ce1  1  0.10543000  0.62584000  0.01821000  1.0 1.8565583188
Ce  Ce2  1  0.89457000  0.37416000  0.98179000  1.0 1.8565583188
H  H1  1  0.40200000  0.50600000  0.06600000  1.0 0.3742958117
H  H2  1  0.59800000  0.49400000  0.93400000  1.0 0.3742958117
H  H3  1  0.33500000  0.57400000  0.12860000  1.0 0.3349609334
H  H4  1  0.66500000  0.42600000  0.87140000  1.0 0.3349609334
H  H5  1  0.00400000  0.87200000  0.21500000  1.0 0.3349609334
H  H6  1  0.99600000  0.12800000  0.78500000  1.0 0.3349609334
H  H7  1  0.72560000  0.05320000  0.51590000  1.0 0.1186793544
H  H8  1  0.27440000  0.94680000  0.48410000  1.0 0.1186793544
H  H9  1  0.32490000  0.39260000  0.55590000  1.0 0.1186793544
H  H10  1  0.67510000  0.60740000  0.44410000  1.0 0.1186793544
H  H11  1  0.36250000  0.28520000  0.33280000  1.0 0.1186793544
H  H12  1  0.63750000  0.71480000  0.66720000  1.0 0.1186793544
H  H13  1  0.22300000  0.44570000  0.23500000  1.0 0.1186793544
H  H14  1  0.77700000  0.55430000  0.76500000  1.0 0.1186793544
H  H15  1  0.19180000  0.74230000  0.35480000  1.0 0.1123508398
H  H16  1  0.80820000  0.25770000  0.64520000  1.0 0.1123508398
H  H17  1  0.33780000  0.58250000  0.45000000  1.0 0.1186793544
H  H18  1  0.66220000  0.41750000  0.55000000  1.0 0.1186793544
H  H19  1  0.61950000  0.39060000  0.32040000  1.0 0.1186793544
H  H20  1  0.38050000  0.60940000  0.67960000  1.0 0.1186793544
H  H21  1  0.70560000  0.35530000  0.19270000  1.0 0.1298185285
H  H22  1  0.29440000  0.64470000  0.80730000  1.0 0.1298185285
H  H23  1  0.78490000  0.94880000  0.27310000  1.0 0.1186793544
H  H24  1  0.21510000  0.05120000  0.72690000  1.0 0.1186793544
H  H25  1  0.68700000  0.98610000  0.39840000  1.0 0.1186793544
H  H26  1  0.31300000  0.01390000  0.60160000  1.0 0.1186793544
H  H27  1  0.86140000  0.02480000  0.63170000  1.0 0.1037101332
H  H28  1  0.13860000  0.97520000  0.36830000  1.0 0.1037101332
H  H29  1  0.97840000  0.85860000  0.73660000  1.0 0.1186793544
H  H30  1  0.02160000  0.14140000  0.26340000  1.0 0.1186793544
H  H31  1  0.62900000  0.79420000  0.83130000  1.0 0.1367916796
H  H32  1  0.37100000  0.20580000  0.16870000  1.0 0.1367916796
H  H33  1  0.50880000  0.97380000  0.73280000  1.0 0.1298185285
H  H34  1  0.49120000  0.02620000  0.26720000  1.0 0.1298185285
H  H35  1  0.58830000  0.23460000  0.75030000  1.0 0.1298185285
H  H36  1  0.41170000  0.76540000  0.24970000  1.0 0.1298185285
H  H37  1  0.49040000  0.31570000  0.86500000  1.0 0.1298185285
H  H38  1  0.50960000  0.68430000  0.13500000  1.0 0.1298185285
H  H39  1  0.11790000  0.37110000  0.79160000  1.0 0.1186793544
H  H40  1  0.88210000  0.62890000  0.20840000  1.0 0.1186793544
H  H41  1  0.21600000  0.30330000  0.67300000  1.0 0.1037101332
H  H42  1  0.78400000  0.69670000  0.32700000  1.0 0.1037101332
H  H43  1  0.85000000  0.88000000  0.03100000  1.0 0.1186793544
H  H44  1  0.15000000  0.12000000  0.96900000  1.0 0.1186793544
H  H45  1  0.93400000  0.93400000  0.96900000  1.0 0.1123508398
H  H46  1  0.06600000  0.06600000  0.03100000  1.0 0.1123508398
H  H47  1  0.93400000  0.90300000  0.05200000  1.0 0.2031432573
H  H48  1  0.06600000  0.09700000  0.94800000  1.0 0.2031432573
H  H49  1  0.85180000  0.95350000  0.90350000  1.0 0.0702148453
H  H50  1  0.14820000  0.04650000  0.09650000  1.0 0.0702148453
H  H51  1  0.82980000  0.05840000  0.95940000  1.0 0.0799321888
H  H52  1  0.17020000  0.94160000  0.04060000  1.0 0.0799321888
H  H53  1  0.68610000  0.87300000  0.97870000  1.0 0.1123508398
H  H54  1  0.31390000  0.12700000  0.02130000  1.0 0.1123508398
H  H55  1  0.62580000  0.03200000  0.94520000  1.0 0.0634659488
H  H56  1  0.37420000  0.96800000  0.05480000  1.0 0.0634659488
H  H57  1  0.66540000  0.97520000  0.03640000  1.0 0.0230851095
H  H58  1  0.33460000  0.02480000  0.96360000  1.0 0.0230851095
H  H59  1  0.72960000  0.85420000  0.98450000  1.0 0.1367916796
H  H60  1  0.27040000  0.14580000  0.01550000  1.0 0.1367916796
H  H61  1  0.61850000  0.05100000  0.98750000  1.0 0.0505851056
H  H62  1  0.38150000  0.94900000  0.01250000  1.0 0.0505851056
H  H63  1  0.59400000  0.95640000  0.07190000  1.0 0.0634659488
H  H64  1  0.40600000  0.04360000  0.92810000  1.0 0.0634659488
H  H65  1  0.37660000  0.01510000  0.03640000  1.0 0.0634659488
H  H66  1  0.62340000  0.98490000  0.96360000  1.0 0.0702148453
H  H67  1  0.43460000  0.92110000  0.97270000  1.0 0.0505851056
H  H68  1  0.56540000  0.07890000  0.02730000  1.0 0.0505851056
H  H69  1  0.41150000  0.07940000  0.94650000  1.0 0.0702148453
H  H70  1  0.58850000  0.92060000  0.05350000  1.0 0.0702148453
C  C1  1  0.45340000  0.31490000  0.46820000  1.0 0.0301700603
C  C2  1  0.54660000  0.68510000  0.53180000  1.0 0.0301700603
C  C3  1  0.57800000  0.21200000  0.45550000  1.0 0.0301700603
C  C4  1  0.42200000  0.78800000  0.54450000  1.0 0.0301700603
C  C5  1  0.64410000  0.12170000  0.52390000  1.0 -0.1917940568
C  C6  1  0.35590000  0.87830000  0.47610000  1.0 -0.1917940568
C  C7  1  0.59500000  0.12810000  0.60390000  1.0 0.0301700603
C  C8  1  0.40500000  0.87190000  0.39610000  1.0 0.0301700603
C  C9  1  0.47270000  0.23350000  0.61630000  1.0 0.035881463
C  C10  1  0.52730000  0.76650000  0.38370000  1.0 0.035881463
C  C11  1  0.40580000  0.32330000  0.54780000  1.0 -0.1917940568
C  C12  1  0.59420000  0.67670000  0.45220000  1.0 -0.1917940568
C  C13  1  0.36710000  0.41560000  0.40220000  1.0 0.0799321888
C  C14  1  0.63290000  0.58440000  0.59780000  1.0 0.0799321888
C  C15  1  0.32970000  0.37710000  0.33680000  1.0 -0.1207067058
C  C16  1  0.67030000  0.62290000  0.66320000  1.0 -0.1207067058
C  C17  1  0.24540000  0.47290000  0.27850000  1.0 -0.0980715793
C  C18  1  0.75460000  0.52710000  0.72150000  1.0 -0.0980715793
C  C19  1  0.19360000  0.61100000  0.28450000  1.0 -0.0417988453
C  C20  1  0.80640000  0.38900000  0.71550000  1.0 -0.0417988453
C  C21  1  0.22750000  0.65090000  0.34980000  1.0 -0.0980715793
C  C22  1  0.77250000  0.34910000  0.65020000  1.0 -0.0980715793
C  C23  1  0.31410000  0.55460000  0.40720000  1.0 -0.151754592
C  C24  1  0.68590000  0.44540000  0.59280000  1.0 -0.151754592
C  C25  1  0.10360000  0.71540000  0.22110000  1.0 0.5357353646
C  C26  1  0.89640000  0.28460000  0.77890000  1.0 0.5357353646
C  C27  1  0.64090000  0.19220000  0.37320000  1.0 0.0702148453
C  C28  1  0.35910000  0.80780000  0.62680000  1.0 0.0702148453
C  C29  1  0.65000000  0.30190000  0.31070000  1.0 -0.1326928105
C  C30  1  0.35000000  0.69810000  0.68930000  1.0 -0.1326928105
C  C31  1  0.70400000  0.28050000  0.23440000  1.0 -0.0894352313
C  C32  1  0.29600000  0.71950000  0.76560000  1.0 -0.0894352313
C  C33  1  0.75610000  0.14790000  0.21940000  1.0 -0.0020649374
C  C34  1  0.24390000  0.85210000  0.78060000  1.0 -0.0020649374
C  C35  1  0.74990000  0.03800000  0.28200000  1.0 -0.1207067058
C  C36  1  0.25010000  0.96200000  0.71800000  1.0 -0.1207067058
C  C37  1  0.69190000  0.06060000  0.35740000  1.0 -0.151754592
C  C38  1  0.30810000  0.93940000  0.64260000  1.0 -0.151754592
C  C39  1  0.81600000  0.12390000  0.13680000  1.0 0.5506951619
C  C40  1  0.18400000  0.87610000  0.86320000  1.0 0.5506951619
C  C41  1  0.67150000  0.01970000  0.67156000  1.0 0.0702148453
C  C42  1  0.32850000  0.98030000  0.32844000  1.0 0.0702148453
C  C43  1  0.81390000  0.98120000  0.67290000  1.0 -0.1390304011
C  C44  1  0.18610000  0.01880000  0.32710000  1.0 -0.1390304011
C  C45  1  0.88450000  0.87940000  0.73470000  1.0 -0.0798879307
C  C46  1  0.11550000  0.12060000  0.26530000  1.0 -0.0798879307
C  C47  1  0.81600000  0.80750000  0.79430000  1.0 -0.0108287953
C  C48  1  0.18400000  0.19250000  0.20570000  1.0 -0.0108287953
C  C49  1  0.67540000  0.84250000  0.79230000  1.0 -0.151754592
C  C50  1  0.32460000  0.15750000  0.20770000  1.0 -0.151754592
C  C51  1  0.60350000  0.94910000  0.73240000  1.0 -0.1991417598
C  C52  1  0.39650000  0.05090000  0.26760000  1.0 -0.1991417598
C  C53  1  0.89130000  0.69410000  0.86129000  1.0 0.6048981506
C  C54  1  0.10870000  0.30590000  0.13871000  1.0 0.6048981506
C  C55  1  0.41300000  0.26420000  0.69740000  1.0 0.0799321888
C  C56  1  0.58700000  0.73580000  0.30260000  1.0 0.0799321888
C  C57  1  0.49370000  0.26550000  0.75750000  1.0 -0.2092363428
C  C58  1  0.50630000  0.73450000  0.24250000  1.0 -0.2092363428
C  C59  1  0.43510000  0.31180000  0.82700000  1.0 -0.1699318579
C  C60  1  0.56490000  0.68820000  0.17300000  1.0 -0.1636254531
C  C61  1  0.29290000  0.35330000  0.84110000  1.0 0.0023762904
C  C62  1  0.70710000  0.64670000  0.15890000  1.0 0.0023762904
C  C63  1  0.21210000  0.34680000  0.78260000  1.0 -0.0894352313
C  C64  1  0.78790000  0.65320000  0.21740000  1.0 -0.0894352313
C  C65  1  0.27120000  0.30470000  0.71180000  1.0 -0.1326928105
C  C66  1  0.72880000  0.69530000  0.28820000  1.0 -0.1326928105
C  C67  1  0.22930000  0.41400000  0.91290000  1.0 0.5506951619
C  C68  1  0.77070000  0.58600000  0.08710000  1.0 0.5506951619
C  C69  1  0.82910000  0.96710000  0.95880000  1.0 -0.1699318579
C  C70  1  0.17090000  0.03290000  0.04120000  1.0 -0.1699318579
C  C71  1  0.68930000  0.96130000  0.98180000  1.0 -0.0980715793
C  C72  1  0.31070000  0.03870000  0.01820000  1.0 -0.0980715793
C  C73  1  0.58620000  0.97460000  0.01340000  1.0 -0.1207067058
C  C74  1  0.41380000  0.02540000  0.98660000  1.0 -0.1207067058
C  C75  1  0.43800000  0.00000000  0.99000000  1.0 -0.1075272116
C  C76  1  0.56200000  0.00000000  0.01000000  1.0 -0.1075272116
O  O1  1  0.33990000  0.57950000  0.07626000  1.0 -0.7440068167
O  O2  1  0.66010000  0.42050000  0.92374000  1.0 -0.7440068167
O  O3  1  0.04410000  0.83370000  0.24173000  1.0 -0.3900185865
O  O4  1  0.95590000  0.16630000  0.75827000  1.0 -0.3900185865
O  O5  1  0.08850000  0.69240000  0.15593000  1.0 -0.5531694334
O  O6  1  0.91150000  0.30760000  0.84407000  1.0 -0.5531694334
O  O7  1  0.77940000  0.22070000  0.07560000  1.0 -0.5943800848
O  O8  1  0.22060000  0.77930000  0.92440000  1.0 -0.5943800848
O  O9  1  0.89860000  0.00720000  0.13181000  1.0 -0.5131938499
O  O10  1  0.10140000  0.99280000  0.86819000  1.0 -0.5131938499
O  O11  1  0.84410000  0.59650000  0.88785000  1.0 -0.6581433457
O  O12  1  0.15590000  0.40350000  0.11215000  1.0 -0.6581433457
O  O13  1  0.99440000  0.70560000  0.88677000  1.0 -0.6356659275
O  O14  1  0.00560000  0.29440000  0.11323000  1.0 -0.6356659275
O  O15  1  0.11060000  0.41310000  0.93916000  1.0 -0.6729835313
O  O16  1  0.88940000  0.58690000  0.06084000  1.0 -0.6729835313
O  O17  1  0.29350000  0.46960000  0.94377000  1.0 -0.5682960194
O  O18  1  0.70650000  0.53040000  0.05623000  1.0 -0.5682960194
O  O19  1  0.93270000  0.86770000  0.01068000  1.0 -0.4399638813
O  O20  1  0.06730000  0.13230000  0.98932000  1.0 -0.4399638813
O  O21  1  0.64690000  0.87000000  0.98480000  1.0 -0.1207067058
O  O22  1  0.35310000  0.13000000  0.01520000  1.0 -0.1207067058
