# DDEC6 charges by PACMAN v1.1 (https://github.com/mtap-research/PACMAN-charge/)
data_FOFHEO_FSR_pacman
_symmetry_space_group_name_H-M   'P 1'
_cell_length_a   12.39000000
_cell_length_b   12.39000000
_cell_length_c   9.00280000
_cell_angle_alpha   83.94530000
_cell_angle_beta   96.05470000
_cell_angle_gamma   99.78170000
_symmetry_Int_Tables_number   1
_chemical_formula_structural   MnGa4P4C2(O12F)2
_chemical_formula_sum   'Mn2 Ga8 P8 C4 O48 F4'
_cell_volume   1348.93278880
_cell_formula_units_Z   2
loop_
 _symmetry_equiv_pos_site_id
 _symmetry_equiv_pos_as_xyz
  1  'x, y, z'
loop_
 _atom_site_type_symbol
 _atom_site_label
 _atom_site_symmetry_multiplicity
 _atom_site_fract_x
 _atom_site_fract_y
 _atom_site_fract_z
 _atom_site_occupancy
 _atom_site_charge
Mn  Mn1  1  0.87480000  0.87480000  0.25000000  1.0 1.1691840049
Mn  Mn2  1  0.12520000  0.12520000  0.75000000  1.0 1.1691840049
Ga  Ga1  1  0.38195000  0.85567000  0.07759000  1.0 1.5047659631
Ga  Ga2  1  0.85567000  0.38195000  0.42241000  1.0 1.507129943
Ga  Ga3  1  0.61805000  0.14433000  0.92241000  1.0 1.5047659631
Ga  Ga4  1  0.14433000  0.61805000  0.57759000  1.0 1.507129943
Ga  Ga5  1  0.69656000  0.04126000  0.39711000  1.0 1.4497137125
Ga  Ga6  1  0.04126000  0.69656000  0.10289000  1.0 1.4497137125
Ga  Ga7  1  0.30344000  0.95874000  0.60289000  1.0 1.4497137125
Ga  Ga8  1  0.95874000  0.30344000  0.89711000  1.0 1.4497137125
P  P1  1  0.63091000  0.92061000  0.09211000  1.0 1.5979514475
P  P2  1  0.92061000  0.63091000  0.40789000  1.0 1.5979514475
P  P3  1  0.36909000  0.07939000  0.90789000  1.0 1.5979514475
P  P4  1  0.07939000  0.36909000  0.59211000  1.0 1.5979514475
P  P5  1  0.20156000  0.75454000  0.83943000  1.0 1.5927028115
P  P6  1  0.75454000  0.20156000  0.66057000  1.0 1.5927028115
P  P7  1  0.79844000  0.24546000  0.16057000  1.0 1.5927028115
P  P8  1  0.24546000  0.79844000  0.33943000  1.0 1.5927028115
C  C1  1  0.48920000  0.05800000  0.46490000  1.0 0.4925192277
C  C2  1  0.05800000  0.48920000  0.03510000  1.0 0.4925192277
C  C3  1  0.51080000  0.94200000  0.53510000  1.0 0.4925192277
C  C4  1  0.94200000  0.51080000  0.96490000  1.0 0.4925192277
O  O1  1  0.72240000  0.85260000  0.11770000  1.0 -0.7604157902
O  O2  1  0.85260000  0.72240000  0.38230000  1.0 -0.7604157902
O  O3  1  0.27760000  0.14740000  0.88230000  1.0 -0.7604157902
O  O4  1  0.14740000  0.27760000  0.61770000  1.0 -0.7604157902
O  O5  1  0.52240000  0.84320000  0.04920000  1.0 -0.721217196
O  O6  1  0.84320000  0.52240000  0.45080000  1.0 -0.721217196
O  O7  1  0.47760000  0.15680000  0.95080000  1.0 -0.721217196
O  O8  1  0.15680000  0.47760000  0.54920000  1.0 -0.721217196
O  O9  1  0.65510000  0.00630000  0.95650000  1.0 -0.7654461507
O  O10  1  0.00630000  0.65510000  0.54350000  1.0 -0.7654461507
O  O11  1  0.34490000  0.99370000  0.04350000  1.0 -0.7654461507
O  O12  1  0.99370000  0.34490000  0.45650000  1.0 -0.7604157902
O  O13  1  0.61350000  0.98030000  0.22480000  1.0 -0.8112197463
O  O14  1  0.98030000  0.61350000  0.27520000  1.0 -0.8112197463
O  O15  1  0.38650000  0.01970000  0.77520000  1.0 -0.8112197463
O  O16  1  0.01970000  0.38650000  0.72480000  1.0 -0.8112197463
O  O17  1  0.30350000  0.75670000  0.95340000  1.0 -0.721217196
O  O18  1  0.75670000  0.30350000  0.54660000  1.0 -0.721217196
O  O19  1  0.69650000  0.24330000  0.04660000  1.0 -0.721217196
O  O20  1  0.24330000  0.69650000  0.45340000  1.0 -0.721217196
O  O21  1  0.18770000  0.64190000  0.77370000  1.0 -0.721217196
O  O22  1  0.64190000  0.18770000  0.72630000  1.0 -0.721217196
O  O23  1  0.81230000  0.35810000  0.22630000  1.0 -0.721217196
O  O24  1  0.35810000  0.81230000  0.27370000  1.0 -0.7250221018
O  O25  1  0.09970000  0.76410000  0.91670000  1.0 -0.7604157902
O  O26  1  0.76410000  0.09970000  0.58330000  1.0 -0.7604157902
O  O27  1  0.90030000  0.23590000  0.08330000  1.0 -0.7604157902
O  O28  1  0.23590000  0.90030000  0.41670000  1.0 -0.7604157902
O  O29  1  0.21400000  0.84540000  0.71340000  1.0 -0.7860090975
O  O30  1  0.84540000  0.21400000  0.78660000  1.0 -0.7860090975
O  O31  1  0.78600000  0.15460000  0.28660000  1.0 -0.7860090975
O  O32  1  0.15460000  0.78600000  0.21340000  1.0 -0.7860090975
O  O33  1  0.56710000  0.11930000  0.40420000  1.0 -0.4539500867
O  O34  1  0.11930000  0.56710000  0.09580000  1.0 -0.4539500867
O  O35  1  0.43290000  0.88070000  0.59580000  1.0 -0.4539500867
O  O36  1  0.88070000  0.43290000  0.90420000  1.0 -0.4539500867
O  O37  1  0.39480000  0.07880000  0.47470000  1.0 -0.4378470723
O  O38  1  0.07880000  0.39480000  0.02530000  1.0 -0.4378470723
O  O39  1  0.60520000  0.92120000  0.52530000  1.0 -0.4378470723
O  O40  1  0.92120000  0.60520000  0.97470000  1.0 -0.4378470723
O  O41  1  0.91820000  0.01840000  0.08250000  1.0 0.167891493
O  O42  1  0.01840000  0.91820000  0.41750000  1.0 0.167891493
O  O43  1  0.08180000  0.98160000  0.91750000  1.0 0.167891493
O  O44  1  0.98160000  0.08180000  0.58250000  1.0 0.167891493
O  O45  1  0.96700000  0.03100000  0.15400000  1.0 0.0773851505
O  O46  1  0.03100000  0.96700000  0.34600000  1.0 0.0773851505
O  O47  1  0.03300000  0.96900000  0.84600000  1.0 0.0745384003
O  O48  1  0.96900000  0.03300000  0.65400000  1.0 0.0773851505
F  F1  1  0.80088000  0.94672000  0.41020000  1.0 -0.5293431524
F  F2  1  0.94672000  0.80088000  0.08980000  1.0 -0.5293431524
F  F3  1  0.19912000  0.05328000  0.58980000  1.0 -0.5293431524
F  F4  1  0.05328000  0.19912000  0.91020000  1.0 -0.5293431524
