# DDEC6 charges by PACMAN v1.1 (https://github.com/mtap-research/PACMAN-charge/)
data_FOFTUR_FSR_pacman
_symmetry_space_group_name_H-M   'P 1'
_cell_length_a   16.31870000
_cell_length_b   17.03650000
_cell_length_c   18.94260000
_cell_angle_alpha   88.41200000
_cell_angle_beta   109.31900000
_cell_angle_gamma   117.40800000
_symmetry_Int_Tables_number   1
_chemical_formula_structural   Cd3H40C66(NO7)2
_chemical_formula_sum   'Cd6 H80 C132 N4 O28'
_cell_volume   4362.86050481
_cell_formula_units_Z   2
loop_
 _symmetry_equiv_pos_site_id
 _symmetry_equiv_pos_as_xyz
  1  'x, y, z'
loop_
 _atom_site_type_symbol
 _atom_site_label
 _atom_site_symmetry_multiplicity
 _atom_site_fract_x
 _atom_site_fract_y
 _atom_site_fract_z
 _atom_site_occupancy
 _atom_site_charge
Cd  Cd1  1  0.32754000  0.63001000  0.44488000  1.0 0.9108480272
Cd  Cd2  1  0.23896000  0.71682000  0.26259000  1.0 1.0931730327
Cd  Cd3  1  0.14899000  0.80512000  0.07699000  1.0 0.9108480272
Cd  Cd4  1  0.67246000  0.36999000  0.55512000  1.0 0.9108480272
Cd  Cd5  1  0.76104000  0.28318000  0.73741000  1.0 1.0931730327
Cd  Cd6  1  0.85101000  0.19488000  0.92301000  1.0 0.9108480272
H  H1  1  0.45500000  0.54160000  0.53620000  1.0 0.1193171751
H  H2  1  0.58450000  0.56380000  0.64640000  1.0 0.1491845704
H  H3  1  0.59700000  0.79620000  0.70380000  1.0 0.1417143997
H  H4  1  0.47190000  0.76480000  0.59110000  1.0 0.1193171751
H  H5  1  0.72190000  0.76390000  0.78710000  1.0 0.1193171751
H  H6  1  0.70790000  0.60180000  0.75660000  1.0 0.1309359622
H  H7  1  0.82970000  0.57170000  0.85800000  1.0 0.1491845704
H  H8  1  0.97750000  0.62570000  0.95990000  1.0 0.1121037988
H  H9  1  0.99730000  0.86140000  0.97630000  1.0 0.1193171751
H  H10  1  0.85260000  0.81110000  0.87150000  1.0 0.1309359622
H  H11  1  0.06930000  0.70410000  0.33410000  1.0 0.1121037988
H  H12  1  0.97620000  0.77650000  0.32790000  1.0 0.1193171751
H  H13  1  0.20000000  0.96240000  0.50390000  1.0 0.1121037988
H  H14  1  0.28690000  0.88220000  0.51760000  1.0 0.1193171751
H  H15  1  0.88760000  0.81890000  0.38480000  1.0 0.1193171751
H  H16  1  0.88390000  0.05410000  0.38930000  1.0 0.1121037988
H  H17  1  0.14030000  0.05050000  0.42070000  1.0 0.1121037988
H  H18  1  0.76990000  0.78930000  0.44350000  1.0 0.1121037988
H  H19  1  0.60170000  0.71220000  0.42690000  1.0 0.1193171751
H  H20  1  0.55620000  0.88970000  0.29490000  1.0 0.1309359622
H  H21  1  0.72320000  0.96370000  0.30900000  1.0 0.1193171751
H  H22  1  0.99110000  0.19210000  0.45770000  1.0 0.1121037988
H  H23  1  0.08060000  0.34600000  0.47620000  1.0 0.1309359622
H  H24  1  0.24940000  0.32670000  0.36940000  1.0 0.1035686043
H  H25  1  0.16580000  0.17260000  0.35990000  1.0 0.1193171751
H  H26  1  0.19070000  0.55870000  0.00100000  1.0 0.1193171751
H  H27  1  0.27640000  0.47760000  0.01100000  1.0 0.1121037988
H  H28  1  0.49730000  0.65360000  0.19160000  1.0 0.1193171751
H  H29  1  0.41080000  0.72850000  0.18510000  1.0 0.1193171751
H  H30  1  0.33500000  0.38570000  0.07920000  1.0 0.1121037988
H  H31  1  0.58730000  0.38130000  0.10970000  1.0 0.1193171751
H  H32  1  0.58550000  0.61710000  0.11990000  1.0 0.1193171751
H  H33  1  0.26940000  0.24590000  0.01360000  1.0 0.1121037988
H  H34  1  0.18270000  0.09240000  0.02070000  1.0 0.1193171751
H  H35  1  0.43190000  0.10430000  0.16300000  1.0 0.1193171751
H  H36  1  0.50900000  0.25640000  0.17250000  1.0 0.1193171751
H  H37  1  0.74570000  0.45970000  0.17550000  1.0 0.1193171751
H  H38  1  0.91140000  0.53490000  0.19750000  1.0 0.1309359622
H  H39  1  0.88660000  0.74540000  0.11140000  1.0 0.1193171751
H  H40  1  0.72020000  0.67180000  0.09210000  1.0 0.1121037988
H  H41  1  0.54500000  0.45840000  0.46380000  1.0 0.1193171751
H  H42  1  0.41550000  0.43620000  0.35360000  1.0 0.1491845704
H  H43  1  0.40300000  0.20380000  0.29620000  1.0 0.1417143997
H  H44  1  0.52810000  0.23520000  0.40890000  1.0 0.1193171751
H  H45  1  0.27810000  0.23610000  0.21290000  1.0 0.1193171751
H  H46  1  0.29210000  0.39820000  0.24340000  1.0 0.1309359622
H  H47  1  0.17030000  0.42830000  0.14200000  1.0 0.1491845704
H  H48  1  0.02250000  0.37430000  0.04010000  1.0 0.1121037988
H  H49  1  0.00270000  0.13860000  0.02370000  1.0 0.1193171751
H  H50  1  0.14740000  0.18890000  0.12850000  1.0 0.1309359622
H  H51  1  0.93070000  0.29590000  0.66590000  1.0 0.1121037988
H  H52  1  0.02380000  0.22350000  0.67210000  1.0 0.1193171751
H  H53  1  0.80000000  0.03760000  0.49610000  1.0 0.1121037988
H  H54  1  0.71310000  0.11780000  0.48240000  1.0 0.1193171751
H  H55  1  0.11240000  0.18110000  0.61520000  1.0 0.1193171751
H  H56  1  0.11610000  0.94590000  0.61070000  1.0 0.1121037988
H  H57  1  0.85970000  0.94950000  0.57930000  1.0 0.1121037988
H  H58  1  0.23010000  0.21070000  0.55650000  1.0 0.1121037988
H  H59  1  0.39830000  0.28780000  0.57310000  1.0 0.1193171751
H  H60  1  0.44380000  0.11030000  0.70510000  1.0 0.1309359622
H  H61  1  0.27680000  0.03630000  0.69100000  1.0 0.1193171751
H  H62  1  0.00890000  0.80790000  0.54230000  1.0 0.1121037988
H  H63  1  0.91940000  0.65400000  0.52380000  1.0 0.1309359622
H  H64  1  0.75060000  0.67330000  0.63060000  1.0 0.1035686043
H  H65  1  0.83420000  0.82740000  0.64010000  1.0 0.1193171751
H  H66  1  0.80930000  0.44130000  0.99900000  1.0 0.1193171751
H  H67  1  0.72360000  0.52240000  0.98900000  1.0 0.1121037988
H  H68  1  0.50270000  0.34640000  0.80840000  1.0 0.1193171751
H  H69  1  0.58920000  0.27150000  0.81490000  1.0 0.1193171751
H  H70  1  0.66500000  0.61430000  0.92080000  1.0 0.1121037988
H  H71  1  0.41270000  0.61870000  0.89030000  1.0 0.1193171751
H  H72  1  0.41450000  0.38290000  0.88010000  1.0 0.1193171751
H  H73  1  0.73060000  0.75410000  0.98640000  1.0 0.1121037988
H  H74  1  0.81730000  0.90760000  0.97930000  1.0 0.1193171751
H  H75  1  0.56810000  0.89570000  0.83700000  1.0 0.1193171751
H  H76  1  0.49100000  0.74360000  0.82750000  1.0 0.1193171751
H  H77  1  0.25430000  0.54030000  0.82450000  1.0 0.1193171751
H  H78  1  0.08860000  0.46510000  0.80250000  1.0 0.1309359622
H  H79  1  0.11340000  0.25460000  0.88860000  1.0 0.1193171751
H  H80  1  0.27980000  0.32820000  0.90790000  1.0 0.1121037988
C  C1  1  0.48620000  0.59520000  0.57060000  1.0 0.0705982497
C  C2  1  0.56350000  0.60790000  0.63610000  1.0 -0.190745728
C  C3  1  0.60940000  0.68500000  0.68590000  1.0 0.1562584844
C  C4  1  0.57150000  0.74370000  0.66970000  1.0 -0.2072213683
C  C5  1  0.49570000  0.72280000  0.60250000  1.0 0.0893995198
C  C6  1  0.69530000  0.70770000  0.75760000  1.0 -0.1295064483
C  C7  1  0.73710000  0.65980000  0.78380000  1.0 -0.1105696403
C  C8  1  0.82640000  0.68620000  0.85230000  1.0 0.1491845704
C  C9  1  0.86330000  0.63260000  0.88020000  1.0 -0.2072213683
C  C10  1  0.95190000  0.66550000  0.94240000  1.0 0.1121037988
C  C11  1  0.96390000  0.80150000  0.95170000  1.0 0.0601209831
C  C12  1  0.87740000  0.77080000  0.88930000  1.0 -0.2072213683
C  C13  1  0.24050000  0.73330000  0.43480000  1.0 0.5738114771
C  C14  1  0.18610000  0.78440000  0.42950000  1.0 -0.0401528524
C  C15  1  0.09440000  0.75470000  0.37030000  1.0 -0.0901225203
C  C16  1  0.04070000  0.79980000  0.36500000  1.0 -0.1485478058
C  C17  1  0.07920000  0.87730000  0.41250000  1.0 0.0705982497
C  C18  1  0.17260000  0.90890000  0.47040000  1.0 -0.1583369999
C  C19  1  0.22440000  0.86130000  0.47820000  1.0 -0.0901225203
C  C20  1  0.02220000  0.92650000  0.40610000  1.0 0.0832329166
C  C21  1  0.92150000  0.88230000  0.39140000  1.0 -0.1977128748
C  C22  1  0.86880000  0.92870000  0.38590000  1.0 0.0832329166
C  C23  1  0.91910000  0.02180000  0.39220000  1.0 -0.1977128748
C  C24  1  0.01980000  0.06900000  0.40280000  1.0 0.0893995198
C  C25  1  0.07130000  0.01990000  0.41130000  1.0 -0.1977128748
C  C26  1  0.76220000  0.88180000  0.37580000  1.0 0.0705982497
C  C27  1  0.72610000  0.80880000  0.41210000  1.0 -0.1583369999
C  C28  1  0.62640000  0.76350000  0.40320000  1.0 -0.0997877437
C  C29  1  0.56290000  0.79500000  0.35850000  1.0 -0.0301878331
C  C30  1  0.59910000  0.86840000  0.32450000  1.0 -0.0901225203
C  C31  1  0.69870000  0.91240000  0.33290000  1.0 -0.1583369999
C  C32  1  0.45480000  0.74660000  0.34970000  1.0 0.559981918
C  C33  1  0.07200000  0.16630000  0.40900000  1.0 0.0705982497
C  C34  1  0.04580000  0.21990000  0.44140000  1.0 -0.1583369999
C  C35  1  0.09650000  0.31120000  0.45010000  1.0 -0.0901225203
C  C36  1  0.17210000  0.35350000  0.42060000  1.0 -0.0401528524
C  C37  1  0.19690000  0.29970000  0.38820000  1.0 -0.0997877437
C  C38  1  0.14710000  0.20760000  0.38260000  1.0 -0.1485478058
C  C39  1  0.22830000  0.45100000  0.42990000  1.0 0.5312556085
C  C40  1  0.23210000  0.69920000  0.08990000  1.0 0.559981918
C  C41  1  0.28990000  0.64960000  0.09490000  1.0 -0.0191190093
C  C42  1  0.25220000  0.57700000  0.04110000  1.0 -0.1105696403
C  C43  1  0.30520000  0.53030000  0.04580000  1.0 -0.1583369999
C  C44  1  0.39640000  0.55870000  0.09900000  1.0 0.0705982497
C  C45  1  0.43450000  0.63360000  0.15260000  1.0 -0.1393083575
C  C46  1  0.38260000  0.67700000  0.14900000  1.0 -0.0901225203
C  C47  1  0.45210000  0.50840000  0.10050000  1.0 0.0893995198
C  C48  1  0.40430000  0.41680000  0.09020000  1.0 -0.1977128748
C  C49  1  0.45390000  0.36790000  0.09530000  1.0 0.0832329166
C  C50  1  0.55290000  0.41420000  0.10740000  1.0 -0.190745728
C  C51  1  0.60520000  0.50640000  0.11620000  1.0 0.0832329166
C  C52  1  0.55200000  0.55360000  0.11310000  1.0 -0.1977128748
C  C53  1  0.40110000  0.26870000  0.09220000  1.0 0.0832329166
C  C54  1  0.30270000  0.21810000  0.04640000  1.0 -0.1686603371
C  C55  1  0.25180000  0.12540000  0.04800000  1.0 -0.0997877437
C  C56  1  0.30030000  0.08360000  0.08800000  1.0 -0.0032431919
C  C57  1  0.39720000  0.13300000  0.13370000  1.0 -0.0997877437
C  C58  1  0.44350000  0.22310000  0.13710000  1.0 -0.1583369999
C  C59  1  0.24370000  0.98240000  0.08260000  1.0 0.5054110047
C  C60  1  0.71320000  0.55670000  0.13150000  1.0 0.0705982497
C  C61  1  0.77390000  0.51830000  0.16290000  1.0 -0.1485478058
C  C62  1  0.87190000  0.56270000  0.17580000  1.0 -0.0901225203
C  C63  1  0.91540000  0.64810000  0.15790000  1.0 -0.0301878331
C  C64  1  0.85780000  0.68760000  0.12540000  1.0 -0.1105696403
C  C65  1  0.75900000  0.64340000  0.11340000  1.0 -0.1583369999
C  C66  1  0.02600000  0.69710000  0.17320000  1.0 0.5533934888
C  C67  1  0.51380000  0.40480000  0.42940000  1.0 0.0705982497
C  C68  1  0.43650000  0.39210000  0.36390000  1.0 -0.190745728
C  C69  1  0.39060000  0.31500000  0.31410000  1.0 0.1562584844
C  C70  1  0.42850000  0.25630000  0.33030000  1.0 -0.2072213683
C  C71  1  0.50430000  0.27720000  0.39750000  1.0 0.0893995198
C  C72  1  0.30470000  0.29230000  0.24240000  1.0 -0.1295064483
C  C73  1  0.26290000  0.34020000  0.21620000  1.0 -0.1105696403
C  C74  1  0.17360000  0.31380000  0.14770000  1.0 0.1491845704
C  C75  1  0.13670000  0.36740000  0.11980000  1.0 -0.2072213683
C  C76  1  0.04810000  0.33450000  0.05760000  1.0 0.1121037988
C  C77  1  0.03610000  0.19850000  0.04830000  1.0 0.0601209831
C  C78  1  0.12260000  0.22920000  0.11070000  1.0 -0.2072213683
C  C79  1  0.75950000  0.26670000  0.56520000  1.0 0.5738114771
C  C80  1  0.81390000  0.21560000  0.57050000  1.0 -0.0401528524
C  C81  1  0.90560000  0.24530000  0.62970000  1.0 -0.0901225203
C  C82  1  0.95930000  0.20020000  0.63500000  1.0 -0.1485478058
C  C83  1  0.92080000  0.12270000  0.58750000  1.0 0.0705982497
C  C84  1  0.82740000  0.09110000  0.52960000  1.0 -0.1583369999
C  C85  1  0.77560000  0.13870000  0.52180000  1.0 -0.0901225203
C  C86  1  0.97780000  0.07350000  0.59390000  1.0 0.0832329166
C  C87  1  0.07850000  0.11770000  0.60860000  1.0 -0.1977128748
C  C88  1  0.13120000  0.07130000  0.61410000  1.0 0.0832329166
C  C89  1  0.08090000  0.97820000  0.60780000  1.0 -0.1977128748
C  C90  1  0.98020000  0.93100000  0.59720000  1.0 0.0893995198
C  C91  1  0.92870000  0.98010000  0.58870000  1.0 -0.1977128748
C  C92  1  0.23780000  0.11820000  0.62420000  1.0 0.0705982497
C  C93  1  0.27390000  0.19120000  0.58790000  1.0 -0.1583369999
C  C94  1  0.37360000  0.23650000  0.59680000  1.0 -0.0997877437
C  C95  1  0.43710000  0.20500000  0.64150000  1.0 -0.0301878331
C  C96  1  0.40090000  0.13160000  0.67550000  1.0 -0.0901225203
C  C97  1  0.30130000  0.08760000  0.66710000  1.0 -0.1583369999
C  C98  1  0.54520000  0.25340000  0.65030000  1.0 0.559981918
C  C99  1  0.92800000  0.83370000  0.59100000  1.0 0.0705982497
C  C100  1  0.95420000  0.78010000  0.55860000  1.0 -0.1583369999
C  C101  1  0.90350000  0.68880000  0.54990000  1.0 -0.0901225203
C  C102  1  0.82790000  0.64650000  0.57940000  1.0 -0.0401528524
C  C103  1  0.80310000  0.70030000  0.61180000  1.0 -0.0997877437
C  C104  1  0.85290000  0.79240000  0.61740000  1.0 -0.1485478058
C  C105  1  0.77170000  0.54900000  0.57010000  1.0 0.5312556085
C  C106  1  0.76790000  0.30080000  0.91010000  1.0 0.559981918
C  C107  1  0.71010000  0.35040000  0.90510000  1.0 -0.0191190093
C  C108  1  0.74780000  0.42300000  0.95890000  1.0 -0.1105696403
C  C109  1  0.69480000  0.46970000  0.95420000  1.0 -0.1583369999
C  C110  1  0.60360000  0.44130000  0.90100000  1.0 0.0705982497
C  C111  1  0.56550000  0.36640000  0.84740000  1.0 -0.1393083575
C  C112  1  0.61740000  0.32300000  0.85100000  1.0 -0.0901225203
C  C113  1  0.54790000  0.49160000  0.89950000  1.0 0.0893995198
C  C114  1  0.59570000  0.58320000  0.90980000  1.0 -0.1977128748
C  C115  1  0.54610000  0.63210000  0.90470000  1.0 0.0832329166
C  C116  1  0.44710000  0.58580000  0.89260000  1.0 -0.190745728
C  C117  1  0.39480000  0.49360000  0.88380000  1.0 0.0832329166
C  C118  1  0.44800000  0.44640000  0.88690000  1.0 -0.1977128748
C  C119  1  0.59890000  0.73130000  0.90780000  1.0 0.0832329166
C  C120  1  0.69730000  0.78190000  0.95360000  1.0 -0.1686603371
C  C121  1  0.74820000  0.87460000  0.95200000  1.0 -0.0997877437
C  C122  1  0.69970000  0.91640000  0.91200000  1.0 -0.0032431919
C  C123  1  0.60280000  0.86700000  0.86630000  1.0 -0.0997877437
C  C124  1  0.55650000  0.77690000  0.86290000  1.0 -0.1583369999
C  C125  1  0.75630000  0.01760000  0.91740000  1.0 0.5054110047
C  C126  1  0.28680000  0.44330000  0.86850000  1.0 0.0705982497
C  C127  1  0.22610000  0.48170000  0.83710000  1.0 -0.1485478058
C  C128  1  0.12810000  0.43730000  0.82420000  1.0 -0.0901225203
C  C129  1  0.08460000  0.35190000  0.84210000  1.0 -0.0301878331
C  C130  1  0.14220000  0.31240000  0.87460000  1.0 -0.1105696403
C  C131  1  0.24100000  0.35660000  0.88660000  1.0 -0.1583369999
C  C132  1  0.97400000  0.30290000  0.82680000  1.0 0.5533934888
N  N1  1  0.45320000  0.65410000  0.55310000  1.0 -0.2395679559
N  N2  1  0.00000000  0.74450000  0.97700000  1.0 -0.2395679559
N  N3  1  0.54680000  0.34590000  0.44690000  1.0 -0.2340600285
N  N4  1  0.00000000  0.25550000  0.02300000  1.0 -0.2395679559
O  O1  1  0.22160000  0.68220000  0.37820000  1.0 -0.5625585261
O  O2  1  0.21160000  0.57310000  0.24640000  1.0 -0.2475308421
O  O3  1  0.30620000  0.74190000  0.49940000  1.0 -0.5625585261
O  O4  1  0.26100000  0.85920000  0.28130000  1.0 -0.1485478058
O  O5  1  0.40360000  0.78030000  0.31300000  1.0 -0.5410797763
O  O6  1  0.42600000  0.67780000  0.37930000  1.0 -0.5345039311
O  O7  1  0.28640000  0.48650000  0.39200000  1.0 -0.5410797763
O  O8  1  0.21440000  0.49850000  0.46850000  1.0 -0.5249131861
O  O9  1  0.25640000  0.75120000  0.14760000  1.0 -0.5499634686
O  O10  1  0.16870000  0.69240000  0.03090000  1.0 -0.5120235029
O  O11  1  0.15500000  0.94210000  0.04630000  1.0 -0.4934501293
O  O12  1  0.28050000  0.94250000  0.11740000  1.0 -0.4115366135
O  O13  1  0.07440000  0.65850000  0.20550000  1.0 -0.5410797763
O  O14  1  0.06280000  0.77500000  0.15530000  1.0 -0.5410797763
O  O15  1  0.77840000  0.31780000  0.62180000  1.0 -0.5625585261
O  O16  1  0.78840000  0.42690000  0.75360000  1.0 -0.2395679559
O  O17  1  0.69380000  0.25810000  0.50060000  1.0 -0.5625585261
O  O18  1  0.73900000  0.14080000  0.71870000  1.0 -0.1485478058
O  O19  1  0.59640000  0.21970000  0.68700000  1.0 -0.5410797763
O  O20  1  0.57400000  0.32220000  0.62070000  1.0 -0.5345039311
O  O21  1  0.71360000  0.51350000  0.60800000  1.0 -0.5410797763
O  O22  1  0.78560000  0.50150000  0.53150000  1.0 -0.5249131861
O  O23  1  0.74360000  0.24880000  0.85240000  1.0 -0.5499634686
O  O24  1  0.83130000  0.30760000  0.96910000  1.0 -0.5120235029
O  O25  1  0.84500000  0.05790000  0.95370000  1.0 -0.4934501293
O  O26  1  0.71950000  0.05750000  0.88260000  1.0 -0.4115366135
O  O27  1  0.92560000  0.34150000  0.79450000  1.0 -0.5410797763
O  O28  1  0.93720000  0.22500000  0.84470000  1.0 -0.5410797763
