# DDEC6 charges by PACMAN v1.1 (https://github.com/mtap-research/PACMAN-charge/)
data_FOGFAK_FSR_pacman
_symmetry_space_group_name_H-M   'P 1'
_cell_length_a   8.07690000
_cell_length_b   10.87230000
_cell_length_c   12.90900000
_cell_angle_alpha   101.51100000
_cell_angle_beta   96.39900000
_cell_angle_gamma   109.81700000
_symmetry_Int_Tables_number   1
_chemical_formula_structural   Zn2H18C12N2Cl2O7
_chemical_formula_sum   'Zn4 H36 C24 N4 Cl4 O14'
_cell_volume   1025.10235448
_cell_formula_units_Z   2
loop_
 _symmetry_equiv_pos_site_id
 _symmetry_equiv_pos_as_xyz
  1  'x, y, z'
loop_
 _atom_site_type_symbol
 _atom_site_label
 _atom_site_symmetry_multiplicity
 _atom_site_fract_x
 _atom_site_fract_y
 _atom_site_fract_z
 _atom_site_occupancy
 _atom_site_charge
Zn  Zn1  1  0.51291000  0.64882000  0.49816000  1.0 0.9458920489
Zn  Zn2  1  0.48709000  0.35118000  0.50184000  1.0 0.9458920489
Zn  Zn3  1  0.10138000  0.36887000  0.47758000  1.0 0.9555810522
Zn  Zn4  1  0.89862000  0.63113000  0.52242000  1.0 0.9555810522
H  H1  1  0.31100000  0.41900000  0.37000000  1.0 0.3929646741
H  H2  1  0.68900000  0.58100000  0.63000000  1.0 0.3929646741
H  H3  1  0.74400000  0.04700000  0.39900000  1.0 0.2918220366
H  H4  1  0.25600000  0.95300000  0.60100000  1.0 0.2918220366
H  H5  1  0.68200000  0.96400000  0.46900000  1.0 0.2918220366
H  H6  1  0.31800000  0.03600000  0.53100000  1.0 0.2918220366
H  H7  1  0.24200000  0.71900000  0.42200000  1.0 0.2848913203
H  H8  1  0.75800000  0.28100000  0.57800000  1.0 0.2848913203
H  H9  1  0.39600000  0.82200000  0.49000000  1.0 0.266075043
H  H10  1  0.60400000  0.17800000  0.51000000  1.0 0.266075043
H  H11  1  0.16290000  0.62090000  0.23950000  1.0 0.1400550435
H  H12  1  0.83710000  0.37910000  0.76050000  1.0 0.1400550435
H  H13  1  0.18540000  0.66830000  0.07210000  1.0 0.1686772536
H  H14  1  0.81460000  0.33170000  0.92790000  1.0 0.1686772536
H  H15  1  0.62800000  0.00370000  0.21170000  1.0 0.1298284213
H  H16  1  0.37200000  0.99630000  0.78830000  1.0 0.1298284213
H  H17  1  0.07300000  0.96520000  0.24380000  1.0 0.1686772536
H  H18  1  0.92700000  0.03480000  0.75620000  1.0 0.1686772536
H  H19  1  0.92330000  0.92900000  0.31610000  1.0 0.1625231727
H  H20  1  0.07670000  0.07100000  0.68390000  1.0 0.1625231727
H  H21  1  0.11270000  0.91660000  0.34980000  1.0 0.1686772536
H  H22  1  0.88730000  0.08340000  0.65020000  1.0 0.1686772536
H  H23  1  0.70410000  0.28290000  0.18900000  1.0 0.1534850802
H  H24  1  0.29590000  0.71710000  0.81100000  1.0 0.1534850802
H  H25  1  0.85260000  0.23730000  0.24510000  1.0 0.1686772536
H  H26  1  0.14740000  0.76270000  0.75490000  1.0 0.1686772536
H  H27  1  0.90140000  0.39170000  0.24160000  1.0 0.1686772536
H  H28  1  0.09860000  0.60830000  0.75840000  1.0 0.1686772536
H  H29  1  0.35500000  0.34010000  0.82450000  1.0 0.1625231727
H  H30  1  0.64500000  0.65990000  0.17550000  1.0 0.1625231727
H  H31  1  0.14450000  0.31040000  0.80940000  1.0 0.1534850802
H  H32  1  0.85550000  0.68960000  0.19060000  1.0 0.1534850802
H  H33  1  0.28580000  0.46290000  0.84060000  1.0 0.1625231727
H  H34  1  0.71420000  0.53710000  0.15940000  1.0 0.1625231727
H  H35  1  0.41450000  0.85980000  0.05880000  1.0 0.1625231727
H  H36  1  0.58550000  0.14020000  0.94120000  1.0 0.1625231727
C  C1  1  0.52000000  0.89970000  0.31880000  1.0 0.2121830712
C  C2  1  0.48000000  0.10030000  0.68120000  1.0 0.2121830712
C  C3  1  0.37890000  0.78600000  0.32660000  1.0 0.1869019399
C  C4  1  0.62110000  0.21400000  0.67340000  1.0 0.1869019399
C  C5  1  0.25640000  0.69950000  0.23410000  1.0 -0.2080338468
C  C6  1  0.74360000  0.30050000  0.76590000  1.0 -0.2080338468
C  C7  1  0.26990000  0.72710000  0.13470000  1.0 -0.0815214758
C  C8  1  0.73010000  0.27290000  0.86530000  1.0 -0.0815214758
C  C9  1  0.40630000  0.84020000  0.12690000  1.0 -0.053743653
C  C10  1  0.59370000  0.15980000  0.87310000  1.0 -0.053743653
C  C11  1  0.53310000  0.92670000  0.21830000  1.0 -0.2286639382
C  C12  1  0.46690000  0.07330000  0.78170000  1.0 -0.2286639382
C  C13  1  0.12610000  0.11170000  0.38290000  1.0 0.7015821169
C  C14  1  0.87390000  0.88830000  0.61710000  1.0 0.7015821169
C  C15  1  0.05240000  0.96830000  0.31750000  1.0 -0.6167420019
C  C16  1  0.94760000  0.03170000  0.68250000  1.0 -0.6167420019
C  C17  1  0.74860000  0.33990000  0.35380000  1.0 0.7067988644
C  C18  1  0.25140000  0.66010000  0.64620000  1.0 0.7067988644
C  C19  1  0.80670000  0.31040000  0.24820000  1.0 -0.6406750847
C  C20  1  0.19330000  0.68960000  0.75180000  1.0 -0.6406750847
C  C21  1  0.25200000  0.36650000  0.68210000  1.0 0.6879192124
C  C22  1  0.74800000  0.63350000  0.31790000  1.0 0.6879192124
C  C23  1  0.26000000  0.37030000  0.79930000  1.0 -0.5984241982
C  C24  1  0.74000000  0.62970000  0.20070000  1.0 -0.5984241982
N  N1  1  0.64090000  0.98920000  0.41110000  1.0 -0.5689777602
N  N2  1  0.35910000  0.01080000  0.58890000  1.0 -0.5689777602
N  N3  1  0.36230000  0.75540000  0.42800000  1.0 -0.5689777602
N  N4  1  0.63770000  0.24460000  0.57200000  1.0 -0.5689777602
Cl  Cl1  1  0.43630000  0.90550000  0.01390000  1.0 -0.0881084297
Cl  Cl2  1  0.56370000  0.09450000  0.98610000  1.0 -0.0881084297
Cl  Cl3  1  0.10900000  0.59490000  0.02200000  1.0 -0.0881084297
Cl  Cl4  1  0.89100000  0.40510000  0.97800000  1.0 -0.0881084297
O  O1  1  0.32900000  0.45190000  0.43680000  1.0 -0.8444470634
O  O2  1  0.67100000  0.54810000  0.56320000  1.0 -0.8444470634
O  O3  1  0.01710000  0.17380000  0.39410000  1.0 -0.5984241982
O  O4  1  0.98290000  0.82620000  0.60590000  1.0 -0.5984241982
O  O5  1  0.28780000  0.16080000  0.42710000  1.0 -0.5689777602
O  O6  1  0.71220000  0.83920000  0.57290000  1.0 -0.5689777602
O  O7  1  0.86780000  0.38560000  0.44060000  1.0 -0.6070048083
O  O8  1  0.13220000  0.61440000  0.55940000  1.0 -0.6070048083
O  O9  1  0.58810000  0.32300000  0.35580000  1.0 -0.5277685394
O  O10  1  0.41190000  0.67700000  0.64420000  1.0 -0.5277685394
O  O11  1  0.10700000  0.36170000  0.62950000  1.0 -0.5587938894
O  O12  1  0.89300000  0.63830000  0.37050000  1.0 -0.5587938894
O  O13  1  0.38830000  0.37020000  0.64540000  1.0 -0.5473731627
O  O14  1  0.61170000  0.62980000  0.35460000  1.0 -0.5473731627
