# DDEC6 charges by PACMAN v1.1 (https://github.com/mtap-research/PACMAN-charge/)
data_FOHSAW01_FSR_pacman
_symmetry_space_group_name_H-M   'P 1'
_cell_length_a   6.77450000
_cell_length_b   14.22000000
_cell_length_c   15.62900000
_cell_angle_alpha   90.00000000
_cell_angle_beta   101.10000000
_cell_angle_gamma   90.00000000
_symmetry_Int_Tables_number   1
_chemical_formula_structural   SrNiH14C6O13
_chemical_formula_sum   'Sr4 Ni4 H56 C24 O52'
_cell_volume   1477.42888913
_cell_formula_units_Z   4
loop_
 _symmetry_equiv_pos_site_id
 _symmetry_equiv_pos_as_xyz
  1  'x, y, z'
loop_
 _atom_site_type_symbol
 _atom_site_label
 _atom_site_symmetry_multiplicity
 _atom_site_fract_x
 _atom_site_fract_y
 _atom_site_fract_z
 _atom_site_occupancy
 _atom_site_charge
Sr  Sr1  1  0.23083000  0.58473000  0.45173000  1.0 1.4042979453
Sr  Sr2  1  0.76917000  0.08473000  0.04827000  1.0 1.4042979453
Sr  Sr3  1  0.76917000  0.41527000  0.54827000  1.0 1.4042979453
Sr  Sr4  1  0.23083000  0.91527000  0.95173000  1.0 1.4042979453
Ni  Ni1  1  0.22202000  0.73529000  0.70571000  1.0 0.9505606268
Ni  Ni2  1  0.77798000  0.23529000  0.79429000  1.0 0.9505606268
Ni  Ni3  1  0.77798000  0.26471000  0.29429000  1.0 0.9505606268
Ni  Ni4  1  0.22202000  0.76471000  0.20571000  1.0 0.9505606268
H  H1  1  0.49110000  0.53700000  0.76800000  1.0 0.1668052226
H  H2  1  0.50890000  0.03700000  0.73200000  1.0 0.1668052226
H  H3  1  0.50890000  0.46300000  0.23200000  1.0 0.1668052226
H  H4  1  0.49110000  0.96300000  0.26800000  1.0 0.1668052226
H  H5  1  0.69430000  0.54160000  0.73500000  1.0 0.1618734275
H  H6  1  0.30570000  0.04160000  0.76500000  1.0 0.1618734275
H  H7  1  0.30570000  0.45840000  0.26500000  1.0 0.1618734275
H  H8  1  0.69430000  0.95840000  0.23500000  1.0 0.1618734275
H  H9  1  0.71440000  0.60000000  0.19580000  1.0 0.1668052226
H  H10  1  0.28560000  0.10000000  0.30420000  1.0 0.1668052226
H  H11  1  0.28560000  0.40000000  0.80420000  1.0 0.1668052226
H  H12  1  0.71440000  0.90000000  0.69580000  1.0 0.1668052226
H  H13  1  0.87250000  0.56390000  0.14350000  1.0 0.1668052226
H  H14  1  0.12750000  0.06390000  0.35650000  1.0 0.1668052226
H  H15  1  0.12750000  0.43610000  0.85650000  1.0 0.1668052226
H  H16  1  0.87250000  0.93610000  0.64350000  1.0 0.1668052226
H  H17  1  0.41680000  0.82180000  0.61010000  1.0 0.3681624491
H  H18  1  0.58320000  0.32180000  0.88990000  1.0 0.3681624491
H  H19  1  0.58320000  0.17820000  0.38990000  1.0 0.3681624491
H  H20  1  0.41680000  0.67820000  0.11010000  1.0 0.3681624491
H  H21  1  0.27650000  0.89370000  0.61950000  1.0 0.3776430946
H  H22  1  0.72350000  0.39370000  0.88050000  1.0 0.3776430946
H  H23  1  0.72350000  0.10630000  0.38050000  1.0 0.3776430946
H  H24  1  0.27650000  0.60630000  0.11950000  1.0 0.3776430946
H  H25  1  0.02370000  0.63710000  0.79580000  1.0 0.3681624491
H  H26  1  0.97630000  0.13710000  0.70420000  1.0 0.3681624491
H  H27  1  0.97630000  0.36290000  0.20420000  1.0 0.3681624491
H  H28  1  0.02370000  0.86290000  0.29580000  1.0 0.3681624491
H  H29  1  0.12060000  0.57570000  0.74580000  1.0 0.3681624491
H  H30  1  0.87940000  0.07570000  0.75420000  1.0 0.3681624491
H  H31  1  0.87940000  0.42430000  0.25420000  1.0 0.3681624491
H  H32  1  0.12060000  0.92430000  0.24580000  1.0 0.3681624491
H  H33  1  0.54170000  0.70270000  0.38700000  1.0 0.3776430946
H  H34  1  0.45830000  0.20270000  0.11300000  1.0 0.3776430946
H  H35  1  0.45830000  0.29730000  0.61300000  1.0 0.3776430946
H  H36  1  0.54170000  0.79730000  0.88700000  1.0 0.3776430946
H  H37  1  0.58320000  0.71480000  0.47880000  1.0 0.3613586549
H  H38  1  0.41680000  0.21480000  0.02120000  1.0 0.3613586549
H  H39  1  0.41680000  0.28520000  0.52120000  1.0 0.3613586549
H  H40  1  0.58320000  0.78520000  0.97880000  1.0 0.3613586549
H  H41  1  0.99800000  0.77020000  0.41990000  1.0 0.3681624491
H  H42  1  0.00200000  0.27020000  0.08010000  1.0 0.3681624491
H  H43  1  0.00200000  0.22980000  0.58010000  1.0 0.3681624491
H  H44  1  0.99800000  0.72980000  0.91990000  1.0 0.3681624491
H  H45  1  0.10600000  0.77740000  0.50670000  1.0 0.350925484
H  H46  1  0.89400000  0.27740000  0.99330000  1.0 0.350925484
H  H47  1  0.89400000  0.22260000  0.49330000  1.0 0.350925484
H  H48  1  0.10600000  0.72260000  0.00670000  1.0 0.350925484
H  H49  1  0.08140000  0.37770000  0.44560000  1.0 0.3681624491
H  H50  1  0.91860000  0.87770000  0.05440000  1.0 0.3681624491
H  H51  1  0.91860000  0.62230000  0.55440000  1.0 0.3681624491
H  H52  1  0.08140000  0.12230000  0.94560000  1.0 0.3681624491
H  H53  1  0.22490000  0.40140000  0.52130000  1.0 0.350925484
H  H54  1  0.77510000  0.90140000  0.97870000  1.0 0.350925484
H  H55  1  0.77510000  0.59860000  0.47870000  1.0 0.350925484
H  H56  1  0.22490000  0.09860000  0.02130000  1.0 0.350925484
C  C1  1  0.45690000  0.58360000  0.64370000  1.0 0.6908342217
C  C2  1  0.54310000  0.08360000  0.85630000  1.0 0.6908342217
C  C3  1  0.54310000  0.41640000  0.35630000  1.0 0.6908342217
C  C4  1  0.45690000  0.91640000  0.14370000  1.0 0.6908342217
C  C5  1  0.57030000  0.57540000  0.73590000  1.0 -0.5345635738
C  C6  1  0.42970000  0.07540000  0.76410000  1.0 -0.5345635738
C  C7  1  0.42970000  0.42460000  0.26410000  1.0 -0.5345635738
C  C8  1  0.57030000  0.92460000  0.23590000  1.0 -0.5345635738
C  C9  1  0.62350000  0.66550000  0.78640000  1.0 0.6605640624
C  C10  1  0.37650000  0.16550000  0.71360000  1.0 0.6605640624
C  C11  1  0.37650000  0.33450000  0.21360000  1.0 0.6605640624
C  C12  1  0.62350000  0.83450000  0.28640000  1.0 0.6605640624
C  C13  1  0.99650000  0.60730000  0.26370000  1.0 0.6605640624
C  C14  1  0.00350000  0.10730000  0.23630000  1.0 0.6605640624
C  C15  1  0.00350000  0.39270000  0.73630000  1.0 0.6605640624
C  C16  1  0.99650000  0.89270000  0.76370000  1.0 0.6605640624
C  C17  1  0.84350000  0.61450000  0.18090000  1.0 -0.5345635738
C  C18  1  0.15650000  0.11450000  0.31910000  1.0 -0.5345635738
C  C19  1  0.15650000  0.38550000  0.81910000  1.0 -0.5345635738
C  C20  1  0.84350000  0.88550000  0.68090000  1.0 -0.5345635738
C  C21  1  0.81250000  0.70120000  0.12520000  1.0 0.6605640624
C  C22  1  0.18750000  0.20120000  0.37480000  1.0 0.6605640624
C  C23  1  0.18750000  0.29880000  0.87480000  1.0 0.6605640624
C  C24  1  0.81250000  0.79880000  0.62520000  1.0 0.6605640624
O  O1  1  0.30990000  0.64013000  0.62355000  1.0 -0.6220157768
O  O2  1  0.69010000  0.14013000  0.87645000  1.0 -0.6220157768
O  O3  1  0.69010000  0.35987000  0.37645000  1.0 -0.6220157768
O  O4  1  0.30990000  0.85987000  0.12355000  1.0 -0.6220157768
O  O5  1  0.50630000  0.53042000  0.58789000  1.0 -0.6422037508
O  O6  1  0.49370000  0.03042000  0.91211000  1.0 -0.6422037508
O  O7  1  0.49370000  0.46958000  0.41211000  1.0 -0.6422037508
O  O8  1  0.50630000  0.96958000  0.08789000  1.0 -0.6422037508
O  O9  1  0.79100000  0.66560000  0.83750000  1.0 -0.5690194692
O  O10  1  0.20900000  0.16560000  0.66250000  1.0 -0.5690194692
O  O11  1  0.20900000  0.33440000  0.16250000  1.0 -0.5690194692
O  O12  1  0.79100000  0.83440000  0.33750000  1.0 -0.5690194692
O  O13  1  0.50060000  0.73100000  0.78045000  1.0 -0.5580531981
O  O14  1  0.49940000  0.23100000  0.71955000  1.0 -0.5580531981
O  O15  1  0.49940000  0.26900000  0.21955000  1.0 -0.5580531981
O  O16  1  0.50060000  0.76900000  0.28045000  1.0 -0.5580531981
O  O17  1  0.13540000  0.66635000  0.28471000  1.0 -0.5903900589
O  O18  1  0.86460000  0.16635000  0.21529000  1.0 -0.5903900589
O  O19  1  0.86460000  0.33365000  0.71529000  1.0 -0.5903900589
O  O20  1  0.13540000  0.83365000  0.78471000  1.0 -0.5903900589
O  O21  1  0.97900000  0.53826000  0.31083000  1.0 -0.5903900589
O  O22  1  0.02100000  0.03826000  0.18917000  1.0 -0.5903900589
O  O23  1  0.02100000  0.46174000  0.68917000  1.0 -0.5903900589
O  O24  1  0.97900000  0.96174000  0.81083000  1.0 -0.5903900589
O  O25  1  0.94610000  0.76060000  0.12803000  1.0 -0.5580531981
O  O26  1  0.05390000  0.26060000  0.37197000  1.0 -0.5580531981
O  O27  1  0.05390000  0.23940000  0.87197000  1.0 -0.5580531981
O  O28  1  0.94610000  0.73940000  0.62803000  1.0 -0.5580531981
O  O29  1  0.64710000  0.70650000  0.07290000  1.0 -0.5473575916
O  O30  1  0.35290000  0.20650000  0.42710000  1.0 -0.5473575916
O  O31  1  0.35290000  0.29350000  0.92710000  1.0 -0.5473575916
O  O32  1  0.64710000  0.79350000  0.57290000  1.0 -0.5473575916
O  O33  1  0.31820000  0.83810000  0.63260000  1.0 -0.6698777999
O  O34  1  0.68180000  0.33810000  0.86740000  1.0 -0.6698777999
O  O35  1  0.68180000  0.16190000  0.36740000  1.0 -0.6698777999
O  O36  1  0.31820000  0.66190000  0.13260000  1.0 -0.6698777999
O  O37  1  0.12940000  0.62606000  0.77554000  1.0 -0.6698777999
O  O38  1  0.87060000  0.12606000  0.72446000  1.0 -0.6698777999
O  O39  1  0.87060000  0.37394000  0.22446000  1.0 -0.6698777999
O  O40  1  0.12940000  0.87394000  0.27554000  1.0 -0.6698777999
O  O41  1  0.54530000  0.67747000  0.43632000  1.0 -0.7328890886
O  O42  1  0.45470000  0.17747000  0.06368000  1.0 -0.7328890886
O  O43  1  0.45470000  0.32253000  0.56368000  1.0 -0.7328890886
O  O44  1  0.54530000  0.82253000  0.93632000  1.0 -0.7328890886
O  O45  1  0.10320000  0.75485000  0.45627000  1.0 -0.750963914
O  O46  1  0.89680000  0.25485000  0.04373000  1.0 -0.750963914
O  O47  1  0.89680000  0.24515000  0.54373000  1.0 -0.750963914
O  O48  1  0.10320000  0.74515000  0.95627000  1.0 -0.750963914
O  O49  1  0.11450000  0.41616000  0.48759000  1.0 -0.7787632819
O  O50  1  0.88550000  0.91616000  0.01241000  1.0 -0.7787632819
O  O51  1  0.88550000  0.58384000  0.51241000  1.0 -0.7787632819
O  O52  1  0.11450000  0.08384000  0.98759000  1.0 -0.7787632819
