# DDEC6 charges by PACMAN v1.1 (https://github.com/mtap-research/PACMAN-charge/)
data_FOJBIR_ASR_pacman
_symmetry_space_group_name_H-M   'P 1'
_cell_length_a   10.18700000
_cell_length_b   13.37700000
_cell_length_c   17.24100000
_cell_angle_alpha   101.12900000
_cell_angle_beta   100.06300000
_cell_angle_gamma   93.50600000
_symmetry_Int_Tables_number   1
_chemical_formula_structural   Cd3H54C64S2(N12O7)2
_chemical_formula_sum   'Cd3 H54 C64 S2 N24 O14'
_cell_volume   2258.83914151
_cell_formula_units_Z   1
loop_
 _symmetry_equiv_pos_site_id
 _symmetry_equiv_pos_as_xyz
  1  'x, y, z'
loop_
 _atom_site_type_symbol
 _atom_site_label
 _atom_site_symmetry_multiplicity
 _atom_site_fract_x
 _atom_site_fract_y
 _atom_site_fract_z
 _atom_site_occupancy
 _atom_site_charge
Cd  Cd1  1  0.50000000  0.50000000  0.50000000  1.0 0.6667831395
Cd  Cd2  1  0.72178000  0.92000000  0.85012000  1.0 0.8169277165
Cd  Cd3  1  0.27822000  0.08000000  0.14988000  1.0 0.8169277165
H  H1  1  0.81350000  0.16520000  0.36450000  1.0 0.1224524179
H  H2  1  0.18650000  0.83480000  0.63550000  1.0 0.1224524179
H  H3  1  0.74870000  0.00990000  0.39570000  1.0 0.1224524179
H  H4  1  0.25130000  0.99010000  0.60430000  1.0 0.1224524179
H  H5  1  0.94400000  0.11080000  0.62340000  1.0 0.1224524179
H  H6  1  0.05600000  0.88920000  0.37660000  1.0 0.1224524179
H  H7  1  0.00510000  0.26550000  0.59330000  1.0 0.137922545
H  H8  1  0.99490000  0.73450000  0.40670000  1.0 0.137922545
H  H9  1  0.90020000  0.33880000  0.40380000  1.0 0.1293183308
H  H10  1  0.09980000  0.66120000  0.59620000  1.0 0.1293183308
H  H11  1  0.94000000  0.38900000  0.49680000  1.0 0.1293183308
H  H12  1  0.06000000  0.61100000  0.50320000  1.0 0.1293183308
H  H13  1  0.73970000  0.90080000  0.48600000  1.0 0.137922545
H  H14  1  0.26030000  0.09920000  0.51400000  1.0 0.137922545
H  H15  1  0.88150000  0.90860000  0.54300000  1.0 0.1224524179
H  H16  1  0.11850000  0.09140000  0.45700000  1.0 0.1224524179
H  H17  1  0.32340000  0.28790000  0.36460000  1.0 0.1224524179
H  H18  1  0.67660000  0.71210000  0.63540000  1.0 0.1224524179
H  H19  1  0.18840000  0.45920000  0.53680000  1.0 0.1293183308
H  H20  1  0.81160000  0.54080000  0.46320000  1.0 0.1293183308
H  H21  1  0.50860000  0.99040000  0.69000000  1.0 0.1224524179
H  H22  1  0.49140000  0.00960000  0.31000000  1.0 0.1224524179
H  H23  1  0.87510000  0.93010000  0.69270000  1.0 0.1293183308
H  H24  1  0.12490000  0.06990000  0.30730000  1.0 0.1293183308
H  H25  1  0.00910000  0.42650000  0.11080000  1.0 0.1293183308
H  H26  1  0.99090000  0.57350000  0.88920000  1.0 0.1293183308
H  H27  1  0.18560000  0.53900000  0.10450000  1.0 0.1224524179
H  H28  1  0.81440000  0.46100000  0.89550000  1.0 0.1224524179
H  H29  1  0.77190000  0.36130000  0.06560000  1.0 0.137922545
H  H30  1  0.22810000  0.63870000  0.93440000  1.0 0.137922545
H  H31  1  0.69790000  0.37140000  0.97910000  1.0 0.1224524179
H  H32  1  0.30210000  0.62860000  0.02090000  1.0 0.1224524179
H  H33  1  0.96990000  0.07280000  0.96490000  1.0 0.1224524179
H  H34  1  0.03010000  0.92720000  0.03510000  1.0 0.1224524179
H  H35  1  0.62630000  0.17630000  0.91000000  1.0 0.1293183308
H  H36  1  0.37370000  0.82370000  0.09000000  1.0 0.1293183308
H  H37  1  0.57780000  0.53210000  0.13780000  1.0 0.137922545
H  H38  1  0.42220000  0.46790000  0.86220000  1.0 0.137922545
H  H39  1  0.40340000  0.40480000  0.07840000  1.0 0.1224524179
H  H40  1  0.59660000  0.59520000  0.92160000  1.0 0.1224524179
H  H41  1  0.72340000  0.67430000  0.13320000  1.0 0.1493389015
H  H42  1  0.27660000  0.32570000  0.86680000  1.0 0.1493389015
H  H43  1  0.80350000  0.62920000  0.06560000  1.0 0.1293183308
H  H44  1  0.19650000  0.37080000  0.93440000  1.0 0.1293183308
H  H45  1  0.59830000  0.95180000  0.02920000  1.0 0.1224524179
H  H46  1  0.40170000  0.04820000  0.97080000  1.0 0.1224524179
H  H47  1  0.82700000  0.74230000  0.96080000  1.0 0.1224524179
H  H48  1  0.17300000  0.25770000  0.03920000  1.0 0.1224524179
H  H49  1  0.21670000  0.90400000  0.84750000  1.0 0.1224524179
H  H50  1  0.78330000  0.09600000  0.15250000  1.0 0.1224524179
H  H51  1  0.98090000  0.63430000  0.76940000  1.0 0.1293183308
H  H52  1  0.01910000  0.36570000  0.23060000  1.0 0.1293183308
H  H53  1  0.37740000  0.64480000  0.76360000  1.0 0.137922545
H  H54  1  0.62260000  0.35520000  0.23640000  1.0 0.137922545
C  C1  1  0.91540000  0.23230000  0.47510000  1.0 0.089738501
C  C2  1  0.08460000  0.76770000  0.52490000  1.0 0.089738501
C  C3  1  0.83950000  0.15510000  0.41720000  1.0 -0.1498287167
C  C4  1  0.16050000  0.84490000  0.58280000  1.0 -0.1498287167
C  C5  1  0.80060000  0.06180000  0.43600000  1.0 -0.1591271158
C  C6  1  0.19940000  0.93820000  0.56400000  1.0 -0.1591271158
C  C7  1  0.83750000  0.04520000  0.51280000  1.0 0.0962029551
C  C8  1  0.16250000  0.95480000  0.48720000  1.0 0.0962029551
C  C9  1  0.91600000  0.12180000  0.57110000  1.0 -0.1498287167
C  C10  1  0.08400000  0.87820000  0.42890000  1.0 -0.1498287167
C  C11  1  0.95320000  0.21390000  0.55280000  1.0 -0.1318563665
C  C12  1  0.04680000  0.78610000  0.44720000  1.0 -0.1318563665
C  C13  1  0.95610000  0.33300000  0.45480000  1.0 -0.1899085736
C  C14  1  0.04390000  0.66700000  0.54520000  1.0 -0.1899085736
C  C15  1  0.80040000  0.94350000  0.53260000  1.0 -0.2038218524
C  C16  1  0.19960000  0.05650000  0.46740000  1.0 -0.2038218524
C  C17  1  0.26560000  0.31490000  0.39850000  1.0 0.137922545
C  C18  1  0.73440000  0.68510000  0.60150000  1.0 0.137922545
C  C19  1  0.19440000  0.40870000  0.49170000  1.0 0.089738501
C  C20  1  0.80560000  0.59130000  0.50830000  1.0 0.089738501
C  C21  1  0.59000000  0.97660000  0.67340000  1.0 0.137922545
C  C22  1  0.41000000  0.02340000  0.32660000  1.0 0.137922545
C  C23  1  0.78670000  0.94450000  0.67590000  1.0 0.089738501
C  C24  1  0.21330000  0.05550000  0.32410000  1.0 0.089738501
C  C25  1  0.89510000  0.42990000  0.00470000  1.0 0.089738501
C  C26  1  0.10490000  0.57010000  0.99530000  1.0 0.089738501
C  C27  1  0.00520000  0.45600000  0.06530000  1.0 -0.1230615597
C  C28  1  0.99480000  0.54400000  0.93470000  1.0 -0.1230615597
C  C29  1  0.11060000  0.52380000  0.06230000  1.0 -0.1498287167
C  C30  1  0.88940000  0.47620000  0.93770000  1.0 -0.1498287167
C  C31  1  0.78140000  0.35440000  0.00930000  1.0 -0.1899085736
C  C32  1  0.21860000  0.64560000  0.99070000  1.0 -0.1899085736
C  C33  1  0.90240000  0.11760000  0.96170000  1.0 0.1493389015
C  C34  1  0.09760000  0.88240000  0.03830000  1.0 0.1493389015
C  C35  1  0.71650000  0.17110000  0.93120000  1.0 0.089738501
C  C36  1  0.28350000  0.82890000  0.06880000  1.0 0.089738501
C  C37  1  0.60290000  0.57710000  0.03620000  1.0 0.089738501
C  C38  1  0.39710000  0.42290000  0.96380000  1.0 0.089738501
C  C39  1  0.54630000  0.51960000  0.08190000  1.0 -0.135929301
C  C40  1  0.45370000  0.48040000  0.91810000  1.0 -0.135929301
C  C41  1  0.44250000  0.44290000  0.04640000  1.0 -0.1498287167
C  C42  1  0.55750000  0.55710000  0.95360000  1.0 -0.1498287167
C  C43  1  0.71980000  0.65760000  0.07500000  1.0 -0.1899085736
C  C44  1  0.28020000  0.34240000  0.92500000  1.0 -0.1899085736
C  C45  1  0.64230000  0.89180000  0.02460000  1.0 0.1493389015
C  C46  1  0.35770000  0.10820000  0.97540000  1.0 0.1493389015
C  C47  1  0.76660000  0.77950000  0.98730000  1.0 0.0795424547
C  C48  1  0.23340000  0.22050000  0.01270000  1.0 0.0795424547
C  C49  1  0.31800000  0.78240000  0.80840000  1.0 -0.0068417723
C  C50  1  0.68200000  0.21760000  0.19160000  1.0 -0.0068417723
C  C51  1  0.20640000  0.83360000  0.82470000  1.0 -0.1498287167
C  C52  1  0.79360000  0.16640000  0.17530000  1.0 -0.1498287167
C  C53  1  0.08100000  0.77920000  0.80690000  1.0 -0.0068417723
C  C54  1  0.91900000  0.22080000  0.19310000  1.0 -0.0068417723
C  C55  1  0.06440000  0.67240000  0.77680000  1.0 -0.1230615597
C  C56  1  0.93560000  0.32760000  0.22320000  1.0 -0.1230615597
C  C57  1  0.17720000  0.62580000  0.75850000  1.0 -0.0837784033
C  C58  1  0.82280000  0.37420000  0.24150000  1.0 -0.0837784033
C  C59  1  0.30280000  0.67890000  0.77500000  1.0 -0.1318563665
C  C60  1  0.69720000  0.32110000  0.22500000  1.0 -0.1318563665
C  C61  1  0.45590000  0.83980000  0.82300000  1.0 0.5335284625
C  C62  1  0.54410000  0.16020000  0.17700000  1.0 0.5335284625
C  C63  1  0.95760000  0.83150000  0.82470000  1.0 0.5335284625
C  C64  1  0.04240000  0.16850000  0.17530000  1.0 0.5335284625
S  S1  1  0.15369000  0.49120000  0.71735000  1.0 1.1410372708
S  S2  1  0.84631000  0.50880000  0.28265000  1.0 1.1410372708
N  N1  1  0.09450000  0.34330000  0.44790000  1.0 0.1759653952
N  N2  1  0.90550000  0.65670000  0.55210000  1.0 0.1759653952
N  N3  1  0.13750000  0.27880000  0.38640000  1.0 -0.2713374342
N  N4  1  0.86250000  0.72120000  0.61360000  1.0 -0.2713374342
N  N5  1  0.30680000  0.39190000  0.46180000  1.0 -0.3180678632
N  N6  1  0.69320000  0.60810000  0.53820000  1.0 -0.3180678632
N  N7  1  0.73560000  0.95410000  0.60290000  1.0 0.1759653952
N  N8  1  0.26440000  0.04590000  0.39710000  1.0 0.1759653952
N  N9  1  0.60810000  0.97410000  0.59870000  1.0 -0.2488944526
N  N10  1  0.39190000  0.02590000  0.40130000  1.0 -0.2488944526
N  N11  1  0.69710000  0.95780000  0.72260000  1.0 -0.3045169856
N  N12  1  0.30290000  0.04220000  0.27740000  1.0 -0.3045169856
N  N13  1  0.80110000  0.24830000  0.97710000  1.0 0.168373641
N  N14  1  0.19890000  0.75170000  0.02290000  1.0 0.168373641
N  N15  1  0.92400000  0.21450000  0.99800000  1.0 -0.2488944526
N  N16  1  0.07600000  0.78550000  0.00200000  1.0 -0.2488944526
N  N17  1  0.77650000  0.08610000  0.91920000  1.0 -0.3180678632
N  N18  1  0.22350000  0.91390000  0.08080000  1.0 -0.3180678632
N  N19  1  0.70950000  0.75020000  0.04370000  1.0 0.168373641
N  N20  1  0.29050000  0.24980000  0.95630000  1.0 0.168373641
N  N21  1  0.62720000  0.82130000  0.06830000  1.0 -0.2713374342
N  N22  1  0.37280000  0.17870000  0.93170000  1.0 -0.2713374342
N  N23  1  0.72720000  0.86870000  0.97290000  1.0 -0.3180678632
N  N24  1  0.27280000  0.13130000  0.02710000  1.0 -0.3180678632
O  O1  1  0.54890000  0.79210000  0.80300000  1.0 -0.5154430415
O  O2  1  0.45110000  0.20790000  0.19700000  1.0 -0.5154430415
O  O3  1  0.47380000  0.93360000  0.85400000  1.0 -0.5697484161
O  O4  1  0.52620000  0.06640000  0.14600000  1.0 -0.5697484161
O  O5  1  0.96990000  0.92800000  0.84740000  1.0 -0.577725723
O  O6  1  0.03010000  0.07200000  0.15260000  1.0 -0.577725723
O  O7  1  0.84990000  0.77840000  0.81640000  1.0 -0.5317688729
O  O8  1  0.15010000  0.22160000  0.18360000  1.0 -0.5317688729
O  O9  1  0.28200000  0.46130000  0.69940000  1.0 -0.6364058103
O  O10  1  0.71800000  0.53870000  0.30060000  1.0 -0.6364058103
O  O11  1  0.05320000  0.47870000  0.64510000  1.0 -0.6312244679
O  O12  1  0.94680000  0.52130000  0.35490000  1.0 -0.6312244679
O  O13  1  0.11200000  0.44260000  0.77810000  1.0 -0.6146245148
O  O14  1  0.88800000  0.55740000  0.22190000  1.0 -0.6146245148
