# DDEC6 charges by PACMAN v1.1 (https://github.com/mtap-research/PACMAN-charge/)
data_FOKWIN_FSR_pacman
_symmetry_space_group_name_H-M   'P 1'
_cell_length_a   18.08400000
_cell_length_b   18.08400000
_cell_length_c   18.08400000
_cell_angle_alpha   146.85500000
_cell_angle_beta   146.85500000
_cell_angle_gamma   47.57920000
_symmetry_Int_Tables_number   1
_chemical_formula_structural   Co2H24C25(N4O)4
_chemical_formula_sum   'Co4 H48 C50 N32 O8'
_cell_volume   1761.02550099
_cell_formula_units_Z   2
loop_
 _symmetry_equiv_pos_site_id
 _symmetry_equiv_pos_as_xyz
  1  'x, y, z'
loop_
 _atom_site_type_symbol
 _atom_site_label
 _atom_site_symmetry_multiplicity
 _atom_site_fract_x
 _atom_site_fract_y
 _atom_site_fract_z
 _atom_site_occupancy
 _atom_site_charge
Co  Co1  1  0.37500000  0.62500000  0.75000000  1.0 0.7009852569
Co  Co2  1  0.87500000  0.62500000  0.25000000  1.0 0.7009852569
Co  Co3  1  0.37500000  0.12500000  0.75000000  1.0 0.7009852569
Co  Co4  1  0.37500000  0.62500000  0.25000000  1.0 0.7009852569
H  H1  1  0.53200000  0.89380000  0.06840000  1.0 0.1085579845
H  H2  1  0.82540000  0.46360000  0.93160000  1.0 0.1085579845
H  H3  1  0.64380000  0.07540000  0.86180000  1.0 0.1085579845
H  H4  1  0.21360000  0.78200000  0.13820000  1.0 0.1085579845
H  H5  1  0.21800000  0.35620000  0.43160000  1.0 0.1085579845
H  H6  1  0.92460000  0.78640000  0.56840000  1.0 0.1085579845
H  H7  1  0.10620000  0.17460000  0.63820000  1.0 0.1085579845
H  H8  1  0.53640000  0.46800000  0.36180000  1.0 0.1085579845
H  H9  1  0.66210000  0.89260000  0.96430000  1.0 0.1412912256
H  H10  1  0.92830000  0.69780000  0.03570000  1.0 0.1412912256
H  H11  1  0.64260000  0.17830000  0.73050000  1.0 0.1412912256
H  H12  1  0.44780000  0.91210000  0.26950000  1.0 0.1412912256
H  H13  1  0.08790000  0.35740000  0.53570000  1.0 0.1412912256
H  H14  1  0.82170000  0.55220000  0.46430000  1.0 0.1412912256
H  H15  1  0.10740000  0.07170000  0.76950000  1.0 0.1412912256
H  H16  1  0.30220000  0.33790000  0.23050000  1.0 0.1412912256
H  H17  1  0.56830000  0.66710000  0.68740000  1.0 0.1239184629
H  H18  1  0.97970000  0.88090000  0.31260000  1.0 0.1239184629
H  H19  1  0.41710000  0.22970000  0.59880000  1.0 0.1239184629
H  H20  1  0.63090000  0.81830000  0.40120000  1.0 0.1239184629
H  H21  1  0.18170000  0.58290000  0.81260000  1.0 0.1239184629
H  H22  1  0.77030000  0.36910000  0.18740000  1.0 0.1239184629
H  H23  1  0.33290000  0.02030000  0.90120000  1.0 0.1239184629
H  H24  1  0.11910000  0.43170000  0.09880000  1.0 0.1239184629
H  H25  1  0.46130000  0.56150000  0.61140000  1.0 0.1025141295
H  H26  1  0.95010000  0.84990000  0.38860000  1.0 0.1025141295
H  H27  1  0.31150000  0.20010000  0.60020000  1.0 0.1025141295
H  H28  1  0.59990000  0.71130000  0.39980000  1.0 0.1025141295
H  H29  1  0.28870000  0.68850000  0.88860000  1.0 0.1025141295
H  H30  1  0.79990000  0.40010000  0.11140000  1.0 0.1025141295
H  H31  1  0.43850000  0.04990000  0.89980000  1.0 0.1025141295
H  H32  1  0.15010000  0.53870000  0.10020000  1.0 0.1025141295
H  H33  1  0.58720000  0.12240000  0.29600000  1.0 0.1025141295
H  H34  1  0.82640000  0.29120000  0.70400000  1.0 0.1025141295
H  H35  1  0.87240000  0.07640000  0.03520000  1.0 0.1025141295
H  H36  1  0.04120000  0.83720000  0.96480000  1.0 0.1025141295
H  H37  1  0.16280000  0.12760000  0.20400000  1.0 0.1025141295
H  H38  1  0.92360000  0.95880000  0.79600000  1.0 0.1025141295
H  H39  1  0.87760000  0.17360000  0.46480000  1.0 0.1025141295
H  H40  1  0.70880000  0.41280000  0.53520000  1.0 0.1025141295
H  H41  1  0.72620000  0.06230000  0.37570000  1.0 0.1085579845
H  H42  1  0.68660000  0.35050000  0.62430000  1.0 0.1085579845
H  H43  1  0.81230000  0.93660000  0.83610000  1.0 0.1085579845
H  H44  1  0.10050000  0.97620000  0.16390000  1.0 0.1085579845
H  H45  1  0.02380000  0.18770000  0.12430000  1.0 0.1085579845
H  H46  1  0.06340000  0.89950000  0.87570000  1.0 0.1085579845
H  H47  1  0.93770000  0.31340000  0.66390000  1.0 0.1085579845
H  H48  1  0.64950000  0.27380000  0.33610000  1.0 0.1085579845
C  C1  1  0.54000000  0.84700000  0.98980000  1.0 -0.0897286587
C  C2  1  0.85720000  0.55020000  0.01020000  1.0 -0.0897286587
C  C3  1  0.59700000  0.10720000  0.80700000  1.0 -0.0897286587
C  C4  1  0.30020000  0.79000000  0.19300000  1.0 -0.0897286587
C  C5  1  0.21000000  0.40300000  0.51020000  1.0 -0.0897286587
C  C6  1  0.89280000  0.69980000  0.48980000  1.0 -0.0897286587
C  C7  1  0.15300000  0.14280000  0.69300000  1.0 -0.0897286587
C  C8  1  0.44980000  0.46000000  0.30700000  1.0 -0.0897286587
C  C9  1  0.60672000  0.91342000  0.04370000  1.0 0.1982899088
C  C10  1  0.86972000  0.56302000  0.95630000  1.0 0.1982899088
C  C11  1  0.66342000  0.11972000  0.80670000  1.0 0.1982899088
C  C12  1  0.31302000  0.85672000  0.19330000  1.0 0.1982899088
C  C13  1  0.14328000  0.33658000  0.45630000  1.0 0.1982899088
C  C14  1  0.88028000  0.68698000  0.54370000  1.0 0.1982899088
C  C15  1  0.08658000  0.13028000  0.69330000  1.0 0.1982899088
C  C16  1  0.43698000  0.39328000  0.30670000  1.0 0.1982899088
C  C17  1  0.61752000  0.84712000  0.93040000  1.0 -0.1701467267
C  C18  1  0.91672000  0.68712000  0.06960000  1.0 -0.1701467267
C  C19  1  0.59712000  0.16672000  0.72960000  1.0 -0.1701467267
C  C20  1  0.43712000  0.86752000  0.27040000  1.0 -0.1701467267
C  C21  1  0.13248000  0.40288000  0.56960000  1.0 -0.1701467267
C  C22  1  0.83328000  0.56288000  0.43040000  1.0 -0.1701467267
C  C23  1  0.15288000  0.08328000  0.77040000  1.0 -0.1701467267
C  C24  1  0.31288000  0.38248000  0.22960000  1.0 -0.1701467267
C  C25  1  0.56257000  0.71627000  0.76930000  1.0 -0.115895163
C  C26  1  0.94697000  0.79327000  0.23070000  1.0 -0.115895163
C  C27  1  0.46627000  0.19697000  0.65370000  1.0 -0.115895163
C  C28  1  0.54327000  0.81257000  0.34630000  1.0 -0.115895163
C  C29  1  0.18743000  0.53373000  0.73070000  1.0 -0.115895163
C  C30  1  0.80303000  0.45673000  0.26930000  1.0 -0.115895163
C  C31  1  0.28373000  0.05303000  0.84630000  1.0 -0.115895163
C  C32  1  0.20673000  0.43743000  0.15370000  1.0 -0.115895163
C  C33  1  0.49807000  0.65437000  0.72370000  1.0 0.0431576114
C  C34  1  0.93067000  0.77437000  0.27630000  1.0 0.0431576114
C  C35  1  0.40437000  0.18067000  0.65630000  1.0 0.0431576114
C  C36  1  0.52437000  0.74807000  0.34370000  1.0 0.0431576114
C  C37  1  0.25193000  0.59563000  0.77630000  1.0 0.0431576114
C  C38  1  0.81933000  0.47563000  0.22370000  1.0 0.0431576114
C  C39  1  0.34563000  0.06933000  0.84370000  1.0 0.0431576114
C  C40  1  0.22563000  0.50193000  0.15630000  1.0 0.0431576114
C  C41  1  0.67504000  0.11164000  0.33980000  1.0 -0.0897286587
C  C42  1  0.77184000  0.33524000  0.66020000  1.0 -0.0897286587
C  C43  1  0.86164000  0.02184000  0.93660000  1.0 -0.0897286587
C  C44  1  0.08524000  0.92504000  0.06340000  1.0 -0.0897286587
C  C45  1  0.07496000  0.13836000  0.16020000  1.0 -0.0897286587
C  C46  1  0.97816000  0.91476000  0.83980000  1.0 -0.0897286587
C  C47  1  0.88836000  0.22816000  0.56340000  1.0 -0.0897286587
C  C48  1  0.66476000  0.32496000  0.43660000  1.0 -0.0897286587
C  C49  1  0.75000000  0.25000000  0.50000000  1.0 0.0864584822
C  C50  1  0.00000000  0.00000000  0.00000000  1.0 0.0864584822
N  N1  1  0.48576000  0.71866000  0.83150000  1.0 -0.1864996978
N  N2  1  0.88716000  0.65426000  0.16850000  1.0 -0.1864996978
N  N3  1  0.46866000  0.13716000  0.73290000  1.0 -0.1864996978
N  N4  1  0.40426000  0.73576000  0.26710000  1.0 -0.1864996978
N  N5  1  0.26424000  0.53134000  0.66850000  1.0 -0.1864996978
N  N6  1  0.86284000  0.59574000  0.33150000  1.0 -0.1864996978
N  N7  1  0.28134000  0.11284000  0.76710000  1.0 -0.1864996978
N  N8  1  0.34574000  0.51424000  0.23290000  1.0 -0.1864996978
N  N9  1  0.24618000  0.51038000  0.46720000  1.0 -0.4400110204
N  N10  1  0.04318000  0.77898000  0.53280000  1.0 -0.4400110204
N  N11  1  0.26038000  0.29318000  0.76420000  1.0 -0.4400110204
N  N12  1  0.52898000  0.49618000  0.23580000  1.0 -0.4400110204
N  N13  1  0.50382000  0.73962000  0.03280000  1.0 -0.4400110204
N  N14  1  0.70682000  0.47102000  0.96720000  1.0 -0.4400110204
N  N15  1  0.48962000  0.95682000  0.73580000  1.0 -0.4400110204
N  N16  1  0.22102000  0.75382000  0.26420000  1.0 -0.4400110204
N  N17  1  0.12892000  0.49092000  0.34820000  1.0 0.4247240635
N  N18  1  0.14272000  0.78072000  0.65180000  1.0 0.4247240635
N  N19  1  0.24092000  0.39272000  0.86200000  1.0 0.4247240635
N  N20  1  0.53072000  0.37892000  0.13800000  1.0 0.4247240635
N  N21  1  0.62108000  0.75908000  0.15180000  1.0 0.4254688661
N  N22  1  0.60728000  0.46928000  0.84820000  1.0 0.4247240635
N  N23  1  0.50908000  0.85728000  0.63800000  1.0 0.4247240635
N  N24  1  0.21928000  0.87108000  0.36200000  1.0 0.4247240635
N  N25  1  0.01027000  0.46667000  0.22320000  1.0 -0.4635691975
N  N26  1  0.24347000  0.78707000  0.77680000  1.0 -0.4635691975
N  N27  1  0.21667000  0.49347000  0.95640000  1.0 -0.4635691975
N  N28  1  0.53707000  0.26027000  0.04360000  1.0 -0.4635691975
N  N29  1  0.73973000  0.78333000  0.27680000  1.0 -0.4635691975
N  N30  1  0.50653000  0.46293000  0.72320000  1.0 -0.4635691975
N  N31  1  0.53333000  0.75653000  0.54360000  1.0 -0.4635691975
N  N32  1  0.21293000  0.98973000  0.45640000  1.0 -0.4635691975
O  O1  1  0.66302000  0.04302000  0.20240000  1.0 -0.1701467267
O  O2  1  0.84062000  0.46062000  0.79760000  1.0 -0.1701467267
O  O3  1  0.79302000  0.09062000  0.88000000  1.0 -0.1701467267
O  O4  1  0.21062000  0.91302000  0.12000000  1.0 -0.1701467267
O  O5  1  0.08698000  0.20698000  0.29760000  1.0 -0.1701467267
O  O6  1  0.90938000  0.78938000  0.70240000  1.0 -0.1701467267
O  O7  1  0.95698000  0.15938000  0.62000000  1.0 -0.1701467267
O  O8  1  0.53938000  0.33698000  0.38000000  1.0 -0.1701467267
