# DDEC6 charges by PACMAN v1.1 (https://github.com/mtap-research/PACMAN-charge/)
data_FOMPEF_ASR_pacman
_symmetry_space_group_name_H-M   'P 1'
_cell_length_a   11.64300000
_cell_length_b   16.03940000
_cell_length_c   13.99740000
_cell_angle_alpha   90.00000000
_cell_angle_beta   106.59000000
_cell_angle_gamma   90.00000000
_symmetry_Int_Tables_number   1
_chemical_formula_structural   Cu2H32C46N16Cl
_chemical_formula_sum   'Cu4 H64 C92 N32 Cl2'
_cell_volume   2505.15554952
_cell_formula_units_Z   2
loop_
 _symmetry_equiv_pos_site_id
 _symmetry_equiv_pos_as_xyz
  1  'x, y, z'
loop_
 _atom_site_type_symbol
 _atom_site_label
 _atom_site_symmetry_multiplicity
 _atom_site_fract_x
 _atom_site_fract_y
 _atom_site_fract_z
 _atom_site_occupancy
 _atom_site_charge
Cu  Cu1  1  0.50000000  0.00000000  0.00000000  1.0 0.3480427449
Cu  Cu2  1  0.53848000  0.00000000  0.25708000  1.0 0.5303225404
Cu  Cu3  1  0.46152000  0.00000000  0.74292000  1.0 0.5303225404
Cu  Cu4  1  0.50000000  0.00000000  0.50000000  1.0 0.5743035858
H  H1  1  0.69450000  0.68990000  0.01850000  1.0 0.1024267141
H  H2  1  0.80250000  0.56940000  0.03240000  1.0 0.1024267141
H  H3  1  0.33300000  0.67500000  0.43000000  1.0 0.1189032828
H  H4  1  0.23020000  0.55220000  0.38830000  1.0 0.1024267141
H  H5  1  0.21280000  0.74990000  0.14580000  1.0 0.1024267141
H  H6  1  0.10960000  0.62540000  0.10460000  1.0 0.0943450226
H  H7  1  0.95660000  0.61770000  0.32020000  1.0 0.0943450226
H  H8  1  0.84510000  0.73930000  0.30750000  1.0 0.1189032828
H  H9  1  0.08390000  0.61440000  0.35680000  1.0 0.0943450226
H  H10  1  0.18730000  0.73870000  0.39560000  1.0 0.1189032828
H  H11  1  0.93570000  0.62280000  0.05810000  1.0 0.0943450226
H  H12  1  0.82690000  0.74650000  0.04060000  1.0 0.1024267141
H  H13  1  0.34180000  0.69660000  0.18040000  1.0 0.1024267141
H  H14  1  0.24280000  0.57190000  0.14410000  1.0 0.0943450226
H  H15  1  0.80480000  0.55210000  0.27910000  1.0 0.1059649174
H  H16  1  0.70650000  0.67650000  0.27070000  1.0 0.1189032828
H  H17  1  0.30550000  0.68990000  0.98150000  1.0 0.1024267141
H  H18  1  0.19750000  0.56940000  0.96760000  1.0 0.1024267141
H  H19  1  0.66700000  0.67500000  0.57000000  1.0 0.1189032828
H  H20  1  0.76980000  0.55220000  0.61170000  1.0 0.1024267141
H  H21  1  0.78720000  0.74990000  0.85420000  1.0 0.1024267141
H  H22  1  0.89040000  0.62540000  0.89540000  1.0 0.0943450226
H  H23  1  0.04340000  0.61770000  0.67980000  1.0 0.1024267141
H  H24  1  0.15490000  0.73930000  0.69250000  1.0 0.1189032828
H  H25  1  0.91610000  0.61440000  0.64320000  1.0 0.0943450226
H  H26  1  0.81270000  0.73870000  0.60440000  1.0 0.1189032828
H  H27  1  0.06430000  0.62280000  0.94190000  1.0 0.0943450226
H  H28  1  0.17310000  0.74650000  0.95940000  1.0 0.1024267141
H  H29  1  0.65820000  0.69660000  0.81960000  1.0 0.1024267141
H  H30  1  0.75720000  0.57190000  0.85590000  1.0 0.0943450226
H  H31  1  0.19520000  0.55210000  0.72090000  1.0 0.1059649174
H  H32  1  0.29350000  0.67650000  0.72930000  1.0 0.1189032828
H  H33  1  0.30550000  0.31010000  0.98150000  1.0 0.1024267141
H  H34  1  0.19750000  0.43060000  0.96760000  1.0 0.1024267141
H  H35  1  0.66700000  0.32500000  0.57000000  1.0 0.1189032828
H  H36  1  0.76980000  0.44780000  0.61170000  1.0 0.1024267141
H  H37  1  0.78720000  0.25010000  0.85420000  1.0 0.1024267141
H  H38  1  0.89040000  0.37460000  0.89540000  1.0 0.0943450226
H  H39  1  0.04340000  0.38230000  0.67980000  1.0 0.1024267141
H  H40  1  0.15490000  0.26070000  0.69250000  1.0 0.1189032828
H  H41  1  0.91610000  0.38560000  0.64320000  1.0 0.0943450226
H  H42  1  0.81270000  0.26130000  0.60440000  1.0 0.1189032828
H  H43  1  0.06430000  0.37720000  0.94190000  1.0 0.0943450226
H  H44  1  0.17310000  0.25350000  0.95940000  1.0 0.1024267141
H  H45  1  0.65820000  0.30340000  0.81960000  1.0 0.1024267141
H  H46  1  0.75720000  0.42810000  0.85590000  1.0 0.0943450226
H  H47  1  0.19520000  0.44790000  0.72090000  1.0 0.1059649174
H  H48  1  0.29350000  0.32350000  0.72930000  1.0 0.1189032828
H  H49  1  0.69450000  0.31010000  0.01850000  1.0 0.1024267141
H  H50  1  0.80250000  0.43060000  0.03240000  1.0 0.1024267141
H  H51  1  0.33300000  0.32500000  0.43000000  1.0 0.1189032828
H  H52  1  0.23020000  0.44780000  0.38830000  1.0 0.1024267141
H  H53  1  0.21280000  0.25010000  0.14580000  1.0 0.1024267141
H  H54  1  0.10960000  0.37460000  0.10460000  1.0 0.0943450226
H  H55  1  0.95660000  0.38230000  0.32020000  1.0 0.0943450226
H  H56  1  0.84510000  0.26070000  0.30750000  1.0 0.1189032828
H  H57  1  0.08390000  0.38560000  0.35680000  1.0 0.0943450226
H  H58  1  0.18730000  0.26130000  0.39560000  1.0 0.1189032828
H  H59  1  0.93570000  0.37720000  0.05810000  1.0 0.0943450226
H  H60  1  0.82690000  0.25350000  0.04060000  1.0 0.1024267141
H  H61  1  0.34180000  0.30340000  0.18040000  1.0 0.1024267141
H  H62  1  0.24280000  0.42810000  0.14410000  1.0 0.0943450226
H  H63  1  0.80480000  0.44790000  0.27910000  1.0 0.1059649174
H  H64  1  0.70650000  0.32350000  0.27070000  1.0 0.1189032828
C  C1  1  0.34990000  0.80530000  0.31940000  1.0 0.1979266962
C  C2  1  0.69040000  0.80549000  0.14970000  1.0 0.1979266962
C  C3  1  0.75750000  0.72691000  0.15840000  1.0 0.0187788047
C  C4  1  0.88940000  0.57875000  0.17660000  1.0 0.0500973679
C  C5  1  0.28210000  0.72702000  0.29350000  1.0 0.0187788047
C  C6  1  0.15110000  0.57872000  0.24400000  1.0 0.0500973679
C  C7  1  0.74700000  0.67570000  0.08000000  1.0 -0.0506359084
C  C8  1  0.81190000  0.60280000  0.08830000  1.0 -0.0506359084
C  C9  1  0.28680000  0.66620000  0.36470000  1.0 -0.0506359084
C  C10  1  0.22380000  0.59290000  0.33980000  1.0 -0.062144782
C  C11  1  0.21500000  0.71070000  0.19530000  1.0 -0.062144782
C  C12  1  0.15160000  0.63640000  0.17050000  1.0 -0.0800182921
C  C13  1  0.90270000  0.63200000  0.25950000  1.0 -0.0800182921
C  C14  1  0.83710000  0.70530000  0.25220000  1.0 -0.0699265403
C  C15  1  0.13670000  0.63040000  0.32130000  1.0 -0.062144782
C  C16  1  0.19940000  0.70450000  0.34580000  1.0 -0.0699265403
C  C17  1  0.89090000  0.63480000  0.10180000  1.0 -0.0800182921
C  C18  1  0.82570000  0.70910000  0.09100000  1.0 -0.0506359084
C  C19  1  0.29210000  0.67940000  0.21810000  1.0 -0.0506359084
C  C20  1  0.23020000  0.60490000  0.19470000  1.0 -0.0506359084
C  C21  1  0.81420000  0.59280000  0.23470000  1.0 -0.0699265403
C  C22  1  0.75280000  0.66666667  0.22760000  1.0 -0.0327765084
C  C23  1  0.65010000  0.80530000  0.68060000  1.0 0.1979266962
C  C24  1  0.30960000  0.80549000  0.85030000  1.0 0.1979266962
C  C25  1  0.24250000  0.72691000  0.84160000  1.0 0.0187788047
C  C26  1  0.11060000  0.57875000  0.82340000  1.0 0.0500973679
C  C27  1  0.71790000  0.72702000  0.70650000  1.0 0.0187788047
C  C28  1  0.84890000  0.57872000  0.75600000  1.0 0.0500973679
C  C29  1  0.25300000  0.67570000  0.92000000  1.0 -0.0506359084
C  C30  1  0.18810000  0.60280000  0.91170000  1.0 -0.0506359084
C  C31  1  0.71320000  0.66620000  0.63530000  1.0 -0.0506359084
C  C32  1  0.77620000  0.59290000  0.66020000  1.0 -0.062144782
C  C33  1  0.78500000  0.71070000  0.80470000  1.0 -0.062144782
C  C34  1  0.84840000  0.63640000  0.82950000  1.0 -0.0800182921
C  C35  1  0.09730000  0.63200000  0.74050000  1.0 -0.0800182921
C  C36  1  0.16290000  0.70530000  0.74780000  1.0 -0.0699265403
C  C37  1  0.86330000  0.63040000  0.67870000  1.0 -0.062144782
C  C38  1  0.80060000  0.70450000  0.65420000  1.0 -0.0699265403
C  C39  1  0.10910000  0.63480000  0.89820000  1.0 -0.0800182921
C  C40  1  0.17430000  0.70910000  0.90900000  1.0 -0.0506359084
C  C41  1  0.70790000  0.67940000  0.78190000  1.0 -0.0506359084
C  C42  1  0.76980000  0.60490000  0.80530000  1.0 -0.0506359084
C  C43  1  0.18580000  0.59280000  0.76530000  1.0 -0.0699265403
C  C44  1  0.24720000  0.66666667  0.77240000  1.0 -0.0351011308
C  C45  1  0.65010000  0.19470000  0.68060000  1.0 0.1979266962
C  C46  1  0.30960000  0.19451000  0.85030000  1.0 0.1979266962
C  C47  1  0.24250000  0.27309000  0.84160000  1.0 0.0187788047
C  C48  1  0.11060000  0.42125000  0.82340000  1.0 0.0500973679
C  C49  1  0.71790000  0.27298000  0.70650000  1.0 0.0187788047
C  C50  1  0.84890000  0.42128000  0.75600000  1.0 0.0500973679
C  C51  1  0.25300000  0.32430000  0.92000000  1.0 -0.0506359084
C  C52  1  0.18810000  0.39720000  0.91170000  1.0 -0.0506359084
C  C53  1  0.71320000  0.33380000  0.63530000  1.0 -0.0506359084
C  C54  1  0.77620000  0.40710000  0.66020000  1.0 -0.062144782
C  C55  1  0.78500000  0.28930000  0.80470000  1.0 -0.062144782
C  C56  1  0.84840000  0.36360000  0.82950000  1.0 -0.0800182921
C  C57  1  0.09730000  0.36800000  0.74050000  1.0 -0.0800182921
C  C58  1  0.16290000  0.29470000  0.74780000  1.0 -0.0699265403
C  C59  1  0.86330000  0.36960000  0.67870000  1.0 -0.062144782
C  C60  1  0.80060000  0.29550000  0.65420000  1.0 -0.0699265403
C  C61  1  0.10910000  0.36520000  0.89820000  1.0 -0.0800182921
C  C62  1  0.17430000  0.29090000  0.90900000  1.0 -0.0506359084
C  C63  1  0.70790000  0.32060000  0.78190000  1.0 -0.0506359084
C  C64  1  0.76980000  0.39510000  0.80530000  1.0 -0.0506359084
C  C65  1  0.18580000  0.40720000  0.76530000  1.0 -0.0699265403
C  C66  1  0.24720000  0.33333333  0.77240000  1.0 -0.0351011308
C  C67  1  0.34990000  0.19470000  0.31940000  1.0 0.1979266962
C  C68  1  0.69040000  0.19451000  0.14970000  1.0 0.1979266962
C  C69  1  0.75750000  0.27309000  0.15840000  1.0 0.0187788047
C  C70  1  0.88940000  0.42125000  0.17660000  1.0 0.0500973679
C  C71  1  0.28210000  0.27298000  0.29350000  1.0 0.0187788047
C  C72  1  0.15110000  0.42128000  0.24400000  1.0 0.0500973679
C  C73  1  0.74700000  0.32430000  0.08000000  1.0 -0.0506359084
C  C74  1  0.81190000  0.39720000  0.08830000  1.0 -0.0506359084
C  C75  1  0.28680000  0.33380000  0.36470000  1.0 -0.0506359084
C  C76  1  0.22380000  0.40710000  0.33980000  1.0 -0.062144782
C  C77  1  0.21500000  0.28930000  0.19530000  1.0 -0.062144782
C  C78  1  0.15160000  0.36360000  0.17050000  1.0 -0.0800182921
C  C79  1  0.90270000  0.36800000  0.25950000  1.0 -0.0800182921
C  C80  1  0.83710000  0.29470000  0.25220000  1.0 -0.0699265403
C  C81  1  0.13670000  0.36960000  0.32130000  1.0 -0.062144782
C  C82  1  0.19940000  0.29550000  0.34580000  1.0 -0.0699265403
C  C83  1  0.89090000  0.36520000  0.10180000  1.0 -0.0800182921
C  C84  1  0.82570000  0.29090000  0.09100000  1.0 -0.0506359084
C  C85  1  0.29210000  0.32060000  0.21810000  1.0 -0.0506359084
C  C86  1  0.23020000  0.39510000  0.19470000  1.0 -0.0506359084
C  C87  1  0.81420000  0.40720000  0.23470000  1.0 -0.0699265403
C  C88  1  0.75280000  0.33333333  0.22760000  1.0 -0.0327765084
C  C89  1  0.08080000  0.50000000  0.22140000  1.0 -0.3161650564
C  C90  1  0.96050000  0.50000000  0.19010000  1.0 -0.2926886791
C  C91  1  0.91920000  0.50000000  0.77860000  1.0 -0.3161650564
C  C92  1  0.03950000  0.50000000  0.80990000  1.0 -0.2926886791
N  N1  1  0.59240000  0.91224000  0.09176000  1.0 -0.0327765084
N  N2  1  0.60730000  0.91190000  0.18810000  1.0 -0.0190439601
N  N3  1  0.44940000  0.91216000  0.30835000  1.0 -0.0190439601
N  N4  1  0.37170000  0.84357000  0.40690000  1.0 -0.2364733035
N  N5  1  0.64360000  0.84575000  0.06443000  1.0 -0.2603323797
N  N6  1  0.43450000  0.91105000  0.39761000  1.0 -0.0111734823
N  N7  1  0.39740000  0.84610000  0.25630000  1.0 -0.2715655083
N  N8  1  0.66910000  0.84453000  0.22816000  1.0 -0.2326200272
N  N9  1  0.40760000  0.91224000  0.90824000  1.0 -0.0327765084
N  N10  1  0.39270000  0.91190000  0.81190000  1.0 -0.0190439601
N  N11  1  0.55060000  0.91216000  0.69165000  1.0 -0.0190439601
N  N12  1  0.62830000  0.84357000  0.59310000  1.0 -0.2364733035
N  N13  1  0.35640000  0.84575000  0.93557000  1.0 -0.2603323797
N  N14  1  0.56550000  0.91105000  0.60239000  1.0 -0.0111734823
N  N15  1  0.60260000  0.84610000  0.74370000  1.0 -0.2715655083
N  N16  1  0.33090000  0.84453000  0.77184000  1.0 -0.2326200272
N  N17  1  0.40760000  0.08776000  0.90824000  1.0 -0.0327765084
N  N18  1  0.39270000  0.08810000  0.81190000  1.0 -0.0190439601
N  N19  1  0.55060000  0.08784000  0.69165000  1.0 -0.0190439601
N  N20  1  0.62830000  0.15643000  0.59310000  1.0 -0.2364733035
N  N21  1  0.35640000  0.15425000  0.93557000  1.0 -0.2603323797
N  N22  1  0.56550000  0.08895000  0.60239000  1.0 -0.0111734823
N  N23  1  0.60260000  0.15390000  0.74370000  1.0 -0.2715655083
N  N24  1  0.33090000  0.15547000  0.77184000  1.0 -0.2326200272
N  N25  1  0.59240000  0.08776000  0.09176000  1.0 -0.0327765084
N  N26  1  0.60730000  0.08810000  0.18810000  1.0 -0.0190439601
N  N27  1  0.44940000  0.08784000  0.30835000  1.0 -0.0190439601
N  N28  1  0.37170000  0.15643000  0.40690000  1.0 -0.2364733035
N  N29  1  0.64360000  0.15425000  0.06443000  1.0 -0.2603323797
N  N30  1  0.43450000  0.08895000  0.39761000  1.0 -0.0111734823
N  N31  1  0.39740000  0.15390000  0.25630000  1.0 -0.2715655083
N  N32  1  0.66910000  0.15547000  0.22816000  1.0 -0.2326200272
Cl  Cl1  1  0.69553000  0.00000000  0.42812000  1.0 -0.6795575435
Cl  Cl2  1  0.30447000  0.00000000  0.57188000  1.0 -0.6795575435
