# DDEC6 charges by PACMAN v1.1 (https://github.com/mtap-research/PACMAN-charge/)
data_FONXOY_FSR_pacman
_symmetry_space_group_name_H-M   'P 1'
_cell_length_a   15.80480000
_cell_length_b   15.80480000
_cell_length_c   15.80480000
_cell_angle_alpha   120.29200000
_cell_angle_beta   120.29200000
_cell_angle_gamma   89.49550000
_symmetry_Int_Tables_number   1
_chemical_formula_structural   CoH9C9(N4O)2
_chemical_formula_sum   'Co8 H72 C72 N64 O16'
_cell_volume   2779.14205035
_cell_formula_units_Z   8
loop_
 _symmetry_equiv_pos_site_id
 _symmetry_equiv_pos_as_xyz
  1  'x, y, z'
loop_
 _atom_site_type_symbol
 _atom_site_label
 _atom_site_symmetry_multiplicity
 _atom_site_fract_x
 _atom_site_fract_y
 _atom_site_fract_z
 _atom_site_occupancy
 _atom_site_charge
Co  Co1  1  0.87208000  0.10453000  0.32827000  1.0 0.7298856922
Co  Co2  1  0.77626000  0.54381000  0.67173000  1.0 0.7298856922
Co  Co3  1  0.85453000  0.02626000  0.73245000  1.0 0.7298856922
Co  Co4  1  0.29381000  0.12208000  0.26755000  1.0 0.7298856922
Co  Co5  1  0.87792000  0.14547000  0.17173000  1.0 0.7298856922
Co  Co6  1  0.97374000  0.70619000  0.82827000  1.0 0.7298856922
Co  Co7  1  0.89547000  0.22374000  0.76755000  1.0 0.7298856922
Co  Co8  1  0.45619000  0.12792000  0.23245000  1.0 0.7298856922
H  H1  1  0.06140000  0.46580000  0.52900000  1.0 0.0850087874
H  H2  1  0.02460000  0.45060000  0.59960000  1.0 0.1166428081
H  H3  1  0.88860000  0.22080000  0.55880000  1.0 0.1315342443
H  H4  1  0.83500000  0.77570000  0.22930000  1.0 0.1683949092
H  H5  1  0.84470000  0.87990000  0.24620000  1.0 0.2361953132
H  H6  1  0.82860000  0.81520000  0.51780000  1.0 0.0696719638
H  H7  1  0.82920000  0.87180000  0.24060000  1.0 0.2124775448
H  H8  1  0.80550000  0.77560000  0.22130000  1.0 0.1683949092
H  H9  1  0.77320000  0.81170000  0.48970000  1.0 0.0612239413
H  H10  1  0.93680000  0.53240000  0.47100000  1.0 0.0848061093
H  H11  1  0.85100000  0.42500000  0.40040000  1.0 0.1166428081
H  H12  1  0.66200000  0.32980000  0.44120000  1.0 0.1315342443
H  H13  1  0.54640000  0.60570000  0.77070000  1.0 0.1683949092
H  H14  1  0.63370000  0.59850000  0.75380000  1.0 0.2361953132
H  H15  1  0.29740000  0.31080000  0.48220000  1.0 0.0696719638
H  H16  1  0.63120000  0.58860000  0.75940000  1.0 0.2124775448
H  H17  1  0.55430000  0.58420000  0.77870000  1.0 0.1683949092
H  H18  1  0.32200000  0.28350000  0.51030000  1.0 0.0612239413
H  H19  1  0.21580000  0.18680000  0.90440000  1.0 0.0850087874
H  H20  1  0.20060000  0.10100000  0.92600000  1.0 0.1166428081
H  H21  1  0.97080000  0.91200000  0.83220000  1.0 0.1315342443
H  H22  1  0.52570000  0.79640000  0.44070000  1.0 0.1683949092
H  H23  1  0.62990000  0.88370000  0.53520000  1.0 0.2361953132
H  H24  1  0.56520000  0.54740000  0.48660000  1.0 0.0696719638
H  H25  1  0.62180000  0.88120000  0.54260000  1.0 0.2124775448
H  H26  1  0.52560000  0.80430000  0.47010000  1.0 0.1683949092
H  H27  1  0.56170000  0.57200000  0.53850000  1.0 0.0612239413
H  H28  1  0.28240000  0.31140000  0.09560000  1.0 0.0848061093
H  H29  1  0.17500000  0.27460000  0.07400000  1.0 0.1166428081
H  H30  1  0.07980000  0.13860000  0.16780000  1.0 0.1315342443
H  H31  1  0.35570000  0.08500000  0.55930000  1.0 0.1683949092
H  H32  1  0.34850000  0.09470000  0.46480000  1.0 0.2361953132
H  H33  1  0.06080000  0.07860000  0.51340000  1.0 0.0696719638
H  H34  1  0.33860000  0.07920000  0.45740000  1.0 0.2124775448
H  H35  1  0.33420000  0.05550000  0.52990000  1.0 0.1683949092
H  H36  1  0.03350000  0.02320000  0.46150000  1.0 0.0612239413
H  H37  1  0.68860000  0.78420000  0.97100000  1.0 0.0850087874
H  H38  1  0.72540000  0.79940000  0.90040000  1.0 0.1166428081
H  H39  1  0.86140000  0.02920000  0.94120000  1.0 0.1315342443
H  H40  1  0.91500000  0.47430000  0.27070000  1.0 0.1683949092
H  H41  1  0.90530000  0.37010000  0.25380000  1.0 0.2361953132
H  H42  1  0.92140000  0.43480000  0.98220000  1.0 0.0696719638
H  H43  1  0.92080000  0.37820000  0.25940000  1.0 0.2124775448
H  H44  1  0.94450000  0.47440000  0.27870000  1.0 0.1683949092
H  H45  1  0.97680000  0.43830000  0.01030000  1.0 0.0612239413
H  H46  1  0.81320000  0.71760000  0.02900000  1.0 0.0848061093
H  H47  1  0.89900000  0.82500000  0.09960000  1.0 0.1166428081
H  H48  1  0.08800000  0.92020000  0.05880000  1.0 0.1315342443
H  H49  1  0.20360000  0.64430000  0.72930000  1.0 0.1683949092
H  H50  1  0.11630000  0.65150000  0.74620000  1.0 0.2361953132
H  H51  1  0.45260000  0.93920000  0.01780000  1.0 0.0696719638
H  H52  1  0.11880000  0.66140000  0.74060000  1.0 0.2124775448
H  H53  1  0.19570000  0.66580000  0.72130000  1.0 0.1683949092
H  H54  1  0.42800000  0.96650000  0.98970000  1.0 0.0612239413
H  H55  1  0.53420000  0.06320000  0.59560000  1.0 0.0850087874
H  H56  1  0.54940000  0.14900000  0.57400000  1.0 0.1166428081
H  H57  1  0.77920000  0.33800000  0.66780000  1.0 0.1315342443
H  H58  1  0.22430000  0.45360000  0.05930000  1.0 0.1683949092
H  H59  1  0.12010000  0.36630000  0.96480000  1.0 0.2361953132
H  H60  1  0.18480000  0.70260000  0.01340000  1.0 0.0696719638
H  H61  1  0.12820000  0.36880000  0.95740000  1.0 0.2124775448
H  H62  1  0.22440000  0.44570000  0.02990000  1.0 0.1683949092
H  H63  1  0.18830000  0.67800000  0.96150000  1.0 0.0612239413
H  H64  1  0.46760000  0.93860000  0.40440000  1.0 0.0848061093
H  H65  1  0.57500000  0.97540000  0.42600000  1.0 0.1166428081
H  H66  1  0.67020000  0.11140000  0.33220000  1.0 0.1315342443
H  H67  1  0.39430000  0.16500000  0.94070000  1.0 0.1683949092
H  H68  1  0.40150000  0.15530000  0.03520000  1.0 0.2346082055
H  H69  1  0.68920000  0.17140000  0.98660000  1.0 0.0696719638
H  H70  1  0.41140000  0.17080000  0.04260000  1.0 0.2124775448
H  H71  1  0.41580000  0.19450000  0.97010000  1.0 0.1683949092
H  H72  1  0.71650000  0.22680000  0.03850000  1.0 0.0612239413
C  C1  1  0.00120000  0.43440000  0.52040000  1.0 -0.3439190961
C  C2  1  0.84300000  0.98770000  0.43490000  1.0 -0.0523039313
C  C3  1  0.84774000  0.02054000  0.53640000  1.0 0.2721591466
C  C4  1  0.96127000  0.31907000  0.42960000  1.0 0.6032311939
C  C5  1  0.87476000  0.15126000  0.53510000  1.0 0.1315342443
C  C6  1  0.83890000  0.88170000  0.36500000  1.0 0.1683949092
C  C7  1  0.83350000  0.86100000  0.49710000  1.0 0.1315342443
C  C8  1  0.79120000  0.85940000  0.47720000  1.0 0.1315342443
C  C9  1  0.80160000  0.87880000  0.34620000  1.0 0.1683949092
C  C10  1  0.91400000  0.48080000  0.47960000  1.0 -0.3439190961
C  C11  1  0.55280000  0.40810000  0.56510000  1.0 -0.0523039313
C  C12  1  0.48414000  0.31134000  0.46360000  1.0 0.2721591466
C  C13  1  0.88947000  0.53167000  0.57040000  1.0 0.6032311939
C  C14  1  0.61616000  0.33966000  0.46490000  1.0 0.1315342443
C  C15  1  0.51670000  0.47390000  0.63500000  1.0 0.1683949092
C  C16  1  0.36390000  0.33640000  0.50290000  1.0 0.1315342443
C  C17  1  0.38220000  0.31400000  0.52280000  1.0 0.1315342443
C  C18  1  0.53260000  0.45540000  0.65380000  1.0 0.1683949092
C  C19  1  0.18440000  0.16400000  0.93320000  1.0 -0.3439190961
C  C20  1  0.73770000  0.80280000  0.64470000  1.0 -0.0523039313
C  C21  1  0.77054000  0.73414000  0.67280000  1.0 0.2721591466
C  C22  1  0.06907000  0.13947000  0.85780000  1.0 0.6032311939
C  C23  1  0.90126000  0.86616000  0.77650000  1.0 0.1315342443
C  C24  1  0.63170000  0.76670000  0.54280000  1.0 0.1683949092
C  C25  1  0.61100000  0.61390000  0.52750000  1.0 0.1315342443
C  C26  1  0.60940000  0.63220000  0.56820000  1.0 0.1315342443
C  C27  1  0.62880000  0.78260000  0.57720000  1.0 0.1683949092
C  C28  1  0.23080000  0.25120000  0.06680000  1.0 -0.3439190961
C  C29  1  0.15810000  0.09300000  0.35530000  1.0 -0.0523039313
C  C30  1  0.06134000  0.09774000  0.32720000  1.0 0.2721591466
C  C31  1  0.28167000  0.21127000  0.14220000  1.0 0.6032311939
C  C32  1  0.08966000  0.12476000  0.22350000  1.0 0.1315342443
C  C33  1  0.22390000  0.08890000  0.45720000  1.0 0.1647315048
C  C34  1  0.08640000  0.08350000  0.47250000  1.0 0.1315342443
C  C35  1  0.06400000  0.04120000  0.43180000  1.0 0.1315342443
C  C36  1  0.20540000  0.05160000  0.42280000  1.0 0.1683949092
C  C37  1  0.74880000  0.81560000  0.97960000  1.0 -0.3439190961
C  C38  1  0.90700000  0.26230000  0.06510000  1.0 -0.0523039313
C  C39  1  0.90226000  0.22946000  0.96360000  1.0 0.2721591466
C  C40  1  0.78873000  0.93093000  0.07040000  1.0 0.6032311939
C  C41  1  0.87524000  0.09874000  0.96490000  1.0 0.1315342443
C  C42  1  0.91110000  0.36830000  0.13500000  1.0 0.1683949092
C  C43  1  0.91650000  0.38900000  0.00290000  1.0 0.1315342443
C  C44  1  0.95880000  0.39060000  0.02280000  1.0 0.1315342443
C  C45  1  0.94840000  0.37120000  0.15380000  1.0 0.1683949092
C  C46  1  0.83600000  0.76920000  0.02040000  1.0 -0.3439190961
C  C47  1  0.19720000  0.84190000  0.93490000  1.0 -0.0523039313
C  C48  1  0.26586000  0.93866000  0.03640000  1.0 0.2721591466
C  C49  1  0.86053000  0.71833000  0.92960000  1.0 0.6032311939
C  C50  1  0.13384000  0.91034000  0.03510000  1.0 0.1315342443
C  C51  1  0.23330000  0.77610000  0.86500000  1.0 0.1683949092
C  C52  1  0.38610000  0.91360000  0.99710000  1.0 0.1315342443
C  C53  1  0.36780000  0.93600000  0.97720000  1.0 0.1315342443
C  C54  1  0.21740000  0.79460000  0.84620000  1.0 0.1683949092
C  C55  1  0.56560000  0.08600000  0.56680000  1.0 -0.3439190961
C  C56  1  0.01230000  0.44720000  0.85530000  1.0 -0.0523039313
C  C57  1  0.97946000  0.51586000  0.82720000  1.0 0.2721591466
C  C58  1  0.68093000  0.11053000  0.64220000  1.0 0.6032311939
C  C59  1  0.84874000  0.38384000  0.72350000  1.0 0.1315342443
C  C60  1  0.11830000  0.48330000  0.95720000  1.0 0.1683949092
C  C61  1  0.13900000  0.63610000  0.97250000  1.0 0.1315342443
C  C62  1  0.14060000  0.61780000  0.93180000  1.0 0.1315342443
C  C63  1  0.12120000  0.46740000  0.92280000  1.0 0.1683949092
C  C64  1  0.51920000  0.99880000  0.43320000  1.0 -0.3439190961
C  C65  1  0.59190000  0.15700000  0.14470000  1.0 -0.0523039313
C  C66  1  0.68866000  0.15226000  0.17280000  1.0 0.2721591466
C  C67  1  0.46833000  0.03873000  0.35780000  1.0 0.6032311939
C  C68  1  0.66034000  0.12524000  0.27650000  1.0 0.1315342443
C  C69  1  0.52610000  0.16110000  0.04280000  1.0 0.1683949092
C  C70  1  0.66360000  0.16650000  0.02750000  1.0 0.1315342443
C  C71  1  0.68600000  0.20880000  0.06820000  1.0 0.1315342443
C  C72  1  0.54460000  0.19840000  0.07720000  1.0 0.1683949092
N  N1  1  0.86780000  0.12538000  0.60134000  1.0 -0.3855229742
N  N2  1  0.86097000  0.07273000  0.43406000  1.0 -0.3528525918
N  N3  1  0.83960000  0.84130000  0.26970000  1.0 -0.1799364291
N  N4  1  0.84190000  0.95710000  0.56880000  1.0 -0.3278100505
N  N5  1  0.83110000  0.82070000  0.39900000  1.0 -0.1799364291
N  N6  1  0.78870000  0.83120000  0.23650000  1.0 -0.1567638922
N  N7  1  0.82340000  0.96240000  0.56900000  1.0 -0.3962250553
N  N8  1  0.78150000  0.81540000  0.37210000  1.0 -0.1799364291
N  N9  1  0.52404000  0.26646000  0.39866000  1.0 -0.3855229742
N  N10  1  0.63867000  0.42691000  0.56594000  1.0 -0.3528525918
N  N11  1  0.57160000  0.56990000  0.73030000  1.0 -0.1799364291
N  N12  1  0.38830000  0.27310000  0.43120000  1.0 -0.3278100505
N  N13  1  0.42170000  0.43210000  0.60100000  1.0 -0.1799364291
N  N14  1  0.59470000  0.55220000  0.76350000  1.0 -0.1567638922
N  N15  1  0.39340000  0.25440000  0.43100000  1.0 -0.3962250553
N  N16  1  0.44330000  0.40940000  0.62790000  1.0 -0.1799364291
N  N17  1  0.87538000  0.77404000  0.75758000  1.0 -0.3855229742
N  N18  1  0.82273000  0.88867000  0.71176000  1.0 -0.3528525918
N  N19  1  0.59130000  0.82160000  0.50170000  1.0 -0.1799364291
N  N20  1  0.70710000  0.63830000  0.61520000  1.0 -0.3278100505
N  N21  1  0.57070000  0.67170000  0.48960000  1.0 -0.1799364291
N  N22  1  0.58120000  0.84470000  0.54250000  1.0 -0.1567638922
N  N23  1  0.71240000  0.64340000  0.63900000  1.0 -0.3962250553
N  N24  1  0.56540000  0.69330000  0.53390000  1.0 -0.1799364291
N  N25  1  0.01646000  0.11780000  0.24242000  1.0 -0.384739501
N  N26  1  0.17691000  0.11097000  0.28824000  1.0 -0.3528525918
N  N27  1  0.31990000  0.08960000  0.49830000  1.0 -0.1799364291
N  N28  1  0.02310000  0.09190000  0.38480000  1.0 -0.3278100505
N  N29  1  0.18210000  0.08110000  0.51040000  1.0 -0.1799364291
N  N30  1  0.30220000  0.03870000  0.45750000  1.0 -0.1567638922
N  N31  1  0.00440000  0.07340000  0.36100000  1.0 -0.3962250553
N  N32  1  0.15940000  0.03150000  0.46610000  1.0 -0.1799364291
N  N33  1  0.88220000  0.12462000  0.89866000  1.0 -0.384739501
N  N34  1  0.88903000  0.17727000  0.06594000  1.0 -0.3528525918
N  N35  1  0.91040000  0.40870000  0.23030000  1.0 -0.1799364291
N  N36  1  0.90810000  0.29290000  0.93120000  1.0 -0.3278100505
N  N37  1  0.91890000  0.42930000  0.10100000  1.0 -0.1799364291
N  N38  1  0.96130000  0.41880000  0.26350000  1.0 -0.1567638922
N  N39  1  0.92660000  0.28760000  0.93100000  1.0 -0.3962250553
N  N40  1  0.96850000  0.43460000  0.12790000  1.0 -0.1799364291
N  N41  1  0.22596000  0.98354000  0.10134000  1.0 -0.384739501
N  N42  1  0.11133000  0.82309000  0.93406000  1.0 -0.3528525918
N  N43  1  0.17840000  0.68010000  0.76970000  1.0 -0.1799364291
N  N44  1  0.36170000  0.97690000  0.06880000  1.0 -0.3278100505
N  N45  1  0.32830000  0.81790000  0.89900000  1.0 -0.1799364291
N  N46  1  0.15530000  0.69780000  0.73650000  1.0 -0.1567638922
N  N47  1  0.35660000  0.99560000  0.06900000  1.0 -0.3962250553
N  N48  1  0.30670000  0.84060000  0.87210000  1.0 -0.1799364291
N  N49  1  0.87462000  0.47596000  0.74242000  1.0 -0.3855229742
N  N50  1  0.92727000  0.36133000  0.78824000  1.0 -0.3528525918
N  N51  1  0.15870000  0.42840000  0.99830000  1.0 -0.1799364291
N  N52  1  0.04290000  0.61170000  0.88480000  1.0 -0.3278100505
N  N53  1  0.17930000  0.57830000  0.01040000  1.0 -0.1799364291
N  N54  1  0.16880000  0.40530000  0.95750000  1.0 -0.1567638922
N  N55  1  0.03760000  0.60660000  0.86100000  1.0 -0.3962250553
N  N56  1  0.18460000  0.55670000  0.96610000  1.0 -0.1799364291
N  N57  1  0.73354000  0.13220000  0.25758000  1.0 -0.384739501
N  N58  1  0.57309000  0.13903000  0.21176000  1.0 -0.3528525918
N  N59  1  0.43010000  0.16040000  0.00170000  1.0 -0.1799364291
N  N60  1  0.72690000  0.15810000  0.11520000  1.0 -0.3278100505
N  N61  1  0.56790000  0.16890000  0.98960000  1.0 -0.1799364291
N  N62  1  0.44780000  0.21130000  0.04250000  1.0 -0.1567638922
N  N63  1  0.74560000  0.17660000  0.13900000  1.0 -0.3962250553
N  N64  1  0.59060000  0.21850000  0.03390000  1.0 -0.1799364291
O  O1  1  0.93847000  0.28804000  0.32717000  1.0 -0.5481121964
O  O2  1  0.94987000  0.26030000  0.45683000  1.0 -0.4825280137
O  O3  1  0.96087000  0.61130000  0.67283000  1.0 -0.5481121964
O  O4  1  0.80347000  0.49304000  0.54317000  1.0 -0.4825280137
O  O5  1  0.03804000  0.21087000  0.84957000  1.0 -0.5481121964
O  O6  1  0.01030000  0.05347000  0.81043000  1.0 -0.4825280137
O  O7  1  0.36130000  0.18847000  0.15043000  1.0 -0.5481121964
O  O8  1  0.24304000  0.19987000  0.18957000  1.0 -0.4825280137
O  O9  1  0.81153000  0.96196000  0.17283000  1.0 -0.5481121964
O  O10  1  0.80013000  0.98970000  0.04317000  1.0 -0.4825280137
O  O11  1  0.78913000  0.63870000  0.82717000  1.0 -0.5481121964
O  O12  1  0.94653000  0.75696000  0.95683000  1.0 -0.4825280137
O  O13  1  0.71196000  0.03913000  0.65043000  1.0 -0.5481121964
O  O14  1  0.73970000  0.19653000  0.68957000  1.0 -0.4825280137
O  O15  1  0.38870000  0.06153000  0.34957000  1.0 -0.5481121964
O  O16  1  0.50696000  0.05013000  0.31043000  1.0 -0.4825280137
