# DDEC6 charges by PACMAN v1.1 (https://github.com/mtap-research/PACMAN-charge/)
data_FOQNUW02_FSR_pacman
_symmetry_space_group_name_H-M   'P 1'
_cell_length_a   10.06650000
_cell_length_b   32.72000000
_cell_length_c   15.31900000
_cell_angle_alpha   90.00000000
_cell_angle_beta   107.13700000
_cell_angle_gamma   90.00000000
_symmetry_Int_Tables_number   1
_chemical_formula_structural   Cu3H14C28(NO6)4
_chemical_formula_sum   'Cu12 H56 C112 N16 O96'
_cell_volume   4821.69441828
_cell_formula_units_Z   4
loop_
 _symmetry_equiv_pos_site_id
 _symmetry_equiv_pos_as_xyz
  1  'x, y, z'
loop_
 _atom_site_type_symbol
 _atom_site_label
 _atom_site_symmetry_multiplicity
 _atom_site_fract_x
 _atom_site_fract_y
 _atom_site_fract_z
 _atom_site_occupancy
 _atom_site_charge
Cu  Cu1  1  0.96686000  0.22534000  0.66547000  1.0 0.9101512238
Cu  Cu2  1  0.53314000  0.72534000  0.33453000  1.0 0.9101512238
Cu  Cu3  1  0.03314000  0.77466000  0.33453000  1.0 0.9101512238
Cu  Cu4  1  0.46686000  0.27466000  0.66547000  1.0 0.9101512238
Cu  Cu5  1  0.98822000  0.28278000  0.51769000  1.0 0.9546245292
Cu  Cu6  1  0.51178000  0.78278000  0.48231000  1.0 0.9546245292
Cu  Cu7  1  0.01178000  0.71722000  0.48231000  1.0 0.9546245292
Cu  Cu8  1  0.48822000  0.21722000  0.51769000  1.0 0.9546245292
Cu  Cu9  1  0.73045000  0.28375000  0.59111000  1.0 0.9433017477
Cu  Cu10  1  0.76955000  0.78375000  0.40889000  1.0 0.9433017477
Cu  Cu11  1  0.26955000  0.71625000  0.40889000  1.0 0.9433017477
Cu  Cu12  1  0.23045000  0.21625000  0.59111000  1.0 0.9433017477
H  H1  1  0.97210000  0.29970000  0.66910000  1.0 0.3872993395
H  H2  1  0.52790000  0.79970000  0.33090000  1.0 0.3872993395
H  H3  1  0.02790000  0.70030000  0.33090000  1.0 0.3872993395
H  H4  1  0.47210000  0.20030000  0.66910000  1.0 0.3872993395
H  H5  1  0.48910000  0.29230000  0.51500000  1.0 0.3872993395
H  H6  1  0.01090000  0.79230000  0.48500000  1.0 0.3872993395
H  H7  1  0.51090000  0.70770000  0.48500000  1.0 0.3872993395
H  H8  1  0.98910000  0.20770000  0.51500000  1.0 0.3872993395
H  H9  1  0.70910000  0.41880000  0.56520000  1.0 0.1119886609
H  H10  1  0.79090000  0.91880000  0.43480000  1.0 0.1119886609
H  H11  1  0.29090000  0.58120000  0.43480000  1.0 0.1119886609
H  H12  1  0.20910000  0.08120000  0.56520000  1.0 0.1119886609
H  H13  1  0.68520000  0.48580000  0.52200000  1.0 0.1024135095
H  H14  1  0.81480000  0.98580000  0.47800000  1.0 0.1024135095
H  H15  1  0.31480000  0.51420000  0.47800000  1.0 0.1024135095
H  H16  1  0.18520000  0.01420000  0.52200000  1.0 0.1024135095
H  H17  1  0.89150000  0.39700000  0.37110000  1.0 0.1163675487
H  H18  1  0.60850000  0.89700000  0.62890000  1.0 0.1163675487
H  H19  1  0.10850000  0.60300000  0.62890000  1.0 0.1163675487
H  H20  1  0.39150000  0.10300000  0.37110000  1.0 0.1163675487
H  H21  1  0.49590000  0.59450000  0.30550000  1.0 0.1119886609
H  H22  1  0.00410000  0.09450000  0.69450000  1.0 0.1119886609
H  H23  1  0.50410000  0.40550000  0.69450000  1.0 0.1119886609
H  H24  1  0.99590000  0.90550000  0.30550000  1.0 0.1119886609
H  H25  1  0.89350000  0.61310000  0.43640000  1.0 0.1284502743
H  H26  1  0.60650000  0.11310000  0.56360000  1.0 0.1284502743
H  H27  1  0.10650000  0.38690000  0.56360000  1.0 0.1284502743
H  H28  1  0.39350000  0.88690000  0.43640000  1.0 0.1284502743
H  H29  1  0.92760000  0.54450000  0.45920000  1.0 0.1119886609
H  H30  1  0.57240000  0.04450000  0.54080000  1.0 0.1119886609
H  H31  1  0.07240000  0.45550000  0.54080000  1.0 0.1119886609
H  H32  1  0.42760000  0.95550000  0.45920000  1.0 0.1119886609
H  H33  1  0.87930000  0.19870000  0.91240000  1.0 0.1024135095
H  H34  1  0.62070000  0.69870000  0.08760000  1.0 0.1024135095
H  H35  1  0.12070000  0.80130000  0.08760000  1.0 0.1024135095
H  H36  1  0.37930000  0.30130000  0.91240000  1.0 0.1024135095
H  H37  1  0.62750000  0.30100000  0.99850000  1.0 0.1024135095
H  H38  1  0.87250000  0.80100000  0.00150000  1.0 0.1024135095
H  H39  1  0.37250000  0.69900000  0.00150000  1.0 0.1024135095
H  H40  1  0.12750000  0.19900000  0.99850000  1.0 0.1024135095
H  H41  1  0.67560000  0.30500000  0.86090000  1.0 0.1415784612
H  H42  1  0.82440000  0.80500000  0.13910000  1.0 0.1415784612
H  H43  1  0.32440000  0.69500000  0.13910000  1.0 0.1415784612
H  H44  1  0.17560000  0.19500000  0.86090000  1.0 0.1415784612
H  H45  1  0.79250000  0.29930000  0.17540000  1.0 0.1119886609
H  H46  1  0.70750000  0.79930000  0.82460000  1.0 0.1119886609
H  H47  1  0.20750000  0.70070000  0.82460000  1.0 0.1119886609
H  H48  1  0.29250000  0.20070000  0.17540000  1.0 0.1119886609
H  H49  1  0.77870000  0.29660000  0.32410000  1.0 0.1284502743
H  H50  1  0.72130000  0.79660000  0.67590000  1.0 0.1284502743
H  H51  1  0.22130000  0.70340000  0.67590000  1.0 0.1284502743
H  H52  1  0.27870000  0.20340000  0.32410000  1.0 0.1284502743
H  H53  1  0.54650000  0.19540000  0.26040000  1.0 0.1284502743
H  H54  1  0.95350000  0.69540000  0.73960000  1.0 0.1284502743
H  H55  1  0.45350000  0.80460000  0.73960000  1.0 0.1284502743
H  H56  1  0.04650000  0.30460000  0.26040000  1.0 0.1284502743
C  C1  1  0.82040000  0.35663000  0.50150000  1.0 0.5899702862
C  C2  1  0.67960000  0.85663000  0.49850000  1.0 0.5899702862
C  C3  1  0.17960000  0.64337000  0.49850000  1.0 0.5899702862
C  C4  1  0.32040000  0.14337000  0.50150000  1.0 0.5899702862
C  C5  1  0.80140000  0.40039000  0.47180000  1.0 0.0026947201
C  C6  1  0.69860000  0.90039000  0.52820000  1.0 0.0026947201
C  C7  1  0.19860000  0.59961000  0.52820000  1.0 0.0026947201
C  C8  1  0.30140000  0.09961000  0.47180000  1.0 0.0026947201
C  C9  1  0.73940000  0.42750000  0.51660000  1.0 -0.1494430405
C  C10  1  0.76060000  0.92750000  0.48340000  1.0 -0.1494430405
C  C11  1  0.26060000  0.57250000  0.48340000  1.0 -0.1494430405
C  C12  1  0.23940000  0.07250000  0.51660000  1.0 -0.1494430405
C  C13  1  0.72260000  0.46770000  0.48890000  1.0 -0.1880908057
C  C14  1  0.77740000  0.96770000  0.51110000  1.0 -0.1880908057
C  C15  1  0.27740000  0.53230000  0.51110000  1.0 -0.1880908057
C  C16  1  0.22260000  0.03230000  0.48890000  1.0 -0.1880908057
C  C17  1  0.75830000  0.48240000  0.41460000  1.0 -0.0221719113
C  C18  1  0.74170000  0.98240000  0.58540000  1.0 -0.0221719113
C  C19  1  0.24170000  0.51760000  0.58540000  1.0 -0.0221719113
C  C20  1  0.25830000  0.01760000  0.41460000  1.0 -0.0221719113
C  C21  1  0.82240000  0.45480000  0.37230000  1.0 -0.1194755829
C  C22  1  0.67760000  0.95480000  0.62770000  1.0 -0.1194755829
C  C23  1  0.17760000  0.54520000  0.62770000  1.0 -0.1194755829
C  C24  1  0.32240000  0.04520000  0.37230000  1.0 -0.1194755829
C  C25  1  0.84570000  0.41450000  0.40050000  1.0 -0.175352712
C  C26  1  0.65430000  0.91450000  0.59950000  1.0 -0.1696521642
C  C27  1  0.15430000  0.58550000  0.59950000  1.0 -0.1696521642
C  C28  1  0.34570000  0.08550000  0.40050000  1.0 -0.1696521642
C  C29  1  0.73550000  0.52640000  0.39060000  1.0 -0.0094475096
C  C30  1  0.76450000  0.02640000  0.60940000  1.0 -0.0094475096
C  C31  1  0.26450000  0.47360000  0.60940000  1.0 -0.0094475096
C  C32  1  0.23550000  0.97360000  0.39060000  1.0 -0.0094475096
C  C33  1  0.60460000  0.54290000  0.34670000  1.0 -0.1194755829
C  C34  1  0.89540000  0.04290000  0.65330000  1.0 -0.1194755829
C  C35  1  0.39540000  0.45710000  0.65330000  1.0 -0.1194755829
C  C36  1  0.10460000  0.95710000  0.34670000  1.0 -0.1194755829
C  C37  1  0.58400000  0.58460000  0.33560000  1.0 -0.1494430405
C  C38  1  0.91600000  0.08460000  0.66440000  1.0 -0.1494430405
C  C39  1  0.41600000  0.41540000  0.66440000  1.0 -0.1494430405
C  C40  1  0.08400000  0.91540000  0.33560000  1.0 -0.1494430405
C  C41  1  0.69110000  0.61117000  0.36810000  1.0 0.0167301941
C  C42  1  0.80890000  0.11117000  0.63190000  1.0 0.0167301941
C  C43  1  0.30890000  0.38883000  0.63190000  1.0 0.0167301941
C  C44  1  0.19110000  0.88883000  0.36810000  1.0 0.0167301941
C  C45  1  0.81910000  0.59540000  0.41350000  1.0 -0.1194755829
C  C46  1  0.68090000  0.09540000  0.58650000  1.0 -0.1194755829
C  C47  1  0.18090000  0.40460000  0.58650000  1.0 -0.1194755829
C  C48  1  0.31910000  0.90460000  0.41350000  1.0 -0.1194755829
C  C49  1  0.84030000  0.55400000  0.42600000  1.0 -0.1598895172
C  C50  1  0.65970000  0.05400000  0.57400000  1.0 -0.1598895172
C  C51  1  0.15970000  0.44600000  0.57400000  1.0 -0.1598895172
C  C52  1  0.34030000  0.94600000  0.42600000  1.0 -0.1598895172
C  C53  1  0.66800000  0.65672000  0.36210000  1.0 0.5635378465
C  C54  1  0.83200000  0.15672000  0.63790000  1.0 0.5635378465
C  C55  1  0.33200000  0.34328000  0.63790000  1.0 0.5635378465
C  C56  1  0.16800000  0.84328000  0.36210000  1.0 0.5635378465
C  C57  1  0.80390000  0.25251000  0.78080000  1.0 0.5899702862
C  C58  1  0.69610000  0.75251000  0.21920000  1.0 0.5899702862
C  C59  1  0.19610000  0.74749000  0.21920000  1.0 0.5899702862
C  C60  1  0.30390000  0.24749000  0.78080000  1.0 0.5899702862
C  C61  1  0.77630000  0.25170000  0.87130000  1.0 -0.0033667483
C  C62  1  0.72370000  0.75170000  0.12870000  1.0 -0.0033667483
C  C63  1  0.22370000  0.74830000  0.12870000  1.0 -0.0033667483
C  C64  1  0.27630000  0.24830000  0.87130000  1.0 -0.0033667483
C  C65  1  0.82900000  0.21940000  0.92990000  1.0 -0.1598895172
C  C66  1  0.67100000  0.71940000  0.07010000  1.0 -0.1598895172
C  C67  1  0.17100000  0.78060000  0.07010000  1.0 -0.1598895172
C  C68  1  0.32900000  0.28060000  0.92990000  1.0 -0.1598895172
C  C69  1  0.80630000  0.21810000  0.01400000  1.0 -0.1293322973
C  C70  1  0.69370000  0.71810000  0.98600000  1.0 -0.1293322973
C  C71  1  0.19370000  0.78190000  0.98600000  1.0 -0.1293322973
C  C72  1  0.30630000  0.28190000  0.01400000  1.0 -0.1293322973
C  C73  1  0.72820000  0.24730000  0.04260000  1.0 0.0313944671
C  C74  1  0.77180000  0.74730000  0.95740000  1.0 0.0313944671
C  C75  1  0.27180000  0.75270000  0.95740000  1.0 0.0313944671
C  C76  1  0.22820000  0.25270000  0.04260000  1.0 0.0313944671
C  C77  1  0.67890000  0.28040000  0.98200000  1.0 -0.1598895172
C  C78  1  0.82110000  0.78040000  0.01800000  1.0 -0.1598895172
C  C79  1  0.32110000  0.71960000  0.01800000  1.0 -0.1598895172
C  C80  1  0.17890000  0.21960000  0.98200000  1.0 -0.1598895172
C  C81  1  0.70570000  0.28250000  0.89860000  1.0 -0.081601157
C  C82  1  0.79430000  0.78250000  0.10140000  1.0 -0.081601157
C  C83  1  0.29430000  0.71750000  0.10140000  1.0 -0.081601157
C  C84  1  0.20570000  0.21750000  0.89860000  1.0 -0.081601157
C  C85  1  0.69830000  0.24660000  0.13280000  1.0 -0.0033667483
C  C86  1  0.80170000  0.74660000  0.86720000  1.0 -0.0033667483
C  C87  1  0.30170000  0.75340000  0.86720000  1.0 -0.0033667483
C  C88  1  0.19830000  0.25340000  0.13280000  1.0 -0.0033667483
C  C89  1  0.74900000  0.27720000  0.19340000  1.0 -0.1598895172
C  C90  1  0.75100000  0.77720000  0.80660000  1.0 -0.1598895172
C  C91  1  0.25100000  0.72280000  0.80660000  1.0 -0.1598895172
C  C92  1  0.24900000  0.22280000  0.19340000  1.0 -0.1598895172
C  C93  1  0.73750000  0.27620000  0.28260000  1.0 -0.0958092705
C  C94  1  0.76250000  0.77620000  0.71740000  1.0 -0.0958092705
C  C95  1  0.26250000  0.72380000  0.71740000  1.0 -0.0958092705
C  C96  1  0.23750000  0.22380000  0.28260000  1.0 -0.0958092705
C  C97  1  0.66460000  0.24487000  0.30820000  1.0 -0.0094475096
C  C98  1  0.83540000  0.74487000  0.69180000  1.0 -0.0094475096
C  C99  1  0.33540000  0.75513000  0.69180000  1.0 -0.0094475096
C  C100  1  0.16460000  0.25513000  0.30820000  1.0 -0.0094475096
C  C101  1  0.60160000  0.21540000  0.24540000  1.0 -0.1696521642
C  C102  1  0.89840000  0.71540000  0.75460000  1.0 -0.1696521642
C  C103  1  0.39840000  0.78460000  0.75460000  1.0 -0.1696521642
C  C104  1  0.10160000  0.28460000  0.24540000  1.0 -0.1696521642
C  C105  1  0.62150000  0.21590000  0.15850000  1.0 -0.0094475096
C  C106  1  0.87850000  0.71590000  0.84150000  1.0 -0.0094475096
C  C107  1  0.37850000  0.78410000  0.84150000  1.0 -0.0094475096
C  C108  1  0.12150000  0.28410000  0.15850000  1.0 -0.0094475096
C  C109  1  0.65200000  0.24235000  0.40310000  1.0 0.5899702862
C  C110  1  0.84800000  0.74235000  0.59690000  1.0 0.5899702862
C  C111  1  0.34800000  0.75765000  0.59690000  1.0 0.5899702862
C  C112  1  0.15200000  0.25765000  0.40310000  1.0 0.5899702862
N  N1  1  0.86670000  0.46670000  0.29090000  1.0 0.412163831
N  N2  1  0.63330000  0.96670000  0.70910000  1.0 0.412163831
N  N3  1  0.13330000  0.53330000  0.70910000  1.0 0.412163831
N  N4  1  0.36670000  0.03330000  0.29090000  1.0 0.412163831
N  N5  1  0.86820000  0.18390000  0.07310000  1.0 0.412163831
N  N6  1  0.63180000  0.68390000  0.92690000  1.0 0.412163831
N  N7  1  0.13180000  0.81610000  0.92690000  1.0 0.412163831
N  N8  1  0.36820000  0.31610000  0.07310000  1.0 0.412163831
N  N9  1  0.54630000  0.18480000  0.09520000  1.0 0.4723148376
N  N10  1  0.95370000  0.68480000  0.90480000  1.0 0.4723148376
N  N11  1  0.45370000  0.81520000  0.90480000  1.0 0.4723148376
N  N12  1  0.04630000  0.31520000  0.09520000  1.0 0.4723148376
N  N13  1  0.48280000  0.51610000  0.31050000  1.0 0.4188282594
N  N14  1  0.01720000  0.01610000  0.68950000  1.0 0.4188282594
N  N15  1  0.51720000  0.48390000  0.68950000  1.0 0.4188282594
N  N16  1  0.98280000  0.98390000  0.31050000  1.0 0.412163831
O  O1  1  0.93210000  0.28225000  0.62890000  1.0 -0.8068960354
O  O2  1  0.56790000  0.78225000  0.37110000  1.0 -0.8068960354
O  O3  1  0.06790000  0.71775000  0.37110000  1.0 -0.8068960354
O  O4  1  0.43210000  0.21775000  0.62890000  1.0 -0.8068960354
O  O5  1  0.73810000  0.34293000  0.54230000  1.0 -0.5572500646
O  O6  1  0.76190000  0.84293000  0.45770000  1.0 -0.5572500646
O  O7  1  0.26190000  0.65707000  0.45770000  1.0 -0.5572500646
O  O8  1  0.23810000  0.15707000  0.54230000  1.0 -0.5572500646
O  O9  1  0.91810000  0.33751000  0.48150000  1.0 -0.5437693939
O  O10  1  0.58190000  0.83751000  0.51850000  1.0 -0.5437693939
O  O11  1  0.08190000  0.66249000  0.51850000  1.0 -0.5437693939
O  O12  1  0.41810000  0.16249000  0.48150000  1.0 -0.5437693939
O  O13  1  0.71860000  0.27265000  0.71660000  1.0 -0.5982216716
O  O14  1  0.78140000  0.77265000  0.28340000  1.0 -0.5982216716
O  O15  1  0.28140000  0.72735000  0.28340000  1.0 -0.5982216716
O  O16  1  0.21860000  0.22735000  0.71660000  1.0 -0.5982216716
O  O17  1  0.90830000  0.23344000  0.77410000  1.0 -0.5188787227
O  O18  1  0.59170000  0.73344000  0.22590000  1.0 -0.5188787227
O  O19  1  0.09170000  0.76656000  0.22590000  1.0 -0.5188787227
O  O20  1  0.40830000  0.26656000  0.77410000  1.0 -0.5188787227
O  O21  1  0.53300000  0.27535000  0.55520000  1.0 -0.7980114713
O  O22  1  0.96700000  0.77535000  0.44480000  1.0 -0.7980114713
O  O23  1  0.46700000  0.72465000  0.44480000  1.0 -0.7980114713
O  O24  1  0.03300000  0.22465000  0.55520000  1.0 -0.7980114713
O  O25  1  0.87600000  0.15190000  0.03280000  1.0 0.1284502743
O  O26  1  0.62400000  0.65190000  0.96720000  1.0 0.1163675487
O  O27  1  0.12400000  0.84810000  0.96720000  1.0 0.1284502743
O  O28  1  0.37600000  0.34810000  0.03280000  1.0 0.1119886609
O  O29  1  0.90460000  0.19090000  0.15570000  1.0 -0.1194755829
O  O30  1  0.59540000  0.69090000  0.84430000  1.0 -0.1194755829
O  O31  1  0.09540000  0.80910000  0.84430000  1.0 -0.1194755829
O  O32  1  0.40460000  0.30910000  0.15570000  1.0 -0.1194755829
O  O33  1  0.53100000  0.18900000  0.01310000  1.0 -0.3299236566
O  O34  1  0.96900000  0.68900000  0.98690000  1.0 -0.3299236566
O  O35  1  0.46900000  0.81100000  0.98690000  1.0 -0.3299236566
O  O36  1  0.03100000  0.31100000  0.01310000  1.0 -0.3299236566
O  O37  1  0.48470000  0.15740000  0.12220000  1.0 -0.3299236566
O  O38  1  0.01530000  0.65740000  0.87780000  1.0 -0.3299236566
O  O39  1  0.51530000  0.84260000  0.87780000  1.0 -0.3299236566
O  O40  1  0.98470000  0.34260000  0.12220000  1.0 -0.3299236566
O  O41  1  0.79790000  0.49340000  0.24260000  1.0 -0.0289564075
O  O42  1  0.70210000  0.99340000  0.75740000  1.0 -0.0289564075
O  O43  1  0.20210000  0.50660000  0.75740000  1.0 -0.039660653
O  O44  1  0.29790000  0.00660000  0.24260000  1.0 -0.039660653
O  O45  1  0.98910000  0.45750000  0.30750000  1.0 -0.0706342429
O  O46  1  0.51090000  0.95750000  0.69250000  1.0 -0.081601157
O  O47  1  0.01090000  0.54250000  0.69250000  1.0 -0.081601157
O  O48  1  0.48910000  0.04250000  0.30750000  1.0 -0.081601157
O  O49  1  0.51610000  0.48740000  0.27020000  1.0 -0.0221719113
O  O50  1  0.98390000  0.98740000  0.72980000  1.0 -0.0221719113
O  O51  1  0.48390000  0.51260000  0.72980000  1.0 -0.0289564075
O  O52  1  0.01610000  0.01260000  0.27020000  1.0 -0.0289564075
O  O53  1  0.36810000  0.53100000  0.27580000  1.0 0.0148471214
O  O54  1  0.13190000  0.03100000  0.72420000  1.0 0.0167301941
O  O55  1  0.63190000  0.46900000  0.72420000  1.0 0.0167301941
O  O56  1  0.86810000  0.96900000  0.27580000  1.0 0.0167301941
O  O57  1  0.55190000  0.22151000  0.41180000  1.0 -0.5188787227
O  O58  1  0.94810000  0.72151000  0.58820000  1.0 -0.5188787227
O  O59  1  0.44810000  0.77849000  0.58820000  1.0 -0.5188787227
O  O60  1  0.05190000  0.27849000  0.41180000  1.0 -0.5188787227
O  O61  1  0.73990000  0.26054000  0.46560000  1.0 -0.5982216716
O  O62  1  0.76010000  0.76054000  0.53440000  1.0 -0.5982216716
O  O63  1  0.26010000  0.73946000  0.53440000  1.0 -0.5982216716
O  O64  1  0.23990000  0.23946000  0.46560000  1.0 -0.5982216716
O  O65  1  0.76340000  0.68061000  0.39240000  1.0 -0.5572500646
O  O66  1  0.73660000  0.18061000  0.60760000  1.0 -0.5572500646
O  O67  1  0.23660000  0.31939000  0.60760000  1.0 -0.5572500646
O  O68  1  0.26340000  0.81939000  0.39240000  1.0 -0.5572500646
O  O69  1  0.54170000  0.66724000  0.32600000  1.0 -0.5188787227
O  O70  1  0.95830000  0.16724000  0.67400000  1.0 -0.5188787227
O  O71  1  0.45830000  0.33276000  0.67400000  1.0 -0.5188787227
O  O72  1  0.04170000  0.83276000  0.32600000  1.0 -0.5188787227
O  O73  1  0.95520000  0.16180000  0.05480000  1.0 -0.039660653
O  O74  1  0.54480000  0.66180000  0.94520000  1.0 -0.039660653
O  O75  1  0.04480000  0.83820000  0.94520000  1.0 -0.039660653
O  O76  1  0.45520000  0.33820000  0.05480000  1.0 -0.039660653
O  O77  1  0.81080000  0.16470000  0.12100000  1.0 0.048051847
O  O78  1  0.68920000  0.66470000  0.87900000  1.0 0.048051847
O  O79  1  0.18920000  0.83530000  0.87900000  1.0 0.048051847
O  O80  1  0.31080000  0.33530000  0.12100000  1.0 0.0574234456
O  O81  1  0.88500000  0.50200000  0.27210000  1.0 0.0364131808
O  O82  1  0.61500000  0.00200000  0.72790000  1.0 0.0313944671
O  O83  1  0.11500000  0.49800000  0.72790000  1.0 0.0313944671
O  O84  1  0.38500000  0.99800000  0.27210000  1.0 0.0313944671
O  O85  1  0.90900000  0.44020000  0.24960000  1.0 -0.039660653
O  O86  1  0.59100000  0.94020000  0.75040000  1.0 -0.046102424
O  O87  1  0.09100000  0.55980000  0.75040000  1.0 -0.039660653
O  O88  1  0.40900000  0.05980000  0.24960000  1.0 -0.039660653
O  O89  1  0.49500000  0.47900000  0.30860000  1.0 -0.0289564075
O  O90  1  0.00500000  0.97900000  0.69140000  1.0 -0.0289564075
O  O91  1  0.50500000  0.52100000  0.69140000  1.0 -0.0289564075
O  O92  1  0.99500000  0.02100000  0.30860000  1.0 -0.0289564075
O  O93  1  0.37780000  0.52800000  0.32710000  1.0 -0.0644244361
O  O94  1  0.12220000  0.02800000  0.67290000  1.0 -0.0644244361
O  O95  1  0.62220000  0.47200000  0.67290000  1.0 -0.0644244361
O  O96  1  0.87780000  0.97200000  0.32710000  1.0 -0.0706342429
