# DDEC6 charges by PACMAN v1.1 (https://github.com/mtap-research/PACMAN-charge/)
data_FOQNOQ01_FSR_pacman
_symmetry_space_group_name_H-M   'P 1'
_cell_length_a   10.00750000
_cell_length_b   32.44700000
_cell_length_c   15.30860000
_cell_angle_alpha   90.00000000
_cell_angle_beta   107.56300000
_cell_angle_gamma   90.00000000
_symmetry_Int_Tables_number   1
_chemical_formula_structural   Cu3H14C28(NO6)4
_chemical_formula_sum   'Cu12 H56 C112 N16 O96'
_cell_volume   4739.19163995
_cell_formula_units_Z   4
loop_
 _symmetry_equiv_pos_site_id
 _symmetry_equiv_pos_as_xyz
  1  'x, y, z'
loop_
 _atom_site_type_symbol
 _atom_site_label
 _atom_site_symmetry_multiplicity
 _atom_site_fract_x
 _atom_site_fract_y
 _atom_site_fract_z
 _atom_site_occupancy
 _atom_site_charge
Cu  Cu1  1  0.99903000  0.27324000  0.34341000  1.0 0.9138491856
Cu  Cu2  1  0.50097000  0.77324000  0.65659000  1.0 0.9138491856
Cu  Cu3  1  0.00097000  0.72676000  0.65659000  1.0 0.9138491856
Cu  Cu4  1  0.49903000  0.22676000  0.34341000  1.0 0.9138491856
Cu  Cu5  1  0.97354000  0.21432000  0.48932000  1.0 0.9731996612
Cu  Cu6  1  0.52646000  0.71432000  0.51068000  1.0 0.9731996612
Cu  Cu7  1  0.02646000  0.78568000  0.51068000  1.0 0.9731996612
Cu  Cu8  1  0.47354000  0.28568000  0.48932000  1.0 0.9731996612
Cu  Cu9  1  0.23571000  0.21617000  0.41734000  1.0 0.9415404456
Cu  Cu10  1  0.26429000  0.71617000  0.58266000  1.0 0.9415404456
Cu  Cu11  1  0.76429000  0.78383000  0.58266000  1.0 0.9415404456
Cu  Cu12  1  0.73571000  0.28383000  0.41734000  1.0 0.9415404456
H  H1  1  0.99310000  0.19790000  0.33790000  1.0 0.388445604
H  H2  1  0.50690000  0.69790000  0.66210000  1.0 0.388445604
H  H3  1  0.00690000  0.80210000  0.66210000  1.0 0.388445604
H  H4  1  0.49310000  0.30210000  0.33790000  1.0 0.388445604
H  H5  1  0.98020000  0.29050000  0.49450000  1.0 0.388445604
H  H6  1  0.51980000  0.79050000  0.50550000  1.0 0.388445604
H  H7  1  0.01980000  0.70950000  0.50550000  1.0 0.388445604
H  H8  1  0.48020000  0.20950000  0.49450000  1.0 0.388445604
H  H9  1  0.29700000  0.08440000  0.45540000  1.0 0.1192124939
H  H10  1  0.20300000  0.58440000  0.54460000  1.0 0.1192124939
H  H11  1  0.70300000  0.91560000  0.54460000  1.0 0.1192124939
H  H12  1  0.79700000  0.41560000  0.45540000  1.0 0.1192124939
H  H13  1  0.32780000  0.01620000  0.49370000  1.0 0.0988529771
H  H14  1  0.17220000  0.51620000  0.50630000  1.0 0.0988529771
H  H15  1  0.67220000  0.98380000  0.50630000  1.0 0.0948336975
H  H16  1  0.82780000  0.48380000  0.49370000  1.0 0.0988529771
H  H17  1  0.08400000  0.09820000  0.63630000  1.0 0.112525388
H  H18  1  0.41600000  0.59820000  0.36370000  1.0 0.112525388
H  H19  1  0.91600000  0.90180000  0.36370000  1.0 0.112525388
H  H20  1  0.58400000  0.40180000  0.63630000  1.0 0.112525388
H  H21  1  0.51850000  0.90420000  0.69180000  1.0 0.112525388
H  H22  1  0.98150000  0.40420000  0.30820000  1.0 0.112525388
H  H23  1  0.48150000  0.09580000  0.30820000  1.0 0.112525388
H  H24  1  0.01850000  0.59580000  0.69180000  1.0 0.112525388
H  H25  1  0.11570000  0.88320000  0.56810000  1.0 0.1192124939
H  H26  1  0.38430000  0.38320000  0.43190000  1.0 0.1192124939
H  H27  1  0.88430000  0.11680000  0.43190000  1.0 0.1192124939
H  H28  1  0.61570000  0.61680000  0.56810000  1.0 0.1192124939
H  H29  1  0.07450000  0.95260000  0.55730000  1.0 0.1192124939
H  H30  1  0.42550000  0.45260000  0.44270000  1.0 0.1192124939
H  H31  1  0.92550000  0.04740000  0.44270000  1.0 0.1192124939
H  H32  1  0.57450000  0.54740000  0.55730000  1.0 0.1192124939
H  H33  1  0.08440000  0.30230000  0.09950000  1.0 0.1307913829
H  H34  1  0.41560000  0.80230000  0.90050000  1.0 0.1307913829
H  H35  1  0.91560000  0.69770000  0.90050000  1.0 0.1307913829
H  H36  1  0.58440000  0.19770000  0.09950000  1.0 0.1307913829
H  H37  1  0.32900000  0.20060000  0.00270000  1.0 0.112525388
H  H38  1  0.17100000  0.70060000  0.99730000  1.0 0.112525388
H  H39  1  0.67100000  0.79940000  0.99730000  1.0 0.112525388
H  H40  1  0.82900000  0.29940000  0.00270000  1.0 0.112525388
H  H41  1  0.29300000  0.19550000  0.14330000  1.0 0.1307913829
H  H42  1  0.20700000  0.69550000  0.85670000  1.0 0.1307913829
H  H43  1  0.70700000  0.80450000  0.85670000  1.0 0.1307913829
H  H44  1  0.79300000  0.30450000  0.14330000  1.0 0.1307913829
H  H45  1  0.16560000  0.20440000  0.82960000  1.0 0.0988529771
H  H46  1  0.33440000  0.70440000  0.17040000  1.0 0.0988529771
H  H47  1  0.83440000  0.79560000  0.17040000  1.0 0.0988529771
H  H48  1  0.66560000  0.29560000  0.82960000  1.0 0.0988529771
H  H49  1  0.18580000  0.20590000  0.68260000  1.0 0.1307913829
H  H50  1  0.31420000  0.70590000  0.31740000  1.0 0.1307913829
H  H51  1  0.81420000  0.79410000  0.31740000  1.0 0.1307913829
H  H52  1  0.68580000  0.29410000  0.68260000  1.0 0.1307913829
H  H53  1  0.40790000  0.31020000  0.74620000  1.0 0.112525388
H  H54  1  0.09210000  0.81020000  0.25380000  1.0 0.112525388
H  H55  1  0.59210000  0.68980000  0.25380000  1.0 0.112525388
H  H56  1  0.90790000  0.18980000  0.74620000  1.0 0.112525388
C  C1  1  0.15890000  0.14273000  0.51080000  1.0 0.5869563998
C  C2  1  0.34110000  0.64273000  0.48920000  1.0 0.5869563998
C  C3  1  0.84110000  0.85727000  0.48920000  1.0 0.5869563998
C  C4  1  0.65890000  0.35727000  0.51080000  1.0 0.5869563998
C  C5  1  0.18620000  0.09888000  0.54090000  1.0 0.0035011045
C  C6  1  0.31380000  0.59888000  0.45910000  1.0 0.0035011045
C  C7  1  0.81380000  0.90112000  0.45910000  1.0 0.0035011045
C  C8  1  0.68620000  0.40112000  0.54090000  1.0 0.0035011045
C  C9  1  0.26120000  0.07380000  0.50010000  1.0 -0.1420570208
C  C10  1  0.23880000  0.57380000  0.49990000  1.0 -0.1420570208
C  C11  1  0.73880000  0.92620000  0.49990000  1.0 -0.1420570208
C  C12  1  0.76120000  0.42620000  0.50010000  1.0 -0.1420570208
C  C13  1  0.28340000  0.03303000  0.52550000  1.0 -0.1978416747
C  C14  1  0.21660000  0.53303000  0.47450000  1.0 -0.1978416747
C  C15  1  0.71660000  0.96697000  0.47450000  1.0 -0.1978416747
C  C16  1  0.78340000  0.46697000  0.52550000  1.0 -0.1978416747
C  C17  1  0.24240000  0.01607000  0.59610000  1.0 -0.0107716646
C  C18  1  0.25760000  0.51607000  0.40390000  1.0 -0.0107716646
C  C19  1  0.75760000  0.98393000  0.40390000  1.0 -0.0107716646
C  C20  1  0.74240000  0.48393000  0.59610000  1.0 -0.0107716646
C  C21  1  0.16550000  0.04166000  0.63380000  1.0 -0.0107716646
C  C22  1  0.33450000  0.54166000  0.36620000  1.0 -0.0107716646
C  C23  1  0.83450000  0.95834000  0.36620000  1.0 -0.0107716646
C  C24  1  0.66550000  0.45834000  0.63380000  1.0 -0.0107716646
C  C25  1  0.13650000  0.08219000  0.60840000  1.0 -0.1901257528
C  C26  1  0.36350000  0.58219000  0.39160000  1.0 -0.1901257528
C  C27  1  0.86350000  0.91781000  0.39160000  1.0 -0.1901257528
C  C28  1  0.63650000  0.41781000  0.60840000  1.0 -0.1901257528
C  C29  1  0.26910000  0.97151000  0.61700000  1.0 0.0297249587
C  C30  1  0.23090000  0.47151000  0.38300000  1.0 0.0297249587
C  C31  1  0.73090000  0.02849000  0.38300000  1.0 0.0297249587
C  C32  1  0.76910000  0.52849000  0.61700000  1.0 0.0297249587
C  C33  1  0.40170000  0.95529000  0.65740000  1.0 -0.1159119979
C  C34  1  0.09830000  0.45529000  0.34260000  1.0 -0.1159119979
C  C35  1  0.59830000  0.04471000  0.34260000  1.0 -0.1159119979
C  C36  1  0.90170000  0.54471000  0.65740000  1.0 -0.1159119979
C  C37  1  0.42790000  0.91368000  0.66400000  1.0 -0.1498903079
C  C38  1  0.07210000  0.41368000  0.33600000  1.0 -0.1498903079
C  C39  1  0.57210000  0.08632000  0.33600000  1.0 -0.1498903079
C  C40  1  0.92790000  0.58632000  0.66400000  1.0 -0.1498903079
C  C41  1  0.32200000  0.88608000  0.62990000  1.0 0.014429971
C  C42  1  0.17800000  0.38608000  0.37010000  1.0 0.014429971
C  C43  1  0.67800000  0.11392000  0.37010000  1.0 0.014429971
C  C44  1  0.82200000  0.61392000  0.62990000  1.0 0.014429971
C  C45  1  0.19000000  0.90136000  0.59080000  1.0 -0.1159119979
C  C46  1  0.31000000  0.40136000  0.40920000  1.0 -0.1108830525
C  C47  1  0.81000000  0.09864000  0.40920000  1.0 -0.1159119979
C  C48  1  0.69000000  0.59864000  0.59080000  1.0 -0.1159119979
C  C49  1  0.16540000  0.94333000  0.58460000  1.0 -0.1498903079
C  C50  1  0.33460000  0.44333000  0.41540000  1.0 -0.1498903079
C  C51  1  0.83460000  0.05667000  0.41540000  1.0 -0.1498903079
C  C52  1  0.66540000  0.55667000  0.58460000  1.0 -0.1498903079
C  C53  1  0.35130000  0.84076000  0.63100000  1.0 0.5772266047
C  C54  1  0.14870000  0.34076000  0.36900000  1.0 0.5772266047
C  C55  1  0.64870000  0.15924000  0.36900000  1.0 0.5772266047
C  C56  1  0.85130000  0.65924000  0.63100000  1.0 0.5772266047
C  C57  1  0.16070000  0.24633000  0.22650000  1.0 0.5869563998
C  C58  1  0.33930000  0.74633000  0.77350000  1.0 0.5869563998
C  C59  1  0.83930000  0.75367000  0.77350000  1.0 0.5869563998
C  C60  1  0.66070000  0.25367000  0.22650000  1.0 0.5869563998
C  C61  1  0.18690000  0.24874000  0.13650000  1.0 -0.0206335067
C  C62  1  0.31310000  0.74874000  0.86350000  1.0 -0.0206335067
C  C63  1  0.81310000  0.75126000  0.86350000  1.0 -0.0206335067
C  C64  1  0.68690000  0.25126000  0.13650000  1.0 -0.0206335067
C  C65  1  0.13480000  0.28191000  0.08050000  1.0 -0.1681208343
C  C66  1  0.36520000  0.78191000  0.91950000  1.0 -0.1681208343
C  C67  1  0.86520000  0.71809000  0.91950000  1.0 -0.1681208343
C  C68  1  0.63480000  0.21809000  0.08050000  1.0 -0.1681208343
C  C69  1  0.15750000  0.28479000  0.99590000  1.0 -0.0815979136
C  C70  1  0.34250000  0.78479000  0.00410000  1.0 -0.0815979136
C  C71  1  0.84250000  0.71521000  0.00410000  1.0 -0.0815979136
C  C72  1  0.65750000  0.21521000  0.99590000  1.0 -0.0815979136
C  C73  1  0.23400000  0.25554000  0.96450000  1.0 -0.0284781737
C  C74  1  0.26600000  0.75554000  0.03550000  1.0 -0.0284781737
C  C75  1  0.76600000  0.74446000  0.03550000  1.0 -0.0284781737
C  C76  1  0.73400000  0.24446000  0.96450000  1.0 -0.0284781737
C  C77  1  0.28130000  0.22157000  0.02200000  1.0 -0.1806226789
C  C78  1  0.21870000  0.72157000  0.97800000  1.0 -0.1806226789
C  C79  1  0.71870000  0.77843000  0.97800000  1.0 -0.1806226789
C  C80  1  0.78130000  0.27843000  0.02200000  1.0 -0.1806226789
C  C81  1  0.25920000  0.21833000  0.10640000  1.0 -0.1108830525
C  C82  1  0.24080000  0.71833000  0.89360000  1.0 -0.1108830525
C  C83  1  0.74080000  0.78167000  0.89360000  1.0 -0.1108830525
C  C84  1  0.75920000  0.28167000  0.10640000  1.0 -0.1108830525
C  C85  1  0.26370000  0.25739000  0.87520000  1.0 -0.0107716646
C  C86  1  0.23630000  0.75739000  0.12480000  1.0 -0.0107716646
C  C87  1  0.73630000  0.74261000  0.12480000  1.0 -0.0107716646
C  C88  1  0.76370000  0.24261000  0.87520000  1.0 -0.0107716646
C  C89  1  0.21150000  0.22646000  0.81250000  1.0 -0.1561985655
C  C90  1  0.28850000  0.72646000  0.18750000  1.0 -0.1561985655
C  C91  1  0.78850000  0.77354000  0.18750000  1.0 -0.1561985655
C  C92  1  0.71150000  0.27354000  0.81250000  1.0 -0.1561985655
C  C93  1  0.22470000  0.22682000  0.72390000  1.0 -0.1031763001
C  C94  1  0.27530000  0.72682000  0.27610000  1.0 -0.1031763001
C  C95  1  0.77530000  0.77318000  0.27610000  1.0 -0.1031763001
C  C96  1  0.72470000  0.27318000  0.72390000  1.0 -0.1031763001
C  C97  1  0.29630000  0.25880000  0.69900000  1.0 0.0035011045
C  C98  1  0.20370000  0.75880000  0.30100000  1.0 0.0035011045
C  C99  1  0.70370000  0.74120000  0.30100000  1.0 0.0035011045
C  C100  1  0.79630000  0.24120000  0.69900000  1.0 0.0035011045
C  C101  1  0.35650000  0.28921000  0.76220000  1.0 -0.1681208343
C  C102  1  0.14350000  0.78921000  0.23780000  1.0 -0.1681208343
C  C103  1  0.64350000  0.71079000  0.23780000  1.0 -0.1681208343
C  C104  1  0.85650000  0.21079000  0.76220000  1.0 -0.1681208343
C  C105  1  0.34080000  0.28850000  0.84790000  1.0 -0.1681208343
C  C106  1  0.15920000  0.78850000  0.15210000  1.0 -0.1681208343
C  C107  1  0.65920000  0.71150000  0.15210000  1.0 -0.1681208343
C  C108  1  0.84080000  0.21150000  0.84790000  1.0 -0.1681208343
C  C109  1  0.31070000  0.26051000  0.60400000  1.0 0.6007013576
C  C110  1  0.18930000  0.76051000  0.39600000  1.0 0.6007013576
C  C111  1  0.68930000  0.73949000  0.39600000  1.0 0.6007013576
C  C112  1  0.81070000  0.23949000  0.60400000  1.0 0.6007013576
N  N1  1  0.10581000  0.02713000  0.70850000  1.0 0.4516123937
N  N2  1  0.39419000  0.52713000  0.29150000  1.0 0.4516123937
N  N3  1  0.89419000  0.97287000  0.29150000  1.0 0.4516123937
N  N4  1  0.60581000  0.47287000  0.70850000  1.0 0.4516123937
N  N5  1  0.09380000  0.31882000  0.93770000  1.0 0.4707172768
N  N6  1  0.40620000  0.81882000  0.06230000  1.0 0.4707172768
N  N7  1  0.90620000  0.68118000  0.06230000  1.0 0.4707172768
N  N8  1  0.59380000  0.18118000  0.93770000  1.0 0.4707172768
N  N9  1  0.41380000  0.32083000  0.91210000  1.0 0.4237252729
N  N10  1  0.08620000  0.82083000  0.08790000  1.0 0.4237252729
N  N11  1  0.58620000  0.67917000  0.08790000  1.0 0.4237252729
N  N12  1  0.91380000  0.17917000  0.91210000  1.0 0.4237252729
N  N13  1  0.52380000  0.98313000  0.69193000  1.0 0.3999951364
N  N14  1  0.97620000  0.48313000  0.30807000  1.0 0.3999951364
N  N15  1  0.47620000  0.01687000  0.30807000  1.0 0.3999951364
N  N16  1  0.02380000  0.51687000  0.69193000  1.0 0.3999951364
O  O1  1  0.03210000  0.21550000  0.37888000  1.0 -0.8092393024
O  O2  1  0.46790000  0.71550000  0.62112000  1.0 -0.8092393024
O  O3  1  0.96790000  0.78450000  0.62112000  1.0 -0.8092393024
O  O4  1  0.53210000  0.28450000  0.37888000  1.0 -0.8092393024
O  O5  1  0.23620000  0.15728000  0.46800000  1.0 -0.5392089231
O  O6  1  0.26380000  0.65728000  0.53200000  1.0 -0.5392089231
O  O7  1  0.76380000  0.84272000  0.53200000  1.0 -0.5392089231
O  O8  1  0.73620000  0.34272000  0.46800000  1.0 -0.5392089231
O  O9  1  0.06050000  0.16043000  0.53177000  1.0 -0.5392089231
O  O10  1  0.43950000  0.66043000  0.46823000  1.0 -0.5392089231
O  O11  1  0.93950000  0.83957000  0.46823000  1.0 -0.5392089231
O  O12  1  0.56050000  0.33957000  0.53177000  1.0 -0.5392089231
O  O13  1  0.24530000  0.22601000  0.29019000  1.0 -0.5856690301
O  O14  1  0.25470000  0.72601000  0.70981000  1.0 -0.5856690301
O  O15  1  0.75470000  0.77399000  0.70981000  1.0 -0.5856690301
O  O16  1  0.74530000  0.27399000  0.29019000  1.0 -0.5856690301
O  O17  1  0.05410000  0.26532000  0.23332000  1.0 -0.5188036903
O  O18  1  0.44590000  0.76532000  0.76668000  1.0 -0.5188036903
O  O19  1  0.94590000  0.73468000  0.76668000  1.0 -0.5188036903
O  O20  1  0.55410000  0.23468000  0.23332000  1.0 -0.5188036903
O  O21  1  0.93410000  0.27387000  0.45351000  1.0 -0.795428787
O  O22  1  0.56590000  0.77387000  0.54649000  1.0 -0.795428787
O  O23  1  0.06590000  0.72613000  0.54649000  1.0 -0.795428787
O  O24  1  0.43410000  0.22613000  0.45351000  1.0 -0.795428787
O  O25  1  0.04930000  0.31200000  0.85551000  1.0 -0.2209412499
O  O26  1  0.45070000  0.81200000  0.14449000  1.0 -0.2209412499
O  O27  1  0.95070000  0.68800000  0.14449000  1.0 -0.2209412499
O  O28  1  0.54930000  0.18800000  0.85551000  1.0 -0.2209412499
O  O29  1  0.03600000  0.34611000  0.96881000  1.0 -0.262833689
O  O30  1  0.46400000  0.84611000  0.03119000  1.0 -0.262833689
O  O31  1  0.96400000  0.65389000  0.03119000  1.0 -0.262833689
O  O32  1  0.53600000  0.15389000  0.96881000  1.0 -0.262833689
O  O33  1  0.45250000  0.31133000  0.99169000  1.0 -0.0021601958
O  O34  1  0.04750000  0.81133000  0.00831000  1.0 -0.0021601958
O  O35  1  0.54750000  0.68867000  0.00831000  1.0 -0.0021601958
O  O36  1  0.95250000  0.18867000  0.99169000  1.0 -0.0021601958
O  O37  1  0.49580000  0.34224000  0.88950000  1.0 -0.0206335067
O  O38  1  0.00420000  0.84224000  0.11050000  1.0 -0.0206335067
O  O39  1  0.50420000  0.65776000  0.11050000  1.0 -0.0206335067
O  O40  1  0.99580000  0.15776000  0.88950000  1.0 -0.0206335067
O  O41  1  0.16450000  0.99793000  0.75580000  1.0 -0.3330190672
O  O42  1  0.33550000  0.49793000  0.24420000  1.0 -0.3330190672
O  O43  1  0.83550000  0.00207000  0.24420000  1.0 -0.3330190672
O  O44  1  0.66450000  0.50207000  0.75580000  1.0 -0.3330190672
O  O45  1  0.04260000  0.05019000  0.74410000  1.0 0.0612740855
O  O46  1  0.45740000  0.55019000  0.25590000  1.0 0.0612740855
O  O47  1  0.95740000  0.94981000  0.25590000  1.0 0.0612740855
O  O48  1  0.54260000  0.44981000  0.74410000  1.0 0.0612740855
O  O49  1  0.62060000  0.97510000  0.66380000  1.0 -0.0468769005
O  O50  1  0.87940000  0.47510000  0.33620000  1.0 -0.0468769005
O  O51  1  0.37940000  0.02490000  0.33620000  1.0 -0.0468769005
O  O52  1  0.12060000  0.52490000  0.66380000  1.0 -0.0468769005
O  O53  1  0.50910000  0.01970000  0.70520000  1.0 0.0189956593
O  O54  1  0.99090000  0.51970000  0.29480000  1.0 0.0189956593
O  O55  1  0.49090000  0.98030000  0.29480000  1.0 0.0189956593
O  O56  1  0.00910000  0.48030000  0.70520000  1.0 0.0189956593
O  O57  1  0.41170000  0.28170000  0.59559000  1.0 -0.5263064845
O  O58  1  0.08830000  0.78170000  0.40441000  1.0 -0.5263064845
O  O59  1  0.58830000  0.71830000  0.40441000  1.0 -0.5263064845
O  O60  1  0.91170000  0.21830000  0.59559000  1.0 -0.5263064845
O  O61  1  0.22330000  0.24080000  0.54148000  1.0 -0.61063603
O  O62  1  0.27670000  0.74080000  0.45852000  1.0 -0.61063603
O  O63  1  0.77670000  0.75920000  0.45852000  1.0 -0.61063603
O  O64  1  0.72330000  0.25920000  0.54148000  1.0 -0.61063603
O  O65  1  0.25590000  0.81532000  0.60140000  1.0 -0.5970609678
O  O66  1  0.24410000  0.31532000  0.39860000  1.0 -0.5970609678
O  O67  1  0.74410000  0.18468000  0.39860000  1.0 -0.5970609678
O  O68  1  0.75590000  0.68468000  0.60140000  1.0 -0.5970609678
O  O69  1  0.48080000  0.83156000  0.66326000  1.0 -0.5188036903
O  O70  1  0.01920000  0.33156000  0.33674000  1.0 -0.5188036903
O  O71  1  0.51920000  0.16844000  0.33674000  1.0 -0.5188036903
O  O72  1  0.98080000  0.66844000  0.66326000  1.0 -0.5188036903
O  O73  1  0.15550000  0.34089000  0.89800000  1.0 -0.0284781737
O  O74  1  0.34450000  0.84089000  0.10200000  1.0 -0.0284781737
O  O75  1  0.84450000  0.65911000  0.10200000  1.0 -0.0284781737
O  O76  1  0.65550000  0.15911000  0.89800000  1.0 -0.0284781737
O  O77  1  0.40850000  0.32300000  0.99030000  1.0 0.0357620803
O  O78  1  0.09150000  0.82300000  0.00970000  1.0 0.0357620803
O  O79  1  0.59150000  0.67700000  0.00970000  1.0 0.0357620803
O  O80  1  0.90850000  0.17700000  0.99030000  1.0 0.0357620803
O  O81  1  0.42390000  0.35327000  0.87670000  1.0 -0.0107716646
O  O82  1  0.07610000  0.85327000  0.12330000  1.0 -0.0107716646
O  O83  1  0.57610000  0.64673000  0.12330000  1.0 -0.0107716646
O  O84  1  0.92390000  0.14673000  0.87670000  1.0 -0.0107716646
O  O85  1  0.98021000  0.03230000  0.68540000  1.0 -0.0887924513
O  O86  1  0.51979000  0.53230000  0.31460000  1.0 -0.0887924513
O  O87  1  0.01979000  0.96770000  0.31460000  1.0 -0.0887924513
O  O88  1  0.48021000  0.46770000  0.68540000  1.0 -0.0887924513
O  O89  1  0.64340000  0.97010000  0.71350000  1.0 0.0471419555
O  O90  1  0.85660000  0.47010000  0.28650000  1.0 0.0471419555
O  O91  1  0.35660000  0.02990000  0.28650000  1.0 0.0471419555
O  O92  1  0.14340000  0.52990000  0.71350000  1.0 0.0471419555
O  O93  1  0.49570000  0.01112000  0.73674000  1.0 0.0189956593
O  O94  1  0.00430000  0.51112000  0.26326000  1.0 0.0189956593
O  O95  1  0.50430000  0.98888000  0.26326000  1.0 0.0189956593
O  O96  1  0.99570000  0.48888000  0.73674000  1.0 0.0189956593
