# DDEC6 charges by PACMAN v1.1 (https://github.com/mtap-research/PACMAN-charge/)
data_FOQNIK_FSR_pacman
_symmetry_space_group_name_H-M   'P 1'
_cell_length_a   10.18860000
_cell_length_b   34.13500000
_cell_length_c   15.41800000
_cell_angle_alpha   90.00000000
_cell_angle_beta   105.44600000
_cell_angle_gamma   90.00000000
_symmetry_Int_Tables_number   1
_chemical_formula_structural   Cu3H12C32(N2O9)3
_chemical_formula_sum   'Cu12 H48 C128 N24 O108'
_cell_volume   5168.52096324
_cell_formula_units_Z   4
loop_
 _symmetry_equiv_pos_site_id
 _symmetry_equiv_pos_as_xyz
  1  'x, y, z'
loop_
 _atom_site_type_symbol
 _atom_site_label
 _atom_site_symmetry_multiplicity
 _atom_site_fract_x
 _atom_site_fract_y
 _atom_site_fract_z
 _atom_site_occupancy
 _atom_site_charge
Cu  Cu1  1  0.68137000  0.21877000  0.91436000  1.0 0.9462399122
Cu  Cu2  1  0.81863000  0.71877000  0.08564000  1.0 0.9462399122
Cu  Cu3  1  0.31863000  0.78123000  0.08564000  1.0 0.9462399122
Cu  Cu4  1  0.18137000  0.28123000  0.91436000  1.0 0.9462399122
Cu  Cu5  1  0.66338000  0.27630000  0.06110000  1.0 0.9641396042
Cu  Cu6  1  0.83662000  0.77630000  0.93890000  1.0 0.9641396042
Cu  Cu7  1  0.33662000  0.72370000  0.93890000  1.0 0.9641396042
Cu  Cu8  1  0.16338000  0.22370000  0.06110000  1.0 0.9641396042
Cu  Cu9  1  0.41551000  0.22014000  0.98347000  1.0 0.9692206618
Cu  Cu10  1  0.08449000  0.72014000  0.01653000  1.0 0.9692206618
Cu  Cu11  1  0.58449000  0.77986000  0.01653000  1.0 0.9692206618
Cu  Cu12  1  0.91551000  0.27986000  0.98347000  1.0 0.9692206618
H  H1  1  0.47330000  0.31840000  0.96660000  1.0 0.2904296156
H  H2  1  0.02670000  0.81840000  0.03340000  1.0 0.2904296156
H  H3  1  0.52670000  0.68160000  0.03340000  1.0 0.2904296156
H  H4  1  0.97330000  0.18160000  0.96660000  1.0 0.2904296156
H  H5  1  0.41690000  0.31770000  0.02900000  1.0 0.297786453
H  H6  1  0.08310000  0.81770000  0.97100000  1.0 0.297786453
H  H7  1  0.58310000  0.68230000  0.97100000  1.0 0.297786453
H  H8  1  0.91690000  0.18230000  0.02900000  1.0 0.297786453
H  H9  1  0.18240000  0.20990000  0.91060000  1.0 0.372893111
H  H10  1  0.31760000  0.70990000  0.08940000  1.0 0.372893111
H  H11  1  0.81760000  0.79010000  0.08940000  1.0 0.372893111
H  H12  1  0.68240000  0.29010000  0.91060000  1.0 0.372893111
H  H13  1  0.64570000  0.20430000  0.06170000  1.0 0.3830050688
H  H14  1  0.85430000  0.70430000  0.93830000  1.0 0.3830050688
H  H15  1  0.35430000  0.79570000  0.93830000  1.0 0.3830050688
H  H16  1  0.14570000  0.29570000  0.06170000  1.0 0.3830050688
H  H17  1  0.76700000  0.59990000  0.01460000  1.0 0.1518134337
H  H18  1  0.73300000  0.09990000  0.98540000  1.0 0.1518134337
H  H19  1  0.23300000  0.40010000  0.98540000  1.0 0.1518134337
H  H20  1  0.26700000  0.90010000  0.01460000  1.0 0.1518134337
H  H21  1  0.01840000  0.58300000  0.25540000  1.0 0.1409106787
H  H22  1  0.48160000  0.08300000  0.74460000  1.0 0.1409106787
H  H23  1  0.98160000  0.41700000  0.74460000  1.0 0.1409106787
H  H24  1  0.51840000  0.91700000  0.25540000  1.0 0.1409106787
H  H25  1  0.27860000  0.31130000  0.67700000  1.0 0.1181489241
H  H26  1  0.22140000  0.81130000  0.32300000  1.0 0.1181489241
H  H27  1  0.72140000  0.68870000  0.32300000  1.0 0.1181489241
H  H28  1  0.77860000  0.18870000  0.67700000  1.0 0.1181489241
H  H29  1  0.52160000  0.21690000  0.57520000  1.0 0.1181489241
H  H30  1  0.97840000  0.71690000  0.42480000  1.0 0.1181489241
H  H31  1  0.47840000  0.78310000  0.42480000  1.0 0.1181489241
H  H32  1  0.02160000  0.28310000  0.57520000  1.0 0.1181489241
H  H33  1  0.48980000  0.21150000  0.71730000  1.0 0.1518134337
H  H34  1  0.01020000  0.71150000  0.28270000  1.0 0.1518134337
H  H35  1  0.51020000  0.78850000  0.28270000  1.0 0.1518134337
H  H36  1  0.98980000  0.28850000  0.71730000  1.0 0.1518134337
H  H37  1  0.33000000  0.21780000  0.40640000  1.0 0.1093533696
H  H38  1  0.17000000  0.71780000  0.59360000  1.0 0.1093533696
H  H39  1  0.67000000  0.78220000  0.59360000  1.0 0.1093533696
H  H40  1  0.83000000  0.28220000  0.40640000  1.0 0.1093533696
H  H41  1  0.35420000  0.21390000  0.26380000  1.0 0.1409106787
H  H42  1  0.14580000  0.71390000  0.73620000  1.0 0.1409106787
H  H43  1  0.64580000  0.78610000  0.73620000  1.0 0.1409106787
H  H44  1  0.85420000  0.28610000  0.26380000  1.0 0.1409106787
H  H45  1  0.59240000  0.30900000  0.30970000  1.0 0.1093533696
H  H46  1  0.90760000  0.80900000  0.69030000  1.0 0.1093533696
H  H47  1  0.40760000  0.69100000  0.69030000  1.0 0.1093533696
H  H48  1  0.09240000  0.19100000  0.30970000  1.0 0.1093533696
C  C1  1  0.81290000  0.34934000  0.06040000  1.0 0.5766801473
C  C2  1  0.68710000  0.84934000  0.93960000  1.0 0.5766801473
C  C3  1  0.18710000  0.65066000  0.93960000  1.0 0.5766801473
C  C4  1  0.31290000  0.15066000  0.06040000  1.0 0.5766801473
C  C5  1  0.82170000  0.39270000  0.07470000  1.0 -0.011632507
C  C6  1  0.67830000  0.89270000  0.92530000  1.0 -0.011632507
C  C7  1  0.17830000  0.60730000  0.92530000  1.0 -0.011632507
C  C8  1  0.32170000  0.10730000  0.07470000  1.0 -0.011632507
C  C9  1  0.87900000  0.41550000  0.02070000  1.0 0.018010545
C  C10  1  0.62100000  0.91550000  0.97930000  1.0 0.018010545
C  C11  1  0.12100000  0.58450000  0.97930000  1.0 0.018010545
C  C12  1  0.37900000  0.08450000  0.02070000  1.0 0.018010545
C  C13  1  0.88300000  0.45540000  0.03190000  1.0 0.0093352241
C  C14  1  0.61700000  0.95540000  0.96810000  1.0 0.0093352241
C  C15  1  0.11700000  0.54460000  0.96810000  1.0 0.0093352241
C  C16  1  0.38300000  0.04460000  0.03190000  1.0 0.0093352241
C  C17  1  0.84250000  0.47400000  0.09950000  1.0 -0.0186231085
C  C18  1  0.65750000  0.97400000  0.90050000  1.0 -0.0186231085
C  C19  1  0.15750000  0.52600000  0.90050000  1.0 -0.0186231085
C  C20  1  0.34250000  0.02600000  0.09950000  1.0 -0.0186231085
C  C21  1  0.76800000  0.45170000  0.14440000  1.0 0.0655571755
C  C22  1  0.73200000  0.95170000  0.85560000  1.0 0.0647278812
C  C23  1  0.23200000  0.54830000  0.85560000  1.0 0.0647278812
C  C24  1  0.26800000  0.04830000  0.14440000  1.0 0.0655571755
C  C25  1  0.76900000  0.41020000  0.13900000  1.0 -0.0186231085
C  C26  1  0.73100000  0.91020000  0.86100000  1.0 -0.0186231085
C  C27  1  0.23100000  0.58980000  0.86100000  1.0 -0.0186231085
C  C28  1  0.26900000  0.08980000  0.13900000  1.0 -0.0186231085
C  C29  1  0.85690000  0.51720000  0.11140000  1.0 -0.0428109889
C  C30  1  0.64310000  0.01720000  0.88860000  1.0 -0.0428109889
C  C31  1  0.14310000  0.48280000  0.88860000  1.0 -0.0428109889
C  C32  1  0.35690000  0.98280000  0.11140000  1.0 -0.0428109889
C  C33  1  0.79420000  0.54270000  0.05000000  1.0 0.0431541067
C  C34  1  0.70580000  0.04270000  0.95000000  1.0 0.0431541067
C  C35  1  0.20580000  0.45730000  0.95000000  1.0 0.0431541067
C  C36  1  0.29420000  0.95730000  0.05000000  1.0 0.0431541067
C  C37  1  0.81090000  0.58320000  0.06080000  1.0 -0.1513165731
C  C38  1  0.68910000  0.08320000  0.93920000  1.0 -0.1513165731
C  C39  1  0.18910000  0.41680000  0.93920000  1.0 -0.1513165731
C  C40  1  0.31090000  0.91680000  0.06080000  1.0 -0.1513165731
C  C41  1  0.88980000  0.59780000  0.13720000  1.0 0.0518023308
C  C42  1  0.61020000  0.09780000  0.86280000  1.0 0.0518023308
C  C43  1  0.11020000  0.40220000  0.86280000  1.0 0.0518023308
C  C44  1  0.38980000  0.90220000  0.13720000  1.0 0.0518023308
C  C45  1  0.96060000  0.57320000  0.20270000  1.0 -0.1513165731
C  C46  1  0.53940000  0.07320000  0.79730000  1.0 -0.1513165731
C  C47  1  0.03940000  0.42680000  0.79730000  1.0 -0.1513165731
C  C48  1  0.46060000  0.92680000  0.20270000  1.0 -0.1513165731
C  C49  1  0.94460000  0.53270000  0.18890000  1.0 -0.011632507
C  C50  1  0.55540000  0.03270000  0.81110000  1.0 -0.011632507
C  C51  1  0.05540000  0.46730000  0.81110000  1.0 -0.011632507
C  C52  1  0.44460000  0.96730000  0.18890000  1.0 -0.011632507
C  C53  1  0.89890000  0.64230000  0.15330000  1.0 0.5700803634
C  C54  1  0.60110000  0.14230000  0.84670000  1.0 0.5700803634
C  C55  1  0.10110000  0.35770000  0.84670000  1.0 0.5700803634
C  C56  1  0.39890000  0.85770000  0.15330000  1.0 0.5700803634
C  C57  1  0.35380000  0.25800000  0.80270000  1.0 0.6064993378
C  C58  1  0.14620000  0.75800000  0.19730000  1.0 0.6064993378
C  C59  1  0.64620000  0.74200000  0.19730000  1.0 0.6064993378
C  C60  1  0.85380000  0.24200000  0.80270000  1.0 0.6064993378
C  C61  1  0.38110000  0.26140000  0.71130000  1.0 0.018010545
C  C62  1  0.11890000  0.76140000  0.28870000  1.0 0.018010545
C  C63  1  0.61890000  0.73860000  0.28870000  1.0 0.018010545
C  C64  1  0.88110000  0.23860000  0.71130000  1.0 0.018010545
C  C65  1  0.32730000  0.29210000  0.65630000  1.0 -0.1682053929
C  C66  1  0.17270000  0.79210000  0.34370000  1.0 -0.1682053929
C  C67  1  0.67270000  0.70790000  0.34370000  1.0 -0.1682053929
C  C68  1  0.82730000  0.20790000  0.65630000  1.0 -0.1682053929
C  C69  1  0.34380000  0.29490000  0.57170000  1.0 -0.1682053929
C  C70  1  0.15620000  0.79490000  0.42830000  1.0 -0.1682053929
C  C71  1  0.65620000  0.70510000  0.42830000  1.0 -0.1682053929
C  C72  1  0.84380000  0.20510000  0.57170000  1.0 -0.1682053929
C  C73  1  0.42000000  0.26650000  0.53830000  1.0 -0.0477169256
C  C74  1  0.08000000  0.76650000  0.46170000  1.0 -0.0477169256
C  C75  1  0.58000000  0.73350000  0.46170000  1.0 -0.0477169256
C  C76  1  0.92000000  0.23350000  0.53830000  1.0 -0.0477169256
C  C77  1  0.47190000  0.23610000  0.59500000  1.0 -0.1513165731
C  C78  1  0.02810000  0.73610000  0.40500000  1.0 -0.1552294556
C  C79  1  0.52810000  0.76390000  0.40500000  1.0 -0.1552294556
C  C80  1  0.97190000  0.26390000  0.59500000  1.0 -0.1513165731
C  C81  1  0.45380000  0.23270000  0.68090000  1.0 -0.1125576559
C  C82  1  0.04620000  0.73270000  0.31910000  1.0 -0.1125576559
C  C83  1  0.54620000  0.76730000  0.31910000  1.0 -0.1125576559
C  C84  1  0.95380000  0.26730000  0.68090000  1.0 -0.1125576559
C  C85  1  0.44070000  0.26680000  0.44530000  1.0 -0.0428109889
C  C86  1  0.05930000  0.76680000  0.55470000  1.0 -0.0428109889
C  C87  1  0.55930000  0.73320000  0.55470000  1.0 -0.0428109889
C  C88  1  0.94070000  0.23320000  0.44530000  1.0 -0.0428109889
C  C89  1  0.38150000  0.23670000  0.38680000  1.0 -0.1682053929
C  C90  1  0.11850000  0.73670000  0.61320000  1.0 -0.1682053929
C  C91  1  0.61850000  0.76330000  0.61320000  1.0 -0.1682053929
C  C92  1  0.88150000  0.26330000  0.38680000  1.0 -0.1682053929
C  C93  1  0.39670000  0.23400000  0.30160000  1.0 -0.1125576559
C  C94  1  0.10330000  0.73400000  0.69840000  1.0 -0.1125576559
C  C95  1  0.60330000  0.76600000  0.69840000  1.0 -0.1125576559
C  C96  1  0.89670000  0.26600000  0.30160000  1.0 -0.1125576559
C  C97  1  0.47570000  0.26130000  0.27100000  1.0 0.0093352241
C  C98  1  0.02430000  0.76130000  0.72900000  1.0 0.0093352241
C  C99  1  0.52430000  0.73870000  0.72900000  1.0 0.0093352241
C  C100  1  0.97570000  0.23870000  0.27100000  1.0 0.0093352241
C  C101  1  0.53790000  0.29070000  0.32840000  1.0 -0.1765528235
C  C102  1  0.96210000  0.79070000  0.67160000  1.0 -0.1765528235
C  C103  1  0.46210000  0.70930000  0.67160000  1.0 -0.1765528235
C  C104  1  0.03790000  0.20930000  0.32840000  1.0 -0.1765528235
C  C105  1  0.51960000  0.29310000  0.41270000  1.0 -0.1125576559
C  C106  1  0.98040000  0.79310000  0.58730000  1.0 -0.1125576559
C  C107  1  0.48040000  0.70690000  0.58730000  1.0 -0.1125576559
C  C108  1  0.01960000  0.20690000  0.41270000  1.0 -0.1125576559
C  C109  1  0.49430000  0.25847000  0.17800000  1.0 0.6045722004
C  C110  1  0.00570000  0.75847000  0.82200000  1.0 0.6045722004
C  C111  1  0.50570000  0.74153000  0.82200000  1.0 0.6045722004
C  C112  1  0.99430000  0.24153000  0.17800000  1.0 0.6045722004
C  C113  1  0.94080000  0.41210000  0.07520000  1.0 0.018010545
C  C114  1  0.55920000  0.91210000  0.92480000  1.0 0.018010545
C  C115  1  0.05920000  0.58790000  0.92480000  1.0 0.018010545
C  C116  1  0.44080000  0.08790000  0.07520000  1.0 0.018010545
C  C117  1  0.95170000  0.45240000  0.08490000  1.0 0.0093352241
C  C118  1  0.54830000  0.95240000  0.91510000  1.0 0.0093352241
C  C119  1  0.04830000  0.54760000  0.91510000  1.0 0.0093352241
C  C120  1  0.45170000  0.04760000  0.08490000  1.0 0.0093352241
C  C121  1  0.72200000  0.45480000  0.09280000  1.0 0.0431541067
C  C122  1  0.77800000  0.95480000  0.90720000  1.0 0.0431541067
C  C123  1  0.27800000  0.54520000  0.90720000  1.0 0.0431541067
C  C124  1  0.22200000  0.04520000  0.09280000  1.0 0.0431541067
C  C125  1  0.71700000  0.41340000  0.08910000  1.0 -0.0268873454
C  C126  1  0.78300000  0.91340000  0.91090000  1.0 -0.0268873454
C  C127  1  0.28300000  0.58660000  0.91090000  1.0 -0.0268873454
C  C128  1  0.21700000  0.08660000  0.08910000  1.0 -0.0268873454
N  N1  1  0.70900000  0.46880000  0.21160000  1.0 0.2841045346
N  N2  1  0.79100000  0.96880000  0.78840000  1.0 0.2841045346
N  N3  1  0.29100000  0.53120000  0.78840000  1.0 0.2841045346
N  N4  1  0.20900000  0.03120000  0.21160000  1.0 0.2841045346
N  N5  1  0.27790000  0.32610000  0.51500000  1.0 0.4063425299
N  N6  1  0.22210000  0.82610000  0.48500000  1.0 0.4063425299
N  N7  1  0.72210000  0.67390000  0.48500000  1.0 0.4063425299
N  N8  1  0.77790000  0.17390000  0.51500000  1.0 0.4063425299
N  N9  1  0.59300000  0.32380000  0.47070000  1.0 0.424420261
N  N10  1  0.90700000  0.82380000  0.52930000  1.0 0.424420261
N  N11  1  0.40700000  0.67620000  0.52930000  1.0 0.424420261
N  N12  1  0.09300000  0.17620000  0.47070000  1.0 0.424420261
N  N13  1  0.73700000  0.53250000  0.95280000  1.0 0.3173293855
N  N14  1  0.76300000  0.03250000  0.04720000  1.0 0.3173293855
N  N15  1  0.26300000  0.46750000  0.04720000  1.0 0.3173293855
N  N16  1  0.23700000  0.96750000  0.95280000  1.0 0.3173293855
N  N17  1  0.60600000  0.47130000  0.12300000  1.0 0.2189068507
N  N18  1  0.89400000  0.97130000  0.87700000  1.0 0.2189068507
N  N19  1  0.39400000  0.52870000  0.87700000  1.0 0.2189068507
N  N20  1  0.10600000  0.02870000  0.12300000  1.0 0.2189068507
N  N21  1  0.05000000  0.51350000  0.25700000  1.0 0.4794363838
N  N22  1  0.45000000  0.01350000  0.74300000  1.0 0.4794363838
N  N23  1  0.95000000  0.48650000  0.74300000  1.0 0.4794363838
N  N24  1  0.55000000  0.98650000  0.25700000  1.0 0.4794363838
O  O1  1  0.43440000  0.30148000  0.99170000  1.0 -0.7069774632
O  O2  1  0.06560000  0.80148000  0.00830000  1.0 -0.7069774632
O  O3  1  0.56560000  0.69852000  0.00830000  1.0 -0.7069774632
O  O4  1  0.93440000  0.19852000  0.99170000  1.0 -0.7069774632
O  O5  1  0.22240000  0.22632000  0.95030000  1.0 -0.8174941305
O  O6  1  0.27760000  0.72632000  0.04970000  1.0 -0.8174941305
O  O7  1  0.77760000  0.77368000  0.04970000  1.0 -0.8174941305
O  O8  1  0.72240000  0.27368000  0.95030000  1.0 -0.8174941305
O  O9  1  0.89480000  0.33530000  0.02290000  1.0 -0.4833576072
O  O10  1  0.60520000  0.83530000  0.97710000  1.0 -0.4833576072
O  O11  1  0.10520000  0.66470000  0.97710000  1.0 -0.4833576072
O  O12  1  0.39480000  0.16470000  0.02290000  1.0 -0.4833576072
O  O13  1  0.72150000  0.33126000  0.08620000  1.0 -0.5082829956
O  O14  1  0.77850000  0.83126000  0.91380000  1.0 -0.5082829956
O  O15  1  0.27850000  0.66874000  0.91380000  1.0 -0.5082829956
O  O16  1  0.22150000  0.16874000  0.08620000  1.0 -0.5082829956
O  O17  1  0.43260000  0.23737000  0.86120000  1.0 -0.5827387336
O  O18  1  0.06740000  0.73737000  0.13880000  1.0 -0.5827387336
O  O19  1  0.56740000  0.76263000  0.13880000  1.0 -0.5827387336
O  O20  1  0.93260000  0.26263000  0.86120000  1.0 -0.5827387336
O  O21  1  0.25170000  0.27666000  0.81060000  1.0 -0.518256149
O  O22  1  0.24830000  0.77666000  0.18940000  1.0 -0.518256149
O  O23  1  0.74830000  0.72334000  0.18940000  1.0 -0.518256149
O  O24  1  0.75170000  0.22334000  0.81060000  1.0 -0.518256149
O  O25  1  0.61150000  0.22145000  0.02210000  1.0 -0.8001445893
O  O26  1  0.88850000  0.72145000  0.97790000  1.0 -0.8001445893
O  O27  1  0.38850000  0.77855000  0.97790000  1.0 -0.8001445893
O  O28  1  0.11150000  0.27855000  0.02210000  1.0 -0.8001445893
O  O29  1  0.30300000  0.36200000  0.55810000  1.0 -0.0708734568
O  O30  1  0.19700000  0.86200000  0.44190000  1.0 -0.0708734568
O  O31  1  0.69700000  0.63800000  0.44190000  1.0 -0.0708734568
O  O32  1  0.80300000  0.13800000  0.55810000  1.0 -0.0708734568
O  O33  1  0.29400000  0.33740000  0.44980000  1.0 0.1761485275
O  O34  1  0.20600000  0.83740000  0.55020000  1.0 0.1761485275
O  O35  1  0.70600000  0.66260000  0.55020000  1.0 0.1852951136
O  O36  1  0.79400000  0.16260000  0.44980000  1.0 0.1761485275
O  O37  1  0.63680000  0.31820000  0.55090000  1.0 -0.0935105894
O  O38  1  0.86320000  0.81820000  0.44910000  1.0 -0.0935105894
O  O39  1  0.36320000  0.68180000  0.44910000  1.0 -0.0935105894
O  O40  1  0.13680000  0.18180000  0.55090000  1.0 -0.0935105894
O  O41  1  0.60500000  0.35690000  0.43000000  1.0 0.018010545
O  O42  1  0.89500000  0.85690000  0.57000000  1.0 0.018010545
O  O43  1  0.39500000  0.64310000  0.57000000  1.0 0.018010545
O  O44  1  0.10500000  0.14310000  0.43000000  1.0 0.018010545
O  O45  1  0.69000000  0.50300000  0.21270000  1.0 0.0518023308
O  O46  1  0.81000000  0.00300000  0.78730000  1.0 0.0518023308
O  O47  1  0.31000000  0.49700000  0.78730000  1.0 0.0518023308
O  O48  1  0.19000000  0.99700000  0.21270000  1.0 0.0518023308
O  O49  1  0.69000000  0.44930000  0.26900000  1.0 -0.2023486149
O  O50  1  0.81000000  0.94930000  0.73100000  1.0 -0.2023486149
O  O51  1  0.31000000  0.55070000  0.73100000  1.0 -0.2023486149
O  O52  1  0.19000000  0.05070000  0.26900000  1.0 -0.2023486149
O  O53  1  0.75300000  0.55780000  0.89800000  1.0 -0.3039468739
O  O54  1  0.74700000  0.05780000  0.10200000  1.0 -0.3039468739
O  O55  1  0.24700000  0.44220000  0.10200000  1.0 -0.3039468739
O  O56  1  0.25300000  0.94220000  0.89800000  1.0 -0.3039468739
O  O57  1  0.74300000  0.49880000  0.92400000  1.0 -0.3294260491
O  O58  1  0.75700000  0.99880000  0.07600000  1.0 -0.3294260491
O  O59  1  0.25700000  0.50120000  0.07600000  1.0 -0.3294260491
O  O60  1  0.24300000  0.00120000  0.92400000  1.0 -0.3294260491
O  O61  1  0.60290000  0.27415000  0.16920000  1.0 -0.5416693453
O  O62  1  0.89710000  0.77415000  0.83080000  1.0 -0.5416693453
O  O63  1  0.39710000  0.72585000  0.83080000  1.0 -0.5416693453
O  O64  1  0.10290000  0.22585000  0.16920000  1.0 -0.5416693453
O  O65  1  0.40890000  0.24031000  0.11880000  1.0 -0.6070214275
O  O66  1  0.09110000  0.74031000  0.88120000  1.0 -0.6070214275
O  O67  1  0.59110000  0.75969000  0.88120000  1.0 -0.6070214275
O  O68  1  0.90890000  0.25969000  0.11880000  1.0 -0.6070214275
O  O69  1  0.96290000  0.65290000  0.22800000  1.0 -0.5082829956
O  O70  1  0.53710000  0.15290000  0.77200000  1.0 -0.5082829956
O  O71  1  0.03710000  0.34710000  0.77200000  1.0 -0.5082829956
O  O72  1  0.46290000  0.84710000  0.22800000  1.0 -0.5082829956
O  O73  1  0.83720000  0.66326000  0.09220000  1.0 -0.518256149
O  O74  1  0.66280000  0.16326000  0.90780000  1.0 -0.518256149
O  O75  1  0.16280000  0.33674000  0.90780000  1.0 -0.518256149
O  O76  1  0.33720000  0.83674000  0.09220000  1.0 -0.518256149
O  O77  1  0.19900000  0.34520000  0.53360000  1.0 0.1035713366
O  O78  1  0.30100000  0.84520000  0.46640000  1.0 0.1035713366
O  O79  1  0.80100000  0.65480000  0.46640000  1.0 0.1035713366
O  O80  1  0.69900000  0.15480000  0.53360000  1.0 0.1093533696
O  O81  1  0.21960000  0.31680000  0.43570000  1.0 -0.0763177172
O  O82  1  0.28040000  0.81680000  0.56430000  1.0 -0.0763177172
O  O83  1  0.78040000  0.68320000  0.56430000  1.0 -0.0763177172
O  O84  1  0.71960000  0.18320000  0.43570000  1.0 -0.0763177172
O  O85  1  0.54100000  0.34160000  0.52320000  1.0 -0.0186231085
O  O86  1  0.95900000  0.84160000  0.47680000  1.0 -0.0186231085
O  O87  1  0.45900000  0.65840000  0.47680000  1.0 -0.0186231085
O  O88  1  0.04100000  0.15840000  0.52320000  1.0 -0.0186231085
O  O89  1  0.69320000  0.33890000  0.45330000  1.0 -0.0268873454
O  O90  1  0.80680000  0.83890000  0.54670000  1.0 -0.0268873454
O  O91  1  0.30680000  0.66110000  0.54670000  1.0 -0.0268873454
O  O92  1  0.19320000  0.16110000  0.45330000  1.0 -0.0268873454
O  O93  1  0.61500000  0.50260000  0.15400000  1.0 0.0093352241
O  O94  1  0.88500000  0.00260000  0.84600000  1.0 0.0093352241
O  O95  1  0.38500000  0.49740000  0.84600000  1.0 0.0093352241
O  O96  1  0.11500000  0.99740000  0.15400000  1.0 0.0093352241
O  O97  1  0.49000000  0.46210000  0.07600000  1.0 -0.3885887999
O  O98  1  0.01000000  0.96210000  0.92400000  1.0 -0.3885887999
O  O99  1  0.51000000  0.53790000  0.92400000  1.0 -0.3885887999
O  O100  1  0.99000000  0.03790000  0.07600000  1.0 -0.3885887999
O  O101  1  0.15700000  0.52400000  0.30800000  1.0 -0.2725139323
O  O102  1  0.34300000  0.02400000  0.69200000  1.0 -0.2725139323
O  O103  1  0.84300000  0.47600000  0.69200000  1.0 -0.2725139323
O  O104  1  0.65700000  0.97600000  0.30800000  1.0 -0.2725139323
O  O105  1  0.01400000  0.48080000  0.27200000  1.0 -0.3294260491
O  O106  1  0.48600000  0.98080000  0.72800000  1.0 -0.3294260491
O  O107  1  0.98600000  0.51920000  0.72800000  1.0 -0.3294260491
O  O108  1  0.51400000  0.01920000  0.27200000  1.0 -0.3294260491
