# DDEC6 charges by PACMAN v1.1 (https://github.com/mtap-research/PACMAN-charge/)
data_FOQNUW_FSR_pacman
_symmetry_space_group_name_H-M   'P 1'
_cell_length_a   10.05300000
_cell_length_b   32.62600000
_cell_length_c   15.28600000
_cell_angle_alpha   90.00000000
_cell_angle_beta   107.20000000
_cell_angle_gamma   90.00000000
_symmetry_Int_Tables_number   1
_chemical_formula_structural   Cu3H14C28(NO6)4
_chemical_formula_sum   'Cu12 H56 C112 N16 O96'
_cell_volume   4789.42426722
_cell_formula_units_Z   4
loop_
 _symmetry_equiv_pos_site_id
 _symmetry_equiv_pos_as_xyz
  1  'x, y, z'
loop_
 _atom_site_type_symbol
 _atom_site_label
 _atom_site_symmetry_multiplicity
 _atom_site_fract_x
 _atom_site_fract_y
 _atom_site_fract_z
 _atom_site_occupancy
 _atom_site_charge
Cu  Cu1  1  0.73038000  0.28376000  0.59151000  1.0 0.944325725
Cu  Cu2  1  0.76962000  0.78376000  0.40849000  1.0 0.944325725
Cu  Cu3  1  0.26962000  0.71624000  0.40849000  1.0 0.944325725
Cu  Cu4  1  0.23038000  0.21624000  0.59151000  1.0 0.944325725
Cu  Cu5  1  0.98791000  0.28257000  0.51796000  1.0 0.954984764
Cu  Cu6  1  0.51209000  0.78257000  0.48204000  1.0 0.9552280702
Cu  Cu7  1  0.01209000  0.71743000  0.48204000  1.0 0.9552280702
Cu  Cu8  1  0.48791000  0.21743000  0.51796000  1.0 0.954984764
Cu  Cu9  1  0.96677000  0.22523000  0.66586000  1.0 0.9068301715
Cu  Cu10  1  0.53323000  0.72523000  0.33414000  1.0 0.9068301715
Cu  Cu11  1  0.03323000  0.77477000  0.33414000  1.0 0.9068301715
Cu  Cu12  1  0.46677000  0.27477000  0.66586000  1.0 0.9068301715
H  H1  1  0.97120000  0.29960000  0.66930000  1.0 0.3825243511
H  H2  1  0.52880000  0.79960000  0.33070000  1.0 0.3825243511
H  H3  1  0.02880000  0.70040000  0.33070000  1.0 0.3825243511
H  H4  1  0.47120000  0.20040000  0.66930000  1.0 0.3825243511
H  H5  1  0.48810000  0.29270000  0.51500000  1.0 0.3861952223
H  H6  1  0.01190000  0.79270000  0.48500000  1.0 0.3861952223
H  H7  1  0.51190000  0.70730000  0.48500000  1.0 0.3861952223
H  H8  1  0.98810000  0.20730000  0.51500000  1.0 0.3861952223
H  H9  1  0.71740000  0.41940000  0.56920000  1.0 0.1108075366
H  H10  1  0.78260000  0.91940000  0.43080000  1.0 0.1108075366
H  H11  1  0.28260000  0.58060000  0.43080000  1.0 0.1108075366
H  H12  1  0.21740000  0.08060000  0.56920000  1.0 0.1108075366
H  H13  1  0.67910000  0.48490000  0.52080000  1.0 0.1002486422
H  H14  1  0.82090000  0.98490000  0.47920000  1.0 0.1002486422
H  H15  1  0.32090000  0.51510000  0.47920000  1.0 0.1002486422
H  H16  1  0.17910000  0.01510000  0.52080000  1.0 0.1002486422
H  H17  1  0.89010000  0.39670000  0.37010000  1.0 0.1152878873
H  H18  1  0.60990000  0.89670000  0.62990000  1.0 0.1152878873
H  H19  1  0.10990000  0.60330000  0.62990000  1.0 0.1152878873
H  H20  1  0.39010000  0.10330000  0.37010000  1.0 0.1152878873
H  H21  1  0.49700000  0.59370000  0.30310000  1.0 0.1108075366
H  H22  1  0.00300000  0.09370000  0.69690000  1.0 0.1108075366
H  H23  1  0.50300000  0.40630000  0.69690000  1.0 0.1108075366
H  H24  1  0.99700000  0.90630000  0.30310000  1.0 0.1108075366
H  H25  1  0.89220000  0.61370000  0.43980000  1.0 0.1272450832
H  H26  1  0.60780000  0.11370000  0.56020000  1.0 0.1272450832
H  H27  1  0.10780000  0.38630000  0.56020000  1.0 0.1272450832
H  H28  1  0.39220000  0.88630000  0.43980000  1.0 0.1272450832
H  H29  1  0.92770000  0.54460000  0.45650000  1.0 0.1108075366
H  H30  1  0.57230000  0.04460000  0.54350000  1.0 0.1108075366
H  H31  1  0.07230000  0.45540000  0.54350000  1.0 0.1108075366
H  H32  1  0.42770000  0.95540000  0.45650000  1.0 0.1108075366
H  H33  1  0.87670000  0.19820000  0.90980000  1.0 0.1002486422
H  H34  1  0.62330000  0.69820000  0.09020000  1.0 0.1002486422
H  H35  1  0.12330000  0.80180000  0.09020000  1.0 0.1002486422
H  H36  1  0.37670000  0.30180000  0.90980000  1.0 0.1002486422
H  H37  1  0.62700000  0.30110000  0.99710000  1.0 0.1002486422
H  H38  1  0.87300000  0.80110000  0.00290000  1.0 0.1002486422
H  H39  1  0.37300000  0.69890000  0.00290000  1.0 0.1002486422
H  H40  1  0.12700000  0.19890000  0.99710000  1.0 0.1002486422
H  H41  1  0.67640000  0.30460000  0.86240000  1.0 0.139667178
H  H42  1  0.82360000  0.80460000  0.13760000  1.0 0.139667178
H  H43  1  0.32360000  0.69540000  0.13760000  1.0 0.139667178
H  H44  1  0.17640000  0.19540000  0.86240000  1.0 0.139667178
H  H45  1  0.78840000  0.29980000  0.17430000  1.0 0.1108075366
H  H46  1  0.71160000  0.79980000  0.82570000  1.0 0.1108075366
H  H47  1  0.21160000  0.70020000  0.82570000  1.0 0.1108075366
H  H48  1  0.28840000  0.20020000  0.17430000  1.0 0.1108075366
H  H49  1  0.77940000  0.29660000  0.32380000  1.0 0.1272450832
H  H50  1  0.72060000  0.79660000  0.67620000  1.0 0.1272450832
H  H51  1  0.22060000  0.70340000  0.67620000  1.0 0.1272450832
H  H52  1  0.27940000  0.20340000  0.32380000  1.0 0.1272450832
H  H53  1  0.54470000  0.19560000  0.25800000  1.0 0.1272450832
H  H54  1  0.95530000  0.69560000  0.74200000  1.0 0.1272450832
H  H55  1  0.45530000  0.80440000  0.74200000  1.0 0.1272450832
H  H56  1  0.04470000  0.30440000  0.25800000  1.0 0.1272450832
C  C1  1  0.82120000  0.35645000  0.50150000  1.0 0.5882111984
C  C2  1  0.67880000  0.85645000  0.49850000  1.0 0.5882111984
C  C3  1  0.17880000  0.64355000  0.49850000  1.0 0.5882111984
C  C4  1  0.32120000  0.14355000  0.50150000  1.0 0.5882111984
C  C5  1  0.80390000  0.40015000  0.47290000  1.0 -0.0035337946
C  C6  1  0.69610000  0.90015000  0.52710000  1.0 -0.0035337946
C  C7  1  0.19610000  0.59985000  0.52710000  1.0 -0.0035337946
C  C8  1  0.30390000  0.09985000  0.47290000  1.0 -0.0035337946
C  C9  1  0.74330000  0.42790000  0.51850000  1.0 -0.1446263395
C  C10  1  0.75670000  0.92790000  0.48150000  1.0 -0.1446263395
C  C11  1  0.25670000  0.57210000  0.48150000  1.0 -0.1446263395
C  C12  1  0.24330000  0.07210000  0.51850000  1.0 -0.1446263395
C  C13  1  0.72170000  0.46720000  0.48970000  1.0 -0.1687691128
C  C14  1  0.77830000  0.96720000  0.51030000  1.0 -0.1687691128
C  C15  1  0.27830000  0.53280000  0.51030000  1.0 -0.1762535177
C  C16  1  0.22170000  0.03280000  0.48970000  1.0 -0.1762535177
C  C17  1  0.75990000  0.48200000  0.41680000  1.0 -0.0277854351
C  C18  1  0.74010000  0.98200000  0.58320000  1.0 -0.0277854351
C  C19  1  0.24010000  0.51800000  0.58320000  1.0 -0.0277854351
C  C20  1  0.25990000  0.01800000  0.41680000  1.0 -0.0277854351
C  C21  1  0.82360000  0.45410000  0.37330000  1.0 -0.110586477
C  C22  1  0.67640000  0.95410000  0.62670000  1.0 -0.110586477
C  C23  1  0.17640000  0.54590000  0.62670000  1.0 -0.110586477
C  C24  1  0.32360000  0.04590000  0.37330000  1.0 -0.110586477
C  C25  1  0.84610000  0.41440000  0.40050000  1.0 -0.1687691128
C  C26  1  0.65390000  0.91440000  0.59950000  1.0 -0.1687691128
C  C27  1  0.15390000  0.58560000  0.59950000  1.0 -0.1687691128
C  C28  1  0.34610000  0.08560000  0.40050000  1.0 -0.1687691128
C  C29  1  0.73450000  0.52630000  0.39010000  1.0 0.0028789596
C  C30  1  0.76550000  0.02630000  0.60990000  1.0 0.0028789596
C  C31  1  0.26550000  0.47370000  0.60990000  1.0 0.0079897044
C  C32  1  0.23450000  0.97370000  0.39010000  1.0 0.0079897044
C  C33  1  0.60870000  0.54240000  0.34790000  1.0 -0.0908714777
C  C34  1  0.89130000  0.04240000  0.65210000  1.0 -0.0908714777
C  C35  1  0.39130000  0.45760000  0.65210000  1.0 -0.0908714777
C  C36  1  0.10870000  0.95760000  0.34790000  1.0 -0.0908714777
C  C37  1  0.58550000  0.58420000  0.33460000  1.0 -0.1687691128
C  C38  1  0.91450000  0.08420000  0.66540000  1.0 -0.1687691128
C  C39  1  0.41450000  0.41580000  0.66540000  1.0 -0.1687691128
C  C40  1  0.08550000  0.91580000  0.33460000  1.0 -0.1687691128
C  C41  1  0.69160000  0.61149000  0.36740000  1.0 0.0079897044
C  C42  1  0.80840000  0.11149000  0.63260000  1.0 0.0079897044
C  C43  1  0.30840000  0.38851000  0.63260000  1.0 0.0079897044
C  C44  1  0.19160000  0.88851000  0.36740000  1.0 0.0079897044
C  C45  1  0.81860000  0.59590000  0.41440000  1.0 -0.1153844721
C  C46  1  0.68140000  0.09590000  0.58560000  1.0 -0.1153844721
C  C47  1  0.18140000  0.40410000  0.58560000  1.0 -0.1153844721
C  C48  1  0.31860000  0.90410000  0.41440000  1.0 -0.1153844721
C  C49  1  0.83950000  0.55420000  0.42490000  1.0 -0.1762535177
C  C50  1  0.66050000  0.05420000  0.57510000  1.0 -0.1762535177
C  C51  1  0.16050000  0.44580000  0.57510000  1.0 -0.1762535177
C  C52  1  0.33950000  0.94580000  0.42490000  1.0 -0.1762535177
C  C53  1  0.66570000  0.65630000  0.36060000  1.0 0.5670881071
C  C54  1  0.83430000  0.15630000  0.63940000  1.0 0.5670881071
C  C55  1  0.33430000  0.34370000  0.63940000  1.0 0.5670881071
C  C56  1  0.16570000  0.84370000  0.36060000  1.0 0.5670881071
C  C57  1  0.80340000  0.25268000  0.78090000  1.0 0.5882111984
C  C58  1  0.69660000  0.75268000  0.21910000  1.0 0.5882111984
C  C59  1  0.19660000  0.74732000  0.21910000  1.0 0.5882111984
C  C60  1  0.30340000  0.24732000  0.78090000  1.0 0.5882111984
C  C61  1  0.77690000  0.25160000  0.87210000  1.0 0.0028789596
C  C62  1  0.72310000  0.75160000  0.12790000  1.0 0.0028789596
C  C63  1  0.22310000  0.74840000  0.12790000  1.0 0.0028789596
C  C64  1  0.27690000  0.24840000  0.87210000  1.0 0.0028789596
C  C65  1  0.82880000  0.21900000  0.92890000  1.0 -0.1687691128
C  C66  1  0.67120000  0.71900000  0.07110000  1.0 -0.1687691128
C  C67  1  0.17120000  0.78100000  0.07110000  1.0 -0.1687691128
C  C68  1  0.32880000  0.28100000  0.92890000  1.0 -0.1687691128
C  C69  1  0.80950000  0.21750000  0.01470000  1.0 -0.1615568153
C  C70  1  0.69050000  0.71750000  0.98530000  1.0 -0.1615568153
C  C71  1  0.19050000  0.78250000  0.98530000  1.0 -0.1615568153
C  C72  1  0.30950000  0.28250000  0.01470000  1.0 -0.1615568153
C  C73  1  0.72760000  0.24720000  0.04280000  1.0 0.01773808
C  C74  1  0.77240000  0.74720000  0.95720000  1.0 0.01773808
C  C75  1  0.27240000  0.75280000  0.95720000  1.0 0.01773808
C  C76  1  0.22760000  0.25280000  0.04280000  1.0 0.01773808
C  C77  1  0.67880000  0.28030000  0.98120000  1.0 -0.1515585236
C  C78  1  0.82120000  0.78030000  0.01880000  1.0 -0.1515585236
C  C79  1  0.32120000  0.71970000  0.01880000  1.0 -0.1515585236
C  C80  1  0.17880000  0.21970000  0.98120000  1.0 -0.1515585236
C  C81  1  0.70640000  0.28200000  0.90010000  1.0 -0.0908714777
C  C82  1  0.79360000  0.78200000  0.09990000  1.0 -0.0908714777
C  C83  1  0.29360000  0.71800000  0.09990000  1.0 -0.0908714777
C  C84  1  0.20640000  0.21800000  0.90010000  1.0 -0.0908714777
C  C85  1  0.69770000  0.24620000  0.13350000  1.0 0.0028789596
C  C86  1  0.80230000  0.74620000  0.86650000  1.0 0.0028789596
C  C87  1  0.30230000  0.75380000  0.86650000  1.0 0.0028789596
C  C88  1  0.19770000  0.25380000  0.13350000  1.0 0.0028789596
C  C89  1  0.74700000  0.27729000  0.19310000  1.0 -0.1687691128
C  C90  1  0.75300000  0.77729000  0.80690000  1.0 -0.1687691128
C  C91  1  0.25300000  0.72271000  0.80690000  1.0 -0.1687691128
C  C92  1  0.24700000  0.22271000  0.19310000  1.0 -0.1687691128
C  C93  1  0.73710000  0.27630000  0.28220000  1.0 -0.09749045
C  C94  1  0.76290000  0.77630000  0.71780000  1.0 -0.09749045
C  C95  1  0.26290000  0.72370000  0.71780000  1.0 -0.09749045
C  C96  1  0.23710000  0.22370000  0.28220000  1.0 -0.09749045
C  C97  1  0.66470000  0.24510000  0.30860000  1.0 -0.0114620891
C  C98  1  0.83530000  0.74510000  0.69140000  1.0 -0.0114620891
C  C99  1  0.33530000  0.75490000  0.69140000  1.0 -0.0114620891
C  C100  1  0.16470000  0.25490000  0.30860000  1.0 -0.0114620891
C  C101  1  0.60150000  0.21550000  0.24390000  1.0 -0.1687691128
C  C102  1  0.89850000  0.71550000  0.75610000  1.0 -0.1687691128
C  C103  1  0.39850000  0.78450000  0.75610000  1.0 -0.1687691128
C  C104  1  0.10150000  0.28450000  0.24390000  1.0 -0.1687691128
C  C105  1  0.62340000  0.21560000  0.15890000  1.0 -0.0114620891
C  C106  1  0.87660000  0.71560000  0.84110000  1.0 -0.0114620891
C  C107  1  0.37660000  0.78440000  0.84110000  1.0 -0.0114620891
C  C108  1  0.12340000  0.28440000  0.15890000  1.0 -0.0114620891
C  C109  1  0.65130000  0.24239000  0.40290000  1.0 0.5882111984
C  C110  1  0.84870000  0.74239000  0.59710000  1.0 0.5882111984
C  C111  1  0.34870000  0.75761000  0.59710000  1.0 0.5882111984
C  C112  1  0.15130000  0.25761000  0.40290000  1.0 0.5882111984
N  N1  1  0.86860000  0.46540000  0.28970000  1.0 0.4115309514
N  N2  1  0.63140000  0.96540000  0.71030000  1.0 0.4115309514
N  N3  1  0.13140000  0.53460000  0.71030000  1.0 0.4115309514
N  N4  1  0.36860000  0.03460000  0.28970000  1.0 0.4115309514
N  N5  1  0.87290000  0.18390000  0.07480000  1.0 0.4027690091
N  N6  1  0.62710000  0.68390000  0.92520000  1.0 0.4027690091
N  N7  1  0.12710000  0.81610000  0.92520000  1.0 0.4027690091
N  N8  1  0.37290000  0.31610000  0.07480000  1.0 0.4027690091
N  N9  1  0.54490000  0.18470000  0.09520000  1.0 0.4701413013
N  N10  1  0.95510000  0.68470000  0.90480000  1.0 0.4701413013
N  N11  1  0.45510000  0.81530000  0.90480000  1.0 0.4701413013
N  N12  1  0.04490000  0.31530000  0.09520000  1.0 0.4701413013
N  N13  1  0.48140000  0.51600000  0.30790000  1.0 0.4170907833
N  N14  1  0.01860000  0.01600000  0.69210000  1.0 0.4170907833
N  N15  1  0.51860000  0.48400000  0.69210000  1.0 0.4170907833
N  N16  1  0.98140000  0.98400000  0.30790000  1.0 0.4170907833
O  O1  1  0.93110000  0.28208000  0.62910000  1.0 -0.8056855104
O  O2  1  0.56890000  0.78208000  0.37090000  1.0 -0.8056855104
O  O3  1  0.06890000  0.71792000  0.37090000  1.0 -0.8056855104
O  O4  1  0.43110000  0.21792000  0.62910000  1.0 -0.8056855104
O  O5  1  0.73970000  0.34287000  0.54360000  1.0 -0.5564322673
O  O6  1  0.76030000  0.84287000  0.45640000  1.0 -0.5564322673
O  O7  1  0.26030000  0.65713000  0.45640000  1.0 -0.5564322673
O  O8  1  0.23970000  0.15713000  0.54360000  1.0 -0.5564322673
O  O9  1  0.91840000  0.33747000  0.48170000  1.0 -0.5363968216
O  O10  1  0.58160000  0.83747000  0.51830000  1.0 -0.5363968216
O  O11  1  0.08160000  0.66253000  0.51830000  1.0 -0.5363968216
O  O12  1  0.41840000  0.16253000  0.48170000  1.0 -0.5363968216
O  O13  1  0.71820000  0.27237000  0.71670000  1.0 -0.5910658441
O  O14  1  0.78180000  0.77237000  0.28330000  1.0 -0.5910658441
O  O15  1  0.28180000  0.72763000  0.28330000  1.0 -0.5910658441
O  O16  1  0.21820000  0.22763000  0.71670000  1.0 -0.5910658441
O  O17  1  0.90770000  0.23324000  0.77470000  1.0 -0.515372356
O  O18  1  0.59230000  0.73324000  0.22530000  1.0 -0.515372356
O  O19  1  0.09230000  0.76676000  0.22530000  1.0 -0.515372356
O  O20  1  0.40770000  0.26676000  0.77470000  1.0 -0.515372356
O  O21  1  0.53210000  0.27566000  0.55520000  1.0 -0.7998384736
O  O22  1  0.96790000  0.77566000  0.44480000  1.0 -0.7998384736
O  O23  1  0.46790000  0.72434000  0.44480000  1.0 -0.7998384736
O  O24  1  0.03210000  0.22434000  0.55520000  1.0 -0.7998384736
O  O25  1  0.88320000  0.15210000  0.03490000  1.0 0.1002486422
O  O26  1  0.61680000  0.65210000  0.96510000  1.0 0.1002486422
O  O27  1  0.11680000  0.84790000  0.96510000  1.0 0.1002486422
O  O28  1  0.38320000  0.34790000  0.03490000  1.0 0.1002486422
O  O29  1  0.90820000  0.19170000  0.15690000  1.0 -0.0908714777
O  O30  1  0.59180000  0.69170000  0.84310000  1.0 -0.0908714777
O  O31  1  0.09180000  0.80830000  0.84310000  1.0 -0.0908714777
O  O32  1  0.40820000  0.30830000  0.15690000  1.0 -0.0908714777
O  O33  1  0.53010000  0.18830000  0.01440000  1.0 -0.308967968
O  O34  1  0.96990000  0.68830000  0.98560000  1.0 -0.308967968
O  O35  1  0.46990000  0.81170000  0.98560000  1.0 -0.308967968
O  O36  1  0.03010000  0.31170000  0.01440000  1.0 -0.308967968
O  O37  1  0.48360000  0.15790000  0.12220000  1.0 -0.308967968
O  O38  1  0.01640000  0.65790000  0.87780000  1.0 -0.308967968
O  O39  1  0.51640000  0.84210000  0.87780000  1.0 -0.315262904
O  O40  1  0.98360000  0.34210000  0.12220000  1.0 -0.315262904
O  O41  1  0.79260000  0.49090000  0.24020000  1.0 -0.0399188224
O  O42  1  0.70740000  0.99090000  0.75980000  1.0 -0.0399188224
O  O43  1  0.20740000  0.50910000  0.75980000  1.0 -0.0451666541
O  O44  1  0.29260000  0.00910000  0.24020000  1.0 -0.0451666541
O  O45  1  0.91800000  0.43910000  0.25160000  1.0 -0.0399188224
O  O46  1  0.58200000  0.93910000  0.74840000  1.0 -0.0399188224
O  O47  1  0.08200000  0.56090000  0.74840000  1.0 -0.0399188224
O  O48  1  0.41800000  0.06090000  0.25160000  1.0 -0.0399188224
O  O49  1  0.51640000  0.48690000  0.26770000  1.0 -0.0277854351
O  O50  1  0.98360000  0.98690000  0.73230000  1.0 -0.0277854351
O  O51  1  0.48360000  0.51310000  0.73230000  1.0 -0.0277854351
O  O52  1  0.01640000  0.01310000  0.26770000  1.0 -0.0277854351
O  O53  1  0.36440000  0.53020000  0.27970000  1.0 0.026083767
O  O54  1  0.13560000  0.03020000  0.72030000  1.0 0.026083767
O  O55  1  0.63560000  0.46980000  0.72030000  1.0 0.026083767
O  O56  1  0.86440000  0.96980000  0.27970000  1.0 0.026083767
O  O57  1  0.55050000  0.22189000  0.41200000  1.0 -0.5133083664
O  O58  1  0.94950000  0.72189000  0.58800000  1.0 -0.515372356
O  O59  1  0.44950000  0.77811000  0.58800000  1.0 -0.5133083664
O  O60  1  0.05050000  0.27811000  0.41200000  1.0 -0.5133083664
O  O61  1  0.74050000  0.26091000  0.46570000  1.0 -0.6099346183
O  O62  1  0.75950000  0.76091000  0.53430000  1.0 -0.6099346183
O  O63  1  0.25950000  0.73909000  0.53430000  1.0 -0.6099346183
O  O64  1  0.24050000  0.23909000  0.46570000  1.0 -0.6099346183
O  O65  1  0.76280000  0.68078000  0.39260000  1.0 -0.584424337
O  O66  1  0.73720000  0.18078000  0.60740000  1.0 -0.584424337
O  O67  1  0.23720000  0.31922000  0.60740000  1.0 -0.584424337
O  O68  1  0.26280000  0.81922000  0.39260000  1.0 -0.584424337
O  O69  1  0.54120000  0.66694000  0.32520000  1.0 -0.5133083664
O  O70  1  0.95880000  0.16694000  0.67480000  1.0 -0.5133083664
O  O71  1  0.45880000  0.33306000  0.67480000  1.0 -0.5133083664
O  O72  1  0.04120000  0.83306000  0.32520000  1.0 -0.5133083664
O  O73  1  0.95760000  0.16190000  0.05480000  1.0 -0.0399188224
O  O74  1  0.54240000  0.66190000  0.94520000  1.0 -0.0399188224
O  O75  1  0.04240000  0.83810000  0.94520000  1.0 -0.0399188224
O  O76  1  0.45760000  0.33810000  0.05480000  1.0 -0.0399188224
O  O77  1  0.82440000  0.16680000  0.12940000  1.0 0.085244032
O  O78  1  0.67560000  0.66680000  0.87060000  1.0 0.084488193
O  O79  1  0.17560000  0.83320000  0.87060000  1.0 0.084488193
O  O80  1  0.32440000  0.33320000  0.12940000  1.0 0.084488193
O  O81  1  0.87900000  0.50070000  0.26860000  1.0 0.026083767
O  O82  1  0.62100000  0.00070000  0.73140000  1.0 0.026083767
O  O83  1  0.12100000  0.49930000  0.73140000  1.0 0.01773808
O  O84  1  0.37900000  0.99930000  0.26860000  1.0 0.026083767
O  O85  1  0.99280000  0.45700000  0.30900000  1.0 -0.0832209434
O  O86  1  0.50720000  0.95700000  0.69100000  1.0 -0.0832209434
O  O87  1  0.00720000  0.54300000  0.69100000  1.0 -0.0832209434
O  O88  1  0.49280000  0.04300000  0.30900000  1.0 -0.0832209434
O  O89  1  0.49650000  0.47930000  0.30570000  1.0 -0.0114620891
O  O90  1  0.00350000  0.97930000  0.69430000  1.0 -0.0114620891
O  O91  1  0.50350000  0.52070000  0.69430000  1.0 -0.0114620891
O  O92  1  0.99650000  0.02070000  0.30570000  1.0 -0.0114620891
O  O93  1  0.38080000  0.52750000  0.33110000  1.0 -0.0679424364
O  O94  1  0.11920000  0.02750000  0.66890000  1.0 -0.0679424364
O  O95  1  0.61920000  0.47250000  0.66890000  1.0 -0.0679424364
O  O96  1  0.88080000  0.97250000  0.33110000  1.0 -0.0679424364
