# DDEC6 charges by PACMAN v1.1 (https://github.com/mtap-research/PACMAN-charge/)
data_FOQNIK_ASR_pacman
_symmetry_space_group_name_H-M   'P 1'
_cell_length_a   15.41800000
_cell_length_b   34.13500000
_cell_length_c   10.18860000
_cell_angle_alpha   90.00000000
_cell_angle_beta   105.44600000
_cell_angle_gamma   90.00000000
_symmetry_Int_Tables_number   1
_chemical_formula_structural   Cu3H13C28(N2O9)2
_chemical_formula_sum   'Cu12 H52 C112 N16 O72'
_cell_volume   5168.52096324
_cell_formula_units_Z   4
loop_
 _symmetry_equiv_pos_site_id
 _symmetry_equiv_pos_as_xyz
  1  'x, y, z'
loop_
 _atom_site_type_symbol
 _atom_site_label
 _atom_site_symmetry_multiplicity
 _atom_site_fract_x
 _atom_site_fract_y
 _atom_site_fract_z
 _atom_site_occupancy
 _atom_site_charge
Cu  Cu1  1  0.08862000  0.78319000  0.31723000  1.0 0.9595606595
Cu  Cu2  1  0.91138000  0.21681000  0.68277000  1.0 0.9595606595
Cu  Cu3  1  0.91138000  0.28319000  0.18277000  1.0 0.9595606595
Cu  Cu4  1  0.08862000  0.71681000  0.81723000  1.0 0.9595606595
Cu  Cu5  1  0.93407000  0.72448000  0.32961000  1.0 0.9778751552
Cu  Cu6  1  0.06593000  0.27552000  0.67039000  1.0 0.9778751552
Cu  Cu7  1  0.06593000  0.22448000  0.17039000  1.0 0.9778751552
Cu  Cu8  1  0.93407000  0.77552000  0.82961000  1.0 0.9778751552
Cu  Cu9  1  0.01863000  0.77902000  0.58811000  1.0 0.9595606595
Cu  Cu10  1  0.98137000  0.22098000  0.41189000  1.0 0.9595606595
Cu  Cu11  1  0.98137000  0.27902000  0.91189000  1.0 0.9595606595
Cu  Cu12  1  0.01863000  0.72098000  0.08811000  1.0 0.9595606595
H  H1  1  0.09906000  0.79190000  0.82798000  1.0 0.4219032198
H  H2  1  0.90094000  0.20810000  0.17202000  1.0 0.4219032198
H  H3  1  0.90094000  0.29190000  0.67202000  1.0 0.4219032198
H  H4  1  0.09906000  0.70810000  0.32798000  1.0 0.4219032198
H  H5  1  0.93786000  0.80142000  0.35870000  1.0 0.4287645191
H  H6  1  0.06214000  0.19858000  0.64130000  1.0 0.4287645191
H  H7  1  0.06214000  0.30142000  0.14130000  1.0 0.4287645191
H  H8  1  0.93786000  0.69858000  0.85870000  1.0 0.4287645191
H  H9  1  0.00121000  0.39363000  0.22941000  1.0 0.14014565
H  H10  1  0.99879000  0.60637000  0.77059000  1.0 0.14014565
H  H11  1  0.99879000  0.89363000  0.27059000  1.0 0.14014565
H  H12  1  0.00121000  0.10637000  0.72941000  1.0 0.14014565
H  H13  1  0.72959000  0.41726000  0.98613000  1.0 0.1506204649
H  H14  1  0.27041000  0.58274000  0.01387000  1.0 0.1506204649
H  H15  1  0.27041000  0.91726000  0.51387000  1.0 0.1506204649
H  H16  1  0.72959000  0.08274000  0.48613000  1.0 0.1506204649
H  H17  1  0.32288000  0.68110000  0.72879000  1.0 0.14014565
H  H18  1  0.67712000  0.31890000  0.27121000  1.0 0.14014565
H  H19  1  0.67712000  0.18110000  0.77121000  1.0 0.14014565
H  H20  1  0.32288000  0.81890000  0.22879000  1.0 0.14014565
H  H21  1  0.42927000  0.78775000  0.47528000  1.0 0.1178729142
H  H22  1  0.57073000  0.21225000  0.52472000  1.0 0.1178729142
H  H23  1  0.57073000  0.28775000  0.02472000  1.0 0.1178729142
H  H24  1  0.42927000  0.71225000  0.97528000  1.0 0.1178729142
H  H25  1  0.27690000  0.79194000  0.51190000  1.0 0.1346964359
H  H26  1  0.72310000  0.20806000  0.48810000  1.0 0.1346964359
H  H27  1  0.72310000  0.29194000  0.98810000  1.0 0.1346964359
H  H28  1  0.27690000  0.70806000  0.01190000  1.0 0.1346964359
H  H29  1  0.58639000  0.78673000  0.67213000  1.0 0.1108762085
H  H30  1  0.41361000  0.21327000  0.32787000  1.0 0.1178729142
H  H31  1  0.41361000  0.28673000  0.82787000  1.0 0.1178729142
H  H32  1  0.58639000  0.71327000  0.17213000  1.0 0.1178729142
H  H33  1  0.74210000  0.79105000  0.64601000  1.0 0.1178729142
H  H34  1  0.25790000  0.20895000  0.35399000  1.0 0.1178729142
H  H35  1  0.25790000  0.29105000  0.85399000  1.0 0.1178729142
H  H36  1  0.74210000  0.70895000  0.14601000  1.0 0.1178729142
H  H37  1  0.69705000  0.68366000  0.41091000  1.0 0.14014565
H  H38  1  0.30295000  0.31634000  0.58909000  1.0 0.14014565
H  H39  1  0.30295000  0.18366000  0.08909000  1.0 0.14014565
H  H40  1  0.69705000  0.81634000  0.91091000  1.0 0.14014565
H  H41  1  0.81353000  0.60631000  0.27756000  1.0 0.14014565
H  H42  1  0.18647000  0.39369000  0.72244000  1.0 0.14014565
H  H43  1  0.18647000  0.10631000  0.22244000  1.0 0.14014565
H  H44  1  0.81353000  0.89369000  0.77756000  1.0 0.14014565
H  H45  1  0.02927000  0.60069000  0.07846000  1.0 0.1178729142
H  H46  1  0.97073000  0.39931000  0.92154000  1.0 0.1178729142
H  H47  1  0.97073000  0.10069000  0.42154000  1.0 0.1178729142
H  H48  1  0.02927000  0.89931000  0.57846000  1.0 0.1178729142
H  H49  1  0.01349000  0.52860000  0.06389000  1.0 0.1108762085
H  H50  1  0.98651000  0.47140000  0.93611000  1.0 0.1108762085
H  H51  1  0.98651000  0.02860000  0.43611000  1.0 0.1108762085
H  H52  1  0.01349000  0.97140000  0.56389000  1.0 0.1108762085
C  C1  1  0.93739000  0.65171000  0.18937000  1.0 0.5992179483
C  C2  1  0.06261000  0.34829000  0.81063000  1.0 0.5992179483
C  C3  1  0.06261000  0.15171000  0.31063000  1.0 0.5992179483
C  C4  1  0.93739000  0.84829000  0.68937000  1.0 0.5992179483
C  C5  1  0.92279000  0.60839000  0.17829000  1.0 -0.0046552016
C  C6  1  0.07721000  0.39161000  0.82171000  1.0 -0.0072572117
C  C7  1  0.07721000  0.10839000  0.32171000  1.0 -0.0072572117
C  C8  1  0.92279000  0.89161000  0.67829000  1.0 -0.0072572117
C  C9  1  0.97845000  0.58606000  0.11877000  1.0 -0.0660234421
C  C10  1  0.02155000  0.41394000  0.88123000  1.0 -0.0649835348
C  C11  1  0.02155000  0.08606000  0.38123000  1.0 -0.0660234421
C  C12  1  0.97845000  0.91394000  0.61877000  1.0 -0.0660234421
C  C13  1  0.97023000  0.54550000  0.11297000  1.0 -0.1130638674
C  C14  1  0.02977000  0.45450000  0.88703000  1.0 -0.1130638674
C  C15  1  0.02977000  0.04550000  0.38703000  1.0 -0.1130638674
C  C16  1  0.97023000  0.95450000  0.61297000  1.0 -0.1130638674
C  C17  1  0.90685000  0.52599000  0.16623000  1.0 0.0694014437
C  C18  1  0.09315000  0.47401000  0.83377000  1.0 0.0694014437
C  C19  1  0.09315000  0.02599000  0.33377000  1.0 0.0694014437
C  C20  1  0.90685000  0.97401000  0.66623000  1.0 0.0694014437
C  C21  1  0.84976000  0.54923000  0.22212000  1.0 0.0486635964
C  C22  1  0.15024000  0.45077000  0.77788000  1.0 0.0486635964
C  C23  1  0.15024000  0.04923000  0.27788000  1.0 0.0486635964
C  C24  1  0.84976000  0.95077000  0.72212000  1.0 0.0486635964
C  C25  1  0.85769000  0.58998000  0.22958000  1.0 -0.1224800639
C  C26  1  0.14231000  0.41002000  0.77042000  1.0 -0.1224800639
C  C27  1  0.14231000  0.08998000  0.27042000  1.0 -0.1224800639
C  C28  1  0.85769000  0.91002000  0.72958000  1.0 -0.1224800639
C  C29  1  0.89854000  0.48292000  0.15132000  1.0 0.0035901683
C  C30  1  0.10146000  0.51708000  0.84868000  1.0 0.0035901683
C  C31  1  0.10146000  0.98292000  0.34868000  1.0 0.0035901683
C  C32  1  0.89854000  0.01708000  0.65132000  1.0 0.0035901683
C  C33  1  0.96656000  0.45468000  0.20280000  1.0 0.0301290715
C  C34  1  0.03344000  0.54532000  0.79720000  1.0 0.0301290715
C  C35  1  0.03344000  0.95468000  0.29720000  1.0 0.0301290715
C  C36  1  0.96656000  0.04532000  0.70280000  1.0 0.0301290715
C  C37  1  0.94812000  0.41466000  0.18549000  1.0 -0.1354060054
C  C38  1  0.05188000  0.58534000  0.81451000  1.0 -0.1354060054
C  C39  1  0.05188000  0.91466000  0.31451000  1.0 -0.1354060054
C  C40  1  0.94812000  0.08534000  0.68549000  1.0 -0.1354060054
C  C41  1  0.86305000  0.40163000  0.11278000  1.0 0.0217900807
C  C42  1  0.13695000  0.59837000  0.88722000  1.0 0.0301290715
C  C43  1  0.13695000  0.90163000  0.38722000  1.0 0.0301290715
C  C44  1  0.86305000  0.09837000  0.61278000  1.0 0.0301290715
C  C45  1  0.79458000  0.42840000  0.04678000  1.0 -0.0990268016
C  C46  1  0.20542000  0.57160000  0.95322000  1.0 -0.0990268016
C  C47  1  0.20542000  0.92840000  0.45322000  1.0 -0.0990268016
C  C48  1  0.79458000  0.07160000  0.54678000  1.0 -0.0990268016
C  C49  1  0.82052000  0.46627000  0.07235000  1.0 -0.0269077316
C  C50  1  0.17948000  0.53373000  0.92765000  1.0 -0.0269077316
C  C51  1  0.17948000  0.96627000  0.42765000  1.0 -0.0269077316
C  C52  1  0.82052000  0.03373000  0.57235000  1.0 -0.0269077316
C  C53  1  0.84117000  0.35817000  0.10248000  1.0 0.573375386
C  C54  1  0.15883000  0.64183000  0.89752000  1.0 0.573375386
C  C55  1  0.15883000  0.85817000  0.39752000  1.0 0.573375386
C  C56  1  0.84117000  0.14183000  0.60248000  1.0 0.573375386
C  C57  1  0.19892000  0.73899000  0.64589000  1.0 0.6082457006
C  C58  1  0.80108000  0.26101000  0.35411000  1.0 0.6082457006
C  C59  1  0.80108000  0.23899000  0.85411000  1.0 0.6082457006
C  C60  1  0.19892000  0.76101000  0.14589000  1.0 0.6082457006
C  C61  1  0.28874000  0.73611000  0.61808000  1.0 -0.019298726
C  C62  1  0.71126000  0.26389000  0.38192000  1.0 -0.019298726
C  C63  1  0.71126000  0.23611000  0.88192000  1.0 -0.019298726
C  C64  1  0.28874000  0.76389000  0.11808000  1.0 -0.019298726
C  C65  1  0.34484000  0.70433000  0.67128000  1.0 -0.1224800639
C  C66  1  0.65516000  0.29567000  0.32872000  1.0 -0.1224800639
C  C67  1  0.65516000  0.20433000  0.82872000  1.0 -0.1224800639
C  C68  1  0.34484000  0.79567000  0.17128000  1.0 -0.1224800639
C  C69  1  0.43103000  0.70347000  0.65333000  1.0 0.0217900807
C  C70  1  0.56897000  0.29653000  0.34667000  1.0 0.0217900807
C  C71  1  0.56897000  0.20347000  0.84667000  1.0 0.0217900807
C  C72  1  0.43103000  0.79653000  0.15333000  1.0 0.0217900807
C  C73  1  0.46296000  0.73285000  0.58086000  1.0 0.0486635964
C  C74  1  0.53704000  0.26715000  0.41914000  1.0 0.0486635964
C  C75  1  0.53704000  0.23285000  0.91914000  1.0 0.0486635964
C  C76  1  0.46296000  0.76715000  0.08086000  1.0 0.0486635964
C  C77  1  0.40548000  0.76442000  0.53040000  1.0 -0.0990268016
C  C78  1  0.59452000  0.23558000  0.46960000  1.0 -0.0990268016
C  C79  1  0.59452000  0.26442000  0.96960000  1.0 -0.0990268016
C  C80  1  0.40548000  0.73558000  0.03040000  1.0 -0.0990268016
C  C81  1  0.31905000  0.76629000  0.54849000  1.0 -0.0412586347
C  C82  1  0.68095000  0.23371000  0.45151000  1.0 -0.0412586347
C  C83  1  0.68095000  0.26629000  0.95151000  1.0 -0.0412586347
C  C84  1  0.31905000  0.73371000  0.04849000  1.0 -0.0412586347
C  C85  1  0.55389000  0.73310000  0.55866000  1.0 0.0486635964
C  C86  1  0.44611000  0.26690000  0.44134000  1.0 0.0486635964
C  C87  1  0.44611000  0.23310000  0.94134000  1.0 0.0486635964
C  C88  1  0.55389000  0.76690000  0.05866000  1.0 0.0486635964
C  C89  1  0.61129000  0.76428000  0.61459000  1.0 -0.0990268016
C  C90  1  0.38871000  0.23572000  0.38541000  1.0 -0.0990268016
C  C91  1  0.38871000  0.26428000  0.88541000  1.0 -0.0990268016
C  C92  1  0.61129000  0.73572000  0.11459000  1.0 -0.0990268016
C  C93  1  0.69872000  0.76661000  0.60059000  1.0 -0.0412586347
C  C94  1  0.30128000  0.23339000  0.39941000  1.0 -0.0412586347
C  C95  1  0.30128000  0.26661000  0.89941000  1.0 -0.0412586347
C  C96  1  0.69872000  0.73339000  0.10059000  1.0 -0.0412586347
C  C97  1  0.73056000  0.73738000  0.52853000  1.0 -0.0072572117
C  C98  1  0.26944000  0.26262000  0.47147000  1.0 -0.0072572117
C  C99  1  0.26944000  0.23738000  0.97147000  1.0 -0.0072572117
C  C100  1  0.73056000  0.76262000  0.02853000  1.0 -0.0072572117
C  C101  1  0.67405000  0.70633000  0.46934000  1.0 -0.1285162486
C  C102  1  0.32595000  0.29367000  0.53066000  1.0 -0.1285162486
C  C103  1  0.32595000  0.20633000  0.03066000  1.0 -0.1285162486
C  C104  1  0.67405000  0.79367000  0.96934000  1.0 -0.1285162486
C  C105  1  0.58703000  0.70463000  0.48398000  1.0 0.0217900807
C  C106  1  0.41297000  0.29537000  0.51602000  1.0 0.0217900807
C  C107  1  0.41297000  0.20463000  0.01602000  1.0 0.0217900807
C  C108  1  0.58703000  0.79537000  0.98398000  1.0 0.0217900807
C  C109  1  0.82272000  0.73953000  0.50707000  1.0 0.615125221
C  C110  1  0.17728000  0.26047000  0.49293000  1.0 0.6082457006
C  C111  1  0.17728000  0.23953000  0.99293000  1.0 0.615125221
C  C112  1  0.82272000  0.76047000  0.00707000  1.0 0.615125221
N  N1  1  0.78071000  0.53163000  0.28289000  1.0 0.5347784727
N  N2  1  0.21929000  0.46837000  0.71711000  1.0 0.5347784727
N  N3  1  0.21929000  0.03163000  0.21711000  1.0 0.5347784727
N  N4  1  0.78071000  0.96837000  0.78289000  1.0 0.5347784727
N  N5  1  0.49096000  0.67126000  0.72105000  1.0 0.5175748065
N  N6  1  0.50904000  0.32874000  0.27895000  1.0 0.513627541
N  N7  1  0.50904000  0.17126000  0.77895000  1.0 0.513627541
N  N8  1  0.49096000  0.82874000  0.22105000  1.0 0.513627541
N  N9  1  0.52786000  0.67298000  0.40911000  1.0 0.5175748065
N  N10  1  0.47214000  0.32702000  0.59089000  1.0 0.5175748065
N  N11  1  0.47214000  0.17298000  0.09089000  1.0 0.5175748065
N  N12  1  0.52786000  0.82702000  0.90911000  1.0 0.513627541
N  N13  1  0.06004000  0.46529000  0.28128000  1.0 0.5175748065
N  N14  1  0.93996000  0.53471000  0.71872000  1.0 0.5175748065
N  N15  1  0.93996000  0.96529000  0.21872000  1.0 0.5175748065
N  N16  1  0.06004000  0.03471000  0.78128000  1.0 0.5175748065
O  O1  1  0.05343000  0.77237000  0.78881000  1.0 -0.8569277704
O  O2  1  0.94657000  0.22763000  0.21119000  1.0 -0.8569277704
O  O3  1  0.94657000  0.27237000  0.71119000  1.0 -0.8569277704
O  O4  1  0.05343000  0.72763000  0.28881000  1.0 -0.8569277704
O  O5  1  0.97180000  0.66666667  0.09989000  1.0 -0.5518730015
O  O6  1  0.02820000  0.33333333  0.90011000  1.0 -0.5518730015
O  O7  1  0.02820000  0.16664000  0.40011000  1.0 -0.5518730015
O  O8  1  0.97180000  0.83336000  0.59989000  1.0 -0.5518730015
O  O9  1  0.91620000  0.66893000  0.28864000  1.0 -0.5394933701
O  O10  1  0.08380000  0.33107000  0.71136000  1.0 -0.5394933701
O  O11  1  0.08380000  0.16893000  0.21136000  1.0 -0.5394933701
O  O12  1  0.91620000  0.83107000  0.78864000  1.0 -0.5394933701
O  O13  1  0.13689000  0.75897000  0.56477000  1.0 -0.6133537472
O  O14  1  0.86311000  0.24103000  0.43523000  1.0 -0.6133537472
O  O15  1  0.86311000  0.25897000  0.93523000  1.0 -0.6133537472
O  O16  1  0.13689000  0.74103000  0.06477000  1.0 -0.6133537472
O  O17  1  0.19254000  0.72074000  0.75329000  1.0 -0.5282982767
O  O18  1  0.80746000  0.27926000  0.24671000  1.0 -0.5282982767
O  O19  1  0.80746000  0.22074000  0.74671000  1.0 -0.5282982767
O  O20  1  0.19254000  0.77926000  0.25329000  1.0 -0.5282982767
O  O21  1  0.98000000  0.77963000  0.38449000  1.0 -0.8293117016
O  O22  1  0.02000000  0.22037000  0.61551000  1.0 -0.8293117016
O  O23  1  0.02000000  0.27963000  0.11551000  1.0 -0.8293117016
O  O24  1  0.98000000  0.72037000  0.88449000  1.0 -0.8293117016
O  O25  1  0.45574000  0.63855000  0.72681000  1.0 -0.3218221843
O  O26  1  0.54426000  0.36145000  0.27319000  1.0 -0.3218221843
O  O27  1  0.54426000  0.13855000  0.77319000  1.0 -0.3218221843
O  O28  1  0.45574000  0.86145000  0.22681000  1.0 -0.3218221843
O  O29  1  0.57255000  0.67956000  0.77078000  1.0 -0.3507758484
O  O30  1  0.42745000  0.32044000  0.22922000  1.0 -0.3507758484
O  O31  1  0.42745000  0.17956000  0.72922000  1.0 -0.3507758484
O  O32  1  0.57255000  0.82044000  0.27078000  1.0 -0.3507758484
O  O33  1  0.44453000  0.67920000  0.37621000  1.0 -0.3507758484
O  O34  1  0.55547000  0.32080000  0.62379000  1.0 -0.3507758484
O  O35  1  0.55547000  0.17920000  0.12379000  1.0 -0.3507758484
O  O36  1  0.44453000  0.82080000  0.87621000  1.0 -0.3507758484
O  O37  1  0.56493000  0.64297000  0.37925000  1.0 -0.3218221843
O  O38  1  0.43507000  0.35703000  0.62075000  1.0 -0.3218221843
O  O39  1  0.43507000  0.14297000  0.12075000  1.0 -0.3218221843
O  O40  1  0.56493000  0.85703000  0.87925000  1.0 -0.3218221843
O  O41  1  0.78890000  0.49619000  0.31566000  1.0 -0.2908126295
O  O42  1  0.21110000  0.50381000  0.68434000  1.0 -0.2908126295
O  O43  1  0.21110000  0.99619000  0.18434000  1.0 -0.2908126295
O  O44  1  0.78890000  0.00381000  0.81566000  1.0 -0.2908126295
O  O45  1  0.71954000  0.55370000  0.29780000  1.0 -0.3137565434
O  O46  1  0.28046000  0.44630000  0.70220000  1.0 -0.3137565434
O  O47  1  0.28046000  0.05370000  0.20220000  1.0 -0.3218221843
O  O48  1  0.71954000  0.94630000  0.79780000  1.0 -0.3218221843
O  O49  1  0.12012000  0.44129000  0.27403000  1.0 -0.3507758484
O  O50  1  0.87988000  0.55871000  0.72597000  1.0 -0.3507758484
O  O51  1  0.87988000  0.94129000  0.22597000  1.0 -0.3507758484
O  O52  1  0.12012000  0.05871000  0.77403000  1.0 -0.3507758484
O  O53  1  0.07222000  0.49664000  0.34672000  1.0 -0.3374091715
O  O54  1  0.92778000  0.50336000  0.65328000  1.0 -0.3374091715
O  O55  1  0.92778000  0.99664000  0.15328000  1.0 -0.3374091715
O  O56  1  0.07222000  0.00336000  0.84672000  1.0 -0.3374091715
O  O57  1  0.82698000  0.72710000  0.38944000  1.0 -0.5394933701
O  O58  1  0.17302000  0.27290000  0.61056000  1.0 -0.5394933701
O  O59  1  0.17302000  0.22710000  0.11056000  1.0 -0.5394933701
O  O60  1  0.82698000  0.77290000  0.88944000  1.0 -0.5394933701
O  O61  1  0.88827000  0.75279000  0.60071000  1.0 -0.6586006016
O  O62  1  0.11173000  0.24721000  0.39929000  1.0 -0.6586006016
O  O63  1  0.11173000  0.25279000  0.89929000  1.0 -0.6586006016
O  O64  1  0.88827000  0.74721000  0.10071000  1.0 -0.6586006016
O  O65  1  0.76771000  0.34665000  0.03128000  1.0 -0.5111777366
O  O66  1  0.23229000  0.65335000  0.96872000  1.0 -0.5111777366
O  O67  1  0.23229000  0.84665000  0.46872000  1.0 -0.5111777366
O  O68  1  0.76771000  0.15335000  0.53128000  1.0 -0.5111777366
O  O69  1  0.90925000  0.33823000  0.17781000  1.0 -0.574569124
O  O70  1  0.09075000  0.66177000  0.82219000  1.0 -0.574569124
O  O71  1  0.09075000  0.83823000  0.32219000  1.0 -0.5756043971
O  O72  1  0.90925000  0.16177000  0.67781000  1.0 -0.574569124
