# DDEC6 charges by PACMAN v1.1 (https://github.com/mtap-research/PACMAN-charge/)
data_FOQNOQ_ASR_pacman
_symmetry_space_group_name_H-M   'P 1'
_cell_length_a   10.05000000
_cell_length_b   32.50000000
_cell_length_c   15.33100000
_cell_angle_alpha   90.00000000
_cell_angle_beta   107.45100000
_cell_angle_gamma   90.00000000
_symmetry_Int_Tables_number   1
_chemical_formula_structural   Cu3H14C28(N2O11)2
_chemical_formula_sum   'Cu12 H56 C112 N16 O88'
_cell_volume   4777.01208112
_cell_formula_units_Z   4
loop_
 _symmetry_equiv_pos_site_id
 _symmetry_equiv_pos_as_xyz
  1  'x, y, z'
loop_
 _atom_site_type_symbol
 _atom_site_label
 _atom_site_symmetry_multiplicity
 _atom_site_fract_x
 _atom_site_fract_y
 _atom_site_fract_z
 _atom_site_occupancy
 _atom_site_charge
Cu  Cu1  1  0.26520000  0.28382000  0.58294000  1.0 0.9585948534
Cu  Cu2  1  0.23480000  0.78382000  0.41706000  1.0 0.9585948534
Cu  Cu3  1  0.73480000  0.71618000  0.41706000  1.0 0.9585948534
Cu  Cu4  1  0.76520000  0.21618000  0.58294000  1.0 0.9585948534
Cu  Cu5  1  0.52726000  0.28563000  0.51104000  1.0 0.9883648253
Cu  Cu6  1  0.97274000  0.78563000  0.48896000  1.0 0.9883648253
Cu  Cu7  1  0.47274000  0.71437000  0.48896000  1.0 0.9883648253
Cu  Cu8  1  0.02726000  0.21437000  0.51104000  1.0 0.9883648253
Cu  Cu9  1  0.50196000  0.22674000  0.65696000  1.0 0.9258713967
Cu  Cu10  1  0.99804000  0.72674000  0.34304000  1.0 0.9258713967
Cu  Cu11  1  0.49804000  0.77326000  0.34304000  1.0 0.9258713967
Cu  Cu12  1  0.00196000  0.27326000  0.65696000  1.0 0.9258713967
H  H1  1  0.51360000  0.30470000  0.66840000  1.0 0.4035048991
H  H2  1  0.98640000  0.80470000  0.33160000  1.0 0.4035048991
H  H3  1  0.48640000  0.69530000  0.33160000  1.0 0.4035048991
H  H4  1  0.01360000  0.19530000  0.66840000  1.0 0.4035048991
H  H5  1  0.01380000  0.29320000  0.49980000  1.0 0.4035048991
H  H6  1  0.48620000  0.79320000  0.50020000  1.0 0.4035048991
H  H7  1  0.98620000  0.70680000  0.50020000  1.0 0.4035048991
H  H8  1  0.51380000  0.20680000  0.49980000  1.0 0.4035048991
H  H9  1  0.20330000  0.41530000  0.54380000  1.0 0.1264161623
H  H10  1  0.29670000  0.91530000  0.45620000  1.0 0.1264161623
H  H11  1  0.79670000  0.58470000  0.45620000  1.0 0.1264161623
H  H12  1  0.70330000  0.08470000  0.54380000  1.0 0.1264161623
H  H13  1  0.17020000  0.48360000  0.50480000  1.0 0.1122293893
H  H14  1  0.32980000  0.98360000  0.49520000  1.0 0.1122293893
H  H15  1  0.82980000  0.51640000  0.49520000  1.0 0.1122293893
H  H16  1  0.67020000  0.01640000  0.50480000  1.0 0.1122293893
H  H17  1  0.41720000  0.40230000  0.36440000  1.0 0.1264161623
H  H18  1  0.08280000  0.90230000  0.63560000  1.0 0.1264161623
H  H19  1  0.58280000  0.59770000  0.63560000  1.0 0.1264161623
H  H20  1  0.91720000  0.09770000  0.36440000  1.0 0.1264161623
H  H21  1  0.98140000  0.59600000  0.30870000  1.0 0.1264161623
H  H22  1  0.51860000  0.09600000  0.69130000  1.0 0.1264161623
H  H23  1  0.01860000  0.40400000  0.69130000  1.0 0.1264161623
H  H24  1  0.48140000  0.90400000  0.30870000  1.0 0.1264161623
H  H25  1  0.38420000  0.61670000  0.43050000  1.0 0.1232609472
H  H26  1  0.11580000  0.11670000  0.56950000  1.0 0.1232609472
H  H27  1  0.61580000  0.38330000  0.56950000  1.0 0.1232609472
H  H28  1  0.88420000  0.88330000  0.43050000  1.0 0.1232609472
H  H29  1  0.42470000  0.54720000  0.44360000  1.0 0.1122293893
H  H30  1  0.07530000  0.04720000  0.55640000  1.0 0.1122293893
H  H31  1  0.57530000  0.45280000  0.55640000  1.0 0.1122293893
H  H32  1  0.92470000  0.95280000  0.44360000  1.0 0.1122293893
H  H33  1  0.41820000  0.19760000  0.90270000  1.0 0.1264161623
H  H34  1  0.08180000  0.69760000  0.09730000  1.0 0.1264161623
H  H35  1  0.58180000  0.80240000  0.09730000  1.0 0.1264161623
H  H36  1  0.91820000  0.30240000  0.90270000  1.0 0.1264161623
H  H37  1  0.17130000  0.29850000  0.99820000  1.0 0.1122293893
H  H38  1  0.32870000  0.79850000  0.00180000  1.0 0.1122293893
H  H39  1  0.82870000  0.70150000  0.00180000  1.0 0.1122293893
H  H40  1  0.67130000  0.20150000  0.99820000  1.0 0.1122293893
H  H41  1  0.20940000  0.30430000  0.85740000  1.0 0.1373097323
H  H42  1  0.29060000  0.80430000  0.14260000  1.0 0.1373097323
H  H43  1  0.79060000  0.69570000  0.14260000  1.0 0.1373097323
H  H44  1  0.70940000  0.19570000  0.85740000  1.0 0.1373097323
H  H45  1  0.33420000  0.29520000  0.16980000  1.0 0.1122293893
H  H46  1  0.16580000  0.79520000  0.83020000  1.0 0.1122293893
H  H47  1  0.66580000  0.70480000  0.83020000  1.0 0.1122293893
H  H48  1  0.83420000  0.20480000  0.16980000  1.0 0.1122293893
H  H49  1  0.31610000  0.29390000  0.31650000  1.0 0.1264161623
H  H50  1  0.18390000  0.79390000  0.68350000  1.0 0.1264161623
H  H51  1  0.68390000  0.70610000  0.68350000  1.0 0.1264161623
H  H52  1  0.81610000  0.20610000  0.31650000  1.0 0.1264161623
H  H53  1  0.09250000  0.18980000  0.25500000  1.0 0.1373097323
H  H54  1  0.40750000  0.68980000  0.74500000  1.0 0.1373097323
H  H55  1  0.90750000  0.81020000  0.74500000  1.0 0.1373097323
H  H56  1  0.59250000  0.31020000  0.25500000  1.0 0.1373097323
C  C1  1  0.34130000  0.35713000  0.48890000  1.0 0.5906941639
C  C2  1  0.15870000  0.85713000  0.51110000  1.0 0.5906941639
C  C3  1  0.65870000  0.64287000  0.51110000  1.0 0.5906941639
C  C4  1  0.84130000  0.14287000  0.48890000  1.0 0.5906941639
C  C5  1  0.31470000  0.40115000  0.45840000  1.0 0.0025773954
C  C6  1  0.18530000  0.90115000  0.54160000  1.0 0.0025773954
C  C7  1  0.68530000  0.59885000  0.54160000  1.0 0.0025773954
C  C8  1  0.81470000  0.09885000  0.45840000  1.0 0.0025773954
C  C9  1  0.23900000  0.42601000  0.49930000  1.0 -0.119305411
C  C10  1  0.26100000  0.92601000  0.50070000  1.0 -0.119305411
C  C11  1  0.76100000  0.57399000  0.50070000  1.0 -0.119305411
C  C12  1  0.73900000  0.07399000  0.49930000  1.0 -0.119305411
C  C13  1  0.21640000  0.46695000  0.47390000  1.0 -0.1669215743
C  C14  1  0.28360000  0.96695000  0.52610000  1.0 -0.1669215743
C  C15  1  0.78360000  0.53305000  0.52610000  1.0 -0.1669215743
C  C16  1  0.71640000  0.03305000  0.47390000  1.0 -0.1669215743
C  C17  1  0.26000000  0.48387000  0.40440000  1.0 0.028983733
C  C18  1  0.24000000  0.98387000  0.59560000  1.0 0.028983733
C  C19  1  0.74000000  0.51613000  0.59560000  1.0 0.028983733
C  C20  1  0.76000000  0.01613000  0.40440000  1.0 0.028983733
C  C21  1  0.33480000  0.45855000  0.36710000  1.0 -0.0599304885
C  C22  1  0.16520000  0.95855000  0.63290000  1.0 -0.0599304885
C  C23  1  0.66520000  0.54145000  0.63290000  1.0 -0.0599304885
C  C24  1  0.83480000  0.04145000  0.36710000  1.0 -0.0535021005
C  C25  1  0.36410000  0.41808000  0.39220000  1.0 -0.1579630788
C  C26  1  0.13590000  0.91808000  0.60780000  1.0 -0.1579630788
C  C27  1  0.63590000  0.58192000  0.60780000  1.0 -0.1579630788
C  C28  1  0.86410000  0.08192000  0.39220000  1.0 -0.1579630788
C  C29  1  0.23140000  0.52844000  0.38280000  1.0 0.0169317027
C  C30  1  0.26860000  0.02844000  0.61720000  1.0 0.0169317027
C  C31  1  0.76860000  0.47156000  0.61720000  1.0 0.0169317027
C  C32  1  0.73140000  0.97156000  0.38280000  1.0 0.0169317027
C  C33  1  0.09910000  0.54462000  0.34200000  1.0 0.0025773954
C  C34  1  0.40090000  0.04462000  0.65800000  1.0 0.0025773954
C  C35  1  0.90090000  0.45538000  0.65800000  1.0 0.0025773954
C  C36  1  0.59910000  0.95538000  0.34200000  1.0 0.0025773954
C  C37  1  0.07160000  0.58647000  0.33600000  1.0 -0.1579630788
C  C38  1  0.42840000  0.08647000  0.66400000  1.0 -0.1579630788
C  C39  1  0.92840000  0.41353000  0.66400000  1.0 -0.1579630788
C  C40  1  0.57160000  0.91353000  0.33600000  1.0 -0.1579630788
C  C41  1  0.17830000  0.61380000  0.37040000  1.0 0.0071597296
C  C42  1  0.32170000  0.11380000  0.62960000  1.0 0.0071597296
C  C43  1  0.82170000  0.38620000  0.62960000  1.0 0.0071597296
C  C44  1  0.67830000  0.88620000  0.37040000  1.0 0.0071597296
C  C45  1  0.31010000  0.59854000  0.40870000  1.0 -0.1043579184
C  C46  1  0.18990000  0.09854000  0.59130000  1.0 -0.1043579184
C  C47  1  0.68990000  0.40146000  0.59130000  1.0 -0.1043579184
C  C48  1  0.81010000  0.90146000  0.40870000  1.0 -0.1043579184
C  C49  1  0.33450000  0.55649000  0.41560000  1.0 -0.1669215743
C  C50  1  0.16550000  0.05649000  0.58440000  1.0 -0.1669215743
C  C51  1  0.66550000  0.44351000  0.58440000  1.0 -0.1669215743
C  C52  1  0.83450000  0.94351000  0.41560000  1.0 -0.1669215743
C  C53  1  0.14780000  0.65920000  0.36830000  1.0 0.5780456014
C  C54  1  0.35220000  0.15920000  0.63170000  1.0 0.5780456014
C  C55  1  0.85220000  0.34080000  0.63170000  1.0 0.5780456014
C  C56  1  0.64780000  0.84080000  0.36830000  1.0 0.5780456014
C  C57  1  0.34110000  0.25363000  0.77390000  1.0 0.5906941639
C  C58  1  0.15890000  0.75363000  0.22610000  1.0 0.5906941639
C  C59  1  0.65890000  0.74637000  0.22610000  1.0 0.5906941639
C  C60  1  0.84110000  0.24637000  0.77390000  1.0 0.5906941639
C  C61  1  0.31450000  0.25112000  0.86390000  1.0 -0.0143193041
C  C62  1  0.18550000  0.75112000  0.13610000  1.0 -0.0143193041
C  C63  1  0.68550000  0.74888000  0.13610000  1.0 -0.0143193041
C  C64  1  0.81450000  0.24888000  0.86390000  1.0 -0.0143193041
C  C65  1  0.36690000  0.21784000  0.92100000  1.0 -0.1429916412
C  C66  1  0.13310000  0.71784000  0.07900000  1.0 -0.1429916412
C  C67  1  0.63310000  0.78216000  0.07900000  1.0 -0.1429916412
C  C68  1  0.86690000  0.28216000  0.92100000  1.0 -0.1429916412
C  C69  1  0.34310000  0.21485000  0.00340000  1.0 -0.0311863904
C  C70  1  0.15690000  0.71485000  0.99660000  1.0 -0.0311863904
C  C71  1  0.65690000  0.78515000  0.99660000  1.0 -0.0311863904
C  C72  1  0.84310000  0.28515000  0.00340000  1.0 -0.0311863904
C  C73  1  0.26690000  0.24374000  0.03570000  1.0 0.0389204224
C  C74  1  0.23310000  0.74374000  0.96430000  1.0 0.0389204224
C  C75  1  0.73310000  0.75626000  0.96430000  1.0 0.0389204224
C  C76  1  0.76690000  0.25626000  0.03570000  1.0 0.0389204224
C  C77  1  0.21950000  0.27774000  0.97880000  1.0 -0.1529333197
C  C78  1  0.28050000  0.77774000  0.02120000  1.0 -0.1529333197
C  C79  1  0.78050000  0.72226000  0.02120000  1.0 -0.1529333197
C  C80  1  0.71950000  0.22226000  0.97880000  1.0 -0.1529333197
C  C81  1  0.24260000  0.28138000  0.89390000  1.0 -0.0779348873
C  C82  1  0.25740000  0.78138000  0.10610000  1.0 -0.0779348873
C  C83  1  0.75740000  0.71862000  0.10610000  1.0 -0.0779348873
C  C84  1  0.74260000  0.21862000  0.89390000  1.0 -0.0779348873
C  C85  1  0.23750000  0.24233000  0.12570000  1.0 0.0169317027
C  C86  1  0.26250000  0.74233000  0.87430000  1.0 0.0169317027
C  C87  1  0.76250000  0.75767000  0.87430000  1.0 0.0169317027
C  C88  1  0.73750000  0.25767000  0.12570000  1.0 0.0169317027
C  C89  1  0.28900000  0.27320000  0.18750000  1.0 -0.1429916412
C  C90  1  0.21100000  0.77320000  0.81250000  1.0 -0.1429916412
C  C91  1  0.71100000  0.72680000  0.81250000  1.0 -0.1429916412
C  C92  1  0.78900000  0.22680000  0.18750000  1.0 -0.1429916412
C  C93  1  0.27670000  0.27299000  0.27560000  1.0 -0.0779348873
C  C94  1  0.22330000  0.77299000  0.72440000  1.0 -0.0779348873
C  C95  1  0.72330000  0.72701000  0.72440000  1.0 -0.0779348873
C  C96  1  0.77670000  0.22701000  0.27560000  1.0 -0.0779348873
C  C97  1  0.20530000  0.24133000  0.30130000  1.0 -0.0027731253
C  C98  1  0.29470000  0.74133000  0.69870000  1.0 -0.0027731253
C  C99  1  0.79470000  0.75867000  0.69870000  1.0 -0.0027731253
C  C100  1  0.70530000  0.25867000  0.30130000  1.0 -0.0027731253
C  C101  1  0.14360000  0.21076000  0.23880000  1.0 -0.1529333197
C  C102  1  0.35640000  0.71076000  0.76120000  1.0 -0.1529333197
C  C103  1  0.85640000  0.78924000  0.76120000  1.0 -0.1529333197
C  C104  1  0.64360000  0.28924000  0.23880000  1.0 -0.1529333197
C  C105  1  0.15910000  0.21184000  0.15250000  1.0 0.0071597296
C  C106  1  0.34090000  0.71184000  0.84750000  1.0 0.0071597296
C  C107  1  0.84090000  0.78816000  0.84750000  1.0 0.0071597296
C  C108  1  0.65910000  0.28816000  0.15250000  1.0 0.0071597296
C  C109  1  0.19090000  0.23948000  0.39650000  1.0 0.5906941639
C  C110  1  0.30910000  0.73948000  0.60350000  1.0 0.5906941639
C  C111  1  0.80910000  0.76052000  0.60350000  1.0 0.5906941639
C  C112  1  0.69090000  0.26052000  0.39650000  1.0 0.5906941639
N  N1  1  0.38720000  0.47280000  0.29210000  1.0 0.4190996162
N  N2  1  0.11280000  0.97280000  0.70790000  1.0 0.4190996162
N  N3  1  0.61280000  0.52720000  0.70790000  1.0 0.4190996162
N  N4  1  0.88720000  0.02720000  0.29210000  1.0 0.4190996162
N  N5  1  0.40810000  0.17997000  0.06210000  1.0 0.47185302
N  N6  1  0.09190000  0.67997000  0.93790000  1.0 0.47185302
N  N7  1  0.59190000  0.82003000  0.93790000  1.0 0.47185302
N  N8  1  0.90810000  0.32003000  0.06210000  1.0 0.47185302
N  N9  1  0.08820000  0.17984000  0.08820000  1.0 0.4772207833
N  N10  1  0.41180000  0.67984000  0.91180000  1.0 0.4772207833
N  N11  1  0.91180000  0.82016000  0.91180000  1.0 0.4772207833
N  N12  1  0.58820000  0.32016000  0.08820000  1.0 0.4772207833
N  N13  1  0.97760000  0.51660000  0.30950000  1.0 0.4632803894
N  N14  1  0.52240000  0.01660000  0.69050000  1.0 0.4632803894
N  N15  1  0.02240000  0.48340000  0.69050000  1.0 0.4632803894
N  N16  1  0.47760000  0.98340000  0.30950000  1.0 0.4632803894
O  O1  1  0.46900000  0.28451000  0.62127000  1.0 -0.8547663841
O  O2  1  0.03100000  0.78451000  0.37873000  1.0 -0.8547663841
O  O3  1  0.53100000  0.71549000  0.37873000  1.0 -0.8567604177
O  O4  1  0.96900000  0.21549000  0.62127000  1.0 -0.8547663841
O  O5  1  0.26440000  0.34282000  0.53180000  1.0 -0.5416548603
O  O6  1  0.23560000  0.84282000  0.46820000  1.0 -0.5416548603
O  O7  1  0.73560000  0.65718000  0.46820000  1.0 -0.5416548603
O  O8  1  0.76440000  0.15718000  0.53180000  1.0 -0.5416548603
O  O9  1  0.44100000  0.33960000  0.46862000  1.0 -0.5416548603
O  O10  1  0.05900000  0.83960000  0.53138000  1.0 -0.5416548603
O  O11  1  0.55900000  0.66040000  0.53138000  1.0 -0.5416548603
O  O12  1  0.94100000  0.16040000  0.46862000  1.0 -0.5416548603
O  O13  1  0.25530000  0.27394000  0.71008000  1.0 -0.598506292
O  O14  1  0.24470000  0.77394000  0.28992000  1.0 -0.598506292
O  O15  1  0.74470000  0.72606000  0.28992000  1.0 -0.598506292
O  O16  1  0.75530000  0.22606000  0.71008000  1.0 -0.598506292
O  O17  1  0.44740000  0.23484000  0.76679000  1.0 -0.5214038246
O  O18  1  0.05260000  0.73484000  0.23321000  1.0 -0.5214038246
O  O19  1  0.55260000  0.76516000  0.23321000  1.0 -0.5214038246
O  O20  1  0.94740000  0.26516000  0.76679000  1.0 -0.5214038246
O  O21  1  0.06660000  0.27400000  0.54687000  1.0 -0.8363544248
O  O22  1  0.43340000  0.77400000  0.45313000  1.0 -0.8363544248
O  O23  1  0.93340000  0.72600000  0.45313000  1.0 -0.8363544248
O  O24  1  0.56660000  0.22600000  0.54687000  1.0 -0.8363544248
O  O25  1  0.46840000  0.15540000  0.03390000  1.0 -0.1769692988
O  O26  1  0.03160000  0.65540000  0.96610000  1.0 -0.1769692988
O  O27  1  0.53160000  0.84460000  0.96610000  1.0 -0.1769692988
O  O28  1  0.96840000  0.34460000  0.03390000  1.0 -0.1769692988
O  O29  1  0.45420000  0.18840000  0.14570000  1.0 -0.2172445894
O  O30  1  0.04580000  0.68840000  0.85430000  1.0 -0.2172445894
O  O31  1  0.54580000  0.81160000  0.85430000  1.0 -0.2172445894
O  O32  1  0.95420000  0.31160000  0.14570000  1.0 -0.2172445894
O  O33  1  0.06690000  0.18374000  0.00770000  1.0 -0.2671912216
O  O34  1  0.43310000  0.68374000  0.99230000  1.0 -0.2671912216
O  O35  1  0.93310000  0.81626000  0.99230000  1.0 -0.2671912216
O  O36  1  0.56690000  0.31626000  0.00770000  1.0 -0.2671912216
O  O37  1  0.03110000  0.15191000  0.11750000  1.0 -0.28681091
O  O38  1  0.46890000  0.65191000  0.88250000  1.0 -0.28681091
O  O39  1  0.96890000  0.84809000  0.88250000  1.0 -0.28681091
O  O40  1  0.53110000  0.34809000  0.11750000  1.0 -0.28681091
O  O41  1  0.28260000  0.49490000  0.22580000  1.0 -0.0027731253
O  O42  1  0.21740000  0.99490000  0.77420000  1.0 -0.0027731253
O  O43  1  0.71740000  0.50510000  0.77420000  1.0 0.0025773954
O  O44  1  0.78260000  0.00510000  0.22580000  1.0 -0.0027731253
O  O45  1  0.52660000  0.46470000  0.30980000  1.0 -0.1579630788
O  O46  1  0.97340000  0.96470000  0.69020000  1.0 -0.1579630788
O  O47  1  0.47340000  0.53530000  0.69020000  1.0 -0.1579630788
O  O48  1  0.02660000  0.03530000  0.30980000  1.0 -0.1579630788
O  O49  1  0.00200000  0.48376000  0.27310000  1.0 -0.2601466418
O  O50  1  0.49800000  0.98376000  0.72690000  1.0 -0.2601466418
O  O51  1  0.99800000  0.51624000  0.72690000  1.0 -0.2601466418
O  O52  1  0.50200000  0.01624000  0.27310000  1.0 -0.2601466418
O  O53  1  0.86130000  0.52770000  0.32230000  1.0 -0.2601466418
O  O54  1  0.63870000  0.02770000  0.67770000  1.0 -0.2601466418
O  O55  1  0.13870000  0.47230000  0.67770000  1.0 -0.2601466418
O  O56  1  0.36130000  0.97230000  0.32230000  1.0 -0.2601466418
O  O57  1  0.08890000  0.21818000  0.40460000  1.0 -0.5310147532
O  O58  1  0.41110000  0.71818000  0.59540000  1.0 -0.5310147532
O  O59  1  0.91110000  0.78182000  0.59540000  1.0 -0.5310147532
O  O60  1  0.58890000  0.28182000  0.40460000  1.0 -0.5310147532
O  O61  1  0.27750000  0.25921000  0.45846000  1.0 -0.610926991
O  O62  1  0.22250000  0.75921000  0.54154000  1.0 -0.610926991
O  O63  1  0.72250000  0.74079000  0.54154000  1.0 -0.610926991
O  O64  1  0.77750000  0.24079000  0.45846000  1.0 -0.610926991
O  O65  1  0.24340000  0.68469000  0.39810000  1.0 -0.610926991
O  O66  1  0.25660000  0.18469000  0.60190000  1.0 -0.610926991
O  O67  1  0.75660000  0.31531000  0.60190000  1.0 -0.610926991
O  O68  1  0.74340000  0.81531000  0.39810000  1.0 -0.610926991
O  O69  1  0.01800000  0.66864000  0.33580000  1.0 -0.5310147532
O  O70  1  0.48200000  0.16864000  0.66420000  1.0 -0.5310147532
O  O71  1  0.98200000  0.33136000  0.66420000  1.0 -0.5310147532
O  O72  1  0.51800000  0.83136000  0.33580000  1.0 -0.5310147532
O  O73  1  0.33190000  0.15530000  0.09700000  1.0 -0.0535021005
O  O74  1  0.16810000  0.65530000  0.90300000  1.0 -0.0599304885
O  O75  1  0.66810000  0.84470000  0.90300000  1.0 -0.0599304885
O  O76  1  0.83190000  0.34470000  0.09700000  1.0 -0.0535021005
O  O77  1  0.36500000  0.50520000  0.25550000  1.0 0.1026514592
O  O78  1  0.13500000  0.00520000  0.74450000  1.0 0.0938810877
O  O79  1  0.63500000  0.49480000  0.74450000  1.0 0.1026514592
O  O80  1  0.86500000  0.99480000  0.25550000  1.0 0.1026514592
O  O81  1  0.42960000  0.44740000  0.24200000  1.0 -0.0739587449
O  O82  1  0.07040000  0.94740000  0.75800000  1.0 -0.0779348873
O  O83  1  0.57040000  0.55260000  0.75800000  1.0 -0.0779348873
O  O84  1  0.92960000  0.05260000  0.24200000  1.0 -0.0739587449
O  O85  1  0.89500000  0.52880000  0.23490000  1.0 0.1026514592
O  O86  1  0.60500000  0.02880000  0.76510000  1.0 0.1026514592
O  O87  1  0.10500000  0.47120000  0.76510000  1.0 0.1026514592
O  O88  1  0.39500000  0.97120000  0.23490000  1.0 0.1122293893
