# DDEC6 charges by PACMAN v1.1 (https://github.com/mtap-research/PACMAN-charge/)
data_FOQPAE01_FSR_pacman
_symmetry_space_group_name_H-M   'P 1'
_cell_length_a   10.10570000
_cell_length_b   32.83200000
_cell_length_c   15.33700000
_cell_angle_alpha   90.00000000
_cell_angle_beta   106.54900000
_cell_angle_gamma   90.00000000
_symmetry_Int_Tables_number   1
_chemical_formula_structural   Cu3H14C28N5O26
_chemical_formula_sum   'Cu12 H56 C112 N20 O104'
_cell_volume   4877.87797737
_cell_formula_units_Z   4
loop_
 _symmetry_equiv_pos_site_id
 _symmetry_equiv_pos_as_xyz
  1  'x, y, z'
loop_
 _atom_site_type_symbol
 _atom_site_label
 _atom_site_symmetry_multiplicity
 _atom_site_fract_x
 _atom_site_fract_y
 _atom_site_fract_z
 _atom_site_occupancy
 _atom_site_charge
Cu  Cu1  1  0.77536000  0.78337000  0.41971000  1.0 0.9463303845
Cu  Cu2  1  0.72464000  0.28337000  0.58029000  1.0 0.9463303845
Cu  Cu3  1  0.22464000  0.21663000  0.58029000  1.0 0.9463303845
Cu  Cu4  1  0.27536000  0.71663000  0.41971000  1.0 0.9463303845
Cu  Cu5  1  0.51692000  0.78274000  0.49278000  1.0 0.9578274052
Cu  Cu6  1  0.98308000  0.28274000  0.50722000  1.0 0.9578274052
Cu  Cu7  1  0.48308000  0.21726000  0.50722000  1.0 0.9578274052
Cu  Cu8  1  0.01692000  0.71726000  0.49278000  1.0 0.9578274052
Cu  Cu9  1  0.54010000  0.72533000  0.34592000  1.0 0.9193750184
Cu  Cu10  1  0.95990000  0.22533000  0.65408000  1.0 0.9193750184
Cu  Cu11  1  0.45990000  0.27467000  0.65408000  1.0 0.9193750184
Cu  Cu12  1  0.04010000  0.77467000  0.34592000  1.0 0.9193750184
H  H1  1  0.53610000  0.79940000  0.34230000  1.0 0.3888588894
H  H2  1  0.96390000  0.29940000  0.65770000  1.0 0.3888588894
H  H3  1  0.46390000  0.20060000  0.65770000  1.0 0.3888588894
H  H4  1  0.03610000  0.70060000  0.34230000  1.0 0.3888588894
H  H5  1  0.51560000  0.70790000  0.49580000  1.0 0.3888588894
H  H6  1  0.98440000  0.20790000  0.50420000  1.0 0.3888588894
H  H7  1  0.48440000  0.29210000  0.50420000  1.0 0.3888588894
H  H8  1  0.01560000  0.79210000  0.49580000  1.0 0.3888588894
H  H9  1  0.79390000  0.91670000  0.44150000  1.0 0.1181064929
H  H10  1  0.70610000  0.41670000  0.55850000  1.0 0.1181064929
H  H11  1  0.20610000  0.08330000  0.55850000  1.0 0.1181064929
H  H12  1  0.29390000  0.58330000  0.44150000  1.0 0.1181064929
H  H13  1  0.81410000  0.98510000  0.47740000  1.0 0.1006721837
H  H14  1  0.68590000  0.48510000  0.52260000  1.0 0.1006721837
H  H15  1  0.18590000  0.01490000  0.52260000  1.0 0.1006721837
H  H16  1  0.31410000  0.51490000  0.47740000  1.0 0.1006721837
H  H17  1  0.60720000  0.89810000  0.63480000  1.0 0.1006721837
H  H18  1  0.89280000  0.39810000  0.36520000  1.0 0.1006721837
H  H19  1  0.39280000  0.10190000  0.36520000  1.0 0.1006721837
H  H20  1  0.10720000  0.60190000  0.63480000  1.0 0.1006721837
H  H21  1  0.99930000  0.09500000  0.68730000  1.0 0.1088113051
H  H22  1  0.50070000  0.59500000  0.31270000  1.0 0.1088113051
H  H23  1  0.00070000  0.90500000  0.31270000  1.0 0.1088113051
H  H24  1  0.49930000  0.40500000  0.68730000  1.0 0.1088113051
H  H25  1  0.60240000  0.11270000  0.55380000  1.0 0.1310524802
H  H26  1  0.89760000  0.61270000  0.44620000  1.0 0.1310524802
H  H27  1  0.39760000  0.88730000  0.44620000  1.0 0.1310524802
H  H28  1  0.10240000  0.38730000  0.55380000  1.0 0.1310524802
H  H29  1  0.56790000  0.04440000  0.54160000  1.0 0.1088113051
H  H30  1  0.93210000  0.54440000  0.45840000  1.0 0.1088113051
H  H31  1  0.43210000  0.95560000  0.45840000  1.0 0.1088113051
H  H32  1  0.06790000  0.45560000  0.54160000  1.0 0.1088113051
H  H33  1  0.62600000  0.69930000  0.10020000  1.0 0.1006721837
H  H34  1  0.87400000  0.19930000  0.89980000  1.0 0.1006721837
H  H35  1  0.37400000  0.30070000  0.89980000  1.0 0.1006721837
H  H36  1  0.12600000  0.80070000  0.10020000  1.0 0.1006721837
H  H37  1  0.86990000  0.80200000  0.00810000  1.0 0.0931530904
H  H38  1  0.63010000  0.30200000  0.99190000  1.0 0.0931530904
H  H39  1  0.13010000  0.19800000  0.99190000  1.0 0.0931530904
H  H40  1  0.36990000  0.69800000  0.00810000  1.0 0.0931530904
H  H41  1  0.83920000  0.80400000  0.15120000  1.0 0.1368536513
H  H42  1  0.66080000  0.30400000  0.84880000  1.0 0.1368536513
H  H43  1  0.16080000  0.19600000  0.84880000  1.0 0.1368536513
H  H44  1  0.33920000  0.69600000  0.15120000  1.0 0.1368536513
H  H45  1  0.70640000  0.79850000  0.83240000  1.0 0.0931530904
H  H46  1  0.79360000  0.29850000  0.16760000  1.0 0.0931530904
H  H47  1  0.29360000  0.20150000  0.16760000  1.0 0.0931530904
H  H48  1  0.20640000  0.70150000  0.83240000  1.0 0.0931530904
H  H49  1  0.72360000  0.79620000  0.68710000  1.0 0.1310524802
H  H50  1  0.77640000  0.29620000  0.31290000  1.0 0.1310524802
H  H51  1  0.27640000  0.20380000  0.31290000  1.0 0.1310524802
H  H52  1  0.22360000  0.70380000  0.68710000  1.0 0.1310524802
H  H53  1  0.95370000  0.69500000  0.74990000  1.0 0.1006721837
H  H54  1  0.54630000  0.19500000  0.25010000  1.0 0.1006721837
H  H55  1  0.04630000  0.30500000  0.25010000  1.0 0.1006721837
H  H56  1  0.45370000  0.80500000  0.74990000  1.0 0.1006721837
C  C1  1  0.68210000  0.85609000  0.50770000  1.0 0.5989668529
C  C2  1  0.81790000  0.35609000  0.49230000  1.0 0.5989668529
C  C3  1  0.31790000  0.14391000  0.49230000  1.0 0.5989668529
C  C4  1  0.18210000  0.64391000  0.50770000  1.0 0.5989668529
C  C5  1  0.70070000  0.90017000  0.53450000  1.0 0.0116370514
C  C6  1  0.79930000  0.40017000  0.46550000  1.0 0.0116370514
C  C7  1  0.29930000  0.09983000  0.46550000  1.0 0.0116370514
C  C8  1  0.20070000  0.59983000  0.53450000  1.0 0.0116370514
C  C9  1  0.76190000  0.92640000  0.48870000  1.0 -0.1563026186
C  C10  1  0.73810000  0.42640000  0.51130000  1.0 -0.1563026186
C  C11  1  0.23810000  0.07360000  0.51130000  1.0 -0.1563026186
C  C12  1  0.26190000  0.57360000  0.48870000  1.0 -0.1563026186
C  C13  1  0.77730000  0.96750000  0.51180000  1.0 -0.2300673713
C  C14  1  0.72270000  0.46750000  0.48820000  1.0 -0.2300673713
C  C15  1  0.22270000  0.03250000  0.48820000  1.0 -0.2300673713
C  C16  1  0.27730000  0.53250000  0.51180000  1.0 -0.2300673713
C  C17  1  0.73810000  0.98270000  0.58630000  1.0 -0.1281677129
C  C18  1  0.76190000  0.48270000  0.41370000  1.0 -0.1281677129
C  C19  1  0.26190000  0.01730000  0.41370000  1.0 -0.1281677129
C  C20  1  0.23810000  0.51730000  0.58630000  1.0 -0.1281677129
C  C21  1  0.67480000  0.95530000  0.63020000  1.0 0.0432394046
C  C22  1  0.82520000  0.45530000  0.36980000  1.0 0.0432394046
C  C23  1  0.32520000  0.04470000  0.36980000  1.0 0.0432394046
C  C24  1  0.17480000  0.54470000  0.63020000  1.0 0.0432394046
C  C25  1  0.65330000  0.91517000  0.60490000  1.0 -0.2725353007
C  C26  1  0.84670000  0.41517000  0.39510000  1.0 -0.2725353007
C  C27  1  0.34670000  0.08483000  0.39510000  1.0 -0.2725353007
C  C28  1  0.15330000  0.58483000  0.60490000  1.0 -0.2725353007
C  C29  1  0.76000000  0.02690000  0.60680000  1.0 -0.0395278088
C  C30  1  0.74000000  0.52690000  0.39320000  1.0 -0.0395278088
C  C31  1  0.24000000  0.97310000  0.39320000  1.0 -0.0395278088
C  C32  1  0.26000000  0.47310000  0.60680000  1.0 -0.0395278088
C  C33  1  0.88680000  0.04340000  0.64850000  1.0 -0.1281677129
C  C34  1  0.61320000  0.54340000  0.35150000  1.0 -0.1281677129
C  C35  1  0.11320000  0.95660000  0.35150000  1.0 -0.1281677129
C  C36  1  0.38680000  0.45660000  0.64850000  1.0 -0.1281677129
C  C37  1  0.91170000  0.08510000  0.65790000  1.0 -0.1702359532
C  C38  1  0.58830000  0.58510000  0.34210000  1.0 -0.1702359532
C  C39  1  0.08830000  0.91490000  0.34210000  1.0 -0.1702359532
C  C40  1  0.41170000  0.41490000  0.65790000  1.0 -0.1702359532
C  C41  1  0.80370000  0.11131000  0.62260000  1.0 0.02015931
C  C42  1  0.69630000  0.61131000  0.37740000  1.0 0.02015931
C  C43  1  0.19630000  0.88869000  0.37740000  1.0 0.02015931
C  C44  1  0.30370000  0.38869000  0.62260000  1.0 0.02015931
C  C45  1  0.67580000  0.09530000  0.57880000  1.0 -0.1157969312
C  C46  1  0.82420000  0.59530000  0.42120000  1.0 -0.1157969312
C  C47  1  0.32420000  0.90470000  0.42120000  1.0 -0.1157969312
C  C48  1  0.17580000  0.40470000  0.57880000  1.0 -0.1157969312
C  C49  1  0.65540000  0.05420000  0.57150000  1.0 -0.1873337318
C  C50  1  0.84460000  0.55420000  0.42850000  1.0 -0.1873337318
C  C51  1  0.34460000  0.94580000  0.42850000  1.0 -0.1873337318
C  C52  1  0.15540000  0.44580000  0.57150000  1.0 -0.1873337318
C  C53  1  0.82630000  0.15672000  0.62760000  1.0 0.567556129
C  C54  1  0.67370000  0.65672000  0.37240000  1.0 0.567556129
C  C55  1  0.17370000  0.84328000  0.37240000  1.0 0.567556129
C  C56  1  0.32630000  0.34328000  0.62760000  1.0 0.567556129
C  C57  1  0.70340000  0.75225000  0.23060000  1.0 0.5895123641
C  C58  1  0.79660000  0.25225000  0.76940000  1.0 0.5895123641
C  C59  1  0.29660000  0.24775000  0.76940000  1.0 0.5895123641
C  C60  1  0.20340000  0.74775000  0.23060000  1.0 0.5895123641
C  C61  1  0.73110000  0.75168000  0.14080000  1.0 -0.019844768
C  C62  1  0.76890000  0.25168000  0.85920000  1.0 -0.019844768
C  C63  1  0.26890000  0.24832000  0.85920000  1.0 -0.019844768
C  C64  1  0.23110000  0.74832000  0.14080000  1.0 -0.019844768
C  C65  1  0.67770000  0.71950000  0.08270000  1.0 -0.1976555948
C  C66  1  0.82230000  0.21950000  0.91730000  1.0 -0.1976555948
C  C67  1  0.32230000  0.28050000  0.91730000  1.0 -0.1976555948
C  C68  1  0.17770000  0.78050000  0.08270000  1.0 -0.1976555948
C  C69  1  0.70210000  0.71770000  0.99890000  1.0 -0.1813684368
C  C70  1  0.79790000  0.21770000  0.00110000  1.0 -0.1813684368
C  C71  1  0.29790000  0.28230000  0.00110000  1.0 -0.1813684368
C  C72  1  0.20210000  0.78230000  0.99890000  1.0 -0.1813684368
C  C73  1  0.77970000  0.74790000  0.96950000  1.0 -0.0309415998
C  C74  1  0.72030000  0.24790000  0.03050000  1.0 -0.0309415998
C  C75  1  0.22030000  0.25210000  0.03050000  1.0 -0.0309415998
C  C76  1  0.27970000  0.75210000  0.96950000  1.0 -0.0309415998
C  C77  1  0.82460000  0.78060000  0.02720000  1.0 -0.1813684368
C  C78  1  0.67540000  0.28060000  0.97280000  1.0 -0.1813684368
C  C79  1  0.17540000  0.21940000  0.97280000  1.0 -0.1813684368
C  C80  1  0.32460000  0.71940000  0.02720000  1.0 -0.1813684368
C  C81  1  0.80400000  0.78230000  0.11270000  1.0 -0.1157969312
C  C82  1  0.69600000  0.28230000  0.88730000  1.0 -0.1157969312
C  C83  1  0.19600000  0.21770000  0.88730000  1.0 -0.1157969312
C  C84  1  0.30400000  0.71770000  0.11270000  1.0 -0.1157969312
C  C85  1  0.80970000  0.74660000  0.87900000  1.0 -0.0128658674
C  C86  1  0.69030000  0.24660000  0.12100000  1.0 -0.0128658674
C  C87  1  0.19030000  0.25340000  0.12100000  1.0 -0.0128658674
C  C88  1  0.30970000  0.75340000  0.87900000  1.0 -0.0128658674
C  C89  1  0.75340000  0.77700000  0.81530000  1.0 -0.1702359532
C  C90  1  0.74660000  0.27700000  0.18470000  1.0 -0.1702359532
C  C91  1  0.24660000  0.22300000  0.18470000  1.0 -0.1702359532
C  C92  1  0.25340000  0.72300000  0.81530000  1.0 -0.1702359532
C  C93  1  0.76520000  0.77600000  0.72840000  1.0 -0.1157969312
C  C94  1  0.73480000  0.27600000  0.27160000  1.0 -0.1157969312
C  C95  1  0.23480000  0.22400000  0.27160000  1.0 -0.1157969312
C  C96  1  0.26520000  0.72400000  0.72840000  1.0 -0.1157969312
C  C97  1  0.83940000  0.74490000  0.70190000  1.0 0.0116370514
C  C98  1  0.66060000  0.24490000  0.29810000  1.0 0.0116370514
C  C99  1  0.16060000  0.25510000  0.29810000  1.0 0.0116370514
C  C100  1  0.33940000  0.75510000  0.70190000  1.0 0.0116370514
C  C101  1  0.90210000  0.71570000  0.76590000  1.0 -0.1873337318
C  C102  1  0.59790000  0.21570000  0.23410000  1.0 -0.1873337318
C  C103  1  0.09790000  0.28430000  0.23410000  1.0 -0.1873337318
C  C104  1  0.40210000  0.78430000  0.76590000  1.0 -0.1873337318
C  C105  1  0.88880000  0.71702000  0.85270000  1.0 -0.1405645673
C  C106  1  0.61120000  0.21702000  0.14730000  1.0 -0.1405645673
C  C107  1  0.11120000  0.28298000  0.14730000  1.0 -0.1405645673
C  C108  1  0.38880000  0.78298000  0.85270000  1.0 -0.1405645673
C  C109  1  0.85070000  0.74197000  0.60640000  1.0 0.5895123641
C  C110  1  0.64930000  0.24197000  0.39360000  1.0 0.5895123641
C  C111  1  0.14930000  0.25803000  0.39360000  1.0 0.5895123641
C  C112  1  0.35070000  0.75803000  0.60640000  1.0 0.5895123641
N  N1  1  0.59030000  0.97090000  0.68750000  1.0 0.2665149133
N  N2  1  0.90970000  0.47090000  0.31250000  1.0 0.2665149133
N  N3  1  0.40970000  0.02910000  0.31250000  1.0 0.2665149133
N  N4  1  0.09030000  0.52910000  0.68750000  1.0 0.2665149133
N  N5  1  0.63670000  0.68430000  0.93840000  1.0 0.4447311621
N  N6  1  0.86330000  0.18430000  0.06160000  1.0 0.4447311621
N  N7  1  0.36330000  0.31570000  0.06160000  1.0 0.4447311621
N  N8  1  0.13670000  0.81570000  0.93840000  1.0 0.4447311621
N  N9  1  0.96380000  0.68501000  0.91620000  1.0 0.425408737
N  N10  1  0.53620000  0.18501000  0.08380000  1.0 0.425408737
N  N11  1  0.03620000  0.31499000  0.08380000  1.0 0.425408737
N  N12  1  0.46380000  0.81499000  0.91620000  1.0 0.425408737
N  N13  1  0.01030000  0.01697000  0.68890000  1.0 0.4184564139
N  N14  1  0.48970000  0.51697000  0.31110000  1.0 0.4184564139
N  N15  1  0.98970000  0.98303000  0.31110000  1.0 0.4184564139
N  N16  1  0.51030000  0.48303000  0.68890000  1.0 0.4184564139
N  N17  1  0.65660000  0.96530000  0.72110000  1.0 0.2942392911
N  N18  1  0.84340000  0.46530000  0.27890000  1.0 0.2942392911
N  N19  1  0.34340000  0.03470000  0.27890000  1.0 0.2942392911
N  N20  1  0.15660000  0.53470000  0.72110000  1.0 0.2942392911
O  O1  1  0.57520000  0.78197000  0.38230000  1.0 -0.8057104488
O  O2  1  0.92480000  0.28197000  0.61770000  1.0 -0.8057104488
O  O3  1  0.42480000  0.21803000  0.61770000  1.0 -0.8057104488
O  O4  1  0.07520000  0.71803000  0.38230000  1.0 -0.8057104488
O  O5  1  0.76530000  0.84216000  0.46760000  1.0 -0.5611550946
O  O6  1  0.73470000  0.34216000  0.53240000  1.0 -0.5611550946
O  O7  1  0.23470000  0.15784000  0.53240000  1.0 -0.5611550946
O  O8  1  0.26530000  0.65784000  0.46760000  1.0 -0.5611550946
O  O9  1  0.58590000  0.83736000  0.52800000  1.0 -0.5407352884
O  O10  1  0.91410000  0.33736000  0.47200000  1.0 -0.5407352884
O  O11  1  0.41410000  0.16264000  0.47200000  1.0 -0.5407352884
O  O12  1  0.08590000  0.66264000  0.52800000  1.0 -0.5407352884
O  O13  1  0.78910000  0.77168000  0.29490000  1.0 -0.599498554
O  O14  1  0.71090000  0.27168000  0.70510000  1.0 -0.599498554
O  O15  1  0.21090000  0.22832000  0.70510000  1.0 -0.599498554
O  O16  1  0.28910000  0.72832000  0.29490000  1.0 -0.599498554
O  O17  1  0.59990000  0.73329000  0.23740000  1.0 -0.5090553601
O  O18  1  0.90010000  0.23329000  0.76260000  1.0 -0.5090553601
O  O19  1  0.40010000  0.26671000  0.76260000  1.0 -0.5090553601
O  O20  1  0.09990000  0.76671000  0.23740000  1.0 -0.5090553601
O  O21  1  0.47280000  0.72481000  0.45570000  1.0 -0.7965669472
O  O22  1  0.02720000  0.22481000  0.54430000  1.0 -0.7965669472
O  O23  1  0.52720000  0.27519000  0.54430000  1.0 -0.7965669472
O  O24  1  0.97280000  0.77519000  0.45570000  1.0 -0.7965669472
O  O25  1  0.53990000  0.66550000  0.95210000  1.0 -0.019844768
O  O26  1  0.96010000  0.16550000  0.04790000  1.0 -0.019844768
O  O27  1  0.46010000  0.33450000  0.04790000  1.0 -0.019844768
O  O28  1  0.03990000  0.83450000  0.95210000  1.0 -0.019844768
O  O29  1  0.70590000  0.66340000  0.90170000  1.0 -0.1050259535
O  O30  1  0.79410000  0.16340000  0.09830000  1.0 -0.1050259535
O  O31  1  0.29410000  0.33660000  0.09830000  1.0 -0.1050259535
O  O32  1  0.20590000  0.83660000  0.90170000  1.0 -0.1050259535
O  O33  1  0.00060000  0.69520000  0.99650000  1.0 -0.0395278088
O  O34  1  0.49940000  0.19520000  0.00350000  1.0 -0.0395278088
O  O35  1  0.99940000  0.30480000  0.00350000  1.0 -0.0395278088
O  O36  1  0.50060000  0.80480000  0.99650000  1.0 -0.0395278088
O  O37  1  0.99510000  0.65440000  0.88100000  1.0 -0.019844768
O  O38  1  0.50490000  0.15440000  0.11900000  1.0 -0.019844768
O  O39  1  0.00490000  0.34560000  0.11900000  1.0 -0.019844768
O  O40  1  0.49510000  0.84560000  0.88100000  1.0 -0.019844768
O  O41  1  0.60680000  0.00400000  0.72460000  1.0 -0.0309415998
O  O42  1  0.89320000  0.50400000  0.27540000  1.0 -0.0309415998
O  O43  1  0.39320000  0.99600000  0.27540000  1.0 -0.0309415998
O  O44  1  0.10680000  0.49600000  0.72460000  1.0 -0.0309415998
O  O45  1  0.52720000  0.94820000  0.72420000  1.0 -0.0623666392
O  O46  1  0.97280000  0.44820000  0.27580000  1.0 -0.0623666392
O  O47  1  0.47280000  0.05180000  0.27580000  1.0 -0.0623666392
O  O48  1  0.02720000  0.55180000  0.72420000  1.0 -0.0623666392
O  O49  1  0.99470000  0.98131000  0.70580000  1.0 0.0116370514
O  O50  1  0.50530000  0.48131000  0.29420000  1.0 0.0023799252
O  O51  1  0.00530000  0.01869000  0.29420000  1.0 0.0023799252
O  O52  1  0.49470000  0.51869000  0.70580000  1.0 0.0023799252
O  O53  1  0.12810000  0.03000000  0.70520000  1.0 0.02015931
O  O54  1  0.37190000  0.53000000  0.29480000  1.0 0.02015931
O  O55  1  0.87190000  0.97000000  0.29480000  1.0 0.02015931
O  O56  1  0.62810000  0.47000000  0.70520000  1.0 0.02015931
O  O57  1  0.95130000  0.72126000  0.59820000  1.0 -0.5212714363
O  O58  1  0.54870000  0.22126000  0.40180000  1.0 -0.5212714363
O  O59  1  0.04870000  0.27874000  0.40180000  1.0 -0.5212714363
O  O60  1  0.45130000  0.77874000  0.59820000  1.0 -0.5212714363
O  O61  1  0.76460000  0.76021000  0.54570000  1.0 -0.5895730097
O  O62  1  0.73540000  0.26021000  0.45430000  1.0 -0.5895730097
O  O63  1  0.23540000  0.23979000  0.45430000  1.0 -0.5895730097
O  O64  1  0.26460000  0.73979000  0.54570000  1.0 -0.5895730097
O  O65  1  0.72990000  0.18018000  0.59890000  1.0 -0.5611550946
O  O66  1  0.77010000  0.68018000  0.40110000  1.0 -0.5611550946
O  O67  1  0.27010000  0.81982000  0.40110000  1.0 -0.5611550946
O  O68  1  0.22990000  0.31982000  0.59890000  1.0 -0.5611550946
O  O69  1  0.95370000  0.16751000  0.66400000  1.0 -0.5407352884
O  O70  1  0.54630000  0.66751000  0.33600000  1.0 -0.5407352884
O  O71  1  0.04630000  0.83249000  0.33600000  1.0 -0.5407352884
O  O72  1  0.45370000  0.33249000  0.66400000  1.0 -0.5407352884
O  O73  1  0.60430000  0.65430000  0.97450000  1.0 0.1310524802
O  O74  1  0.89570000  0.15430000  0.02550000  1.0 0.1310524802
O  O75  1  0.39570000  0.34570000  0.02550000  1.0 0.1310524802
O  O76  1  0.10430000  0.84570000  0.97450000  1.0 0.1310524802
O  O77  1  0.59880000  0.69310000  0.85720000  1.0 -0.1813684368
O  O78  1  0.90120000  0.19310000  0.14280000  1.0 -0.1813684368
O  O79  1  0.40120000  0.30690000  0.14280000  1.0 -0.1813684368
O  O80  1  0.09880000  0.80690000  0.85720000  1.0 -0.1813684368
O  O81  1  0.95900000  0.68550000  0.99480000  1.0 0.0023799252
O  O82  1  0.54100000  0.18550000  0.00520000  1.0 0.0023799252
O  O83  1  0.04100000  0.31450000  0.00520000  1.0 -0.0006380736
O  O84  1  0.45900000  0.81450000  0.99480000  1.0 0.0023799252
O  O85  1  0.04740000  0.66330000  0.89450000  1.0 -0.0128658674
O  O86  1  0.45260000  0.16330000  0.10550000  1.0 -0.0128658674
O  O87  1  0.95260000  0.33670000  0.10550000  1.0 -0.0128658674
O  O88  1  0.54740000  0.83670000  0.89450000  1.0 -0.0128658674
O  O89  1  0.69790000  0.99760000  0.75750000  1.0 0.0116370514
O  O90  1  0.80210000  0.49760000  0.24250000  1.0 0.0116370514
O  O91  1  0.30210000  0.00240000  0.24250000  1.0 0.02015931
O  O92  1  0.19790000  0.50240000  0.75750000  1.0 0.0116370514
O  O93  1  0.63690000  0.94050000  0.77530000  1.0 -0.0395278088
O  O94  1  0.86310000  0.44050000  0.22470000  1.0 -0.0395278088
O  O95  1  0.36310000  0.05950000  0.22470000  1.0 -0.0395278088
O  O96  1  0.13690000  0.55950000  0.77530000  1.0 -0.0395278088
O  O97  1  0.97790000  0.99030000  0.73490000  1.0 -0.019844768
O  O98  1  0.52210000  0.49030000  0.26510000  1.0 -0.019844768
O  O99  1  0.02210000  0.00970000  0.26510000  1.0 -0.019844768
O  O100  1  0.47790000  0.50970000  0.73490000  1.0 -0.0128658674
O  O101  1  0.10870000  0.02640000  0.66150000  1.0 -0.0395278088
O  O102  1  0.39130000  0.52640000  0.33850000  1.0 -0.0395278088
O  O103  1  0.89130000  0.97360000  0.33850000  1.0 -0.0455170784
O  O104  1  0.60870000  0.47360000  0.66150000  1.0 -0.0395278088
