# DDEC6 charges by PACMAN v1.1 (https://github.com/mtap-research/PACMAN-charge/)
data_FOQPAE02_ASR_pacman
_symmetry_space_group_name_H-M   'P 1'
_cell_length_a   10.10750000
_cell_length_b   32.85200000
_cell_length_c   15.33320000
_cell_angle_alpha   90.00000000
_cell_angle_beta   106.56500000
_cell_angle_gamma   90.00000000
_symmetry_Int_Tables_number   1
_chemical_formula_structural   Cu3H14C28N5O26
_chemical_formula_sum   'Cu12 H56 C112 N20 O104'
_cell_volume   4880.10406354
_cell_formula_units_Z   4
loop_
 _symmetry_equiv_pos_site_id
 _symmetry_equiv_pos_as_xyz
  1  'x, y, z'
loop_
 _atom_site_type_symbol
 _atom_site_label
 _atom_site_symmetry_multiplicity
 _atom_site_fract_x
 _atom_site_fract_y
 _atom_site_fract_z
 _atom_site_occupancy
 _atom_site_charge
Cu  Cu1  1  0.77617000  0.78334000  0.42019000  1.0 0.9447148889
Cu  Cu2  1  0.72383000  0.28334000  0.57981000  1.0 0.9456888089
Cu  Cu3  1  0.22383000  0.21666000  0.57981000  1.0 0.9447148889
Cu  Cu4  1  0.27617000  0.71666000  0.42019000  1.0 0.9447148889
Cu  Cu5  1  0.51782000  0.78267000  0.49333000  1.0 0.9580100575
Cu  Cu6  1  0.98218000  0.28267000  0.50667000  1.0 0.9580100575
Cu  Cu7  1  0.48218000  0.21733000  0.50667000  1.0 0.9580100575
Cu  Cu8  1  0.01782000  0.71733000  0.49333000  1.0 0.9580100575
Cu  Cu9  1  0.54096000  0.72527000  0.34656000  1.0 0.9175930568
Cu  Cu10  1  0.95904000  0.22527000  0.65344000  1.0 0.9175930568
Cu  Cu11  1  0.45904000  0.27473000  0.65344000  1.0 0.9175930568
Cu  Cu12  1  0.04096000  0.77473000  0.34656000  1.0 0.9175930568
H  H1  1  0.53720000  0.79940000  0.34270000  1.0 0.3894168311
H  H2  1  0.96280000  0.29940000  0.65730000  1.0 0.3894168311
H  H3  1  0.46280000  0.20060000  0.65730000  1.0 0.3894168311
H  H4  1  0.03720000  0.70060000  0.34270000  1.0 0.3894168311
H  H5  1  0.51610000  0.70790000  0.49640000  1.0 0.3894168311
H  H6  1  0.98390000  0.20790000  0.50360000  1.0 0.3894168311
H  H7  1  0.48390000  0.29210000  0.50360000  1.0 0.3894168311
H  H8  1  0.01610000  0.79210000  0.49640000  1.0 0.3894168311
H  H9  1  0.79560000  0.91650000  0.44190000  1.0 0.1199108014
H  H10  1  0.70440000  0.41650000  0.55810000  1.0 0.1199108014
H  H11  1  0.20440000  0.08350000  0.55810000  1.0 0.1199108014
H  H12  1  0.29560000  0.58350000  0.44190000  1.0 0.1199108014
H  H13  1  0.81640000  0.98500000  0.47800000  1.0 0.0993977936
H  H14  1  0.68360000  0.48500000  0.52200000  1.0 0.0993977936
H  H15  1  0.18360000  0.01500000  0.52200000  1.0 0.0993977936
H  H16  1  0.31640000  0.51500000  0.47800000  1.0 0.0993977936
H  H17  1  0.60830000  0.89800000  0.63510000  1.0 0.0993977936
H  H18  1  0.89170000  0.39800000  0.36490000  1.0 0.0993977936
H  H19  1  0.39170000  0.10200000  0.36490000  1.0 0.0993977936
H  H20  1  0.10830000  0.60200000  0.63510000  1.0 0.0993977936
H  H21  1  0.99880000  0.09500000  0.68640000  1.0 0.1102694601
H  H22  1  0.50120000  0.59500000  0.31360000  1.0 0.1102694601
H  H23  1  0.00120000  0.90500000  0.31360000  1.0 0.1102694601
H  H24  1  0.49880000  0.40500000  0.68640000  1.0 0.1102694601
H  H25  1  0.60200000  0.11270000  0.55470000  1.0 0.137712249
H  H26  1  0.89800000  0.61270000  0.44530000  1.0 0.137712249
H  H27  1  0.39800000  0.88730000  0.44530000  1.0 0.137712249
H  H28  1  0.10200000  0.38730000  0.55470000  1.0 0.137712249
H  H29  1  0.56810000  0.04400000  0.54040000  1.0 0.1102694601
H  H30  1  0.93190000  0.54400000  0.45960000  1.0 0.1102694601
H  H31  1  0.43190000  0.95600000  0.45960000  1.0 0.1102694601
H  H32  1  0.06810000  0.45600000  0.54040000  1.0 0.1102694601
H  H33  1  0.62680000  0.69910000  0.10040000  1.0 0.0993977936
H  H34  1  0.87320000  0.19910000  0.89960000  1.0 0.0993977936
H  H35  1  0.37320000  0.30090000  0.89960000  1.0 0.0993977936
H  H36  1  0.12680000  0.80090000  0.10040000  1.0 0.0993977936
H  H37  1  0.86930000  0.80230000  0.00820000  1.0 0.0993977936
H  H38  1  0.63070000  0.30230000  0.99180000  1.0 0.0993977936
H  H39  1  0.13070000  0.19770000  0.99180000  1.0 0.0993977936
H  H40  1  0.36930000  0.69770000  0.00820000  1.0 0.0993977936
H  H41  1  0.84090000  0.80350000  0.15260000  1.0 0.137712249
H  H42  1  0.65910000  0.30350000  0.84740000  1.0 0.137712249
H  H43  1  0.15910000  0.19650000  0.84740000  1.0 0.137712249
H  H44  1  0.34090000  0.69650000  0.15260000  1.0 0.137712249
H  H45  1  0.70890000  0.79880000  0.83280000  1.0 0.0993977936
H  H46  1  0.79110000  0.29880000  0.16720000  1.0 0.0993977936
H  H47  1  0.29110000  0.20120000  0.16720000  1.0 0.0993977936
H  H48  1  0.20890000  0.70120000  0.83280000  1.0 0.0993977936
H  H49  1  0.72470000  0.79630000  0.68790000  1.0 0.137712249
H  H50  1  0.77530000  0.29630000  0.31210000  1.0 0.137712249
H  H51  1  0.27530000  0.20370000  0.31210000  1.0 0.137712249
H  H52  1  0.22470000  0.70370000  0.68790000  1.0 0.137712249
H  H53  1  0.95720000  0.69530000  0.75100000  1.0 0.1102694601
H  H54  1  0.54280000  0.19530000  0.24900000  1.0 0.1102694601
H  H55  1  0.04280000  0.30470000  0.24900000  1.0 0.1102694601
H  H56  1  0.45720000  0.80470000  0.75100000  1.0 0.1102694601
C  C1  1  0.68330000  0.85620000  0.50760000  1.0 0.600465084
C  C2  1  0.81670000  0.35620000  0.49240000  1.0 0.600465084
C  C3  1  0.31670000  0.14380000  0.49240000  1.0 0.600465084
C  C4  1  0.18330000  0.64380000  0.50760000  1.0 0.600465084
C  C5  1  0.70110000  0.90000000  0.53480000  1.0 0.0087204892
C  C6  1  0.79890000  0.40000000  0.46520000  1.0 0.0087204892
C  C7  1  0.29890000  0.10000000  0.46520000  1.0 0.0087204892
C  C8  1  0.20110000  0.60000000  0.53480000  1.0 0.0087204892
C  C9  1  0.76330000  0.92630000  0.48900000  1.0 -0.1636005244
C  C10  1  0.73670000  0.42630000  0.51100000  1.0 -0.1636005244
C  C11  1  0.23670000  0.07370000  0.51100000  1.0 -0.1636005244
C  C12  1  0.26330000  0.57370000  0.48900000  1.0 -0.1636005244
C  C13  1  0.77860000  0.96740000  0.51210000  1.0 -0.2276124558
C  C14  1  0.72140000  0.46740000  0.48790000  1.0 -0.2276124558
C  C15  1  0.22140000  0.03260000  0.48790000  1.0 -0.2276124558
C  C16  1  0.27860000  0.53260000  0.51210000  1.0 -0.2276124558
C  C17  1  0.73830000  0.98270000  0.58570000  1.0 -0.1210553803
C  C18  1  0.76170000  0.48270000  0.41430000  1.0 -0.1256261966
C  C19  1  0.26170000  0.01730000  0.41430000  1.0 -0.1210553803
C  C20  1  0.23830000  0.51730000  0.58570000  1.0 -0.1210553803
C  C21  1  0.67480000  0.95550000  0.63010000  1.0 0.046128565
C  C22  1  0.82520000  0.45550000  0.36990000  1.0 0.046128565
C  C23  1  0.32520000  0.04450000  0.36990000  1.0 0.046128565
C  C24  1  0.17480000  0.54450000  0.63010000  1.0 0.046128565
C  C25  1  0.65400000  0.91510000  0.60490000  1.0 -0.2682139328
C  C26  1  0.84600000  0.41510000  0.39510000  1.0 -0.2682139328
C  C27  1  0.34600000  0.08490000  0.39510000  1.0 -0.2682139328
C  C28  1  0.15400000  0.58490000  0.60490000  1.0 -0.2682139328
C  C29  1  0.75980000  0.02680000  0.60670000  1.0 -0.0289691703
C  C30  1  0.74020000  0.52680000  0.39330000  1.0 -0.0351807041
C  C31  1  0.24020000  0.97320000  0.39330000  1.0 -0.0351807041
C  C32  1  0.25980000  0.47320000  0.60670000  1.0 -0.0351807041
C  C33  1  0.88720000  0.04360000  0.64860000  1.0 -0.1210553803
C  C34  1  0.61280000  0.54360000  0.35140000  1.0 -0.1210553803
C  C35  1  0.11280000  0.95640000  0.35140000  1.0 -0.1210553803
C  C36  1  0.38720000  0.45640000  0.64860000  1.0 -0.1210553803
C  C37  1  0.91120000  0.08500000  0.65730000  1.0 -0.1672740518
C  C38  1  0.58880000  0.58500000  0.34270000  1.0 -0.1672740518
C  C39  1  0.08880000  0.91500000  0.34270000  1.0 -0.1672740518
C  C40  1  0.41120000  0.41500000  0.65730000  1.0 -0.1672740518
C  C41  1  0.80290000  0.11130000  0.62210000  1.0 0.0087204892
C  C42  1  0.69710000  0.61130000  0.37790000  1.0 0.016057278
C  C43  1  0.19710000  0.88870000  0.37790000  1.0 0.016057278
C  C44  1  0.30290000  0.38870000  0.62210000  1.0 0.016057278
C  C45  1  0.67570000  0.09530000  0.57900000  1.0 -0.1210553803
C  C46  1  0.82430000  0.59530000  0.42100000  1.0 -0.1210553803
C  C47  1  0.32430000  0.90470000  0.42100000  1.0 -0.1210553803
C  C48  1  0.17570000  0.40470000  0.57900000  1.0 -0.1210553803
C  C49  1  0.65520000  0.05390000  0.57090000  1.0 -0.190987959
C  C50  1  0.84480000  0.55390000  0.42910000  1.0 -0.190987959
C  C51  1  0.34480000  0.94610000  0.42910000  1.0 -0.190987959
C  C52  1  0.15520000  0.44610000  0.57090000  1.0 -0.190987959
C  C53  1  0.82470000  0.15670000  0.62680000  1.0 0.5689192662
C  C54  1  0.67530000  0.65670000  0.37320000  1.0 0.5689192662
C  C55  1  0.17530000  0.84330000  0.37320000  1.0 0.5689192662
C  C56  1  0.32470000  0.34330000  0.62680000  1.0 0.5689192662
C  C57  1  0.70410000  0.75214000  0.23170000  1.0 0.5879780152
C  C58  1  0.79590000  0.25214000  0.76830000  1.0 0.5879780152
C  C59  1  0.29590000  0.24786000  0.76830000  1.0 0.5879780152
C  C60  1  0.20410000  0.74786000  0.23170000  1.0 0.5879780152
C  C61  1  0.73190000  0.75170000  0.14120000  1.0 -0.0104141903
C  C62  1  0.76810000  0.25170000  0.85880000  1.0 -0.0104141903
C  C63  1  0.26810000  0.24830000  0.85880000  1.0 -0.0104141903
C  C64  1  0.23190000  0.74830000  0.14120000  1.0 -0.0104141903
C  C65  1  0.67830000  0.71940000  0.08310000  1.0 -0.190987959
C  C66  1  0.82170000  0.21940000  0.91690000  1.0 -0.190987959
C  C67  1  0.32170000  0.28060000  0.91690000  1.0 -0.1956432065
C  C68  1  0.17830000  0.78060000  0.08310000  1.0 -0.190987959
C  C69  1  0.70310000  0.71810000  0.99970000  1.0 -0.1672740518
C  C70  1  0.79690000  0.21810000  0.00030000  1.0 -0.1636005244
C  C71  1  0.29690000  0.28190000  0.00030000  1.0 -0.1672740518
C  C72  1  0.20310000  0.78190000  0.99970000  1.0 -0.1672740518
C  C73  1  0.78060000  0.74790000  0.96940000  1.0 -0.0289691703
C  C74  1  0.71940000  0.24790000  0.03060000  1.0 -0.0289691703
C  C75  1  0.21940000  0.25210000  0.03060000  1.0 -0.0289691703
C  C76  1  0.28060000  0.75210000  0.96940000  1.0 -0.0289691703
C  C77  1  0.82500000  0.78070000  0.02730000  1.0 -0.190987959
C  C78  1  0.67500000  0.28070000  0.97270000  1.0 -0.190987959
C  C79  1  0.17500000  0.21930000  0.97270000  1.0 -0.190987959
C  C80  1  0.32500000  0.71930000  0.02730000  1.0 -0.190987959
C  C81  1  0.80490000  0.78200000  0.11360000  1.0 -0.1210553803
C  C82  1  0.69510000  0.28200000  0.88640000  1.0 -0.1210553803
C  C83  1  0.19510000  0.21800000  0.88640000  1.0 -0.1210553803
C  C84  1  0.30490000  0.71800000  0.11360000  1.0 -0.1210553803
C  C85  1  0.80930000  0.74650000  0.87930000  1.0 -0.0104141903
C  C86  1  0.69070000  0.24650000  0.12070000  1.0 -0.0104141903
C  C87  1  0.19070000  0.25350000  0.12070000  1.0 -0.0104141903
C  C88  1  0.30930000  0.75350000  0.87930000  1.0 -0.0104141903
C  C89  1  0.75470000  0.77700000  0.81550000  1.0 -0.1636005244
C  C90  1  0.74530000  0.27700000  0.18450000  1.0 -0.1636005244
C  C91  1  0.24530000  0.22300000  0.18450000  1.0 -0.1636005244
C  C92  1  0.25470000  0.72300000  0.81550000  1.0 -0.1672740518
C  C93  1  0.76610000  0.77610000  0.72910000  1.0 -0.1210553803
C  C94  1  0.73390000  0.27610000  0.27090000  1.0 -0.1210553803
C  C95  1  0.23390000  0.22390000  0.27090000  1.0 -0.1210553803
C  C96  1  0.26610000  0.72390000  0.72910000  1.0 -0.1210553803
C  C97  1  0.83970000  0.74490000  0.70240000  1.0 0.016057278
C  C98  1  0.66030000  0.24490000  0.29760000  1.0 0.016057278
C  C99  1  0.16030000  0.25510000  0.29760000  1.0 0.016057278
C  C100  1  0.33970000  0.75510000  0.70240000  1.0 0.016057278
C  C101  1  0.90410000  0.71560000  0.76660000  1.0 -0.190987959
C  C102  1  0.59590000  0.21560000  0.23340000  1.0 -0.190987959
C  C103  1  0.09590000  0.28440000  0.23340000  1.0 -0.190987959
C  C104  1  0.40410000  0.78440000  0.76660000  1.0 -0.190987959
C  C105  1  0.88880000  0.71690000  0.85320000  1.0 -0.141641037
C  C106  1  0.61120000  0.21690000  0.14680000  1.0 -0.141641037
C  C107  1  0.11120000  0.28310000  0.14680000  1.0 -0.141641037
C  C108  1  0.38880000  0.78310000  0.85320000  1.0 -0.141641037
C  C109  1  0.85070000  0.74199000  0.60650000  1.0 0.5879780152
C  C110  1  0.64930000  0.24199000  0.39350000  1.0 0.5879780152
C  C111  1  0.14930000  0.25801000  0.39350000  1.0 0.5879780152
C  C112  1  0.35070000  0.75801000  0.60650000  1.0 0.5879780152
N  N1  1  0.58890000  0.97130000  0.68580000  1.0 0.2446630845
N  N2  1  0.91110000  0.47130000  0.31420000  1.0 0.2503816584
N  N3  1  0.41110000  0.02870000  0.31420000  1.0 0.2503816584
N  N4  1  0.08890000  0.52870000  0.68580000  1.0 0.2554722378
N  N5  1  0.63910000  0.68430000  0.93900000  1.0 0.4439297641
N  N6  1  0.86090000  0.18430000  0.06100000  1.0 0.4439297641
N  N7  1  0.36090000  0.31570000  0.06100000  1.0 0.4439297641
N  N8  1  0.13910000  0.81570000  0.93900000  1.0 0.4439297641
N  N9  1  0.96400000  0.68520000  0.91650000  1.0 0.4280556613
N  N10  1  0.53600000  0.18520000  0.08350000  1.0 0.4280556613
N  N11  1  0.03600000  0.31480000  0.08350000  1.0 0.4280556613
N  N12  1  0.46400000  0.81480000  0.91650000  1.0 0.4280556613
N  N13  1  0.01080000  0.01700000  0.68860000  1.0 0.4206142896
N  N14  1  0.48920000  0.51700000  0.31140000  1.0 0.4206142896
N  N15  1  0.98920000  0.98300000  0.31140000  1.0 0.4206142896
N  N16  1  0.51080000  0.48300000  0.68860000  1.0 0.4206142896
N  N17  1  0.65600000  0.96600000  0.72070000  1.0 0.2898868421
N  N18  1  0.84400000  0.46600000  0.27930000  1.0 0.2898868421
N  N19  1  0.34400000  0.03400000  0.27930000  1.0 0.2898868421
N  N20  1  0.15600000  0.53400000  0.72070000  1.0 0.2898868421
O  O1  1  0.57630000  0.78195000  0.38280000  1.0 -0.8070832393
O  O2  1  0.92370000  0.28195000  0.61720000  1.0 -0.8070832393
O  O3  1  0.42370000  0.21805000  0.61720000  1.0 -0.8070832393
O  O4  1  0.07630000  0.71805000  0.38280000  1.0 -0.8070832393
O  O5  1  0.76650000  0.84200000  0.46810000  1.0 -0.5579300126
O  O6  1  0.73350000  0.34200000  0.53190000  1.0 -0.5579300126
O  O7  1  0.23350000  0.15800000  0.53190000  1.0 -0.5579300126
O  O8  1  0.26650000  0.65800000  0.46810000  1.0 -0.5579300126
O  O9  1  0.58660000  0.83738000  0.52850000  1.0 -0.5472913807
O  O10  1  0.91340000  0.33738000  0.47150000  1.0 -0.5472913807
O  O11  1  0.41340000  0.16262000  0.47150000  1.0 -0.5472913807
O  O12  1  0.08660000  0.66262000  0.52850000  1.0 -0.5472913807
O  O13  1  0.78950000  0.77174000  0.29510000  1.0 -0.5916702053
O  O14  1  0.71050000  0.27174000  0.70490000  1.0 -0.5916702053
O  O15  1  0.21050000  0.22826000  0.70490000  1.0 -0.5916702053
O  O16  1  0.28950000  0.72826000  0.29510000  1.0 -0.5916702053
O  O17  1  0.60130000  0.73303000  0.23810000  1.0 -0.4994452795
O  O18  1  0.89870000  0.23303000  0.76190000  1.0 -0.4994452795
O  O19  1  0.39870000  0.26697000  0.76190000  1.0 -0.4994452795
O  O20  1  0.10130000  0.76697000  0.23810000  1.0 -0.4994452795
O  O21  1  0.47330000  0.72480000  0.45630000  1.0 -0.796613589
O  O22  1  0.02670000  0.22480000  0.54370000  1.0 -0.7949888459
O  O23  1  0.52670000  0.27520000  0.54370000  1.0 -0.796613589
O  O24  1  0.97330000  0.77520000  0.45630000  1.0 -0.796613589
O  O25  1  0.54310000  0.66550000  0.95340000  1.0 -0.0212461202
O  O26  1  0.95690000  0.16550000  0.04660000  1.0 -0.0212461202
O  O27  1  0.45690000  0.33450000  0.04660000  1.0 -0.0212461202
O  O28  1  0.04310000  0.83450000  0.95340000  1.0 -0.0212461202
O  O29  1  0.70880000  0.66310000  0.90320000  1.0 -0.1025693039
O  O30  1  0.79120000  0.16310000  0.09680000  1.0 -0.1025693039
O  O31  1  0.29120000  0.33690000  0.09680000  1.0 -0.1025693039
O  O32  1  0.20880000  0.83690000  0.90320000  1.0 -0.1025693039
O  O33  1  0.99910000  0.69550000  0.99660000  1.0 -0.0615006643
O  O34  1  0.50090000  0.19550000  0.00340000  1.0 -0.0615006643
O  O35  1  0.00090000  0.30450000  0.00340000  1.0 -0.0615006643
O  O36  1  0.49910000  0.80450000  0.99660000  1.0 -0.0615006643
O  O37  1  0.99530000  0.65430000  0.88260000  1.0 -0.0212461202
O  O38  1  0.50470000  0.15430000  0.11740000  1.0 -0.0212461202
O  O39  1  0.00470000  0.34570000  0.11740000  1.0 -0.0212461202
O  O40  1  0.49530000  0.84570000  0.88260000  1.0 -0.0212461202
O  O41  1  0.61300000  0.00360000  0.72580000  1.0 -0.0212461202
O  O42  1  0.88700000  0.50360000  0.27420000  1.0 -0.0289691703
O  O43  1  0.38700000  0.99640000  0.27420000  1.0 -0.0212461202
O  O44  1  0.11300000  0.49640000  0.72580000  1.0 -0.0212461202
O  O45  1  0.52500000  0.94910000  0.72300000  1.0 -0.0657155006
O  O46  1  0.97500000  0.44910000  0.27700000  1.0 -0.0657155006
O  O47  1  0.47500000  0.05090000  0.27700000  1.0 -0.0657155006
O  O48  1  0.02500000  0.55090000  0.72300000  1.0 -0.0657155006
O  O49  1  0.99200000  0.98160000  0.70590000  1.0 -0.0033630163
O  O50  1  0.50800000  0.48160000  0.29410000  1.0 0.0006408263
O  O51  1  0.00800000  0.01840000  0.29410000  1.0 0.0006408263
O  O52  1  0.49200000  0.51840000  0.70590000  1.0 -0.0104141903
O  O53  1  0.12840000  0.03030000  0.70590000  1.0 0.016057278
O  O54  1  0.37160000  0.53030000  0.29410000  1.0 0.016057278
O  O55  1  0.87160000  0.96970000  0.29410000  1.0 0.016057278
O  O56  1  0.62840000  0.46970000  0.70590000  1.0 0.0087204892
O  O57  1  0.95220000  0.72134000  0.59880000  1.0 -0.5185661069
O  O58  1  0.54780000  0.22134000  0.40120000  1.0 -0.5185661069
O  O59  1  0.04780000  0.27866000  0.40120000  1.0 -0.5185661069
O  O60  1  0.45220000  0.77866000  0.59880000  1.0 -0.5185661069
O  O61  1  0.76540000  0.76021000  0.54600000  1.0 -0.5802238187
O  O62  1  0.73460000  0.26021000  0.45400000  1.0 -0.5802238187
O  O63  1  0.23460000  0.23979000  0.45400000  1.0 -0.5802238187
O  O64  1  0.26540000  0.73979000  0.54600000  1.0 -0.5802238187
O  O65  1  0.72980000  0.18022000  0.59870000  1.0 -0.5472913807
O  O66  1  0.77020000  0.68022000  0.40130000  1.0 -0.5472913807
O  O67  1  0.27020000  0.81978000  0.40130000  1.0 -0.5472913807
O  O68  1  0.22980000  0.31978000  0.59870000  1.0 -0.5472913807
O  O69  1  0.95270000  0.16749000  0.66300000  1.0 -0.541396772
O  O70  1  0.54730000  0.66749000  0.33700000  1.0 -0.541396772
O  O71  1  0.04730000  0.83251000  0.33700000  1.0 -0.541396772
O  O72  1  0.45270000  0.33251000  0.66300000  1.0 -0.541396772
O  O73  1  0.60710000  0.65410000  0.97460000  1.0 0.137712249
O  O74  1  0.89290000  0.15410000  0.02540000  1.0 0.1306301305
O  O75  1  0.39290000  0.34590000  0.02540000  1.0 0.137712249
O  O76  1  0.10710000  0.84590000  0.97460000  1.0 0.1489083567
O  O77  1  0.60050000  0.69290000  0.85770000  1.0 -0.1841182163
O  O78  1  0.89950000  0.19290000  0.14230000  1.0 -0.190987959
O  O79  1  0.39950000  0.30710000  0.14230000  1.0 -0.1841182163
O  O80  1  0.10050000  0.80710000  0.85770000  1.0 -0.1841182163
O  O81  1  0.96230000  0.68570000  0.99560000  1.0 -0.0289691703
O  O82  1  0.53770000  0.18570000  0.00440000  1.0 -0.0289691703
O  O83  1  0.03770000  0.31430000  0.00440000  1.0 -0.0289691703
O  O84  1  0.46230000  0.81430000  0.99560000  1.0 -0.0289691703
O  O85  1  0.04750000  0.66360000  0.89420000  1.0 -0.0212461202
O  O86  1  0.45250000  0.16360000  0.10580000  1.0 -0.0212461202
O  O87  1  0.95250000  0.33640000  0.10580000  1.0 -0.0212461202
O  O88  1  0.54750000  0.83640000  0.89420000  1.0 -0.0212461202
O  O89  1  0.70400000  0.99740000  0.75910000  1.0 0.0087204892
O  O90  1  0.79600000  0.49740000  0.24090000  1.0 0.0006408263
O  O91  1  0.29600000  0.00260000  0.24090000  1.0 -0.0033630163
O  O92  1  0.20400000  0.50260000  0.75910000  1.0 0.0006408263
O  O93  1  0.63400000  0.94130000  0.77420000  1.0 -0.0289691703
O  O94  1  0.86600000  0.44130000  0.22580000  1.0 -0.0289691703
O  O95  1  0.36600000  0.05870000  0.22580000  1.0 -0.0351807041
O  O96  1  0.13400000  0.55870000  0.77420000  1.0 -0.0289691703
O  O97  1  0.97900000  0.99040000  0.73510000  1.0 -0.0212461202
O  O98  1  0.52100000  0.49040000  0.26490000  1.0 -0.0212461202
O  O99  1  0.02100000  0.00960000  0.26490000  1.0 -0.0212461202
O  O100  1  0.47900000  0.50960000  0.73510000  1.0 -0.0212461202
O  O101  1  0.10910000  0.02660000  0.66130000  1.0 -0.0503642629
O  O102  1  0.39090000  0.52660000  0.33870000  1.0 -0.0503642629
O  O103  1  0.89090000  0.97340000  0.33870000  1.0 -0.0503642629
O  O104  1  0.60910000  0.47340000  0.66130000  1.0 -0.0503642629
