# DDEC6 charges by PACMAN v1.1 (https://github.com/mtap-research/PACMAN-charge/)
data_FORHAY_ASR_pacman
_symmetry_space_group_name_H-M   'P 1'
_cell_length_a   14.87330000
_cell_length_b   14.87330000
_cell_length_c   14.87330000
_cell_angle_alpha   103.00800000
_cell_angle_beta   103.00800000
_cell_angle_gamma   123.35400000
_symmetry_Int_Tables_number   1
_chemical_formula_structural   Mn3H2(CN2)10
_chemical_formula_sum   'Mn12 H8 C40 N80'
_cell_volume   2419.28859187
_cell_formula_units_Z   4
loop_
 _symmetry_equiv_pos_site_id
 _symmetry_equiv_pos_as_xyz
  1  'x, y, z'
loop_
 _atom_site_type_symbol
 _atom_site_label
 _atom_site_symmetry_multiplicity
 _atom_site_fract_x
 _atom_site_fract_y
 _atom_site_fract_z
 _atom_site_occupancy
 _atom_site_charge
Mn  Mn1  1  0.42867000  0.92867000  0.85734000  1.0 0.610946261
Mn  Mn2  1  0.07133000  0.57133000  0.14266000  1.0 0.610946261
Mn  Mn3  1  0.17867000  0.82133000  0.00000000  1.0 0.610946261
Mn  Mn4  1  0.82133000  0.17867000  0.00000000  1.0 0.610946261
Mn  Mn5  1  0.82133000  0.82133000  0.64266000  1.0 0.610946261
Mn  Mn6  1  0.17867000  0.17867000  0.35734000  1.0 0.610946261
Mn  Mn7  1  0.07133000  0.92867000  0.50000000  1.0 0.610946261
Mn  Mn8  1  0.42867000  0.57133000  0.50000000  1.0 0.610946261
Mn  Mn9  1  0.62500000  0.37500000  0.25000000  1.0 0.6996554143
Mn  Mn10  1  0.12500000  0.37500000  0.75000000  1.0 0.6996554143
Mn  Mn11  1  0.62500000  0.87500000  0.25000000  1.0 0.6996554143
Mn  Mn12  1  0.62500000  0.37500000  0.75000000  1.0 0.6996554143
H  H1  1  0.08365000  0.90329000  0.18036000  1.0 0.0971193991
H  H2  1  0.72293000  0.90329000  0.81964000  1.0 0.0971193991
H  H3  1  0.15329000  0.47293000  0.31964000  1.0 0.0971193991
H  H4  1  0.15329000  0.83365000  0.68036000  1.0 0.0971193991
H  H5  1  0.16635000  0.84671000  0.31964000  1.0 0.0971193991
H  H6  1  0.52707000  0.84671000  0.68036000  1.0 0.0971193991
H  H7  1  0.09671000  0.91635000  0.81964000  1.0 0.0971193991
H  H8  1  0.09671000  0.27707000  0.18036000  1.0 0.0971193991
C  C1  1  0.30314000  0.07469000  0.15399000  1.0 0.0387639969
C  C2  1  0.37532000  0.09231000  0.09763000  1.0 0.2340479025
C  C3  1  0.92070000  0.14915000  0.84601000  1.0 0.0387639969
C  C4  1  0.99468000  0.27769000  0.90237000  1.0 0.2340479025
C  C5  1  0.32469000  0.67070000  0.27155000  1.0 0.0387639969
C  C6  1  0.34231000  0.74468000  0.21699000  1.0 0.2340479025
C  C7  1  0.39915000  0.05314000  0.72845000  1.0 0.0387639969
C  C8  1  0.52769000  0.12532000  0.78301000  1.0 0.2340479025
C  C9  1  0.94686000  0.60085000  0.27155000  1.0 0.0387639969
C  C10  1  0.87468000  0.47231000  0.21699000  1.0 0.2340479025
C  C11  1  0.32930000  0.67531000  0.72845000  1.0 0.0387639969
C  C12  1  0.25532000  0.65769000  0.78301000  1.0 0.2340479025
C  C13  1  0.92531000  0.69686000  0.84601000  1.0 0.0387639969
C  C14  1  0.90769000  0.62468000  0.90237000  1.0 0.2340479025
C  C15  1  0.85085000  0.07930000  0.15399000  1.0 0.0387639969
C  C16  1  0.72231000  0.00532000  0.09763000  1.0 0.2340479025
C  C17  1  0.94686000  0.67531000  0.34601000  1.0 0.0387639969
C  C18  1  0.87468000  0.65769000  0.40237000  1.0 0.2340479025
C  C19  1  0.32930000  0.60085000  0.65399000  1.0 0.0387639969
C  C20  1  0.25532000  0.47231000  0.59763000  1.0 0.2340479025
C  C21  1  0.92531000  0.07930000  0.22845000  1.0 0.0387639969
C  C22  1  0.90769000  0.00532000  0.28301000  1.0 0.2340479025
C  C23  1  0.85085000  0.69686000  0.77155000  1.0 0.0387639969
C  C24  1  0.72231000  0.62468000  0.71699000  1.0 0.2340479025
C  C25  1  0.30314000  0.14915000  0.22845000  1.0 0.0387639969
C  C26  1  0.37532000  0.27769000  0.28301000  1.0 0.2340479025
C  C27  1  0.92070000  0.07469000  0.77155000  1.0 0.0387639969
C  C28  1  0.99468000  0.09231000  0.71699000  1.0 0.2340479025
C  C29  1  0.32469000  0.05314000  0.65399000  1.0 0.0387639969
C  C30  1  0.34231000  0.12532000  0.59763000  1.0 0.2340479025
C  C31  1  0.39915000  0.67070000  0.34601000  1.0 0.0387639969
C  C32  1  0.52769000  0.74468000  0.40237000  1.0 0.2340479025
C  C33  1  0.15250000  0.96910000  0.18340000  1.0 0.1596808738
C  C34  1  0.78570000  0.96910000  0.81660000  1.0 0.1596808738
C  C35  1  0.21910000  0.53570000  0.31660000  1.0 0.1596808738
C  C36  1  0.21910000  0.90250000  0.68340000  1.0 0.1596808738
C  C37  1  0.09750000  0.78090000  0.31660000  1.0 0.1596808738
C  C38  1  0.46430000  0.78090000  0.68340000  1.0 0.1596808738
C  C39  1  0.03090000  0.84750000  0.81660000  1.0 0.1596808738
C  C40  1  0.03090000  0.21430000  0.18340000  1.0 0.1596808738
N  N1  1  0.20592000  0.95917000  0.12483000  1.0 -0.3137239025
N  N2  1  0.47408000  0.19249000  0.10815000  1.0 -0.237226124
N  N3  1  0.49982000  0.15754000  0.03274000  1.0 -0.0654030103
N  N4  1  0.42171000  0.04218000  0.98213000  1.0 -0.0343166417
N  N5  1  0.34089000  0.99751000  0.02020000  1.0 -0.231104184
N  N6  1  0.83434000  0.08109000  0.87517000  1.0 -0.3137239025
N  N7  1  0.08434000  0.36593000  0.89185000  1.0 -0.237226124
N  N8  1  0.12480000  0.46708000  0.96726000  1.0 -0.0654030103
N  N9  1  0.06005000  0.43958000  0.01787000  1.0 -0.0343166417
N  N10  1  0.97731000  0.32069000  0.97980000  1.0 -0.231104184
N  N11  1  0.20917000  0.58434000  0.25325000  1.0 -0.3137239025
N  N12  1  0.44249000  0.83434000  0.21841000  1.0 -0.237226124
N  N13  1  0.40754000  0.87480000  0.15772000  1.0 -0.0654030103
N  N14  1  0.29218000  0.81005000  0.12047000  1.0 -0.0343166417
N  N15  1  0.24751000  0.72731000  0.15662000  1.0 -0.231104184
N  N16  1  0.33109000  0.95592000  0.74675000  1.0 -0.3137239025
N  N17  1  0.61593000  0.22408000  0.78159000  1.0 -0.231104184
N  N18  1  0.71708000  0.24982000  0.84228000  1.0 -0.0654030103
N  N19  1  0.68958000  0.17171000  0.87953000  1.0 -0.0343166417
N  N20  1  0.57069000  0.09089000  0.84338000  1.0 -0.231104184
N  N21  1  0.04408000  0.66891000  0.25325000  1.0 -0.3137239025
N  N22  1  0.77592000  0.38407000  0.21841000  1.0 -0.237226124
N  N23  1  0.75018000  0.28292000  0.15772000  1.0 -0.0647200153
N  N24  1  0.82829000  0.31042000  0.12047000  1.0 -0.0343166417
N  N25  1  0.90911000  0.42931000  0.15662000  1.0 -0.231104184
N  N26  1  0.41566000  0.79083000  0.74675000  1.0 -0.3137239025
N  N27  1  0.16566000  0.55751000  0.78159000  1.0 -0.237226124
N  N28  1  0.12520000  0.59246000  0.84228000  1.0 -0.0654030103
N  N29  1  0.18995000  0.70782000  0.87953000  1.0 -0.0352547315
N  N30  1  0.27269000  0.75249000  0.84338000  1.0 -0.231104184
N  N31  1  0.04083000  0.79408000  0.87517000  1.0 -0.3137239025
N  N32  1  0.80751000  0.52592000  0.89185000  1.0 -0.237226124
N  N33  1  0.84246000  0.50018000  0.96726000  1.0 -0.0654030103
N  N34  1  0.95782000  0.57829000  0.01787000  1.0 -0.0343166417
N  N35  1  0.00249000  0.65911000  0.97980000  1.0 -0.231104184
N  N36  1  0.91891000  0.16566000  0.12483000  1.0 -0.3137239025
N  N37  1  0.63407000  0.91566000  0.10815000  1.0 -0.237226124
N  N38  1  0.53292000  0.87520000  0.03274000  1.0 -0.0654030103
N  N39  1  0.56042000  0.93995000  0.98213000  1.0 -0.0352547315
N  N40  1  0.67931000  0.02269000  0.02020000  1.0 -0.231104184
N  N41  1  0.04408000  0.79083000  0.37517000  1.0 -0.3137239025
N  N42  1  0.77592000  0.55751000  0.39185000  1.0 -0.237226124
N  N43  1  0.75018000  0.59246000  0.46726000  1.0 -0.0654030103
N  N44  1  0.82829000  0.70782000  0.51787000  1.0 -0.0352547315
N  N45  1  0.90911000  0.75249000  0.47980000  1.0 -0.231104184
N  N46  1  0.41566000  0.66891000  0.62483000  1.0 -0.3137239025
N  N47  1  0.16566000  0.38407000  0.60815000  1.0 -0.237226124
N  N48  1  0.12520000  0.28292000  0.53274000  1.0 -0.0654030103
N  N49  1  0.18995000  0.31042000  0.48213000  1.0 -0.0343166417
N  N50  1  0.27269000  0.42931000  0.52020000  1.0 -0.231104184
N  N51  1  0.04083000  0.16566000  0.24675000  1.0 -0.3137239025
N  N52  1  0.80751000  0.91566000  0.28159000  1.0 -0.237226124
N  N53  1  0.84246000  0.87520000  0.34228000  1.0 -0.0647200153
N  N54  1  0.95782000  0.93995000  0.37953000  1.0 -0.0352547315
N  N55  1  0.00249000  0.02269000  0.34338000  1.0 -0.231104184
N  N56  1  0.91891000  0.79408000  0.75325000  1.0 -0.3137239025
N  N57  1  0.63407000  0.52592000  0.71841000  1.0 -0.237226124
N  N58  1  0.53292000  0.50018000  0.65772000  1.0 -0.0654030103
N  N59  1  0.56042000  0.57829000  0.62047000  1.0 -0.0343166417
N  N60  1  0.67931000  0.65911000  0.65662000  1.0 -0.231104184
N  N61  1  0.20592000  0.08109000  0.24675000  1.0 -0.3137239025
N  N62  1  0.47408000  0.36593000  0.28159000  1.0 -0.237226124
N  N63  1  0.49982000  0.46708000  0.34228000  1.0 -0.0654030103
N  N64  1  0.42171000  0.43958000  0.37953000  1.0 -0.0343166417
N  N65  1  0.34089000  0.32069000  0.34338000  1.0 -0.231104184
N  N66  1  0.83434000  0.95917000  0.75325000  1.0 -0.3137239025
N  N67  1  0.08434000  0.19249000  0.71841000  1.0 -0.237226124
N  N68  1  0.12480000  0.15754000  0.65772000  1.0 -0.0654030103
N  N69  1  0.06005000  0.04218000  0.62047000  1.0 -0.0343166417
N  N70  1  0.97731000  0.99751000  0.65662000  1.0 -0.231104184
N  N71  1  0.20917000  0.95592000  0.62483000  1.0 -0.3137239025
N  N72  1  0.44249000  0.22408000  0.60815000  1.0 -0.237226124
N  N73  1  0.40754000  0.24982000  0.53274000  1.0 -0.0654030103
N  N74  1  0.29218000  0.17171000  0.48213000  1.0 -0.0343166417
N  N75  1  0.24751000  0.09089000  0.52020000  1.0 -0.231104184
N  N76  1  0.33109000  0.58434000  0.37517000  1.0 -0.3137239025
N  N77  1  0.61593000  0.83434000  0.39185000  1.0 -0.237226124
N  N78  1  0.71708000  0.87480000  0.46726000  1.0 -0.0654030103
N  N79  1  0.68958000  0.81005000  0.51787000  1.0 -0.0352547315
N  N80  1  0.57069000  0.72731000  0.47980000  1.0 -0.231104184
