# DDEC6 charges by PACMAN v1.1 (https://github.com/mtap-research/PACMAN-charge/)
data_FORWAL_ASR_pacman
_symmetry_space_group_name_H-M   'P 1'
_cell_length_a   15.60190000
_cell_length_b   15.60190000
_cell_length_c   15.60190000
_cell_angle_alpha   90.00000000
_cell_angle_beta   90.00000000
_cell_angle_gamma   90.00000000
_symmetry_Int_Tables_number   1
_chemical_formula_structural   NaFeH33(C7O6)3
_chemical_formula_sum   'Na4 Fe4 H132 C84 O72'
_cell_volume   3797.80332095
_cell_formula_units_Z   4
loop_
 _symmetry_equiv_pos_site_id
 _symmetry_equiv_pos_as_xyz
  1  'x, y, z'
loop_
 _atom_site_type_symbol
 _atom_site_label
 _atom_site_symmetry_multiplicity
 _atom_site_fract_x
 _atom_site_fract_y
 _atom_site_fract_z
 _atom_site_occupancy
 _atom_site_charge
Na  Na1  1  0.30217000  0.19783000  0.80217000  1.0 0.8165643337
Na  Na2  1  0.19783000  0.80217000  0.30217000  1.0 0.8165643337
Na  Na3  1  0.69783000  0.69783000  0.69783000  1.0 0.8165643337
Na  Na4  1  0.80217000  0.30217000  0.19783000  1.0 0.8165643337
Fe  Fe1  1  0.39758000  0.60242000  0.10242000  1.0 0.8863096856
Fe  Fe2  1  0.10242000  0.39758000  0.60242000  1.0 0.8863096856
Fe  Fe3  1  0.60242000  0.10242000  0.39758000  1.0 0.8863096856
Fe  Fe4  1  0.89758000  0.89758000  0.89758000  1.0 0.8959027948
H  H1  1  0.21210000  0.38650000  0.02640000  1.0 0.1387828114
H  H2  1  0.28790000  0.61350000  0.52640000  1.0 0.1387828114
H  H3  1  0.78790000  0.88650000  0.47360000  1.0 0.1387828114
H  H4  1  0.71210000  0.11350000  0.97360000  1.0 0.1387828114
H  H5  1  0.02640000  0.21210000  0.38650000  1.0 0.1387828114
H  H6  1  0.52640000  0.28790000  0.61350000  1.0 0.1387828114
H  H7  1  0.47360000  0.78790000  0.88650000  1.0 0.1387828114
H  H8  1  0.97360000  0.71210000  0.11350000  1.0 0.1387828114
H  H9  1  0.38650000  0.02640000  0.21210000  1.0 0.1387828114
H  H10  1  0.61350000  0.52640000  0.28790000  1.0 0.1387828114
H  H11  1  0.88650000  0.47360000  0.78790000  1.0 0.1387828114
H  H12  1  0.11350000  0.97360000  0.71210000  1.0 0.1387828114
H  H13  1  0.30260000  0.39140000  0.06980000  1.0 0.1299046307
H  H14  1  0.19740000  0.60860000  0.56980000  1.0 0.1299046307
H  H15  1  0.69740000  0.89140000  0.43020000  1.0 0.1299046307
H  H16  1  0.80260000  0.10860000  0.93020000  1.0 0.1299046307
H  H17  1  0.06980000  0.30260000  0.39140000  1.0 0.1299046307
H  H18  1  0.56980000  0.19740000  0.60860000  1.0 0.1299046307
H  H19  1  0.43020000  0.69740000  0.89140000  1.0 0.1299046307
H  H20  1  0.93020000  0.80260000  0.10860000  1.0 0.1299046307
H  H21  1  0.39140000  0.06980000  0.30260000  1.0 0.1299046307
H  H22  1  0.60860000  0.56980000  0.19740000  1.0 0.1299046307
H  H23  1  0.89140000  0.43020000  0.69740000  1.0 0.1299046307
H  H24  1  0.10860000  0.93020000  0.80260000  1.0 0.1299046307
H  H25  1  0.37090000  0.38040000  0.93640000  1.0 0.0874014444
H  H26  1  0.12910000  0.61960000  0.43640000  1.0 0.0874014444
H  H27  1  0.62910000  0.88040000  0.56360000  1.0 0.0874014444
H  H28  1  0.87090000  0.11960000  0.06360000  1.0 0.0874014444
H  H29  1  0.93640000  0.37090000  0.38040000  1.0 0.0874014444
H  H30  1  0.43640000  0.12910000  0.61960000  1.0 0.0874014444
H  H31  1  0.56360000  0.62910000  0.88040000  1.0 0.0874014444
H  H32  1  0.06360000  0.87090000  0.11960000  1.0 0.0874014444
H  H33  1  0.38040000  0.93640000  0.37090000  1.0 0.0874014444
H  H34  1  0.61960000  0.43640000  0.12910000  1.0 0.0874014444
H  H35  1  0.88040000  0.56360000  0.62910000  1.0 0.0874014444
H  H36  1  0.11960000  0.06360000  0.87090000  1.0 0.0874014444
H  H37  1  0.20470000  0.37220000  0.86260000  1.0 0.0959084388
H  H38  1  0.29530000  0.62780000  0.36260000  1.0 0.0959084388
H  H39  1  0.79530000  0.87220000  0.63740000  1.0 0.0959084388
H  H40  1  0.70470000  0.12780000  0.13740000  1.0 0.0959084388
H  H41  1  0.86260000  0.20470000  0.37220000  1.0 0.0959084388
H  H42  1  0.36260000  0.29530000  0.62780000  1.0 0.0959084388
H  H43  1  0.63740000  0.79530000  0.87220000  1.0 0.0959084388
H  H44  1  0.13740000  0.70470000  0.12780000  1.0 0.0959084388
H  H45  1  0.37220000  0.86260000  0.20470000  1.0 0.0959084388
H  H46  1  0.62780000  0.36260000  0.29530000  1.0 0.0959084388
H  H47  1  0.87220000  0.63740000  0.79530000  1.0 0.0959084388
H  H48  1  0.12780000  0.13740000  0.70470000  1.0 0.0959084388
H  H49  1  0.22930000  0.50580000  0.80000000  1.0 0.0959084388
H  H50  1  0.27070000  0.49420000  0.30000000  1.0 0.0959084388
H  H51  1  0.77070000  0.00580000  0.70000000  1.0 0.0959084388
H  H52  1  0.72930000  0.99420000  0.20000000  1.0 0.0959084388
H  H53  1  0.80000000  0.22930000  0.50580000  1.0 0.0959084388
H  H54  1  0.30000000  0.27070000  0.49420000  1.0 0.0959084388
H  H55  1  0.70000000  0.77070000  0.00580000  1.0 0.0959084388
H  H56  1  0.20000000  0.72930000  0.99420000  1.0 0.0959084388
H  H57  1  0.50580000  0.80000000  0.22930000  1.0 0.0959084388
H  H58  1  0.49420000  0.30000000  0.27070000  1.0 0.0959084388
H  H59  1  0.00580000  0.70000000  0.77070000  1.0 0.0959084388
H  H60  1  0.99420000  0.20000000  0.72930000  1.0 0.0959084388
H  H61  1  0.16040000  0.51150000  0.93380000  1.0 0.1470443809
H  H62  1  0.33960000  0.48850000  0.43380000  1.0 0.1470443809
H  H63  1  0.83960000  0.01150000  0.56620000  1.0 0.1470443809
H  H64  1  0.66040000  0.98850000  0.06620000  1.0 0.1470443809
H  H65  1  0.93380000  0.16040000  0.51150000  1.0 0.1470443809
H  H66  1  0.43380000  0.33960000  0.48850000  1.0 0.1470443809
H  H67  1  0.56620000  0.83960000  0.01150000  1.0 0.1470443809
H  H68  1  0.06620000  0.66040000  0.98850000  1.0 0.1470443809
H  H69  1  0.51150000  0.93380000  0.16040000  1.0 0.1470443809
H  H70  1  0.48850000  0.43380000  0.33960000  1.0 0.1470443809
H  H71  1  0.01150000  0.56620000  0.83960000  1.0 0.1470443809
H  H72  1  0.98850000  0.06620000  0.66040000  1.0 0.1470443809
H  H73  1  0.21940000  0.59270000  0.92500000  1.0 0.1299046307
H  H74  1  0.28060000  0.40730000  0.42500000  1.0 0.1299046307
H  H75  1  0.78060000  0.09270000  0.57500000  1.0 0.1299046307
H  H76  1  0.71940000  0.90730000  0.07500000  1.0 0.1299046307
H  H77  1  0.92500000  0.21940000  0.59270000  1.0 0.1299046307
H  H78  1  0.42500000  0.28060000  0.40730000  1.0 0.1299046307
H  H79  1  0.57500000  0.78060000  0.09270000  1.0 0.1299046307
H  H80  1  0.07500000  0.71940000  0.90730000  1.0 0.1299046307
H  H81  1  0.59270000  0.92500000  0.21940000  1.0 0.1299046307
H  H82  1  0.40730000  0.42500000  0.28060000  1.0 0.1299046307
H  H83  1  0.09270000  0.57500000  0.78060000  1.0 0.1299046307
H  H84  1  0.90730000  0.07500000  0.71940000  1.0 0.1299046307
H  H85  1  0.36850000  0.54000000  0.95770000  1.0 0.2513272834
H  H86  1  0.13150000  0.46000000  0.45770000  1.0 0.2513272834
H  H87  1  0.63150000  0.04000000  0.54230000  1.0 0.2513272834
H  H88  1  0.86850000  0.96000000  0.04230000  1.0 0.2513272834
H  H89  1  0.95770000  0.36850000  0.54000000  1.0 0.2513272834
H  H90  1  0.45770000  0.13150000  0.46000000  1.0 0.2513272834
H  H91  1  0.54230000  0.63150000  0.04000000  1.0 0.2513272834
H  H92  1  0.04230000  0.86850000  0.96000000  1.0 0.2513272834
H  H93  1  0.54000000  0.95770000  0.36850000  1.0 0.2513272834
H  H94  1  0.46000000  0.45770000  0.13150000  1.0 0.2513272834
H  H95  1  0.04000000  0.54230000  0.63150000  1.0 0.2513272834
H  H96  1  0.96000000  0.04230000  0.86850000  1.0 0.2513272834
H  H97  1  0.32090000  0.25530000  0.99070000  1.0 0.3594613122
H  H98  1  0.17910000  0.74470000  0.49070000  1.0 0.3594613122
H  H99  1  0.67910000  0.75530000  0.50930000  1.0 0.3594613122
H  H100  1  0.82090000  0.24470000  0.00930000  1.0 0.3594613122
H  H101  1  0.99070000  0.32090000  0.25530000  1.0 0.3594613122
H  H102  1  0.49070000  0.17910000  0.74470000  1.0 0.3594613122
H  H103  1  0.50930000  0.67910000  0.75530000  1.0 0.3594613122
H  H104  1  0.00930000  0.82090000  0.24470000  1.0 0.3594613122
H  H105  1  0.25530000  0.99070000  0.32090000  1.0 0.3594613122
H  H106  1  0.74470000  0.49070000  0.17910000  1.0 0.3594613122
H  H107  1  0.75530000  0.50930000  0.67910000  1.0 0.3594613122
H  H108  1  0.24470000  0.00930000  0.82090000  1.0 0.3594613122
H  H109  1  0.28440000  0.37090000  0.74350000  1.0 0.3549293401
H  H110  1  0.21560000  0.62910000  0.24350000  1.0 0.3549293401
H  H111  1  0.71560000  0.87090000  0.75650000  1.0 0.3549293401
H  H112  1  0.78440000  0.12910000  0.25650000  1.0 0.3549293401
H  H113  1  0.74350000  0.28440000  0.37090000  1.0 0.3549293401
H  H114  1  0.24350000  0.21560000  0.62910000  1.0 0.3549293401
H  H115  1  0.75650000  0.71560000  0.87090000  1.0 0.3549293401
H  H116  1  0.25650000  0.78440000  0.12910000  1.0 0.3549293401
H  H117  1  0.37090000  0.74350000  0.28440000  1.0 0.3549293401
H  H118  1  0.62910000  0.24350000  0.21560000  1.0 0.3549293401
H  H119  1  0.87090000  0.75650000  0.71560000  1.0 0.3549293401
H  H120  1  0.12910000  0.25650000  0.78440000  1.0 0.3549293401
H  H121  1  0.36890000  0.53430000  0.88820000  1.0 0.2329919535
H  H122  1  0.13110000  0.46570000  0.38820000  1.0 0.2329919535
H  H123  1  0.63110000  0.03430000  0.61180000  1.0 0.2329919535
H  H124  1  0.86890000  0.96570000  0.11180000  1.0 0.2329919535
H  H125  1  0.88820000  0.36890000  0.53430000  1.0 0.2329919535
H  H126  1  0.38820000  0.13110000  0.46570000  1.0 0.2329919535
H  H127  1  0.61180000  0.63110000  0.03430000  1.0 0.2329919535
H  H128  1  0.11180000  0.86890000  0.96570000  1.0 0.2329919535
H  H129  1  0.53430000  0.88820000  0.36890000  1.0 0.2329919535
H  H130  1  0.46570000  0.38820000  0.13110000  1.0 0.2329919535
H  H131  1  0.03430000  0.61180000  0.63110000  1.0 0.2329919535
H  H132  1  0.96570000  0.11180000  0.86890000  1.0 0.2329919535
C  C1  1  0.26870000  0.50370000  0.01150000  1.0 0.2245490027
C  C2  1  0.23130000  0.49630000  0.51150000  1.0 0.2245490027
C  C3  1  0.73130000  0.00370000  0.48850000  1.0 0.2245490027
C  C4  1  0.76870000  0.99630000  0.98850000  1.0 0.2245490027
C  C5  1  0.01150000  0.26870000  0.50370000  1.0 0.2245490027
C  C6  1  0.51150000  0.23130000  0.49630000  1.0 0.2245490027
C  C7  1  0.48850000  0.73130000  0.00370000  1.0 0.2245490027
C  C8  1  0.98850000  0.76870000  0.99630000  1.0 0.2245490027
C  C9  1  0.50370000  0.01150000  0.26870000  1.0 0.2245490027
C  C10  1  0.49630000  0.51150000  0.23130000  1.0 0.2245490027
C  C11  1  0.00370000  0.48850000  0.73130000  1.0 0.2245490027
C  C12  1  0.99630000  0.98850000  0.76870000  1.0 0.2245490027
C  C13  1  0.27030000  0.40730000  0.01920000  1.0 -0.3667121147
C  C14  1  0.22970000  0.59270000  0.51920000  1.0 -0.3667121147
C  C15  1  0.72970000  0.90730000  0.48080000  1.0 -0.3667121147
C  C16  1  0.77030000  0.09270000  0.98080000  1.0 -0.3667121147
C  C17  1  0.01920000  0.27030000  0.40730000  1.0 -0.3667121147
C  C18  1  0.51920000  0.22970000  0.59270000  1.0 -0.3667121147
C  C19  1  0.48080000  0.72970000  0.90730000  1.0 -0.3667121147
C  C20  1  0.98080000  0.77030000  0.09270000  1.0 -0.3667121147
C  C21  1  0.40730000  0.01920000  0.27030000  1.0 -0.3667121147
C  C22  1  0.59270000  0.51920000  0.22970000  1.0 -0.3667121147
C  C23  1  0.90730000  0.48080000  0.72970000  1.0 -0.3667121147
C  C24  1  0.09270000  0.98080000  0.77030000  1.0 -0.3667121147
C  C25  1  0.31040000  0.36400000  0.94050000  1.0 0.1620121024
C  C26  1  0.18960000  0.63600000  0.44050000  1.0 0.1620121024
C  C27  1  0.68960000  0.86400000  0.55950000  1.0 0.1620121024
C  C28  1  0.81040000  0.13600000  0.05950000  1.0 0.1620121024
C  C29  1  0.94050000  0.31040000  0.36400000  1.0 0.1620121024
C  C30  1  0.44050000  0.18960000  0.63600000  1.0 0.1620121024
C  C31  1  0.55950000  0.68960000  0.86400000  1.0 0.1620121024
C  C32  1  0.05950000  0.81040000  0.13600000  1.0 0.1620121024
C  C33  1  0.36400000  0.94050000  0.31040000  1.0 0.1620121024
C  C34  1  0.63600000  0.44050000  0.18960000  1.0 0.1620121024
C  C35  1  0.86400000  0.55950000  0.68960000  1.0 0.1620121024
C  C36  1  0.13600000  0.05950000  0.81040000  1.0 0.1620121024
C  C37  1  0.26390000  0.39290000  0.86010000  1.0 0.0568403537
C  C38  1  0.23610000  0.60710000  0.36010000  1.0 0.0568403537
C  C39  1  0.73610000  0.89290000  0.63990000  1.0 0.0568403537
C  C40  1  0.76390000  0.10710000  0.13990000  1.0 0.0568403537
C  C41  1  0.86010000  0.26390000  0.39290000  1.0 0.0568403537
C  C42  1  0.36010000  0.23610000  0.60710000  1.0 0.0568403537
C  C43  1  0.63990000  0.73610000  0.89290000  1.0 0.0568403537
C  C44  1  0.13990000  0.76390000  0.10710000  1.0 0.0568403537
C  C45  1  0.39290000  0.86010000  0.26390000  1.0 0.0568403537
C  C46  1  0.60710000  0.36010000  0.23610000  1.0 0.0568403537
C  C47  1  0.89290000  0.63990000  0.73610000  1.0 0.0568403537
C  C48  1  0.10710000  0.13990000  0.76390000  1.0 0.0568403537
C  C49  1  0.26260000  0.49070000  0.85110000  1.0 0.1470443809
C  C50  1  0.23740000  0.50930000  0.35110000  1.0 0.1470443809
C  C51  1  0.73740000  0.99070000  0.64890000  1.0 0.1470443809
C  C52  1  0.76260000  0.00930000  0.14890000  1.0 0.1470443809
C  C53  1  0.85110000  0.26260000  0.49070000  1.0 0.1470443809
C  C54  1  0.35110000  0.23740000  0.50930000  1.0 0.1470443809
C  C55  1  0.64890000  0.73740000  0.99070000  1.0 0.1470443809
C  C56  1  0.14890000  0.76260000  0.00930000  1.0 0.1470443809
C  C57  1  0.49070000  0.85110000  0.26260000  1.0 0.1470443809
C  C58  1  0.50930000  0.35110000  0.23740000  1.0 0.1470443809
C  C59  1  0.99070000  0.64890000  0.73740000  1.0 0.1470443809
C  C60  1  0.00930000  0.14890000  0.76260000  1.0 0.1470443809
C  C61  1  0.21940000  0.53070000  0.93010000  1.0 -0.3667121147
C  C62  1  0.28060000  0.46930000  0.43010000  1.0 -0.3667121147
C  C63  1  0.78060000  0.03070000  0.56990000  1.0 -0.3667121147
C  C64  1  0.71940000  0.96930000  0.06990000  1.0 -0.3667121147
C  C65  1  0.93010000  0.21940000  0.53070000  1.0 -0.3667121147
C  C66  1  0.43010000  0.28060000  0.46930000  1.0 -0.3667121147
C  C67  1  0.56990000  0.78060000  0.03070000  1.0 -0.3667121147
C  C68  1  0.06990000  0.71940000  0.96930000  1.0 -0.3667121147
C  C69  1  0.53070000  0.93010000  0.21940000  1.0 -0.3667121147
C  C70  1  0.46930000  0.43010000  0.28060000  1.0 -0.3667121147
C  C71  1  0.03070000  0.56990000  0.78060000  1.0 -0.3667121147
C  C72  1  0.96930000  0.06990000  0.71940000  1.0 -0.3667121147
C  C73  1  0.22350000  0.54060000  0.09220000  1.0 0.5258298538
C  C74  1  0.27650000  0.45940000  0.59220000  1.0 0.5258298538
C  C75  1  0.77650000  0.04060000  0.40780000  1.0 0.5258298538
C  C76  1  0.72350000  0.95940000  0.90780000  1.0 0.5258298538
C  C77  1  0.09220000  0.22350000  0.54060000  1.0 0.5258298538
C  C78  1  0.59220000  0.27650000  0.45940000  1.0 0.5258298538
C  C79  1  0.40780000  0.77650000  0.04060000  1.0 0.5258298538
C  C80  1  0.90780000  0.72350000  0.95940000  1.0 0.5258298538
C  C81  1  0.54060000  0.09220000  0.22350000  1.0 0.5258298538
C  C82  1  0.45940000  0.59220000  0.27650000  1.0 0.5258298538
C  C83  1  0.04060000  0.40780000  0.77650000  1.0 0.5258298538
C  C84  1  0.95940000  0.90780000  0.72350000  1.0 0.5258298538
O  O1  1  0.35270000  0.53760000  0.00780000  1.0 -0.4928749628
O  O2  1  0.14730000  0.46240000  0.50780000  1.0 -0.4928749628
O  O3  1  0.64730000  0.03760000  0.49220000  1.0 -0.4928749628
O  O4  1  0.85270000  0.96240000  0.99220000  1.0 -0.4952945935
O  O5  1  0.00780000  0.35270000  0.53760000  1.0 -0.4928749628
O  O6  1  0.50780000  0.14730000  0.46240000  1.0 -0.4928749628
O  O7  1  0.49220000  0.64730000  0.03760000  1.0 -0.4952945935
O  O8  1  0.99220000  0.85270000  0.96240000  1.0 -0.4952945935
O  O9  1  0.53760000  0.00780000  0.35270000  1.0 -0.4928749628
O  O10  1  0.46240000  0.50780000  0.14730000  1.0 -0.4928749628
O  O11  1  0.03760000  0.49220000  0.64730000  1.0 -0.4952945935
O  O12  1  0.96240000  0.99220000  0.85270000  1.0 -0.4952945935
O  O13  1  0.27160000  0.58400000  0.14190000  1.0 -0.5321165649
O  O14  1  0.22840000  0.41600000  0.64190000  1.0 -0.5321165649
O  O15  1  0.72840000  0.08400000  0.35810000  1.0 -0.5321165649
O  O16  1  0.77160000  0.91600000  0.85810000  1.0 -0.5321165649
O  O17  1  0.14190000  0.27160000  0.58400000  1.0 -0.5321165649
O  O18  1  0.64190000  0.22840000  0.41600000  1.0 -0.5321165649
O  O19  1  0.35810000  0.72840000  0.08400000  1.0 -0.5321165649
O  O20  1  0.85810000  0.77160000  0.91600000  1.0 -0.5321165649
O  O21  1  0.58400000  0.14190000  0.27160000  1.0 -0.5321165649
O  O22  1  0.41600000  0.64190000  0.22840000  1.0 -0.5321165649
O  O23  1  0.08400000  0.35810000  0.72840000  1.0 -0.5321165649
O  O24  1  0.91600000  0.85810000  0.77160000  1.0 -0.5321165649
O  O25  1  0.14650000  0.52680000  0.10400000  1.0 -0.4928749628
O  O26  1  0.35350000  0.47320000  0.60400000  1.0 -0.4928749628
O  O27  1  0.85350000  0.02680000  0.39600000  1.0 -0.4928749628
O  O28  1  0.64650000  0.97320000  0.89600000  1.0 -0.4928749628
O  O29  1  0.10400000  0.14650000  0.52680000  1.0 -0.4928749628
O  O30  1  0.60400000  0.35350000  0.47320000  1.0 -0.4928749628
O  O31  1  0.39600000  0.85350000  0.02680000  1.0 -0.4928749628
O  O32  1  0.89600000  0.64650000  0.97320000  1.0 -0.4928749628
O  O33  1  0.52680000  0.10400000  0.14650000  1.0 -0.4928749628
O  O34  1  0.47320000  0.60400000  0.35350000  1.0 -0.4928749628
O  O35  1  0.02680000  0.39600000  0.85350000  1.0 -0.4928749628
O  O36  1  0.97320000  0.89600000  0.64650000  1.0 -0.4928749628
O  O37  1  0.30400000  0.27230000  0.94390000  1.0 -0.5220234074
O  O38  1  0.19600000  0.72770000  0.44390000  1.0 -0.5220234074
O  O39  1  0.69600000  0.77230000  0.55610000  1.0 -0.5220234074
O  O40  1  0.80400000  0.22770000  0.05610000  1.0 -0.5220234074
O  O41  1  0.94390000  0.30400000  0.27230000  1.0 -0.5220234074
O  O42  1  0.44390000  0.19600000  0.72770000  1.0 -0.5220234074
O  O43  1  0.55610000  0.69600000  0.77230000  1.0 -0.5220234074
O  O44  1  0.05610000  0.80400000  0.22770000  1.0 -0.5220234074
O  O45  1  0.27230000  0.94390000  0.30400000  1.0 -0.5220234074
O  O46  1  0.72770000  0.44390000  0.19600000  1.0 -0.5220234074
O  O47  1  0.77230000  0.55610000  0.69600000  1.0 -0.5220234074
O  O48  1  0.22770000  0.05610000  0.80400000  1.0 -0.5220234074
O  O49  1  0.30590000  0.35340000  0.78810000  1.0 -0.4928749628
O  O50  1  0.19410000  0.64660000  0.28810000  1.0 -0.4928749628
O  O51  1  0.69410000  0.85340000  0.71190000  1.0 -0.4928749628
O  O52  1  0.80590000  0.14660000  0.21190000  1.0 -0.4928749628
O  O53  1  0.78810000  0.30590000  0.35340000  1.0 -0.4928749628
O  O54  1  0.28810000  0.19410000  0.64660000  1.0 -0.4928749628
O  O55  1  0.71190000  0.69410000  0.85340000  1.0 -0.4928749628
O  O56  1  0.21190000  0.80590000  0.14660000  1.0 -0.4928749628
O  O57  1  0.35340000  0.78810000  0.30590000  1.0 -0.4928749628
O  O58  1  0.64660000  0.28810000  0.19410000  1.0 -0.4928749628
O  O59  1  0.85340000  0.71190000  0.69410000  1.0 -0.4928749628
O  O60  1  0.14660000  0.21190000  0.80590000  1.0 -0.4952945935
O  O61  1  0.34880000  0.52310000  0.84100000  1.0 -0.4408655517
O  O62  1  0.15120000  0.47690000  0.34100000  1.0 -0.4408655517
O  O63  1  0.65120000  0.02310000  0.65900000  1.0 -0.4408655517
O  O64  1  0.84880000  0.97690000  0.15900000  1.0 -0.4408655517
O  O65  1  0.84100000  0.34880000  0.52310000  1.0 -0.4408655517
O  O66  1  0.34100000  0.15120000  0.47690000  1.0 -0.4408655517
O  O67  1  0.65900000  0.65120000  0.02310000  1.0 -0.4408655517
O  O68  1  0.15900000  0.84880000  0.97690000  1.0 -0.4408655517
O  O69  1  0.52310000  0.84100000  0.34880000  1.0 -0.4408655517
O  O70  1  0.47690000  0.34100000  0.15120000  1.0 -0.4408655517
O  O71  1  0.02310000  0.65900000  0.65120000  1.0 -0.4408655517
O  O72  1  0.97690000  0.15900000  0.84880000  1.0 -0.4408655517
