# DDEC6 charges by PACMAN v1.1 (https://github.com/mtap-research/PACMAN-charge/)
data_FOXBOM_ASR_pacman
_symmetry_space_group_name_H-M   'P 1'
_cell_length_a   20.22330000
_cell_length_b   20.22330000
_cell_length_c   20.22330000
_cell_angle_alpha   127.42100000
_cell_angle_beta   127.42100000
_cell_angle_gamma   77.56570000
_symmetry_Int_Tables_number   1
_chemical_formula_structural   Zr4H14C19O9
_chemical_formula_sum   'Zr16 H56 C76 O36'
_cell_volume   5059.07670137
_cell_formula_units_Z   4
loop_
 _symmetry_equiv_pos_site_id
 _symmetry_equiv_pos_as_xyz
  1  'x, y, z'
loop_
 _atom_site_type_symbol
 _atom_site_label
 _atom_site_symmetry_multiplicity
 _atom_site_fract_x
 _atom_site_fract_y
 _atom_site_fract_z
 _atom_site_occupancy
 _atom_site_charge
Zr  Zr1  1  0.04560000  0.13800000  0.18360000  1.0 2.0397748949
Zr  Zr2  1  0.10000000  0.50000000  0.60000000  1.0 -0.3121092786
Zr  Zr3  1  0.00000000  0.40000000  0.40000000  1.0 0.0997928644
Zr  Zr4  1  0.95440000  0.86200000  0.81640000  1.0 2.0341353418
Zr  Zr5  1  0.90000000  0.50000000  0.40000000  1.0 -0.3121092786
Zr  Zr6  1  0.00000000  0.60000000  0.60000000  1.0 0.0997928644
Zr  Zr7  1  0.13800000  0.95440000  0.09240000  1.0 2.0397748949
Zr  Zr8  1  0.50000000  0.90000000  0.40000000  1.0 -0.3168303815
Zr  Zr9  1  0.40000000  0.00000000  0.40000000  1.0 0.1196709341
Zr  Zr10  1  0.86200000  0.04560000  0.90760000  1.0 2.0397748949
Zr  Zr11  1  0.50000000  0.10000000  0.60000000  1.0 -0.3168303815
Zr  Zr12  1  0.60000000  0.00000000  0.60000000  1.0 0.1196709341
Zr  Zr13  1  0.07770000  0.07770000  0.00000000  1.0 2.0907987358
Zr  Zr14  1  0.92230000  0.92230000  0.00000000  1.0 2.0907987358
Zr  Zr15  1  0.00000000  0.50000000  0.50000000  1.0 -0.1986139117
Zr  Zr16  1  0.50000000  0.00000000  0.50000000  1.0 -0.1986139117
H  H1  1  0.21006000  0.64635000  0.31961000  1.0 0.1196709341
H  H2  1  0.12509000  0.64958000  0.30821000  1.0 0.1196709341
H  H3  1  0.13307000  0.67338000  0.45087000  1.0 0.1196709341
H  H4  1  0.20712000  0.35588000  0.18854000  1.0 0.1196709341
H  H5  1  0.23910000  0.50638000  0.27584000  1.0 0.1196709341
H  H6  1  0.17201000  0.56366000  0.45829000  1.0 0.1196709341
H  H7  1  0.13996000  0.41316000  0.37086000  1.0 0.1374235714
H  H8  1  0.32674000  0.89045000  0.68039000  1.0 0.1196709341
H  H9  1  0.34137000  0.81688000  0.69179000  1.0 0.1196709341
H  H10  1  0.22251000  0.68220000  0.54913000  1.0 0.1196709341
H  H11  1  0.16734000  0.01858000  0.81146000  1.0 0.1196709341
H  H12  1  0.23054000  0.96326000  0.72416000  1.0 0.1196709341
H  H13  1  0.10537000  0.71372000  0.54171000  1.0 0.1196709341
H  H14  1  0.04230000  0.76910000  0.62914000  1.0 0.1374235714
H  H15  1  0.64635000  0.32674000  0.43629000  1.0 0.1196709341
H  H16  1  0.64958000  0.34137000  0.52449000  1.0 0.1196709341
H  H17  1  0.67338000  0.22251000  0.54031000  1.0 0.1196709341
H  H18  1  0.35588000  0.16734000  0.14876000  1.0 0.1196709341
H  H19  1  0.50638000  0.23054000  0.26728000  1.0 0.1196709341
H  H20  1  0.56366000  0.10537000  0.39165000  1.0 0.1196709341
H  H21  1  0.41316000  0.04230000  0.27320000  1.0 0.1374235714
H  H22  1  0.89045000  0.21006000  0.56371000  1.0 0.1196709341
H  H23  1  0.81688000  0.12509000  0.47551000  1.0 0.1196709341
H  H24  1  0.68220000  0.13307000  0.45969000  1.0 0.1196709341
H  H25  1  0.01858000  0.20712000  0.85124000  1.0 0.1196709341
H  H26  1  0.96326000  0.23910000  0.73272000  1.0 0.1196709341
H  H27  1  0.71372000  0.17201000  0.60835000  1.0 0.1196709341
H  H28  1  0.76910000  0.13996000  0.72680000  1.0 0.1374235714
H  H29  1  0.78994000  0.35365000  0.68039000  1.0 0.1196709341
H  H30  1  0.87491000  0.35042000  0.69179000  1.0 0.1196709341
H  H31  1  0.86693000  0.32662000  0.54913000  1.0 0.1196709341
H  H32  1  0.79288000  0.64412000  0.81146000  1.0 0.1196709341
H  H33  1  0.76090000  0.49362000  0.72416000  1.0 0.1196709341
H  H34  1  0.82799000  0.43634000  0.54171000  1.0 0.1196709341
H  H35  1  0.86004000  0.58684000  0.62914000  1.0 0.1374235714
H  H36  1  0.67326000  0.10955000  0.31961000  1.0 0.1196709341
H  H37  1  0.65863000  0.18312000  0.30821000  1.0 0.1196709341
H  H38  1  0.77749000  0.31780000  0.45087000  1.0 0.1196709341
H  H39  1  0.83266000  0.98142000  0.18854000  1.0 0.1196709341
H  H40  1  0.76946000  0.03674000  0.27584000  1.0 0.1196709341
H  H41  1  0.89463000  0.28628000  0.45829000  1.0 0.1196709341
H  H42  1  0.95770000  0.23090000  0.37086000  1.0 0.1374235714
H  H43  1  0.35365000  0.67326000  0.56371000  1.0 0.1196709341
H  H44  1  0.35042000  0.65863000  0.47551000  1.0 0.1196709341
H  H45  1  0.32662000  0.77749000  0.45969000  1.0 0.1196709341
H  H46  1  0.64412000  0.83266000  0.85124000  1.0 0.1196709341
H  H47  1  0.49362000  0.76946000  0.73272000  1.0 0.1196709341
H  H48  1  0.43634000  0.89463000  0.60835000  1.0 0.1196709341
H  H49  1  0.58684000  0.95770000  0.72680000  1.0 0.1374235714
H  H50  1  0.10955000  0.78994000  0.43629000  1.0 0.1196709341
H  H51  1  0.18312000  0.87491000  0.52449000  1.0 0.1196709341
H  H52  1  0.31780000  0.86693000  0.54031000  1.0 0.1196709341
H  H53  1  0.98142000  0.79288000  0.14876000  1.0 0.1196709341
H  H54  1  0.03674000  0.76090000  0.26728000  1.0 0.1196709341
H  H55  1  0.28628000  0.82799000  0.39165000  1.0 0.1196709341
H  H56  1  0.23090000  0.86004000  0.27320000  1.0 0.1374235714
C  C1  1  0.14700000  0.27410000  0.21830000  1.0 0.6178917887
C  C2  1  0.17055000  0.37036000  0.27139000  1.0 -0.0206463525
C  C3  1  0.20007000  0.39813000  0.24336000  1.0 -0.1130394281
C  C4  1  0.21898000  0.48733000  0.29513000  1.0 -0.1717945186
C  C5  1  0.20853000  0.54907000  0.37524000  1.0 0.0216373039
C  C6  1  0.17922000  0.52153000  0.40355000  1.0 -0.1596501617
C  C7  1  0.16018000  0.43211000  0.35163000  1.0 -0.0206463525
C  C8  1  0.22901000  0.64738000  0.43303000  1.0 0.1838965604
C  C9  1  0.18711000  0.67250000  0.35855000  1.0 -0.3121092786
C  C10  1  0.05580000  0.92870000  0.78170000  1.0 0.6178917887
C  C11  1  0.09897000  0.89916000  0.72861000  1.0 -0.0206463525
C  C12  1  0.15477000  0.95671000  0.75664000  1.0 -0.1130394281
C  C13  1  0.19220000  0.92385000  0.70487000  1.0 -0.1717945186
C  C14  1  0.17383000  0.83329000  0.62476000  1.0 0.0216373039
C  C15  1  0.11798000  0.77567000  0.59645000  1.0 -0.1596501617
C  C16  1  0.08048000  0.80855000  0.64837000  1.0 -0.0206463525
C  C17  1  0.21435000  0.79598000  0.56697000  1.0 0.1838965604
C  C18  1  0.31395000  0.82856000  0.64145000  1.0 -0.3121092786
C  C19  1  0.27410000  0.05580000  0.12710000  1.0 0.6178917887
C  C20  1  0.37036000  0.09897000  0.19981000  1.0 -0.0206463525
C  C21  1  0.39813000  0.15477000  0.19806000  1.0 -0.1130394281
C  C22  1  0.48733000  0.19220000  0.26835000  1.0 -0.1717945186
C  C23  1  0.54907000  0.17383000  0.34054000  1.0 0.0216373039
C  C24  1  0.52153000  0.11798000  0.34231000  1.0 -0.1596501617
C  C25  1  0.43211000  0.08048000  0.27193000  1.0 -0.0206463525
C  C26  1  0.64738000  0.21435000  0.41837000  1.0 0.1838965604
C  C27  1  0.67250000  0.31395000  0.48539000  1.0 -0.3121092786
C  C28  1  0.92870000  0.14700000  0.87290000  1.0 0.6178917887
C  C29  1  0.89916000  0.17055000  0.80019000  1.0 -0.0206463525
C  C30  1  0.95671000  0.20007000  0.80194000  1.0 -0.1130394281
C  C31  1  0.92385000  0.21898000  0.73165000  1.0 -0.1717945186
C  C32  1  0.83329000  0.20853000  0.65946000  1.0 0.0216373039
C  C33  1  0.77567000  0.17922000  0.65769000  1.0 -0.1596501617
C  C34  1  0.80855000  0.16018000  0.72807000  1.0 -0.0206463525
C  C35  1  0.79598000  0.22901000  0.58163000  1.0 0.1838965604
C  C36  1  0.82856000  0.18711000  0.51461000  1.0 -0.3121092786
C  C37  1  0.85300000  0.72590000  0.78170000  1.0 0.6178917887
C  C38  1  0.82945000  0.62964000  0.72861000  1.0 -0.0206463525
C  C39  1  0.79993000  0.60187000  0.75664000  1.0 -0.1130394281
C  C40  1  0.78102000  0.51267000  0.70487000  1.0 -0.1717945186
C  C41  1  0.79147000  0.45093000  0.62476000  1.0 0.0216373039
C  C42  1  0.82078000  0.47847000  0.59645000  1.0 -0.1596501617
C  C43  1  0.83982000  0.56789000  0.64837000  1.0 -0.0206463525
C  C44  1  0.77099000  0.35262000  0.56697000  1.0 0.1838965604
C  C45  1  0.81289000  0.32750000  0.64145000  1.0 -0.3121092786
C  C46  1  0.94420000  0.07130000  0.21830000  1.0 0.6178917887
C  C47  1  0.90103000  0.10084000  0.27139000  1.0 -0.0206463525
C  C48  1  0.84523000  0.04329000  0.24336000  1.0 -0.1130394281
C  C49  1  0.80780000  0.07615000  0.29513000  1.0 -0.1717945186
C  C50  1  0.82617000  0.16671000  0.37524000  1.0 0.0216373039
C  C51  1  0.88202000  0.22433000  0.40355000  1.0 -0.1596501617
C  C52  1  0.91952000  0.19145000  0.35163000  1.0 -0.0206463525
C  C53  1  0.78565000  0.20402000  0.43303000  1.0 0.1838965604
C  C54  1  0.68605000  0.17144000  0.35855000  1.0 -0.3121092786
C  C55  1  0.72590000  0.94420000  0.87290000  1.0 0.6178917887
C  C56  1  0.62964000  0.90103000  0.80019000  1.0 -0.0206463525
C  C57  1  0.60187000  0.84523000  0.80194000  1.0 -0.1130394281
C  C58  1  0.51267000  0.80780000  0.73165000  1.0 -0.1717945186
C  C59  1  0.45093000  0.82617000  0.65946000  1.0 0.0216373039
C  C60  1  0.47847000  0.88202000  0.65769000  1.0 -0.1596501617
C  C61  1  0.56789000  0.91952000  0.72807000  1.0 -0.0206463525
C  C62  1  0.35262000  0.78565000  0.58163000  1.0 0.1838965604
C  C63  1  0.32750000  0.68605000  0.51461000  1.0 -0.3121092786
C  C64  1  0.07130000  0.85300000  0.12710000  1.0 0.6178917887
C  C65  1  0.10084000  0.82945000  0.19981000  1.0 -0.0206463525
C  C66  1  0.04329000  0.79993000  0.19806000  1.0 -0.1130394281
C  C67  1  0.07615000  0.78102000  0.26835000  1.0 -0.1717945186
C  C68  1  0.16671000  0.79147000  0.34054000  1.0 0.0216373039
C  C69  1  0.22433000  0.82078000  0.34231000  1.0 -0.1596501617
C  C70  1  0.19145000  0.83982000  0.27193000  1.0 -0.0206463525
C  C71  1  0.20402000  0.77099000  0.41837000  1.0 0.1838965604
C  C72  1  0.17144000  0.81289000  0.48539000  1.0 -0.3121092786
C  C73  1  0.19520000  0.69520000  0.50000000  1.0 -0.3121092786
C  C74  1  0.69520000  0.19520000  0.50000000  1.0 -0.3121092786
C  C75  1  0.80480000  0.30480000  0.50000000  1.0 -0.3121092786
C  C76  1  0.30480000  0.80480000  0.50000000  1.0 -0.3121092786
O  O1  1  0.07150000  0.95680000  0.96270000  1.0 -0.3978966137
O  O2  1  0.14410000  0.21800000  0.13530000  1.0 -0.6614915503
O  O3  1  0.12690000  0.25760000  0.25510000  1.0 -0.5624881906
O  O4  1  0.09560000  0.93640000  0.94800000  1.0 -0.2164658343
O  O5  1  0.99410000  0.10880000  0.03730000  1.0 -0.3978966137
O  O6  1  0.08270000  0.00880000  0.86470000  1.0 -0.6614915503
O  O7  1  0.00250000  0.87180000  0.74490000  1.0 -0.5624881906
O  O8  1  0.98840000  0.14760000  0.05200000  1.0 -0.2137896416
O  O9  1  0.95680000  0.99410000  0.88530000  1.0 -0.3978966137
O  O10  1  0.21800000  0.08270000  0.07390000  1.0 -0.6614915503
O  O11  1  0.25760000  0.00250000  0.13070000  1.0 -0.5624881906
O  O12  1  0.93640000  0.98840000  0.84080000  1.0 -0.2137896416
O  O13  1  0.10880000  0.07150000  0.11470000  1.0 -0.3978966137
O  O14  1  0.00880000  0.14410000  0.92610000  1.0 -0.6614915503
O  O15  1  0.87180000  0.12690000  0.86930000  1.0 -0.5624881906
O  O16  1  0.14760000  0.09560000  0.15920000  1.0 -0.2164658343
O  O17  1  0.92850000  0.04320000  0.03730000  1.0 -0.3978966137
O  O18  1  0.85590000  0.78200000  0.86470000  1.0 -0.6614915503
O  O19  1  0.87310000  0.74240000  0.74490000  1.0 -0.5624881906
O  O20  1  0.90440000  0.06360000  0.05200000  1.0 -0.2137896416
O  O21  1  0.00590000  0.89120000  0.96270000  1.0 -0.3978966137
O  O22  1  0.91730000  0.99120000  0.13530000  1.0 -0.6614915503
O  O23  1  0.99750000  0.12820000  0.25510000  1.0 -0.5624881906
O  O24  1  0.01160000  0.85240000  0.94800000  1.0 -0.2164658343
O  O25  1  0.04320000  0.00590000  0.11470000  1.0 -0.3978966137
O  O26  1  0.78200000  0.91730000  0.92610000  1.0 -0.6614915503
O  O27  1  0.74240000  0.99750000  0.86930000  1.0 -0.5624881906
O  O28  1  0.06360000  0.01160000  0.15920000  1.0 -0.2164658343
O  O29  1  0.89120000  0.92850000  0.88530000  1.0 -0.3978966137
O  O30  1  0.99120000  0.85590000  0.07390000  1.0 -0.6614915503
O  O31  1  0.12820000  0.87310000  0.13070000  1.0 -0.5624881906
O  O32  1  0.85240000  0.90440000  0.84080000  1.0 -0.2137896416
O  O33  1  0.98210000  0.24960000  0.23170000  1.0 -0.5672102569
O  O34  1  0.01790000  0.75040000  0.76830000  1.0 -0.5517025787
O  O35  1  0.24960000  0.01790000  0.26750000  1.0 -0.5517025787
O  O36  1  0.75040000  0.98210000  0.73250000  1.0 -0.5517025787
