# DDEC6 charges by PACMAN v1.1 (https://github.com/mtap-research/PACMAN-charge/)
data_FUDHAP_ASR_pacman
_symmetry_space_group_name_H-M   'P 1'
_cell_length_a   10.11700000
_cell_length_b   16.76700000
_cell_length_c   22.41500000
_cell_angle_alpha   90.00000000
_cell_angle_beta   90.00000000
_cell_angle_gamma   90.00000000
_symmetry_Int_Tables_number   1
_chemical_formula_structural   Co2H6C16O9
_chemical_formula_sum   'Co8 H24 C64 O36'
_cell_volume   3802.29542969
_cell_formula_units_Z   4
loop_
 _symmetry_equiv_pos_site_id
 _symmetry_equiv_pos_as_xyz
  1  'x, y, z'
loop_
 _atom_site_type_symbol
 _atom_site_label
 _atom_site_symmetry_multiplicity
 _atom_site_fract_x
 _atom_site_fract_y
 _atom_site_fract_z
 _atom_site_occupancy
 _atom_site_charge
Co  Co1  1  0.98150000  0.88472000  0.63937000  1.0 0.9740883263
Co  Co2  1  0.51850000  0.11528000  0.13937000  1.0 0.9740883263
Co  Co3  1  0.01850000  0.38472000  0.86063000  1.0 0.9740883263
Co  Co4  1  0.48150000  0.61528000  0.36063000  1.0 0.9740883263
Co  Co5  1  0.76740000  0.83612000  0.75616000  1.0 1.0294839593
Co  Co6  1  0.73260000  0.16388000  0.25616000  1.0 1.0294839593
Co  Co7  1  0.23260000  0.33612000  0.74384000  1.0 1.0294839593
Co  Co8  1  0.26740000  0.66388000  0.24384000  1.0 1.0294839593
H  H1  1  0.97200000  0.92290000  0.85020000  1.0 0.1415278441
H  H2  1  0.52800000  0.07710000  0.35020000  1.0 0.1415278441
H  H3  1  0.02800000  0.42290000  0.64980000  1.0 0.1415278441
H  H4  1  0.47200000  0.57710000  0.14980000  1.0 0.1415278441
H  H5  1  0.06780000  0.10860000  0.75150000  1.0 0.1304484943
H  H6  1  0.43220000  0.89140000  0.25150000  1.0 0.1304484943
H  H7  1  0.93220000  0.60860000  0.74850000  1.0 0.1304484943
H  H8  1  0.56780000  0.39140000  0.24850000  1.0 0.1304484943
H  H9  1  0.04620000  0.12940000  0.92900000  1.0 0.1415278441
H  H10  1  0.45380000  0.87060000  0.42900000  1.0 0.1415278441
H  H11  1  0.95380000  0.62940000  0.57100000  1.0 0.1415278441
H  H12  1  0.54620000  0.37060000  0.07100000  1.0 0.1415278441
H  H13  1  0.82370000  0.02760000  0.02330000  1.0 0.1486340427
H  H14  1  0.67630000  0.97240000  0.52330000  1.0 0.1486340427
H  H15  1  0.17630000  0.52760000  0.47670000  1.0 0.1486340427
H  H16  1  0.32370000  0.47240000  0.97670000  1.0 0.1486340427
H  H17  1  0.05440000  0.11920000  0.14980000  1.0 0.1304484943
H  H18  1  0.44560000  0.88080000  0.64980000  1.0 0.1304484943
H  H19  1  0.94560000  0.61920000  0.35020000  1.0 0.1304484943
H  H20  1  0.55440000  0.38080000  0.85020000  1.0 0.1304484943
H  H21  1  0.21870000  0.02430000  0.00410000  1.0 0.1415278441
H  H22  1  0.28130000  0.97570000  0.50410000  1.0 0.1415278441
H  H23  1  0.78130000  0.52430000  0.49590000  1.0 0.1415278441
H  H24  1  0.71870000  0.47570000  0.99590000  1.0 0.1415278441
C  C1  1  0.01500000  0.01880000  0.89820000  1.0 0.218518913
C  C2  1  0.48500000  0.98120000  0.39820000  1.0 0.218518913
C  C3  1  0.98500000  0.51880000  0.60180000  1.0 0.218518913
C  C4  1  0.51500000  0.48120000  0.10180000  1.0 0.218518913
C  C5  1  0.99700000  0.97610000  0.84710000  1.0 -0.187346579
C  C6  1  0.50300000  0.02390000  0.34710000  1.0 -0.187346579
C  C7  1  0.00300000  0.47610000  0.65290000  1.0 -0.187346579
C  C8  1  0.49700000  0.52390000  0.15290000  1.0 -0.187346579
C  C9  1  0.01350000  0.00740000  0.79320000  1.0 -0.0100134136
C  C10  1  0.48650000  0.99260000  0.29320000  1.0 -0.0100134136
C  C11  1  0.98650000  0.50740000  0.70680000  1.0 -0.0100134136
C  C12  1  0.51350000  0.49260000  0.20680000  1.0 -0.0100134136
C  C13  1  0.05170000  0.08650000  0.78880000  1.0 -0.1018128599
C  C14  1  0.44830000  0.91350000  0.28880000  1.0 -0.1018128599
C  C15  1  0.94830000  0.58650000  0.71120000  1.0 -0.1018128599
C  C16  1  0.55170000  0.41350000  0.21120000  1.0 -0.1018128599
C  C17  1  0.06630000  0.13320000  0.84000000  1.0 0.00245863
C  C18  1  0.43370000  0.86680000  0.34000000  1.0 0.00245863
C  C19  1  0.93370000  0.63320000  0.66000000  1.0 0.00245863
C  C20  1  0.56630000  0.36680000  0.16000000  1.0 0.00245863
C  C21  1  0.04300000  0.09860000  0.89460000  1.0 -0.2215643822
C  C22  1  0.45700000  0.90140000  0.39460000  1.0 -0.2215643822
C  C23  1  0.95700000  0.59860000  0.60540000  1.0 -0.2215643822
C  C24  1  0.54300000  0.40140000  0.10540000  1.0 -0.2215643822
C  C25  1  0.01700000  0.01920000  0.00280000  1.0 0.236514037
C  C26  1  0.48300000  0.98080000  0.50280000  1.0 0.236514037
C  C27  1  0.98300000  0.51920000  0.49720000  1.0 0.2348296793
C  C28  1  0.51700000  0.48080000  0.99720000  1.0 0.236514037
C  C29  1  0.90770000  0.03880000  0.03790000  1.0 -0.1795112837
C  C30  1  0.59230000  0.96120000  0.53790000  1.0 -0.1795112837
C  C31  1  0.09230000  0.53880000  0.46210000  1.0 -0.1795112837
C  C32  1  0.40770000  0.46120000  0.96210000  1.0 -0.1795112837
C  C33  1  0.91820000  0.07280000  0.09130000  1.0 -0.0100134136
C  C34  1  0.58180000  0.92720000  0.59130000  1.0 -0.0100134136
C  C35  1  0.08180000  0.57280000  0.40870000  1.0 -0.0100134136
C  C36  1  0.41820000  0.42720000  0.90870000  1.0 -0.0100134136
C  C37  1  0.04500000  0.09410000  0.11300000  1.0 -0.1018128599
C  C38  1  0.45500000  0.90590000  0.61300000  1.0 -0.1018128599
C  C39  1  0.95500000  0.59410000  0.38700000  1.0 -0.1018128599
C  C40  1  0.54500000  0.40590000  0.88700000  1.0 -0.1018128599
C  C41  1  0.15660000  0.07610000  0.07770000  1.0 0.0080213054
C  C42  1  0.34340000  0.92390000  0.57770000  1.0 0.0080213054
C  C43  1  0.84340000  0.57610000  0.42230000  1.0 0.0080213054
C  C44  1  0.65660000  0.42390000  0.92230000  1.0 0.0080213054
C  C45  1  0.14360000  0.03830000  0.02570000  1.0 -0.1795112837
C  C46  1  0.35640000  0.96170000  0.52570000  1.0 -0.187346579
C  C47  1  0.85640000  0.53830000  0.47430000  1.0 -0.187346579
C  C48  1  0.64360000  0.46170000  0.97430000  1.0 -0.1795112837
C  C49  1  0.99020000  0.96380000  0.73590000  1.0 0.5699879975
C  C50  1  0.50980000  0.03620000  0.23590000  1.0 0.5699879975
C  C51  1  0.00980000  0.46380000  0.76410000  1.0 0.5699879975
C  C52  1  0.49020000  0.53620000  0.26410000  1.0 0.5699879975
C  C53  1  0.09260000  0.22070000  0.83230000  1.0 0.6076216699
C  C54  1  0.40740000  0.77930000  0.33230000  1.0 0.6076216699
C  C55  1  0.90740000  0.72070000  0.66770000  1.0 0.6076216699
C  C56  1  0.59260000  0.27930000  0.16770000  1.0 0.6076216699
C  C57  1  0.80150000  0.09160000  0.13150000  1.0 0.5988351555
C  C58  1  0.69850000  0.90840000  0.63150000  1.0 0.5988351555
C  C59  1  0.19850000  0.59160000  0.36850000  1.0 0.5988351555
C  C60  1  0.30150000  0.40840000  0.86850000  1.0 0.5988351555
C  C61  1  0.29290000  0.09780000  0.10170000  1.0 0.5357016476
C  C62  1  0.20710000  0.90220000  0.60170000  1.0 0.5339553706
C  C63  1  0.70710000  0.59780000  0.39830000  1.0 0.5339553706
C  C64  1  0.79290000  0.40220000  0.89830000  1.0 0.5339553706
O  O1  1  0.00130000  0.97760000  0.95080000  1.0 -0.187346579
O  O2  1  0.49870000  0.02240000  0.45080000  1.0 -0.187346579
O  O3  1  0.99870000  0.47760000  0.54920000  1.0 -0.187346579
O  O4  1  0.50130000  0.52240000  0.04920000  1.0 -0.187346579
O  O5  1  0.95030000  0.89250000  0.73680000  1.0 -0.6088152377
O  O6  1  0.54970000  0.10750000  0.23680000  1.0 -0.6088152377
O  O7  1  0.04970000  0.39250000  0.76320000  1.0 -0.6088152377
O  O8  1  0.45030000  0.60750000  0.26320000  1.0 -0.6088152377
O  O9  1  0.01550000  0.99440000  0.68730000  1.0 -0.4660984524
O  O10  1  0.48450000  0.00560000  0.18730000  1.0 -0.4660984524
O  O11  1  0.98450000  0.49440000  0.81270000  1.0 -0.4639932959
O  O12  1  0.51550000  0.50560000  0.31270000  1.0 -0.4660984524
O  O13  1  0.15650000  0.23870000  0.78630000  1.0 -0.5974962859
O  O14  1  0.34350000  0.76130000  0.28630000  1.0 -0.5974962859
O  O15  1  0.84350000  0.73870000  0.71370000  1.0 -0.5974962859
O  O16  1  0.65650000  0.26130000  0.21370000  1.0 -0.5974962859
O  O17  1  0.05000000  0.26990000  0.87110000  1.0 -0.5539046375
O  O18  1  0.45000000  0.73010000  0.37110000  1.0 -0.5578909813
O  O19  1  0.95000000  0.76990000  0.62890000  1.0 -0.5578909813
O  O20  1  0.55000000  0.23010000  0.12890000  1.0 -0.5578909813
O  O21  1  0.38980000  0.07900000  0.06920000  1.0 -0.5429438351
O  O22  1  0.11020000  0.92100000  0.56920000  1.0 -0.5429438351
O  O23  1  0.61020000  0.57900000  0.43080000  1.0 -0.5429438351
O  O24  1  0.88980000  0.42100000  0.93080000  1.0 -0.5429438351
O  O25  1  0.30470000  0.13350000  0.14910000  1.0 -0.5268945544
O  O26  1  0.19530000  0.86650000  0.64910000  1.0 -0.5268945544
O  O27  1  0.69530000  0.63350000  0.35090000  1.0 -0.5268945544
O  O28  1  0.80470000  0.36650000  0.85090000  1.0 -0.5268945544
O  O29  1  0.69100000  0.07740000  0.10400000  1.0 -0.5672433651
O  O30  1  0.80900000  0.92260000  0.60400000  1.0 -0.5672433651
O  O31  1  0.30900000  0.57740000  0.39600000  1.0 -0.5672433651
O  O32  1  0.19100000  0.42260000  0.89600000  1.0 -0.5672433651
O  O33  1  0.81800000  0.11800000  0.18110000  1.0 -0.5672433651
O  O34  1  0.68200000  0.88200000  0.68110000  1.0 -0.5672433651
O  O35  1  0.18200000  0.61800000  0.31890000  1.0 -0.5578909813
O  O36  1  0.31800000  0.38200000  0.81890000  1.0 -0.5672433651
