# DDEC6 charges by PACMAN v1.1 (https://github.com/mtap-research/PACMAN-charge/)
data_FUDHET_ASR_pacman
_symmetry_space_group_name_H-M   'P 1'
_cell_length_a   21.81800000
_cell_length_b   14.70400000
_cell_length_c   26.28200000
_cell_angle_alpha   90.00000000
_cell_angle_beta   126.84000000
_cell_angle_gamma   90.00000000
_symmetry_Int_Tables_number   1
_chemical_formula_structural   Co2H6C16O9
_chemical_formula_sum   'Co16 H48 C128 O72'
_cell_volume   6747.90099832
_cell_formula_units_Z   8
loop_
 _symmetry_equiv_pos_site_id
 _symmetry_equiv_pos_as_xyz
  1  'x, y, z'
loop_
 _atom_site_type_symbol
 _atom_site_label
 _atom_site_symmetry_multiplicity
 _atom_site_fract_x
 _atom_site_fract_y
 _atom_site_fract_z
 _atom_site_occupancy
 _atom_site_charge
Co  Co1  1  0.64748000  0.64316000  0.14220000  1.0 1.0472953315
Co  Co2  1  0.35252000  0.14316000  0.35780000  1.0 1.0472953315
Co  Co3  1  0.35252000  0.35684000  0.85780000  1.0 1.0472953315
Co  Co4  1  0.64748000  0.85684000  0.64220000  1.0 1.0472953315
Co  Co5  1  0.55930000  0.65727000  0.21735000  1.0 1.0077510173
Co  Co6  1  0.44070000  0.15727000  0.28265000  1.0 1.0077510173
Co  Co7  1  0.44070000  0.34273000  0.78265000  1.0 1.0077510173
Co  Co8  1  0.55930000  0.84273000  0.71735000  1.0 1.0077510173
Co  Co9  1  0.07371000  0.68903000  0.34084000  1.0 0.9872699673
Co  Co10  1  0.92629000  0.18903000  0.15916000  1.0 0.9872699673
Co  Co11  1  0.92629000  0.31097000  0.65916000  1.0 0.9872699673
Co  Co12  1  0.07371000  0.81097000  0.84084000  1.0 0.9872699673
Co  Co13  1  0.17963000  0.67455000  0.50822000  1.0 1.0583099718
Co  Co14  1  0.82037000  0.17455000  0.99178000  1.0 1.0583099718
Co  Co15  1  0.82037000  0.32545000  0.49178000  1.0 1.0583099718
Co  Co16  1  0.17963000  0.82545000  0.00822000  1.0 1.0583099718
H  H1  1  0.59170000  0.34950000  0.10580000  1.0 0.1403702089
H  H2  1  0.40830000  0.84950000  0.39420000  1.0 0.1403702089
H  H3  1  0.40830000  0.65050000  0.89420000  1.0 0.1403702089
H  H4  1  0.59170000  0.15050000  0.60580000  1.0 0.1403702089
H  H5  1  0.53040000  0.38870000  0.22090000  1.0 0.1403702089
H  H6  1  0.46960000  0.88870000  0.27910000  1.0 0.1403702089
H  H7  1  0.46960000  0.61130000  0.77910000  1.0 0.1403702089
H  H8  1  0.53040000  0.11130000  0.72090000  1.0 0.1403702089
H  H9  1  0.50990000  0.14160000  0.14840000  1.0 0.1497395234
H  H10  1  0.49010000  0.64160000  0.35160000  1.0 0.1497395234
H  H11  1  0.49010000  0.85840000  0.85160000  1.0 0.1497395234
H  H12  1  0.50990000  0.35840000  0.64840000  1.0 0.1497395234
H  H13  1  0.48750000  0.23430000  0.97140000  1.0 0.1403702089
H  H14  1  0.51250000  0.73430000  0.52860000  1.0 0.1403702089
H  H15  1  0.51250000  0.76570000  0.02860000  1.0 0.1403702089
H  H16  1  0.48750000  0.26570000  0.47140000  1.0 0.1403702089
H  H17  1  0.67390000  0.27480000  0.97490000  1.0 0.1275930698
H  H18  1  0.32610000  0.77480000  0.52510000  1.0 0.1275930698
H  H19  1  0.32610000  0.72520000  0.02510000  1.0 0.1275930698
H  H20  1  0.67390000  0.22520000  0.47490000  1.0 0.1275930698
H  H21  1  0.69720000  0.17130000  0.12670000  1.0 0.1497395234
H  H22  1  0.30280000  0.67130000  0.37330000  1.0 0.1497395234
H  H23  1  0.30280000  0.82870000  0.87330000  1.0 0.1497395234
H  H24  1  0.69720000  0.32870000  0.62670000  1.0 0.1497395234
H  H25  1  0.75730000  0.74540000  0.39440000  1.0 0.1497395234
H  H26  1  0.24270000  0.24540000  0.10560000  1.0 0.1497395234
H  H27  1  0.24270000  0.25460000  0.60560000  1.0 0.1497395234
H  H28  1  0.75730000  0.75460000  0.89440000  1.0 0.1497395234
H  H29  1  0.86320000  0.69330000  0.31480000  1.0 0.1403702089
H  H30  1  0.13680000  0.19330000  0.18520000  1.0 0.1403702089
H  H31  1  0.13680000  0.30670000  0.68520000  1.0 0.1403702089
H  H32  1  0.86320000  0.80670000  0.81480000  1.0 0.1403702089
H  H33  1  0.98800000  0.76840000  0.49780000  1.0 0.1497395234
H  H34  1  0.01200000  0.26840000  0.00220000  1.0 0.1497395234
H  H35  1  0.01200000  0.23160000  0.50220000  1.0 0.1497395234
H  H36  1  0.98800000  0.73160000  0.99780000  1.0 0.1497395234
H  H37  1  0.94610000  0.83250000  0.62190000  1.0 0.1497395234
H  H38  1  0.05390000  0.33250000  0.87810000  1.0 0.1497395234
H  H39  1  0.05390000  0.16750000  0.37810000  1.0 0.1497395234
H  H40  1  0.94610000  0.66750000  0.12190000  1.0 0.1497395234
H  H41  1  0.96810000  0.58170000  0.68990000  1.0 0.1403702089
H  H42  1  0.03190000  0.08170000  0.81010000  1.0 0.1403702089
H  H43  1  0.03190000  0.41830000  0.31010000  1.0 0.1403702089
H  H44  1  0.96810000  0.91830000  0.18990000  1.0 0.1403702089
H  H45  1  0.86390000  0.61890000  0.50190000  1.0 0.1403702089
H  H46  1  0.13610000  0.11890000  0.99810000  1.0 0.1403702089
H  H47  1  0.13610000  0.38110000  0.49810000  1.0 0.1403702089
H  H48  1  0.86390000  0.88110000  0.00190000  1.0 0.1403702089
C  C1  1  0.55390000  0.23370000  0.12230000  1.0 0.2485777768
C  C2  1  0.44610000  0.73370000  0.37770000  1.0 0.2485777768
C  C3  1  0.44610000  0.76630000  0.87770000  1.0 0.2485777768
C  C4  1  0.55390000  0.26630000  0.62230000  1.0 0.2485777768
C  C5  1  0.57360000  0.32650000  0.12750000  1.0 -0.232128073
C  C6  1  0.42640000  0.82650000  0.37250000  1.0 -0.232128073
C  C7  1  0.42640000  0.67350000  0.87250000  1.0 -0.232128073
C  C8  1  0.57360000  0.17350000  0.62750000  1.0 -0.232128073
C  C9  1  0.56560000  0.38240000  0.16530000  1.0 0.0127010131
C  C10  1  0.43440000  0.88240000  0.33470000  1.0 0.0127010131
C  C11  1  0.43440000  0.61760000  0.83470000  1.0 0.0127010131
C  C12  1  0.56560000  0.11760000  0.66530000  1.0 0.0127010131
C  C13  1  0.53660000  0.34960000  0.19650000  1.0 -0.1008389918
C  C14  1  0.46340000  0.84960000  0.30350000  1.0 -0.1008389918
C  C15  1  0.46340000  0.65040000  0.80350000  1.0 -0.1008389918
C  C16  1  0.53660000  0.15040000  0.69650000  1.0 -0.1008389918
C  C17  1  0.51730000  0.26080000  0.19140000  1.0 0.0127010131
C  C18  1  0.48270000  0.76080000  0.30860000  1.0 0.0127010131
C  C19  1  0.48270000  0.73920000  0.80860000  1.0 0.0127010131
C  C20  1  0.51730000  0.23920000  0.69140000  1.0 0.0127010131
C  C21  1  0.52480000  0.20210000  0.15300000  1.0 -0.2186846738
C  C22  1  0.47520000  0.70210000  0.34700000  1.0 -0.2186846738
C  C23  1  0.47520000  0.79790000  0.84700000  1.0 -0.2186846738
C  C24  1  0.52480000  0.29790000  0.65300000  1.0 -0.2186846738
C  C25  1  0.58740000  0.48290000  0.17400000  1.0 0.5905320565
C  C26  1  0.41260000  0.98290000  0.32600000  1.0 0.5905320565
C  C27  1  0.41260000  0.51710000  0.82600000  1.0 0.5905320565
C  C28  1  0.58740000  0.01710000  0.67400000  1.0 0.5905320565
C  C29  1  0.48710000  0.22350000  0.22570000  1.0 0.5363163645
C  C30  1  0.51290000  0.72350000  0.27430000  1.0 0.5363163645
C  C31  1  0.51290000  0.77650000  0.77430000  1.0 0.5363163645
C  C32  1  0.48710000  0.27650000  0.72570000  1.0 0.5363163645
C  C33  1  0.58860000  0.20390000  0.05430000  1.0 0.2089047986
C  C34  1  0.41140000  0.70390000  0.44570000  1.0 0.2089047986
C  C35  1  0.41140000  0.79610000  0.94570000  1.0 0.2089047986
C  C36  1  0.58860000  0.29610000  0.55430000  1.0 0.2089047986
C  C37  1  0.54020000  0.23390000  0.99260000  1.0 -0.1894511647
C  C38  1  0.45980000  0.73390000  0.50740000  1.0 -0.1894511647
C  C39  1  0.45980000  0.76610000  0.00740000  1.0 -0.1894511647
C  C40  1  0.54020000  0.26610000  0.49260000  1.0 -0.1894511647
C  C41  1  0.57100000  0.26330000  0.96220000  1.0 -0.0307463533
C  C42  1  0.42900000  0.76330000  0.53780000  1.0 -0.0307463533
C  C43  1  0.42900000  0.73670000  0.03780000  1.0 -0.0307463533
C  C44  1  0.57100000  0.23670000  0.46220000  1.0 -0.0307463533
C  C45  1  0.65230000  0.25580000  0.99470000  1.0 -0.1082554961
C  C46  1  0.34770000  0.75580000  0.50530000  1.0 -0.1082554961
C  C47  1  0.34770000  0.74420000  0.00530000  1.0 -0.1008389918
C  C48  1  0.65230000  0.24420000  0.49470000  1.0 -0.1008389918
C  C49  1  0.69780000  0.22070000  0.05480000  1.0 -0.0020860111
C  C50  1  0.30220000  0.72070000  0.44520000  1.0 -0.0020860111
C  C51  1  0.30220000  0.77930000  0.94520000  1.0 -0.0020860111
C  C52  1  0.69780000  0.27930000  0.55480000  1.0 -0.0020860111
C  C53  1  0.66630000  0.19460000  0.08560000  1.0 -0.1798024183
C  C54  1  0.33370000  0.69460000  0.41440000  1.0 -0.1798024183
C  C55  1  0.33370000  0.80540000  0.91440000  1.0 -0.1798024183
C  C56  1  0.66630000  0.30540000  0.58560000  1.0 -0.1798024183
C  C57  1  0.52320000  0.30040000  0.89890000  1.0 0.5670261974
C  C58  1  0.47680000  0.80040000  0.60110000  1.0 0.5670261974
C  C59  1  0.47680000  0.69960000  0.10110000  1.0 0.5670261974
C  C60  1  0.52320000  0.19960000  0.39890000  1.0 0.5670261974
C  C61  1  0.78390000  0.21150000  0.09210000  1.0 0.5905320565
C  C62  1  0.21610000  0.71150000  0.40790000  1.0 0.5905320565
C  C63  1  0.21610000  0.78850000  0.90790000  1.0 0.5905320565
C  C64  1  0.78390000  0.28850000  0.59210000  1.0 0.5905320565
C  C65  1  0.87370000  0.76430000  0.45450000  1.0 0.2363561908
C  C66  1  0.12630000  0.26430000  0.04550000  1.0 0.2363561908
C  C67  1  0.12630000  0.23570000  0.54550000  1.0 0.2363561908
C  C68  1  0.87370000  0.73570000  0.95450000  1.0 0.2363561908
C  C69  1  0.80200000  0.74240000  0.39750000  1.0 -0.2186846738
C  C70  1  0.19800000  0.24240000  0.10250000  1.0 -0.2186846738
C  C71  1  0.19800000  0.25760000  0.60250000  1.0 -0.2186846738
C  C72  1  0.80200000  0.75760000  0.89750000  1.0 -0.2186846738
C  C73  1  0.80080000  0.71570000  0.34550000  1.0 -0.0020860111
C  C74  1  0.19920000  0.21570000  0.15450000  1.0 -0.0057183216
C  C75  1  0.19920000  0.28430000  0.65450000  1.0 -0.0020860111
C  C76  1  0.80080000  0.78430000  0.84550000  1.0 -0.0020860111
C  C77  1  0.86570000  0.71170000  0.34990000  1.0 -0.1008389918
C  C78  1  0.13430000  0.21170000  0.15010000  1.0 -0.1008389918
C  C79  1  0.13430000  0.28830000  0.65010000  1.0 -0.1008389918
C  C80  1  0.86570000  0.78830000  0.84990000  1.0 -0.1008389918
C  C81  1  0.93600000  0.73480000  0.40590000  1.0 0.0031317659
C  C82  1  0.06400000  0.23480000  0.09410000  1.0 0.0031317659
C  C83  1  0.06400000  0.26520000  0.59410000  1.0 0.0127010131
C  C84  1  0.93600000  0.76520000  0.90590000  1.0 0.0127010131
C  C85  1  0.94060000  0.75760000  0.45920000  1.0 -0.2021500891
C  C86  1  0.05940000  0.25760000  0.04080000  1.0 -0.2021500891
C  C87  1  0.05940000  0.24240000  0.54080000  1.0 -0.2021500891
C  C88  1  0.94060000  0.74240000  0.95920000  1.0 -0.2021500891
C  C89  1  0.72460000  0.68890000  0.28470000  1.0 0.6035107667
C  C90  1  0.27540000  0.18890000  0.21530000  1.0 0.6035107667
C  C91  1  0.27540000  0.31110000  0.71530000  1.0 0.6035107667
C  C92  1  0.72460000  0.81110000  0.78470000  1.0 0.6035107667
C  C93  1  0.00850000  0.72610000  0.41000000  1.0 0.5905320565
C  C94  1  0.99150000  0.22610000  0.09000000  1.0 0.5905320565
C  C95  1  0.99150000  0.27390000  0.59000000  1.0 0.5905320565
C  C96  1  0.00850000  0.77390000  0.91000000  1.0 0.5905320565
C  C97  1  0.89990000  0.73610000  0.55350000  1.0 0.2485777768
C  C98  1  0.10010000  0.23610000  0.94650000  1.0 0.2485777768
C  C99  1  0.10010000  0.26390000  0.44650000  1.0 0.2485777768
C  C100  1  0.89990000  0.76390000  0.05350000  1.0 0.2485777768
C  C101  1  0.93760000  0.77020000  0.61480000  1.0 -0.206459637
C  C102  1  0.06240000  0.27020000  0.88520000  1.0 -0.206459637
C  C103  1  0.06240000  0.22980000  0.38520000  1.0 -0.2021500891
C  C104  1  0.93760000  0.72980000  0.11480000  1.0 -0.206459637
C  C105  1  0.96250000  0.71240000  0.66560000  1.0 0.0127010131
C  C106  1  0.03750000  0.21240000  0.83440000  1.0 0.0127010131
C  C107  1  0.03750000  0.28760000  0.33440000  1.0 0.0127010131
C  C108  1  0.96250000  0.78760000  0.16560000  1.0 0.0127010131
C  C109  1  0.95070000  0.62030000  0.65570000  1.0 -0.1082554961
C  C110  1  0.04930000  0.12030000  0.84430000  1.0 -0.1082554961
C  C111  1  0.04930000  0.37970000  0.34430000  1.0 -0.1082554961
C  C112  1  0.95070000  0.87970000  0.15570000  1.0 -0.1082554961
C  C113  1  0.91280000  0.58420000  0.59480000  1.0 0.0221004649
C  C114  1  0.08720000  0.08420000  0.90520000  1.0 0.0221004649
C  C115  1  0.08720000  0.41580000  0.40520000  1.0 0.0221004649
C  C116  1  0.91280000  0.91580000  0.09480000  1.0 0.0221004649
C  C117  1  0.88780000  0.64250000  0.54250000  1.0 -0.2537456346
C  C118  1  0.11220000  0.14250000  0.95750000  1.0 -0.2537456346
C  C119  1  0.11220000  0.35750000  0.45750000  1.0 -0.2537456346
C  C120  1  0.88780000  0.85750000  0.04250000  1.0 -0.2537456346
C  C121  1  0.00450000  0.74700000  0.73250000  1.0 0.5318688149
C  C122  1  0.99550000  0.24700000  0.76750000  1.0 0.5318688149
C  C123  1  0.99550000  0.25300000  0.26750000  1.0 0.5318688149
C  C124  1  0.00450000  0.75300000  0.23250000  1.0 0.5318688149
C  C125  1  0.89720000  0.48230000  0.58620000  1.0 0.5905320565
C  C126  1  0.10280000  0.98230000  0.91380000  1.0 0.5905320565
C  C127  1  0.10280000  0.51770000  0.41380000  1.0 0.5905320565
C  C128  1  0.89720000  0.01770000  0.08620000  1.0 0.5905320565
O  O1  1  0.61300000  0.51230000  0.14470000  1.0 -0.6056452597
O  O2  1  0.38700000  0.01230000  0.35530000  1.0 -0.5977837568
O  O3  1  0.38700000  0.48770000  0.85530000  1.0 -0.6056452597
O  O4  1  0.61300000  0.98770000  0.64470000  1.0 -0.6056452597
O  O5  1  0.58090000  0.52670000  0.21130000  1.0 -0.5497324397
O  O6  1  0.41910000  0.02670000  0.28870000  1.0 -0.5497324397
O  O7  1  0.41910000  0.47330000  0.78870000  1.0 -0.5497324397
O  O8  1  0.58090000  0.97330000  0.71130000  1.0 -0.5497324397
O  O9  1  0.47830000  0.27470000  0.25800000  1.0 -0.5189830219
O  O10  1  0.52170000  0.77470000  0.24200000  1.0 -0.5189830219
O  O11  1  0.52170000  0.72530000  0.74200000  1.0 -0.5189830219
O  O12  1  0.47830000  0.22530000  0.75800000  1.0 -0.5189830219
O  O13  1  0.47310000  0.13920000  0.22240000  1.0 -0.5375243877
O  O14  1  0.52690000  0.63920000  0.27760000  1.0 -0.5375243877
O  O15  1  0.52690000  0.86080000  0.77760000  1.0 -0.5375243877
O  O16  1  0.47310000  0.36080000  0.72240000  1.0 -0.5375243877
O  O17  1  0.44980000  0.29870000  0.86680000  1.0 -0.6410722993
O  O18  1  0.55020000  0.79870000  0.63320000  1.0 -0.6410722993
O  O19  1  0.55020000  0.70130000  0.13320000  1.0 -0.6450855141
O  O20  1  0.44980000  0.20130000  0.36680000  1.0 -0.6410722993
O  O21  1  0.55140000  0.33410000  0.87260000  1.0 -0.5114615565
O  O22  1  0.44860000  0.83410000  0.62740000  1.0 -0.5114615565
O  O23  1  0.44860000  0.66590000  0.12740000  1.0 -0.5114615565
O  O24  1  0.55140000  0.16590000  0.37260000  1.0 -0.5114615565
O  O25  1  0.81500000  0.22610000  0.06460000  1.0 -0.6410722993
O  O26  1  0.18500000  0.72610000  0.43540000  1.0 -0.6410722993
O  O27  1  0.18500000  0.77390000  0.93540000  1.0 -0.6410722993
O  O28  1  0.81500000  0.27390000  0.56460000  1.0 -0.6410722993
O  O29  1  0.82280000  0.18860000  0.14900000  1.0 -0.498762161
O  O30  1  0.17720000  0.68860000  0.35100000  1.0 -0.498762161
O  O31  1  0.17720000  0.81140000  0.85100000  1.0 -0.498762161
O  O32  1  0.82280000  0.31140000  0.64900000  1.0 -0.498762161
O  O33  1  0.55770000  0.17280000  0.08530000  1.0 -0.1894511647
O  O34  1  0.44230000  0.67280000  0.41470000  1.0 -0.1894511647
O  O35  1  0.44230000  0.82720000  0.91470000  1.0 -0.1894511647
O  O36  1  0.55770000  0.32720000  0.58530000  1.0 -0.1894511647
O  O37  1  0.66700000  0.69850000  0.28440000  1.0 -0.5497324397
O  O38  1  0.33300000  0.19850000  0.21560000  1.0 -0.5497324397
O  O39  1  0.33300000  0.30150000  0.71560000  1.0 -0.5497324397
O  O40  1  0.66700000  0.80150000  0.78440000  1.0 -0.5497324397
O  O41  1  0.72420000  0.66340000  0.23970000  1.0 -0.5732174073
O  O42  1  0.27580000  0.16340000  0.26030000  1.0 -0.5732174073
O  O43  1  0.27580000  0.33660000  0.76030000  1.0 -0.5732174073
O  O44  1  0.72420000  0.83660000  0.73970000  1.0 -0.5732174073
O  O45  1  0.99940000  0.72420000  0.35980000  1.0 -0.5114615565
O  O46  1  0.00060000  0.22420000  0.14020000  1.0 -0.5189830219
O  O47  1  0.00060000  0.27580000  0.64020000  1.0 -0.5189830219
O  O48  1  0.99940000  0.77580000  0.85980000  1.0 -0.5114615565
O  O49  1  0.07090000  0.72680000  0.46530000  1.0 -0.5977837568
O  O50  1  0.92910000  0.22680000  0.03470000  1.0 -0.5977837568
O  O51  1  0.92910000  0.27320000  0.53470000  1.0 -0.5977837568
O  O52  1  0.07090000  0.77320000  0.96530000  1.0 -0.5977837568
O  O53  1  0.00180000  0.83160000  0.74070000  1.0 -0.5375243877
O  O54  1  0.99820000  0.33160000  0.75930000  1.0 -0.5375243877
O  O55  1  0.99820000  0.16840000  0.25930000  1.0 -0.5375243877
O  O56  1  0.00180000  0.66840000  0.24070000  1.0 -0.5375243877
O  O57  1  0.04010000  0.69510000  0.77780000  1.0 -0.5114615565
O  O58  1  0.95990000  0.19510000  0.72220000  1.0 -0.5189830219
O  O59  1  0.95990000  0.30490000  0.22220000  1.0 -0.5189830219
O  O60  1  0.04010000  0.80490000  0.27780000  1.0 -0.5114615565
O  O61  1  0.91790000  0.44170000  0.63480000  1.0 -0.5189830219
O  O62  1  0.08210000  0.94170000  0.86520000  1.0 -0.5189830219
O  O63  1  0.08210000  0.55830000  0.36520000  1.0 -0.5189830219
O  O64  1  0.91790000  0.05830000  0.13480000  1.0 -0.5189830219
O  O65  1  0.86430000  0.45240000  0.53140000  1.0 -0.5903096055
O  O66  1  0.13570000  0.95240000  0.96860000  1.0 -0.5903096055
O  O67  1  0.13570000  0.54760000  0.46860000  1.0 -0.5903096055
O  O68  1  0.86430000  0.04760000  0.03140000  1.0 -0.5903096055
O  O69  1  0.87580000  0.79710000  0.50510000  1.0 -0.1894511647
O  O70  1  0.12420000  0.29710000  0.99490000  1.0 -0.1894511647
O  O71  1  0.12420000  0.20290000  0.49490000  1.0 -0.1894511647
O  O72  1  0.87580000  0.70290000  0.00510000  1.0 -0.1894511647
