# DDEC6 charges by PACMAN v1.1 (https://github.com/mtap-research/PACMAN-charge/)
data_FUFQUT_ion_pacman
_symmetry_space_group_name_H-M   'P 1'
_cell_length_a   8.96800000
_cell_length_b   15.96400000
_cell_length_c   19.73700000
_cell_angle_alpha   77.56000000
_cell_angle_beta   85.31000000
_cell_angle_gamma   81.57000000
_symmetry_Int_Tables_number   1
_chemical_formula_structural   Cu2H35C41N15(ClO2)2
_chemical_formula_sum   'Cu4 H70 C82 N30 Cl4 O8'
_cell_volume   2725.81197785
_cell_formula_units_Z   2
loop_
 _symmetry_equiv_pos_site_id
 _symmetry_equiv_pos_as_xyz
  1  'x, y, z'
loop_
 _atom_site_type_symbol
 _atom_site_label
 _atom_site_symmetry_multiplicity
 _atom_site_fract_x
 _atom_site_fract_y
 _atom_site_fract_z
 _atom_site_occupancy
 _atom_site_charge
Cu  Cu1  1  0.16269000  0.91718000  0.01937000  1.0 0.2355981581
Cu  Cu2  1  0.83731000  0.08282000  0.98063000  1.0 0.2355981581
Cu  Cu3  1  0.30519000  0.44284000  0.67417000  1.0 0.2498747892
Cu  Cu4  1  0.69481000  0.55716000  0.32583000  1.0 0.2498747892
H  H1  1  0.25050000  0.93340000  0.74960000  1.0 0.1086692819
H  H2  1  0.74950000  0.06660000  0.25040000  1.0 0.1086692819
H  H3  1  0.39850000  0.88000000  0.65750000  1.0 0.1197231123
H  H4  1  0.60150000  0.12000000  0.34250000  1.0 0.1197231123
H  H5  1  0.45960000  0.87900000  0.54060000  1.0 0.1285921883
H  H6  1  0.54040000  0.12100000  0.45940000  1.0 0.1285921883
H  H7  1  0.10460000  0.06270000  0.48750000  1.0 0.1285921883
H  H8  1  0.89540000  0.93730000  0.51250000  1.0 0.1285921883
H  H9  1  0.03930000  0.05960000  0.60530000  1.0 0.1086692819
H  H10  1  0.96070000  0.94040000  0.39470000  1.0 0.1086692819
H  H11  1  0.81730000  0.04360000  0.82510000  1.0 0.1383856945
H  H12  1  0.18270000  0.95640000  0.17490000  1.0 0.1383856945
H  H13  1  0.24180000  0.93740000  0.85550000  1.0 0.1197231123
H  H14  1  0.75820000  0.06260000  0.14450000  1.0 0.1197231123
H  H15  1  0.46530000  0.94050000  0.06440000  1.0 0.097531816
H  H16  1  0.53470000  0.05950000  0.93560000  1.0 0.097531816
H  H17  1  0.71900000  0.89820000  0.04060000  1.0 0.1197231123
H  H18  1  0.28100000  0.10180000  0.95940000  1.0 0.1197231123
H  H19  1  0.79050000  0.80090000  0.96720000  1.0 0.1086692819
H  H20  1  0.20950000  0.19910000  0.03280000  1.0 0.1086692819
H  H21  1  0.35000000  0.79930000  0.94120000  1.0 0.0909626521
H  H22  1  0.65000000  0.20070000  0.05880000  1.0 0.0909626521
H  H23  1  0.52560000  0.69820000  0.89140000  1.0 0.097531816
H  H24  1  0.47440000  0.30180000  0.10860000  1.0 0.097531816
H  H25  1  0.95380000  0.64550000  0.82460000  1.0 0.097531816
H  H26  1  0.04620000  0.35450000  0.17540000  1.0 0.097531816
H  H27  1  0.70150000  0.50450000  0.78730000  1.0 0.1086692819
H  H28  1  0.29850000  0.49550000  0.21270000  1.0 0.1086692819
H  H29  1  0.76650000  0.40450000  0.71560000  1.0 0.1197231123
H  H30  1  0.23350000  0.59550000  0.28440000  1.0 0.1197231123
H  H31  1  0.00730000  0.39060000  0.66250000  1.0 0.097531816
H  H32  1  0.99270000  0.60940000  0.33750000  1.0 0.097531816
H  H33  1  0.11690000  0.57630000  0.74450000  1.0 0.097531816
H  H34  1  0.88310000  0.42370000  0.25550000  1.0 0.097531816
H  H35  1  0.96270000  0.83770000  0.14640000  1.0 0.097531816
H  H36  1  0.03730000  0.16230000  0.85360000  1.0 0.097531816
H  H37  1  0.85840000  0.71180000  0.19220000  1.0 0.1285921883
H  H38  1  0.14160000  0.28820000  0.80780000  1.0 0.1285921883
H  H39  1  0.89040000  0.59990000  0.13050000  1.0 0.1086692819
H  H40  1  0.10960000  0.40010000  0.86950000  1.0 0.1086692819
H  H41  1  0.11900000  0.75130000  0.97910000  1.0 0.097531816
H  H42  1  0.88100000  0.24870000  0.02090000  1.0 0.097531816
H  H43  1  0.08660000  0.61100000  0.95970000  1.0 0.0909626521
H  H44  1  0.91340000  0.38900000  0.04030000  1.0 0.0909626521
H  H45  1  0.38830000  0.61540000  0.68320000  1.0 0.097531816
H  H46  1  0.61170000  0.38460000  0.31680000  1.0 0.097531816
H  H47  1  0.58880000  0.69370000  0.65260000  1.0 0.1285921883
H  H48  1  0.41120000  0.30630000  0.34740000  1.0 0.1285921883
H  H49  1  0.78750000  0.64570000  0.57910000  1.0 0.1285921883
H  H50  1  0.21250000  0.35430000  0.42090000  1.0 0.1285921883
H  H51  1  0.55860000  0.44910000  0.56730000  1.0 0.1086692819
H  H52  1  0.44140000  0.55090000  0.43270000  1.0 0.1086692819
H  H53  1  0.79680000  0.46220000  0.49760000  1.0 0.097531816
H  H54  1  0.20320000  0.53780000  0.50240000  1.0 0.097531816
H  H55  1  0.48250000  0.27650000  0.75680000  1.0 0.1086692819
H  H56  1  0.51750000  0.72350000  0.24320000  1.0 0.1086692819
H  H57  1  0.62530000  0.23370000  0.85390000  1.0 0.1285921883
H  H58  1  0.37470000  0.76630000  0.14610000  1.0 0.1285921883
H  H59  1  0.61990000  0.32660000  0.93170000  1.0 0.1086692819
H  H60  1  0.38010000  0.67340000  0.06830000  1.0 0.1086692819
H  H61  1  0.34080000  0.50160000  0.80510000  1.0 0.0909626521
H  H62  1  0.65920000  0.49840000  0.19490000  1.0 0.0909626521
H  H63  1  0.39800000  0.54050000  0.91030000  1.0 0.097531816
H  H64  1  0.60200000  0.45950000  0.08970000  1.0 0.097531816
H  H65  1  0.44710000  0.19520000  0.55450000  1.0 0.1511651948
H  H66  1  0.55290000  0.80480000  0.44550000  1.0 0.1511651948
H  H67  1  0.27230000  0.21590000  0.53780000  1.0 0.1511651948
H  H68  1  0.72770000  0.78410000  0.46220000  1.0 0.1511651948
H  H69  1  0.32270000  0.15610000  0.61050000  1.0 0.1715179421
H  H70  1  0.67730000  0.84390000  0.38950000  1.0 0.1715179421
C  C1  1  0.17800000  0.96424000  0.71758000  1.0 0.0411802157
C  C2  1  0.82200000  0.03576000  0.28242000  1.0 0.0411802157
C  C3  1  0.21060000  0.96864000  0.64308000  1.0 0.0608042357
C  C4  1  0.78940000  0.03136000  0.35692000  1.0 0.0608042357
C  C5  1  0.33670000  0.91620000  0.62298000  1.0 -0.1205518283
C  C6  1  0.66330000  0.08380000  0.37702000  1.0 -0.1205518283
C  C7  1  0.37380000  0.91550000  0.55383000  1.0 -0.182571318
C  C8  1  0.62620000  0.08450000  0.44617000  1.0 -0.182571318
C  C9  1  0.28460000  0.96862000  0.50457000  1.0 0.1285921883
C  C10  1  0.71540000  0.03138000  0.49543000  1.0 0.1285921883
C  C11  1  0.16230000  0.02416000  0.52236000  1.0 -0.1691384688
C  C12  1  0.83770000  0.97584000  0.47764000  1.0 -0.1691384688
C  C13  1  0.12500000  0.02278000  0.59235000  1.0 -0.1026891098
C  C14  1  0.87500000  0.97722000  0.40765000  1.0 -0.1026891098
C  C15  1  0.90890000  0.01912000  0.84683000  1.0 0.0668886453
C  C16  1  0.09110000  0.98088000  0.15317000  1.0 0.0668886453
C  C17  1  0.14000000  0.96099000  0.86341000  1.0 0.0608042357
C  C18  1  0.86000000  0.03901000  0.13659000  1.0 0.0608042357
C  C19  1  0.49310000  0.90222000  0.03333000  1.0 0.0608042357
C  C20  1  0.50690000  0.09778000  0.96667000  1.0 0.0608042357
C  C21  1  0.64460000  0.87631000  0.02014000  1.0 -0.1316622757
C  C22  1  0.35540000  0.12369000  0.97986000  1.0 -0.1316622757
C  C23  1  0.68680000  0.81871000  0.97723000  1.0 -0.0754097216
C  C24  1  0.31320000  0.18129000  0.02277000  1.0 -0.0754097216
C  C25  1  0.57540000  0.78674000  0.94851000  1.0 0.0493063051
C  C26  1  0.42460000  0.21326000  0.05149000  1.0 0.0493063051
C  C27  1  0.42630000  0.81863000  0.96235000  1.0 0.0017458986
C  C28  1  0.57370000  0.18137000  0.03765000  1.0 0.0017458986
C  C29  1  0.60700000  0.72087000  0.90590000  1.0 0.0493063051
C  C30  1  0.39300000  0.27913000  0.09410000  1.0 0.0493063051
C  C31  1  0.87490000  0.61496000  0.81778000  1.0 0.0411802157
C  C32  1  0.12510000  0.38504000  0.18222000  1.0 0.0411802157
C  C33  1  0.90450000  0.55133000  0.77358000  1.0 0.0411802157
C  C34  1  0.09550000  0.44867000  0.22642000  1.0 0.0411802157
C  C35  1  0.79910000  0.49922000  0.76472000  1.0 -0.089864
C  C36  1  0.20090000  0.50078000  0.23528000  1.0 -0.089864
C  C37  1  0.83790000  0.43984000  0.72278000  1.0 -0.1368655376
C  C38  1  0.16210000  0.56016000  0.27722000  1.0 -0.1368655376
C  C39  1  0.98190000  0.43191000  0.69113000  1.0 0.0608042357
C  C40  1  0.01810000  0.56809000  0.30887000  1.0 0.0608042357
C  C41  1  0.04520000  0.53998000  0.73946000  1.0 -0.0255242512
C  C42  1  0.95480000  0.46002000  0.26054000  1.0 -0.0255242512
C  C43  1  0.97540000  0.79312000  0.12058000  1.0 0.0668886453
C  C44  1  0.02460000  0.20688000  0.87942000  1.0 0.0668886453
C  C45  1  0.91300000  0.71803000  0.14846000  1.0 -0.1205518283
C  C46  1  0.08700000  0.28197000  0.85154000  1.0 -0.1205518283
C  C47  1  0.93110000  0.65233000  0.11200000  1.0 -0.089864
C  C48  1  0.06890000  0.34767000  0.88800000  1.0 -0.089864
C  C49  1  0.01050000  0.66408000  0.04697000  1.0 0.0493063051
C  C50  1  0.98950000  0.33592000  0.95303000  1.0 0.0493063051
C  C51  1  0.06700000  0.74235000  0.02340000  1.0 -0.0019920012
C  C52  1  0.93300000  0.25765000  0.97660000  1.0 -0.0019920012
C  C53  1  0.03360000  0.59917000  0.00370000  1.0 0.0411802157
C  C54  1  0.96640000  0.40083000  0.99630000  1.0 0.0411802157
C  C55  1  0.46700000  0.59600000  0.65266000  1.0 0.0266061574
C  C56  1  0.53300000  0.40400000  0.34734000  1.0 0.0266061574
C  C57  1  0.58640000  0.64295000  0.63510000  1.0 -0.1368655376
C  C58  1  0.41360000  0.35705000  0.36490000  1.0 -0.1368655376
C  C59  1  0.70300000  0.61502000  0.59152000  1.0 -0.089864
C  C60  1  0.29700000  0.38498000  0.40848000  1.0 -0.089864
C  C61  1  0.69420000  0.54092000  0.56611000  1.0 0.0411802157
C  C62  1  0.30580000  0.45908000  0.43389000  1.0 0.0411802157
C  C63  1  0.56660000  0.49854000  0.58566000  1.0 0.0017458986
C  C64  1  0.43340000  0.50146000  0.41434000  1.0 0.0017458986
C  C65  1  0.81660000  0.50261000  0.52361000  1.0 0.0266061574
C  C66  1  0.18340000  0.49739000  0.47639000  1.0 0.0266061574
C  C67  1  0.48240000  0.31561000  0.78687000  1.0 0.0668886453
C  C68  1  0.51760000  0.68439000  0.21313000  1.0 0.0668886453
C  C69  1  0.56600000  0.28901000  0.84539000  1.0 -0.1149859913
C  C70  1  0.43400000  0.71099000  0.15461000  1.0 -0.1149859913
C  C71  1  0.56270000  0.34347000  0.89140000  1.0 -0.089864
C  C72  1  0.43730000  0.65653000  0.10860000  1.0 -0.089864
C  C73  1  0.47320000  0.42393000  0.87730000  1.0 0.0493063051
C  C74  1  0.52680000  0.57607000  0.12270000  1.0 0.0493063051
C  C75  1  0.39820000  0.44586000  0.81584000  1.0 -0.0151246516
C  C76  1  0.60180000  0.55414000  0.18416000  1.0 -0.0151246516
C  C77  1  0.45570000  0.48530000  0.92389000  1.0 0.0411802157
C  C78  1  0.54430000  0.51470000  0.07611000  1.0 0.0411802157
C  C79  1  0.33010000  0.28263000  0.60501000  1.0 0.3611293621
C  C80  1  0.66990000  0.71737000  0.39499000  1.0 0.3611293621
C  C81  1  0.34420000  0.20620000  0.57445000  1.0 -0.4990941398
C  C82  1  0.65580000  0.79380000  0.42555000  1.0 -0.4990941398
N  N1  1  0.07660000  0.96831000  0.92425000  1.0 -0.1691384688
N  N2  1  0.92340000  0.03169000  0.07575000  1.0 -0.1691384688
N  N3  1  0.92730000  0.00676000  0.91350000  1.0 -0.1541972272
N  N4  1  0.07270000  0.99324000  0.08650000  1.0 -0.1552640908
N  N5  1  0.03950000  0.99189000  0.81315000  1.0 0.1383856945
N  N6  1  0.96050000  0.00811000  0.18685000  1.0 0.1383856945
N  N7  1  0.05390000  0.00121000  0.74026000  1.0 -0.191418163
N  N8  1  0.94610000  0.99879000  0.25974000  1.0 -0.2013195418
N  N9  1  0.38320000  0.87546000  0.00409000  1.0 -0.2167289369
N  N10  1  0.61680000  0.12454000  0.99591000  1.0 -0.2167289369
N  N11  1  0.74180000  0.69357000  0.88807000  1.0 -0.191418163
N  N12  1  0.25820000  0.30643000  0.11193000  1.0 -0.191418163
N  N13  1  0.74500000  0.63020000  0.84733000  1.0 -0.191418163
N  N14  1  0.25500000  0.36980000  0.15267000  1.0 -0.191418163
N  N15  1  0.08690000  0.48051000  0.69952000  1.0 -0.212333447
N  N16  1  0.91310000  0.51949000  0.30048000  1.0 -0.212333447
N  N17  1  0.05320000  0.80614000  0.05888000  1.0 -0.212333447
N  N18  1  0.94680000  0.19386000  0.94112000  1.0 -0.212333447
N  N19  1  0.98320000  0.52642000  0.02456000  1.0 -0.191418163
N  N20  1  0.01680000  0.47358000  0.97544000  1.0 -0.191418163
N  N21  1  0.45480000  0.52455000  0.62931000  1.0 -0.2013195418
N  N22  1  0.54520000  0.47545000  0.37069000  1.0 -0.2013195418
N  N23  1  0.94940000  0.52318000  0.52130000  1.0 -0.212333447
N  N24  1  0.05060000  0.47682000  0.47870000  1.0 -0.212333447
N  N25  1  0.40120000  0.39394000  0.77065000  1.0 -0.2167289369
N  N26  1  0.59880000  0.60606000  0.22935000  1.0 -0.2167289369
N  N27  1  0.51630000  0.46598000  0.98179000  1.0 -0.182571318
N  N28  1  0.48370000  0.53402000  0.01821000  1.0 -0.182571318
N  N29  1  0.32110000  0.34190000  0.62876000  1.0 -0.4537697844
N  N30  1  0.67890000  0.65810000  0.37124000  1.0 -0.4537697844
Cl  Cl1  1  0.32715000  0.96608000  0.41715000  1.0 -0.089864
Cl  Cl2  1  0.67285000  0.03392000  0.58285000  1.0 -0.089864
Cl  Cl3  1  0.46926000  0.06437000  0.78318000  1.0 1.2525795884
Cl  Cl4  1  0.53074000  0.93563000  0.21682000  1.0 1.2525795884
O  O1  1  0.58780000  0.11037000  0.79485000  1.0 -0.5096468025
O  O2  1  0.32670000  0.11083000  0.79807000  1.0 -0.5096468025
O  O3  1  0.48570000  0.98111000  0.82937000  1.0 -0.5151161365
O  O4  1  0.48210000  0.05330000  0.71371000  1.0 -0.4754604809
O  O5  1  0.41220000  0.88963000  0.20515000  1.0 -0.5096468025
O  O6  1  0.67330000  0.88917000  0.20193000  1.0 -0.5096468025
O  O7  1  0.51430000  0.01889000  0.17063000  1.0 -0.5096468025
O  O8  1  0.51790000  0.94670000  0.28629000  1.0 -0.4738599174
