# DDEC6 charges by PACMAN v1.1 (https://github.com/mtap-research/PACMAN-charge/)
data_FUHJOJ_ASR_pacman
_symmetry_space_group_name_H-M   'P 1'
_cell_length_a   11.61640000
_cell_length_b   16.34160000
_cell_length_c   25.14650000
_cell_angle_alpha   90.00000000
_cell_angle_beta   108.12500000
_cell_angle_gamma   90.00000000
_symmetry_Int_Tables_number   1
_chemical_formula_structural   Co2H32C31(N6O5)2
_chemical_formula_sum   'Co8 H128 C124 N48 O40'
_cell_volume   4536.70987604
_cell_formula_units_Z   4
loop_
 _symmetry_equiv_pos_site_id
 _symmetry_equiv_pos_as_xyz
  1  'x, y, z'
loop_
 _atom_site_type_symbol
 _atom_site_label
 _atom_site_symmetry_multiplicity
 _atom_site_fract_x
 _atom_site_fract_y
 _atom_site_fract_z
 _atom_site_occupancy
 _atom_site_charge
Co  Co1  1  0.50604000  0.64948000  0.26112000  1.0 0.6973662691
Co  Co2  1  0.49396000  0.14948000  0.23888000  1.0 0.6973662691
Co  Co3  1  0.49396000  0.35052000  0.73888000  1.0 0.6973662691
Co  Co4  1  0.50604000  0.85052000  0.76112000  1.0 0.6973662691
Co  Co5  1  0.86082000  0.50288000  0.48782000  1.0 0.8290584402
Co  Co6  1  0.13918000  0.00288000  0.01218000  1.0 0.8290584402
Co  Co7  1  0.13918000  0.49712000  0.51218000  1.0 0.8290584402
Co  Co8  1  0.86082000  0.99712000  0.98782000  1.0 0.8290584402
H  H1  1  0.22690000  0.50700000  0.35050000  1.0 0.1392378831
H  H2  1  0.77310000  0.00700000  0.14950000  1.0 0.1392378831
H  H3  1  0.77310000  0.49300000  0.64950000  1.0 0.1392378831
H  H4  1  0.22690000  0.99300000  0.85050000  1.0 0.1392378831
H  H5  1  0.55970000  0.47890000  0.34170000  1.0 0.1392378831
H  H6  1  0.44030000  0.97890000  0.15830000  1.0 0.1392378831
H  H7  1  0.44030000  0.52110000  0.65830000  1.0 0.1392378831
H  H8  1  0.55970000  0.02110000  0.84170000  1.0 0.1392378831
H  H9  1  0.35160000  0.38350000  0.41140000  1.0 0.1206121877
H  H10  1  0.64840000  0.88350000  0.08860000  1.0 0.1206121877
H  H11  1  0.64840000  0.61650000  0.58860000  1.0 0.1206121877
H  H12  1  0.35160000  0.11650000  0.91140000  1.0 0.1206121877
H  H13  1  0.49060000  0.38190000  0.41830000  1.0 0.1281132663
H  H14  1  0.50940000  0.88190000  0.08170000  1.0 0.1281132663
H  H15  1  0.50940000  0.61810000  0.58170000  1.0 0.1281132663
H  H16  1  0.49060000  0.11810000  0.91830000  1.0 0.1281132663
H  H17  1  0.21320000  0.28000000  0.33350000  1.0 0.1392378831
H  H18  1  0.78680000  0.78000000  0.16650000  1.0 0.1392378831
H  H19  1  0.78680000  0.72000000  0.66650000  1.0 0.1392378831
H  H20  1  0.21320000  0.22000000  0.83350000  1.0 0.1392378831
H  H21  1  0.55020000  0.29840000  0.33440000  1.0 0.1392378831
H  H22  1  0.44980000  0.79840000  0.16560000  1.0 0.1392378831
H  H23  1  0.44980000  0.70160000  0.66560000  1.0 0.1392378831
H  H24  1  0.55020000  0.20160000  0.83440000  1.0 0.1392378831
H  H25  1  0.48120000  0.81660000  0.33380000  1.0 0.1281132663
H  H26  1  0.51880000  0.31660000  0.16620000  1.0 0.1281132663
H  H27  1  0.51880000  0.18340000  0.66620000  1.0 0.1281132663
H  H28  1  0.48120000  0.68340000  0.83380000  1.0 0.1281132663
H  H29  1  0.83200000  0.79630000  0.41480000  1.0 0.1392378831
H  H30  1  0.16800000  0.29630000  0.08520000  1.0 0.1392378831
H  H31  1  0.16800000  0.20370000  0.58520000  1.0 0.1392378831
H  H32  1  0.83200000  0.70370000  0.91480000  1.0 0.1392378831
H  H33  1  0.58160000  0.91410000  0.43000000  1.0 0.1206121877
H  H34  1  0.41840000  0.41410000  0.07000000  1.0 0.1206121877
H  H35  1  0.41840000  0.08590000  0.57000000  1.0 0.1206121877
H  H36  1  0.58160000  0.58590000  0.93000000  1.0 0.1206121877
H  H37  1  0.72340000  0.91690000  0.45060000  1.0 0.1094954701
H  H38  1  0.27660000  0.41690000  0.04940000  1.0 0.1094954701
H  H39  1  0.27660000  0.08310000  0.54940000  1.0 0.1094954701
H  H40  1  0.72340000  0.58310000  0.95060000  1.0 0.1094954701
H  H41  1  0.51180000  0.97330000  0.30830000  1.0 0.1281132663
H  H42  1  0.48820000  0.47330000  0.19170000  1.0 0.1281132663
H  H43  1  0.48820000  0.02670000  0.69170000  1.0 0.1281132663
H  H44  1  0.51180000  0.52670000  0.80830000  1.0 0.1281132663
H  H45  1  0.78130000  0.06760000  0.43040000  1.0 0.1281132663
H  H46  1  0.21870000  0.56760000  0.06960000  1.0 0.1281132663
H  H47  1  0.21870000  0.93240000  0.56960000  1.0 0.1281132663
H  H48  1  0.78130000  0.43240000  0.93040000  1.0 0.1281132663
H  H49  1  0.65930000  0.22550000  0.47680000  1.0 0.1206121877
H  H50  1  0.34070000  0.72550000  0.02320000  1.0 0.1206121877
H  H51  1  0.34070000  0.77450000  0.52320000  1.0 0.1206121877
H  H52  1  0.65930000  0.27450000  0.97680000  1.0 0.1206121877
H  H53  1  0.66130000  0.44470000  0.54400000  1.0 0.1206121877
H  H54  1  0.33870000  0.94470000  0.95600000  1.0 0.1206121877
H  H55  1  0.33870000  0.55530000  0.45600000  1.0 0.1206121877
H  H56  1  0.66130000  0.05530000  0.04400000  1.0 0.1206121877
H  H57  1  0.58810000  0.30840000  0.59670000  1.0 0.1281132663
H  H58  1  0.41190000  0.80840000  0.90330000  1.0 0.1281132663
H  H59  1  0.41190000  0.69160000  0.40330000  1.0 0.1281132663
H  H60  1  0.58810000  0.19160000  0.09670000  1.0 0.1281132663
H  H61  1  0.55500000  0.23120000  0.55780000  1.0 0.1206121877
H  H62  1  0.44500000  0.73120000  0.94220000  1.0 0.1206121877
H  H63  1  0.44500000  0.76880000  0.44220000  1.0 0.1206121877
H  H64  1  0.55500000  0.26880000  0.05780000  1.0 0.1206121877
H  H65  1  0.42510000  0.43640000  0.56700000  1.0 0.1206121877
H  H66  1  0.57490000  0.93640000  0.93300000  1.0 0.1206121877
H  H67  1  0.57490000  0.56360000  0.43300000  1.0 0.1206121877
H  H68  1  0.42510000  0.06360000  0.06700000  1.0 0.1206121877
H  H69  1  0.33120000  0.23010000  0.48220000  1.0 0.1206121877
H  H70  1  0.66880000  0.73010000  0.01780000  1.0 0.1206121877
H  H71  1  0.66880000  0.76990000  0.51780000  1.0 0.1206121877
H  H72  1  0.33120000  0.26990000  0.98220000  1.0 0.1206121877
H  H73  1  0.84490000  0.47350000  0.25240000  1.0 0.0930982334
H  H74  1  0.15510000  0.97350000  0.24760000  1.0 0.0930982334
H  H75  1  0.15510000  0.52650000  0.74760000  1.0 0.0930982334
H  H76  1  0.84490000  0.02650000  0.75240000  1.0 0.0930982334
H  H77  1  0.72960000  0.39240000  0.32070000  1.0 0.1094954701
H  H78  1  0.27040000  0.89240000  0.17930000  1.0 0.1206121877
H  H79  1  0.27040000  0.60760000  0.67930000  1.0 0.1094954701
H  H80  1  0.72960000  0.10760000  0.82070000  1.0 0.1094954701
H  H81  1  0.67350000  0.40300000  0.25550000  1.0 0.1094954701
H  H82  1  0.32650000  0.90300000  0.24450000  1.0 0.1094954701
H  H83  1  0.32650000  0.59700000  0.74450000  1.0 0.1094954701
H  H84  1  0.67350000  0.09700000  0.75550000  1.0 0.1094954701
H  H85  1  0.84330000  0.33370000  0.24370000  1.0 0.0971557373
H  H86  1  0.15670000  0.83370000  0.25630000  1.0 0.0971557373
H  H87  1  0.15670000  0.66630000  0.75630000  1.0 0.0971557373
H  H88  1  0.84330000  0.16630000  0.74370000  1.0 0.0971557373
H  H89  1  0.97920000  0.26490000  0.31540000  1.0 0.0971557373
H  H90  1  0.02080000  0.76490000  0.18460000  1.0 0.0930982334
H  H91  1  0.02080000  0.73510000  0.68460000  1.0 0.0930982334
H  H92  1  0.97920000  0.23510000  0.81540000  1.0 0.0971557373
H  H93  1  0.09030000  0.38150000  0.35870000  1.0 0.0930982334
H  H94  1  0.90970000  0.88150000  0.14130000  1.0 0.0930982334
H  H95  1  0.90970000  0.61850000  0.64130000  1.0 0.0930982334
H  H96  1  0.09030000  0.11850000  0.85870000  1.0 0.0930982334
H  H97  1  0.04030000  0.38890000  0.29340000  1.0 0.0930982334
H  H98  1  0.95970000  0.88890000  0.20660000  1.0 0.0930982334
H  H99  1  0.95970000  0.61110000  0.70660000  1.0 0.0930982334
H  H100  1  0.04030000  0.11110000  0.79340000  1.0 0.0930982334
H  H101  1  0.00290000  0.51170000  0.32380000  1.0 0.0971557373
H  H102  1  0.99710000  0.01170000  0.17620000  1.0 0.0971557373
H  H103  1  0.99710000  0.48830000  0.67620000  1.0 0.0971557373
H  H104  1  0.00290000  0.98830000  0.82380000  1.0 0.0971557373
H  H105  1  0.27520000  0.61390000  0.29690000  1.0 0.2773790763
H  H106  1  0.72480000  0.11390000  0.20310000  1.0 0.2773790763
H  H107  1  0.72480000  0.38610000  0.70310000  1.0 0.2773790763
H  H108  1  0.27520000  0.88610000  0.79690000  1.0 0.2773790763
H  H109  1  0.25740000  0.18190000  0.27230000  1.0 0.2773790763
H  H110  1  0.74260000  0.68190000  0.22770000  1.0 0.2773790763
H  H111  1  0.74260000  0.81810000  0.72770000  1.0 0.2773790763
H  H112  1  0.25740000  0.31810000  0.77230000  1.0 0.2773790763
H  H113  1  0.76330000  0.68340000  0.35380000  1.0 0.2773790763
H  H114  1  0.23670000  0.18340000  0.14620000  1.0 0.2773790763
H  H115  1  0.23670000  0.31660000  0.64620000  1.0 0.2773790763
H  H116  1  0.76330000  0.81660000  0.85380000  1.0 0.2773790763
H  H117  1  0.71590000  0.16060000  0.35390000  1.0 0.2860760854
H  H118  1  0.28410000  0.66060000  0.14610000  1.0 0.2860760854
H  H119  1  0.28410000  0.83940000  0.64610000  1.0 0.2860760854
H  H120  1  0.71590000  0.33940000  0.85390000  1.0 0.2860760854
H  H121  1  0.76760000  0.32050000  0.43900000  1.0 0.2773790763
H  H122  1  0.23240000  0.82050000  0.06100000  1.0 0.2773790763
H  H123  1  0.23240000  0.67950000  0.56100000  1.0 0.2773790763
H  H124  1  0.76760000  0.17950000  0.93900000  1.0 0.2773790763
H  H125  1  0.16340000  0.32100000  0.46280000  1.0 0.2773790763
H  H126  1  0.83660000  0.82100000  0.03720000  1.0 0.2773790763
H  H127  1  0.83660000  0.67900000  0.53720000  1.0 0.2773790763
H  H128  1  0.16340000  0.17900000  0.96280000  1.0 0.2773790763
C  C1  1  0.29900000  0.51390000  0.34230000  1.0 -0.0936914592
C  C2  1  0.70100000  0.01390000  0.15770000  1.0 -0.0936914592
C  C3  1  0.70100000  0.48610000  0.65770000  1.0 -0.0936914592
C  C4  1  0.29900000  0.98610000  0.84230000  1.0 -0.0936914592
C  C5  1  0.39771000  0.46370000  0.35911000  1.0 0.0407420257
C  C6  1  0.60229000  0.96370000  0.14089000  1.0 0.0407420257
C  C7  1  0.60229000  0.53630000  0.64089000  1.0 0.0407420257
C  C8  1  0.39771000  0.03630000  0.85911000  1.0 0.0407420257
C  C9  1  0.48250000  0.49950000  0.33690000  1.0 -0.0593033527
C  C10  1  0.51750000  0.99950000  0.16310000  1.0 -0.0593033527
C  C11  1  0.51750000  0.50050000  0.66310000  1.0 -0.0593033527
C  C12  1  0.48250000  0.00050000  0.83690000  1.0 -0.0593033527
C  C13  1  0.41040000  0.38480000  0.39120000  1.0 -0.2874587261
C  C14  1  0.58960000  0.88480000  0.10880000  1.0 -0.2874587261
C  C15  1  0.58960000  0.61520000  0.60880000  1.0 -0.2874587261
C  C16  1  0.41040000  0.11520000  0.89120000  1.0 -0.2874587261
C  C17  1  0.39100000  0.31240000  0.35260000  1.0 0.0458524095
C  C18  1  0.60900000  0.81240000  0.14740000  1.0 0.0458524095
C  C19  1  0.60900000  0.68760000  0.64740000  1.0 0.0458524095
C  C20  1  0.39100000  0.18760000  0.85260000  1.0 0.0458524095
C  C21  1  0.28740000  0.27150000  0.32750000  1.0 -0.0987542511
C  C22  1  0.71260000  0.77150000  0.17250000  1.0 -0.0987542511
C  C23  1  0.71260000  0.72850000  0.67250000  1.0 -0.0987542511
C  C24  1  0.28740000  0.22850000  0.82750000  1.0 -0.0987542511
C  C25  1  0.47100000  0.28030000  0.32720000  1.0 -0.0593033527
C  C26  1  0.52900000  0.78030000  0.17280000  1.0 -0.0593033527
C  C27  1  0.52900000  0.71970000  0.67280000  1.0 -0.0593033527
C  C28  1  0.47100000  0.21970000  0.82720000  1.0 -0.0593033527
C  C29  1  0.56020000  0.79710000  0.34610000  1.0 -0.0593033527
C  C30  1  0.43980000  0.29710000  0.15390000  1.0 -0.0593033527
C  C31  1  0.43980000  0.20290000  0.65390000  1.0 -0.0593033527
C  C32  1  0.56020000  0.70290000  0.84610000  1.0 -0.0593033527
C  C33  1  0.65630000  0.83620000  0.38630000  1.0 0.0333053859
C  C34  1  0.34370000  0.33620000  0.11370000  1.0 0.0333053859
C  C35  1  0.34370000  0.16380000  0.61370000  1.0 0.0333053859
C  C36  1  0.65630000  0.66380000  0.88630000  1.0 0.0333053859
C  C37  1  0.75370000  0.78700000  0.39150000  1.0 -0.0805727194
C  C38  1  0.24630000  0.28700000  0.10850000  1.0 -0.0805727194
C  C39  1  0.24630000  0.21300000  0.60850000  1.0 -0.0805727194
C  C40  1  0.75370000  0.71300000  0.89150000  1.0 -0.0805727194
C  C41  1  0.65270000  0.91460000  0.41760000  1.0 -0.2578820123
C  C42  1  0.34730000  0.41460000  0.08240000  1.0 -0.2578820123
C  C43  1  0.34730000  0.08540000  0.58240000  1.0 -0.2578820123
C  C44  1  0.65270000  0.58540000  0.91760000  1.0 -0.2578820123
C  C45  1  0.64970000  0.99050000  0.38290000  1.0 0.0407420257
C  C46  1  0.35030000  0.49050000  0.11710000  1.0 0.0407420257
C  C47  1  0.35030000  0.00950000  0.61710000  1.0 0.0407420257
C  C48  1  0.64970000  0.50950000  0.88290000  1.0 0.0407420257
C  C49  1  0.57110000  0.00890000  0.32930000  1.0 -0.0593033527
C  C50  1  0.42890000  0.50890000  0.17070000  1.0 -0.0593033527
C  C51  1  0.42890000  0.99110000  0.67070000  1.0 -0.0593033527
C  C52  1  0.57110000  0.49110000  0.82930000  1.0 -0.0593033527
C  C53  1  0.71960000  0.05930000  0.39700000  1.0 -0.1062559534
C  C54  1  0.28040000  0.55930000  0.10300000  1.0 -0.1062559534
C  C55  1  0.28040000  0.94070000  0.60300000  1.0 -0.1062559534
C  C56  1  0.71960000  0.44070000  0.89700000  1.0 -0.1062559534
C  C57  1  0.67280000  0.28050000  0.48600000  1.0 -0.0987542511
C  C58  1  0.32720000  0.78050000  0.01400000  1.0 -0.0936914592
C  C59  1  0.32720000  0.71950000  0.51400000  1.0 -0.0987542511
C  C60  1  0.67280000  0.21950000  0.98600000  1.0 -0.0987542511
C  C61  1  0.63350000  0.32240000  0.52450000  1.0 0.0407420257
C  C62  1  0.36650000  0.82240000  0.97550000  1.0 0.0407420257
C  C63  1  0.36650000  0.67760000  0.47550000  1.0 0.0407420257
C  C64  1  0.63350000  0.17760000  0.02450000  1.0 0.0407420257
C  C65  1  0.67500000  0.40170000  0.52250000  1.0 -0.0805727194
C  C66  1  0.32500000  0.90170000  0.97750000  1.0 -0.0805727194
C  C67  1  0.32500000  0.59830000  0.47750000  1.0 -0.0805727194
C  C68  1  0.67500000  0.09830000  0.02250000  1.0 -0.0805727194
C  C69  1  0.55480000  0.29060000  0.55820000  1.0 -0.2781048003
C  C70  1  0.44520000  0.79060000  0.94180000  1.0 -0.2781048003
C  C71  1  0.44520000  0.70940000  0.44180000  1.0 -0.2781048003
C  C72  1  0.55480000  0.20940000  0.05820000  1.0 -0.2781048003
C  C73  1  0.42660000  0.32120000  0.53450000  1.0 0.0407420257
C  C74  1  0.57340000  0.82120000  0.96550000  1.0 0.0407420257
C  C75  1  0.57340000  0.67880000  0.46550000  1.0 0.0407420257
C  C76  1  0.42660000  0.17880000  0.03450000  1.0 0.0407420257
C  C77  1  0.38010000  0.39620000  0.54340000  1.0 -0.0805727194
C  C78  1  0.61990000  0.89620000  0.95660000  1.0 -0.0805727194
C  C79  1  0.61990000  0.60380000  0.45660000  1.0 -0.0805727194
C  C80  1  0.38010000  0.10380000  0.04340000  1.0 -0.0805727194
C  C81  1  0.33000000  0.28220000  0.49690000  1.0 -0.1062559534
C  C82  1  0.67000000  0.78220000  0.00310000  1.0 -0.1062559534
C  C83  1  0.67000000  0.71780000  0.50310000  1.0 -0.1062559534
C  C84  1  0.33000000  0.21780000  0.99690000  1.0 -0.1062559534
C  C85  1  0.76610000  0.55550000  0.29020000  1.0 0.4859357344
C  C86  1  0.23390000  0.05550000  0.20980000  1.0 0.4859357344
C  C87  1  0.23390000  0.44450000  0.70980000  1.0 0.4859357344
C  C88  1  0.76610000  0.94450000  0.79020000  1.0 0.4859357344
C  C89  1  0.82820000  0.47340000  0.28830000  1.0 -0.1177486071
C  C90  1  0.17180000  0.97340000  0.21170000  1.0 -0.1177486071
C  C91  1  0.17180000  0.52660000  0.71170000  1.0 -0.1177486071
C  C92  1  0.82820000  0.02660000  0.78830000  1.0 -0.1177486071
C  C93  1  0.74880000  0.39770000  0.28600000  1.0 -0.1797930868
C  C94  1  0.25120000  0.89770000  0.21400000  1.0 -0.1797930868
C  C95  1  0.25120000  0.60230000  0.71400000  1.0 -0.1797930868
C  C96  1  0.74880000  0.10230000  0.78600000  1.0 -0.1797930868
C  C97  1  0.81880000  0.32160000  0.27680000  1.0 -0.1403691087
C  C98  1  0.18120000  0.82160000  0.22320000  1.0 -0.1403691087
C  C99  1  0.18120000  0.67840000  0.72320000  1.0 -0.1346949024
C  C100  1  0.81880000  0.17840000  0.77680000  1.0 -0.1403691087
C  C101  1  0.93640000  0.31160000  0.32490000  1.0 -0.1403691087
C  C102  1  0.06360000  0.81160000  0.17510000  1.0 -0.1403691087
C  C103  1  0.06360000  0.68840000  0.67510000  1.0 -0.1403691087
C  C104  1  0.93640000  0.18840000  0.82490000  1.0 -0.1403691087
C  C105  1  0.01690000  0.38700000  0.32720000  1.0 -0.1995217883
C  C106  1  0.98310000  0.88700000  0.17280000  1.0 -0.1881370349
C  C107  1  0.98310000  0.61300000  0.67280000  1.0 -0.1995217883
C  C108  1  0.01690000  0.11300000  0.82720000  1.0 -0.1995217883
C  C109  1  0.95410000  0.46830000  0.33290000  1.0 -0.1403691087
C  C110  1  0.04590000  0.96830000  0.16710000  1.0 -0.1403691087
C  C111  1  0.04590000  0.53170000  0.66710000  1.0 -0.1403691087
C  C112  1  0.95410000  0.03170000  0.83290000  1.0 -0.1403691087
C  C113  1  0.91350000  0.28980000  0.38000000  1.0 0.5792714225
C  C114  1  0.08650000  0.78980000  0.12000000  1.0 0.5792714225
C  C115  1  0.08650000  0.71020000  0.62000000  1.0 0.5792714225
C  C116  1  0.91350000  0.21020000  0.88000000  1.0 0.5792714225
C  C117  1  0.96070000  0.48200000  0.39380000  1.0 0.5792714225
C  C118  1  0.03930000  0.98200000  0.10620000  1.0 0.5792714225
C  C119  1  0.03930000  0.51800000  0.60620000  1.0 0.5792714225
C  C120  1  0.96070000  0.01800000  0.89380000  1.0 0.5792714225
C  C121  1  0.74890000  0.24110000  0.26400000  1.0 0.5968920754
C  C122  1  0.25110000  0.74110000  0.23600000  1.0 0.5968920754
C  C123  1  0.25110000  0.75890000  0.73600000  1.0 0.5968920754
C  C124  1  0.74890000  0.25890000  0.76400000  1.0 0.5968920754
N  N1  1  0.43822000  0.56690000  0.30812000  1.0 -0.1797930868
N  N2  1  0.56178000  0.06690000  0.19188000  1.0 -0.1797930868
N  N3  1  0.56178000  0.43310000  0.69188000  1.0 -0.1797930868
N  N4  1  0.43822000  0.93310000  0.80812000  1.0 -0.1797930868
N  N5  1  0.32430000  0.57490000  0.31190000  1.0 -0.0675303305
N  N6  1  0.67570000  0.07490000  0.18810000  1.0 -0.0675303305
N  N7  1  0.67570000  0.42510000  0.68810000  1.0 -0.0675303305
N  N8  1  0.32430000  0.92510000  0.81190000  1.0 -0.0675303305
N  N9  1  0.42190000  0.22080000  0.29120000  1.0 -0.1403691087
N  N10  1  0.57810000  0.72080000  0.20880000  1.0 -0.1403691087
N  N11  1  0.57810000  0.77920000  0.70880000  1.0 -0.1403691087
N  N12  1  0.42190000  0.27920000  0.79120000  1.0 -0.1403691087
N  N13  1  0.31000000  0.21600000  0.29190000  1.0 -0.0526996521
N  N14  1  0.69000000  0.71600000  0.20810000  1.0 -0.0526996521
N  N15  1  0.69000000  0.78400000  0.70810000  1.0 -0.0526996521
N  N16  1  0.31000000  0.28400000  0.79190000  1.0 -0.0526996521
N  N17  1  0.59706000  0.72860000  0.32796000  1.0 -0.1797930868
N  N18  1  0.40294000  0.22860000  0.17204000  1.0 -0.1797930868
N  N19  1  0.40294000  0.27140000  0.67204000  1.0 -0.1797930868
N  N20  1  0.59706000  0.77140000  0.82796000  1.0 -0.1797930868
N  N21  1  0.71707000  0.72290000  0.35707000  1.0 -0.0805727194
N  N22  1  0.28293000  0.22290000  0.14293000  1.0 -0.0805727194
N  N23  1  0.28293000  0.27710000  0.64293000  1.0 -0.0805727194
N  N24  1  0.71707000  0.77710000  0.85707000  1.0 -0.0805727194
N  N25  1  0.59128000  0.08240000  0.31218000  1.0 -0.1722920222
N  N26  1  0.40872000  0.58240000  0.18782000  1.0 -0.1722920222
N  N27  1  0.40872000  0.91760000  0.68782000  1.0 -0.1722920222
N  N28  1  0.59128000  0.41760000  0.81218000  1.0 -0.1722920222
N  N29  1  0.68395000  0.11320000  0.35425000  1.0 -0.0593033527
N  N30  1  0.31605000  0.61320000  0.14575000  1.0 -0.0593033527
N  N31  1  0.31605000  0.88680000  0.64575000  1.0 -0.0593033527
N  N32  1  0.68395000  0.38680000  0.85425000  1.0 -0.0593033527
N  N33  1  0.73669000  0.40880000  0.48609000  1.0 -0.1881370349
N  N34  1  0.26331000  0.90880000  0.01391000  1.0 -0.1881370349
N  N35  1  0.26331000  0.59120000  0.51391000  1.0 -0.1881370349
N  N36  1  0.73669000  0.09120000  0.98609000  1.0 -0.1881370349
N  N37  1  0.73416000  0.33320000  0.46396000  1.0 -0.0526996521
N  N38  1  0.26584000  0.83320000  0.03604000  1.0 -0.0526996521
N  N39  1  0.26584000  0.66680000  0.53604000  1.0 -0.0526996521
N  N40  1  0.73416000  0.16680000  0.96396000  1.0 -0.0526996521
N  N41  1  0.26278000  0.40410000  0.51408000  1.0 -0.1995217883
N  N42  1  0.73722000  0.90410000  0.98592000  1.0 -0.1995217883
N  N43  1  0.73722000  0.59590000  0.48592000  1.0 -0.1995217883
N  N44  1  0.26278000  0.09590000  0.01408000  1.0 -0.2050290836
N  N45  1  0.23397000  0.33250000  0.48537000  1.0 -0.0593033527
N  N46  1  0.76603000  0.83250000  0.01463000  1.0 -0.0526996521
N  N47  1  0.76603000  0.66750000  0.51463000  1.0 -0.0526996521
N  N48  1  0.23397000  0.16750000  0.98537000  1.0 -0.0593033527
O  O1  1  0.65218000  0.55850000  0.27578000  1.0 -0.5605845062
O  O2  1  0.34782000  0.05850000  0.22422000  1.0 -0.5605845062
O  O3  1  0.34782000  0.44150000  0.72422000  1.0 -0.5605845062
O  O4  1  0.65218000  0.94150000  0.77578000  1.0 -0.5605845062
O  O5  1  0.81188000  0.17870000  0.26018000  1.0 -0.5979706182
O  O6  1  0.18812000  0.67870000  0.23982000  1.0 -0.5979706182
O  O7  1  0.18812000  0.82130000  0.73982000  1.0 -0.5979706182
O  O8  1  0.81188000  0.32130000  0.76018000  1.0 -0.5979706182
O  O9  1  0.63833000  0.23886000  0.25623000  1.0 -0.5605845062
O  O10  1  0.36167000  0.73886000  0.24377000  1.0 -0.5605845062
O  O11  1  0.36167000  0.76114000  0.74377000  1.0 -0.5605845062
O  O12  1  0.63833000  0.26114000  0.75623000  1.0 -0.5605845062
O  O13  1  0.86528000  0.48702000  0.40718000  1.0 -0.514178796
O  O14  1  0.13472000  0.98702000  0.09282000  1.0 -0.514178796
O  O15  1  0.13472000  0.51298000  0.59282000  1.0 -0.514178796
O  O16  1  0.86528000  0.01298000  0.90718000  1.0 -0.514178796
O  O17  1  0.06742000  0.48730000  0.42672000  1.0 -0.5335727765
O  O18  1  0.93258000  0.98730000  0.07328000  1.0 -0.5335727765
O  O19  1  0.93258000  0.51270000  0.57328000  1.0 -0.5335727765
O  O20  1  0.06742000  0.01270000  0.92672000  1.0 -0.5335727765
O  O21  1  0.00014000  0.29770000  0.42464000  1.0 -0.5204179121
O  O22  1  0.99986000  0.79770000  0.07536000  1.0 -0.5204179121
O  O23  1  0.99986000  0.70230000  0.57536000  1.0 -0.5204179121
O  O24  1  0.00014000  0.20230000  0.92464000  1.0 -0.5204179121
O  O25  1  0.81041000  0.26520000  0.37831000  1.0 -0.566815166
O  O26  1  0.18959000  0.76520000  0.12169000  1.0 -0.566815166
O  O27  1  0.18959000  0.73480000  0.62169000  1.0 -0.566815166
O  O28  1  0.81041000  0.23480000  0.87831000  1.0 -0.566815166
O  O29  1  0.00092000  0.59800000  0.49302000  1.0 -0.2874587261
O  O30  1  0.99908000  0.09800000  0.00698000  1.0 -0.2781048003
O  O31  1  0.99908000  0.40200000  0.50698000  1.0 -0.2781048003
O  O32  1  0.00092000  0.90200000  0.99302000  1.0 -0.2874587261
O  O33  1  0.83440000  0.61960000  0.30920000  1.0 -0.2391034944
O  O34  1  0.16560000  0.11960000  0.19080000  1.0 -0.2391034944
O  O35  1  0.16560000  0.38040000  0.69080000  1.0 -0.2391034944
O  O36  1  0.83440000  0.88040000  0.80920000  1.0 -0.2391034944
O  O37  1  0.83070000  0.61670000  0.29110000  1.0 -0.2391034944
O  O38  1  0.16930000  0.11670000  0.20890000  1.0 -0.2391034944
O  O39  1  0.16930000  0.38330000  0.70890000  1.0 -0.2391034944
O  O40  1  0.83070000  0.88330000  0.79110000  1.0 -0.2391034944
