# DDEC6 charges by PACMAN v1.1 (https://github.com/mtap-research/PACMAN-charge/)
data_FUMMUY_ASR_pacman
_symmetry_space_group_name_H-M   'P 1'
_cell_length_a   16.99300000
_cell_length_b   16.99300000
_cell_length_c   37.15300000
_cell_angle_alpha   85.38980000
_cell_angle_beta   94.61020000
_cell_angle_gamma   70.36220000
_symmetry_Int_Tables_number   1
_chemical_formula_structural   CdH12C22NO4
_chemical_formula_sum   'Cd8 H96 C176 N8 O32'
_cell_volume   10005.56651852
_cell_formula_units_Z   8
loop_
 _symmetry_equiv_pos_site_id
 _symmetry_equiv_pos_as_xyz
  1  'x, y, z'
loop_
 _atom_site_type_symbol
 _atom_site_label
 _atom_site_symmetry_multiplicity
 _atom_site_fract_x
 _atom_site_fract_y
 _atom_site_fract_z
 _atom_site_occupancy
 _atom_site_charge
Cd  Cd1  1  0.34759000  0.59275000  0.89909000  1.0 0.9504483398
Cd  Cd2  1  0.35378000  0.70422000  0.96919000  1.0 1.015602624
Cd  Cd3  1  0.40725000  0.65241000  0.39909000  1.0 0.9504483398
Cd  Cd4  1  0.29578000  0.64622000  0.46919000  1.0 1.011497056
Cd  Cd5  1  0.59275000  0.34759000  0.60091000  1.0 0.9504483398
Cd  Cd6  1  0.70422000  0.35378000  0.53081000  1.0 1.015602624
Cd  Cd7  1  0.65241000  0.40725000  0.10091000  1.0 0.9504483398
Cd  Cd8  1  0.64622000  0.29578000  0.03081000  1.0 1.011497056
H  H1  1  0.77930000  0.59190000  0.23500000  1.0 0.1189249634
H  H2  1  0.94160000  0.68600000  0.11640000  1.0 0.1131344745
H  H3  1  0.68940000  0.66140000  0.38340000  1.0 0.1189249634
H  H4  1  0.95480000  0.68160000  0.17970000  1.0 0.1131344745
H  H5  1  0.55780000  0.54380000  0.99980000  1.0 0.1189249634
H  H6  1  0.82710000  0.51270000  0.12420000  1.0 0.1262176204
H  H7  1  0.66666667  0.55880000  0.03440000  1.0 0.1262176204
H  H8  1  0.81780000  0.52920000  0.18440000  1.0 0.1189249634
H  H9  1  0.76140000  0.58560000  0.06580000  1.0 0.1262176204
H  H10  1  0.79770000  0.65930000  0.34750000  1.0 0.1189249634
H  H11  1  0.01140000  0.60560000  0.23800000  1.0 0.1131344745
H  H12  1  0.05990000  0.60330000  0.91600000  1.0 0.1189249634
H  H13  1  0.95100000  0.59420000  0.94740000  1.0 0.1131344745
H  H14  1  0.99100000  0.61360000  0.06710000  1.0 0.1131344745
H  H15  1  0.69610000  0.56050000  0.27150000  1.0 0.1189249634
H  H16  1  0.57760000  0.58400000  0.30050000  1.0 0.1189249634
H  H17  1  0.76040000  0.62180000  0.94460000  1.0 0.1131344745
H  H18  1  0.17550000  0.65910000  0.00000000  1.0 0.1131344745
H  H19  1  0.63860000  0.61640000  0.90870000  1.0 0.1189249634
H  H20  1  0.06840000  0.64620000  0.03570000  1.0 0.1131344745
H  H21  1  0.09610000  0.65830000  0.26950000  1.0 0.1189249634
H  H22  1  0.10820000  0.60000000  0.39540000  1.0 0.1262176204
H  H23  1  0.20560000  0.66900000  0.30770000  1.0 0.1262176204
H  H24  1  0.00100000  0.58700000  0.35890000  1.0 0.1189249634
H  H25  1  0.40810000  0.22070000  0.73500000  1.0 0.1189249634
H  H26  1  0.31400000  0.05840000  0.61640000  1.0 0.1131344745
H  H27  1  0.33860000  0.31060000  0.88340000  1.0 0.1189249634
H  H28  1  0.31840000  0.04520000  0.67970000  1.0 0.1131344745
H  H29  1  0.45620000  0.44220000  0.49980000  1.0 0.1189249634
H  H30  1  0.48730000  0.17290000  0.62420000  1.0 0.1262176204
H  H31  1  0.44120000  0.33333333  0.53440000  1.0 0.1262176204
H  H32  1  0.47080000  0.18220000  0.68440000  1.0 0.1189249634
H  H33  1  0.41440000  0.23860000  0.56580000  1.0 0.1262176204
H  H34  1  0.34070000  0.20230000  0.84750000  1.0 0.1189249634
H  H35  1  0.39440000  0.98860000  0.73800000  1.0 0.1131344745
H  H36  1  0.39670000  0.94010000  0.41600000  1.0 0.1189249634
H  H37  1  0.40580000  0.04900000  0.44740000  1.0 0.1131344745
H  H38  1  0.38640000  0.00900000  0.56710000  1.0 0.1131344745
H  H39  1  0.43950000  0.30390000  0.77150000  1.0 0.1189249634
H  H40  1  0.41600000  0.42240000  0.80050000  1.0 0.1189249634
H  H41  1  0.37820000  0.23960000  0.44460000  1.0 0.1131344745
H  H42  1  0.34090000  0.82450000  0.50000000  1.0 0.1131344745
H  H43  1  0.38360000  0.36140000  0.40870000  1.0 0.1189249634
H  H44  1  0.35380000  0.93160000  0.53570000  1.0 0.1131344745
H  H45  1  0.34170000  0.90390000  0.76950000  1.0 0.1189249634
H  H46  1  0.40000000  0.89180000  0.89540000  1.0 0.1262176204
H  H47  1  0.33100000  0.79440000  0.80770000  1.0 0.1262176204
H  H48  1  0.41300000  0.99900000  0.85890000  1.0 0.1189249634
H  H49  1  0.59190000  0.77930000  0.26500000  1.0 0.1189249634
H  H50  1  0.68600000  0.94160000  0.38360000  1.0 0.1131344745
H  H51  1  0.66140000  0.68940000  0.11660000  1.0 0.1189249634
H  H52  1  0.68160000  0.95480000  0.32030000  1.0 0.1131344745
H  H53  1  0.54380000  0.55780000  0.50020000  1.0 0.1189249634
H  H54  1  0.51270000  0.82710000  0.37580000  1.0 0.1262176204
H  H55  1  0.55880000  0.66666667  0.46560000  1.0 0.1262176204
H  H56  1  0.52920000  0.81780000  0.31560000  1.0 0.1189249634
H  H57  1  0.58560000  0.76140000  0.43420000  1.0 0.1262176204
H  H58  1  0.65930000  0.79770000  0.15250000  1.0 0.1189249634
H  H59  1  0.60560000  0.01140000  0.26200000  1.0 0.1131344745
H  H60  1  0.60330000  0.05990000  0.58400000  1.0 0.1189249634
H  H61  1  0.59420000  0.95100000  0.55260000  1.0 0.1131344745
H  H62  1  0.61360000  0.99100000  0.43290000  1.0 0.1131344745
H  H63  1  0.56050000  0.69610000  0.22850000  1.0 0.1189249634
H  H64  1  0.58400000  0.57760000  0.19950000  1.0 0.1189249634
H  H65  1  0.62180000  0.76040000  0.55540000  1.0 0.1131344745
H  H66  1  0.65910000  0.17550000  0.50000000  1.0 0.1131344745
H  H67  1  0.61640000  0.63860000  0.59130000  1.0 0.1189249634
H  H68  1  0.64620000  0.06840000  0.46430000  1.0 0.1131344745
H  H69  1  0.65830000  0.09610000  0.23050000  1.0 0.1189249634
H  H70  1  0.60000000  0.10820000  0.10460000  1.0 0.1262176204
H  H71  1  0.66900000  0.20560000  0.19230000  1.0 0.1262176204
H  H72  1  0.58700000  0.00100000  0.14110000  1.0 0.1189249634
H  H73  1  0.22070000  0.40810000  0.76500000  1.0 0.1189249634
H  H74  1  0.05840000  0.31400000  0.88360000  1.0 0.1131344745
H  H75  1  0.31060000  0.33860000  0.61660000  1.0 0.1189249634
H  H76  1  0.04520000  0.31840000  0.82030000  1.0 0.1131344745
H  H77  1  0.44220000  0.45620000  0.00020000  1.0 0.1189249634
H  H78  1  0.17290000  0.48730000  0.87580000  1.0 0.1262176204
H  H79  1  0.33333333  0.44120000  0.96560000  1.0 0.1262176204
H  H80  1  0.18220000  0.47080000  0.81560000  1.0 0.1189249634
H  H81  1  0.23860000  0.41440000  0.93420000  1.0 0.1262176204
H  H82  1  0.20230000  0.34070000  0.65250000  1.0 0.1189249634
H  H83  1  0.98860000  0.39440000  0.76200000  1.0 0.1131344745
H  H84  1  0.94010000  0.39670000  0.08400000  1.0 0.1189249634
H  H85  1  0.04900000  0.40580000  0.05260000  1.0 0.1131344745
H  H86  1  0.00900000  0.38640000  0.93290000  1.0 0.1131344745
H  H87  1  0.30390000  0.43950000  0.72850000  1.0 0.1189249634
H  H88  1  0.42240000  0.41600000  0.69950000  1.0 0.1189249634
H  H89  1  0.23960000  0.37820000  0.05540000  1.0 0.1131344745
H  H90  1  0.82450000  0.34090000  0.00000000  1.0 0.1131344745
H  H91  1  0.36140000  0.38360000  0.09130000  1.0 0.1189249634
H  H92  1  0.93160000  0.35380000  0.96430000  1.0 0.1131344745
H  H93  1  0.90390000  0.34170000  0.73050000  1.0 0.1189249634
H  H94  1  0.89180000  0.40000000  0.60460000  1.0 0.1262176204
H  H95  1  0.79440000  0.33100000  0.69230000  1.0 0.1262176204
H  H96  1  0.99900000  0.41300000  0.64110000  1.0 0.1189249634
C  C1  1  0.82560000  0.60140000  0.24760000  1.0 -0.2328096685
C  C2  1  0.82800000  0.61060000  0.28420000  1.0 0.1907482426
C  C3  1  0.87970000  0.60350000  0.11390000  1.0 0.0617855917
C  C4  1  0.76130000  0.60830000  0.30520000  1.0 0.0407407367
C  C5  1  0.89260000  0.60660000  0.22970000  1.0 0.1189249634
C  C6  1  0.91870000  0.65170000  0.13060000  1.0 -0.1420902443
C  C7  1  0.68860000  0.64420000  0.35970000  1.0 -0.0984168855
C  C8  1  0.92520000  0.65040000  0.16810000  1.0 -0.1497092713
C  C9  1  0.59600000  0.56420000  0.98820000  1.0 -0.0856451374
C  C10  1  0.84790000  0.55150000  0.13500000  1.0 -0.1219727665
C  C11  1  0.50840000  0.57940000  0.93340000  1.0 0.5505880123
C  C12  1  0.92740000  0.61900000  0.01540000  1.0 0.2426089998
C  C13  1  0.66320000  0.56940000  0.00870000  1.0 -0.1291422966
C  C14  1  0.62450000  0.62370000  0.34500000  1.0 -0.0151532065
C  C15  1  0.84740000  0.55760000  0.17090000  1.0 -0.1291422966
C  C16  1  0.80090000  0.59890000  0.01510000  1.0 0.2180016804
C  C17  1  0.80500000  0.59600000  0.05380000  1.0 -0.2360086237
C  C18  1  0.13040000  0.62660000  0.95300000  1.0 -0.0433039386
C  C19  1  0.72640000  0.58940000  0.99410000  1.0 0.0509584899
C  C20  1  0.75480000  0.63960000  0.33840000  1.0 -0.1420902443
C  C21  1  0.96250000  0.60910000  0.24950000  1.0 -0.2490730752
C  C22  1  0.06370000  0.61190000  0.94100000  1.0 -0.0984168855
C  C23  1  0.99650000  0.60690000  0.95900000  1.0 -0.1219727665
C  C24  1  0.86960000  0.60800000  0.07380000  1.0 0.1131344745
C  C25  1  0.94010000  0.61350000  0.05450000  1.0 -0.2939669137
C  C26  1  0.69400000  0.58540000  0.29360000  1.0 -0.1642460843
C  C27  1  0.62460000  0.59580000  0.31120000  1.0 -0.0984168855
C  C28  1  0.00060000  0.62140000  0.99480000  1.0 0.0407407367
C  C29  1  0.96300000  0.61700000  0.28730000  1.0 0.2180016804
C  C30  1  0.03330000  0.62270000  0.30890000  1.0 0.0130040245
C  C31  1  0.71790000  0.60790000  0.95590000  1.0 -0.1497092713
C  C32  1  0.88780000  0.60320000  0.18870000  1.0 0.0689886416
C  C33  1  0.58150000  0.58630000  0.95300000  1.0 -0.0703752246
C  C34  1  0.13100000  0.64360000  0.98920000  1.0 -0.1099695881
C  C35  1  0.64490000  0.60550000  0.93450000  1.0 -0.0795328314
C  C36  1  0.06530000  0.63810000  0.01070000  1.0 -0.1420902443
C  C37  1  0.54980000  0.63180000  0.36550000  1.0 0.5505880123
C  C38  1  0.23260000  0.65280000  0.37940000  1.0 0.5913340654
C  C39  1  0.20290000  0.62290000  0.93400000  1.0 0.5505880123
C  C40  1  0.09740000  0.64680000  0.29500000  1.0 -0.1497092713
C  C41  1  0.10530000  0.61350000  0.36990000  1.0 -0.0795328314
C  C42  1  0.16290000  0.63950000  0.35720000  1.0 -0.0532590087
C  C43  1  0.16190000  0.65430000  0.31760000  1.0 -0.0795328314
C  C44  1  0.04180000  0.60520000  0.34810000  1.0 -0.1219727665
C  C45  1  0.39860000  0.17440000  0.74760000  1.0 -0.2328096685
C  C46  1  0.38940000  0.17200000  0.78420000  1.0 0.1907482426
C  C47  1  0.39650000  0.12030000  0.61390000  1.0 0.0617855917
C  C48  1  0.39170000  0.23870000  0.80520000  1.0 0.0407407367
C  C49  1  0.39340000  0.10740000  0.72970000  1.0 0.1189249634
C  C50  1  0.34830000  0.08130000  0.63060000  1.0 -0.1420902443
C  C51  1  0.35580000  0.31140000  0.85970000  1.0 -0.0984168855
C  C52  1  0.34960000  0.07480000  0.66810000  1.0 -0.1497092713
C  C53  1  0.43580000  0.40400000  0.48820000  1.0 -0.0856451374
C  C54  1  0.44850000  0.15210000  0.63500000  1.0 -0.1219727665
C  C55  1  0.42060000  0.49160000  0.43340000  1.0 0.5505880123
C  C56  1  0.38100000  0.07260000  0.51540000  1.0 0.2426089998
C  C57  1  0.43060000  0.33680000  0.50870000  1.0 -0.1291422966
C  C58  1  0.37630000  0.37550000  0.84500000  1.0 -0.0151532065
C  C59  1  0.44240000  0.15260000  0.67090000  1.0 -0.1291422966
C  C60  1  0.40110000  0.19910000  0.51510000  1.0 0.2180016804
C  C61  1  0.40400000  0.19500000  0.55380000  1.0 -0.2360086237
C  C62  1  0.37340000  0.86960000  0.45300000  1.0 -0.0433039386
C  C63  1  0.41060000  0.27360000  0.49410000  1.0 0.0509584899
C  C64  1  0.36040000  0.24520000  0.83840000  1.0 -0.1420902443
C  C65  1  0.39090000  0.03750000  0.74950000  1.0 -0.2490730752
C  C66  1  0.38810000  0.93630000  0.44100000  1.0 -0.0984168855
C  C67  1  0.39310000  0.00350000  0.45900000  1.0 -0.1219727665
C  C68  1  0.39200000  0.13040000  0.57380000  1.0 0.1131344745
C  C69  1  0.38650000  0.05990000  0.55450000  1.0 -0.2939669137
C  C70  1  0.41460000  0.30600000  0.79360000  1.0 -0.1642460843
C  C71  1  0.40420000  0.37540000  0.81120000  1.0 -0.0984168855
C  C72  1  0.37860000  0.99940000  0.49480000  1.0 0.0407407367
C  C73  1  0.38300000  0.03700000  0.78730000  1.0 0.2180016804
C  C74  1  0.37730000  0.96670000  0.80890000  1.0 0.0130040245
C  C75  1  0.39210000  0.28210000  0.45590000  1.0 -0.1497092713
C  C76  1  0.39680000  0.11220000  0.68870000  1.0 0.0689886416
C  C77  1  0.41370000  0.41850000  0.45300000  1.0 -0.0703752246
C  C78  1  0.35640000  0.86900000  0.48920000  1.0 -0.1099695881
C  C79  1  0.39450000  0.35510000  0.43450000  1.0 -0.0795328314
C  C80  1  0.36190000  0.93470000  0.51070000  1.0 -0.1420902443
C  C81  1  0.36820000  0.45020000  0.86550000  1.0 0.5505880123
C  C82  1  0.34720000  0.76740000  0.87940000  1.0 0.5913340654
C  C83  1  0.37710000  0.79710000  0.43400000  1.0 0.5505880123
C  C84  1  0.35320000  0.90260000  0.79500000  1.0 -0.1497092713
C  C85  1  0.38650000  0.89470000  0.86990000  1.0 -0.0795328314
C  C86  1  0.36050000  0.83710000  0.85720000  1.0 -0.0532590087
C  C87  1  0.34570000  0.83810000  0.81760000  1.0 -0.0795328314
C  C88  1  0.39480000  0.95820000  0.84810000  1.0 -0.1219727665
C  C89  1  0.60140000  0.82560000  0.25240000  1.0 -0.2328096685
C  C90  1  0.61060000  0.82800000  0.21580000  1.0 0.1907482426
C  C91  1  0.60350000  0.87970000  0.38610000  1.0 0.0617855917
C  C92  1  0.60830000  0.76130000  0.19480000  1.0 0.0407407367
C  C93  1  0.60660000  0.89260000  0.27030000  1.0 0.1189249634
C  C94  1  0.65170000  0.91870000  0.36940000  1.0 -0.1420902443
C  C95  1  0.64420000  0.68860000  0.14030000  1.0 -0.0984168855
C  C96  1  0.65040000  0.92520000  0.33190000  1.0 -0.1497092713
C  C97  1  0.56420000  0.59600000  0.51180000  1.0 -0.0856451374
C  C98  1  0.55150000  0.84790000  0.36500000  1.0 -0.1219727665
C  C99  1  0.57940000  0.50840000  0.56660000  1.0 0.5505880123
C  C100  1  0.61900000  0.92740000  0.48460000  1.0 0.2426089998
C  C101  1  0.56940000  0.66320000  0.49130000  1.0 -0.1291422966
C  C102  1  0.62370000  0.62450000  0.15500000  1.0 -0.0151532065
C  C103  1  0.55760000  0.84740000  0.32910000  1.0 -0.1291422966
C  C104  1  0.59890000  0.80090000  0.48490000  1.0 0.2180016804
C  C105  1  0.59600000  0.80500000  0.44620000  1.0 -0.2360086237
C  C106  1  0.62660000  0.13040000  0.54700000  1.0 -0.0433039386
C  C107  1  0.58940000  0.72640000  0.50590000  1.0 0.0509584899
C  C108  1  0.63960000  0.75480000  0.16160000  1.0 -0.1420902443
C  C109  1  0.60910000  0.96250000  0.25050000  1.0 -0.2490730752
C  C110  1  0.61190000  0.06370000  0.55900000  1.0 -0.0984168855
C  C111  1  0.60690000  0.99650000  0.54100000  1.0 -0.1219727665
C  C112  1  0.60800000  0.86960000  0.42620000  1.0 0.1131344745
C  C113  1  0.61350000  0.94010000  0.44550000  1.0 -0.2950171773
C  C114  1  0.58540000  0.69400000  0.20640000  1.0 -0.1642460843
C  C115  1  0.59580000  0.62460000  0.18880000  1.0 -0.0984168855
C  C116  1  0.62140000  0.00060000  0.50520000  1.0 0.0407407367
C  C117  1  0.61700000  0.96300000  0.21270000  1.0 0.2180016804
C  C118  1  0.62270000  0.03330000  0.19110000  1.0 0.0151999089
C  C119  1  0.60790000  0.71790000  0.54410000  1.0 -0.1497092713
C  C120  1  0.60320000  0.88780000  0.31130000  1.0 0.0689886416
C  C121  1  0.58630000  0.58150000  0.54700000  1.0 -0.0703752246
C  C122  1  0.64360000  0.13100000  0.51080000  1.0 -0.1099695881
C  C123  1  0.60550000  0.64490000  0.56550000  1.0 -0.0795328314
C  C124  1  0.63810000  0.06530000  0.48930000  1.0 -0.1420902443
C  C125  1  0.63180000  0.54980000  0.13450000  1.0 0.5505880123
C  C126  1  0.65280000  0.23260000  0.12060000  1.0 0.5913340654
C  C127  1  0.62290000  0.20290000  0.56600000  1.0 0.5505880123
C  C128  1  0.64680000  0.09740000  0.20500000  1.0 -0.1497092713
C  C129  1  0.61350000  0.10530000  0.13010000  1.0 -0.0795328314
C  C130  1  0.63950000  0.16290000  0.14280000  1.0 -0.0532590087
C  C131  1  0.65430000  0.16190000  0.18240000  1.0 -0.0795328314
C  C132  1  0.60520000  0.04180000  0.15190000  1.0 -0.1219727665
C  C133  1  0.17440000  0.39860000  0.75240000  1.0 -0.2328096685
C  C134  1  0.17200000  0.38940000  0.71580000  1.0 0.1907482426
C  C135  1  0.12030000  0.39650000  0.88610000  1.0 0.0617855917
C  C136  1  0.23870000  0.39170000  0.69480000  1.0 0.0407407367
C  C137  1  0.10740000  0.39340000  0.77030000  1.0 0.1189249634
C  C138  1  0.08130000  0.34830000  0.86940000  1.0 -0.1420902443
C  C139  1  0.31140000  0.35580000  0.64030000  1.0 -0.0984168855
C  C140  1  0.07480000  0.34960000  0.83190000  1.0 -0.1497092713
C  C141  1  0.40400000  0.43580000  0.01180000  1.0 -0.0856451374
C  C142  1  0.15210000  0.44850000  0.86500000  1.0 -0.1219727665
C  C143  1  0.49160000  0.42060000  0.06660000  1.0 0.5505880123
C  C144  1  0.07260000  0.38100000  0.98460000  1.0 0.2426089998
C  C145  1  0.33680000  0.43060000  0.99130000  1.0 -0.1291422966
C  C146  1  0.37550000  0.37630000  0.65500000  1.0 -0.0151532065
C  C147  1  0.15260000  0.44240000  0.82910000  1.0 -0.1291422966
C  C148  1  0.19910000  0.40110000  0.98490000  1.0 0.2180016804
C  C149  1  0.19500000  0.40400000  0.94620000  1.0 -0.2360086237
C  C150  1  0.86960000  0.37340000  0.04700000  1.0 -0.0433039386
C  C151  1  0.27360000  0.41060000  0.00590000  1.0 0.0509584899
C  C152  1  0.24520000  0.36040000  0.66160000  1.0 -0.1420902443
C  C153  1  0.03750000  0.39090000  0.75050000  1.0 -0.2490730752
C  C154  1  0.93630000  0.38810000  0.05900000  1.0 -0.0984168855
C  C155  1  0.00350000  0.39310000  0.04100000  1.0 -0.1219727665
C  C156  1  0.13040000  0.39200000  0.92620000  1.0 0.1131344745
C  C157  1  0.05990000  0.38650000  0.94550000  1.0 -0.2950171773
C  C158  1  0.30600000  0.41460000  0.70640000  1.0 -0.1642460843
C  C159  1  0.37540000  0.40420000  0.68880000  1.0 -0.0984168855
C  C160  1  0.99940000  0.37860000  0.00520000  1.0 0.0407407367
C  C161  1  0.03700000  0.38300000  0.71270000  1.0 0.2180016804
C  C162  1  0.96670000  0.37730000  0.69110000  1.0 0.0151999089
C  C163  1  0.28210000  0.39210000  0.04410000  1.0 -0.1497092713
C  C164  1  0.11220000  0.39680000  0.81130000  1.0 0.0689886416
C  C165  1  0.41850000  0.41370000  0.04700000  1.0 -0.0703752246
C  C166  1  0.86900000  0.35640000  0.01080000  1.0 -0.1099695881
C  C167  1  0.35510000  0.39450000  0.06550000  1.0 -0.0795328314
C  C168  1  0.93470000  0.36190000  0.98930000  1.0 -0.1420902443
C  C169  1  0.45020000  0.36820000  0.63450000  1.0 0.5505880123
C  C170  1  0.76740000  0.34720000  0.62060000  1.0 0.5913340654
C  C171  1  0.79710000  0.37710000  0.06600000  1.0 0.5505880123
C  C172  1  0.90260000  0.35320000  0.70500000  1.0 -0.1497092713
C  C173  1  0.89470000  0.38650000  0.63010000  1.0 -0.0795328314
C  C174  1  0.83710000  0.36050000  0.64280000  1.0 -0.0532590087
C  C175  1  0.83810000  0.34570000  0.68240000  1.0 -0.0795328314
C  C176  1  0.95820000  0.39480000  0.65190000  1.0 -0.1219727665
N  N1  1  0.89820000  0.61500000  0.30370000  1.0 -0.3115995173
N  N2  1  0.86370000  0.60790000  0.99759000  1.0 -0.3244794328
N  N3  1  0.38500000  0.10180000  0.80370000  1.0 -0.3115995173
N  N4  1  0.39210000  0.13630000  0.49759000  1.0 -0.3244794328
N  N5  1  0.61500000  0.89820000  0.19630000  1.0 -0.3115995173
N  N6  1  0.60790000  0.86370000  0.50241000  1.0 -0.3244794328
N  N7  1  0.10180000  0.38500000  0.69630000  1.0 -0.3115995173
N  N8  1  0.13630000  0.39210000  0.00241000  1.0 -0.3244794328
O  O1  1  0.29240000  0.66840000  0.36380000  1.0 -0.5278285985
O  O2  1  0.55680000  0.63780000  0.39942000  1.0 -0.5565901045
O  O3  1  0.48240000  0.63460000  0.34994000  1.0 -0.4897188216
O  O4  1  0.23210000  0.63830000  0.41340000  1.0 -0.5981393401
O  O5  1  0.20110000  0.61010000  0.90150000  1.0 -0.4822141473
O  O6  1  0.44140000  0.58300000  0.94670000  1.0 -0.5723771845
O  O7  1  0.50800000  0.57840000  0.89880000  1.0 -0.4897188216
O  O8  1  0.26260000  0.63360000  0.94860000  1.0 -0.4897188216
O  O9  1  0.33160000  0.70760000  0.86380000  1.0 -0.5278285985
O  O10  1  0.36220000  0.44320000  0.89942000  1.0 -0.5565901045
O  O11  1  0.36540000  0.51760000  0.84994000  1.0 -0.4897188216
O  O12  1  0.36170000  0.76790000  0.91340000  1.0 -0.5981393401
O  O13  1  0.38990000  0.79890000  0.40150000  1.0 -0.4822141473
O  O14  1  0.41700000  0.55860000  0.44670000  1.0 -0.5723771845
O  O15  1  0.42160000  0.49200000  0.39880000  1.0 -0.4897188216
O  O16  1  0.36640000  0.73740000  0.44860000  1.0 -0.4897188216
O  O17  1  0.66840000  0.29240000  0.13620000  1.0 -0.5278285985
O  O18  1  0.63780000  0.55680000  0.10058000  1.0 -0.5565901045
O  O19  1  0.63460000  0.48240000  0.15006000  1.0 -0.4897188216
O  O20  1  0.63830000  0.23210000  0.08660000  1.0 -0.5981393401
O  O21  1  0.61010000  0.20110000  0.59850000  1.0 -0.4822141473
O  O22  1  0.58300000  0.44140000  0.55330000  1.0 -0.5723771845
O  O23  1  0.57840000  0.50800000  0.60120000  1.0 -0.4897188216
O  O24  1  0.63360000  0.26260000  0.55140000  1.0 -0.4897188216
O  O25  1  0.70760000  0.33160000  0.63620000  1.0 -0.5278285985
O  O26  1  0.44320000  0.36220000  0.60058000  1.0 -0.5565901045
O  O27  1  0.51760000  0.36540000  0.65006000  1.0 -0.4897188216
O  O28  1  0.76790000  0.36170000  0.58660000  1.0 -0.5981393401
O  O29  1  0.79890000  0.38990000  0.09850000  1.0 -0.4822141473
O  O30  1  0.55860000  0.41700000  0.05330000  1.0 -0.5723771845
O  O31  1  0.49200000  0.42160000  0.10120000  1.0 -0.4897188216
O  O32  1  0.73740000  0.36640000  0.05140000  1.0 -0.4897188216
