# DDEC6 charges by PACMAN v1.1 (https://github.com/mtap-research/PACMAN-charge/)
data_FURSES_ASR_pacman
_symmetry_space_group_name_H-M   'P 1'
_cell_length_a   10.01500000
_cell_length_b   6.61240000
_cell_length_c   12.47210000
_cell_angle_alpha   90.00000000
_cell_angle_beta   109.41200000
_cell_angle_gamma   90.00000000
_symmetry_Int_Tables_number   1
_chemical_formula_structural   Cu2H4C9N4O5
_chemical_formula_sum   'Cu4 H8 C18 N8 O10'
_cell_volume   778.98991946
_cell_formula_units_Z   2
loop_
 _symmetry_equiv_pos_site_id
 _symmetry_equiv_pos_as_xyz
  1  'x, y, z'
loop_
 _atom_site_type_symbol
 _atom_site_label
 _atom_site_symmetry_multiplicity
 _atom_site_fract_x
 _atom_site_fract_y
 _atom_site_fract_z
 _atom_site_occupancy
 _atom_site_charge
Cu  Cu1  1  0.86420000  0.25000000  0.23270000  1.0 0.8216754594
Cu  Cu2  1  0.13580000  0.75000000  0.76730000  1.0 0.8216754594
Cu  Cu3  1  0.00000000  0.00000000  0.50000000  1.0 0.7537802257
Cu  Cu4  1  0.00000000  0.50000000  0.50000000  1.0 0.7537802257
H  H1  1  0.41840000  0.25000000  0.24880000  1.0 0.1331637698
H  H2  1  0.58160000  0.75000000  0.75120000  1.0 0.1331637698
H  H3  1  0.05490000  0.25000000  0.98630000  1.0 0.1369558322
H  H4  1  0.94510000  0.75000000  0.01370000  1.0 0.1369558322
H  H5  1  0.42360000  0.25000000  0.93230000  1.0 0.1331637698
H  H6  1  0.57640000  0.75000000  0.06770000  1.0 0.1369558322
H  H7  1  0.07790000  0.25000000  0.41210000  1.0 0.3768020817
H  H8  1  0.92210000  0.75000000  0.58790000  1.0 0.3768020817
C  C1  1  0.60860000  0.25000000  0.14530000  1.0 0.5429392852
C  C2  1  0.39140000  0.75000000  0.85470000  1.0 0.5429392852
C  C3  1  0.44930000  0.25000000  0.10020000  1.0 0.0079167899
C  C4  1  0.55070000  0.75000000  0.89980000  1.0 0.0079167899
C  C5  1  0.37060000  0.25000000  0.17080000  1.0 -0.108545614
C  C6  1  0.62940000  0.75000000  0.82920000  1.0 -0.108545614
C  C7  1  0.22210000  0.25000000  0.13330000  1.0 -0.0325800605
C  C8  1  0.77790000  0.75000000  0.86670000  1.0 -0.0325800605
C  C9  1  0.15330000  0.25000000  0.01520000  1.0 -0.0945133619
C  C10  1  0.84670000  0.75000000  0.98480000  1.0 -0.0945133619
C  C11  1  0.23090000  0.25000000  0.94090000  1.0 0.0439443499
C  C12  1  0.76910000  0.75000000  0.05910000  1.0 0.0439443499
C  C13  1  0.37330000  0.25000000  0.98300000  1.0 -0.0983936541
C  C14  1  0.62670000  0.75000000  0.01700000  1.0 -0.0983936541
C  C15  1  0.13790000  0.25000000  0.20980000  1.0 0.5653490819
C  C16  1  0.86210000  0.75000000  0.79020000  1.0 0.5653490819
C  C17  1  0.16120000  0.25000000  0.81280000  1.0 0.3132256068
C  C18  1  0.83880000  0.75000000  0.18720000  1.0 0.3132256068
N  N1  1  0.12490000  0.08200000  0.75160000  1.0 -0.2400661312
N  N2  1  0.87510000  0.58200000  0.24840000  1.0 -0.2400661312
N  N3  1  0.87510000  0.91800000  0.24840000  1.0 -0.2400661312
N  N4  1  0.12490000  0.41800000  0.75160000  1.0 -0.2400661312
N  N5  1  0.06950000  0.15110000  0.64560000  1.0 -0.0381200514
N  N6  1  0.93050000  0.65110000  0.35440000  1.0 -0.0381200514
N  N7  1  0.93050000  0.84890000  0.35440000  1.0 -0.0381200514
N  N8  1  0.06950000  0.34890000  0.64560000  1.0 -0.0381200514
O  O1  1  0.67340000  0.25000000  0.07480000  1.0 -0.5280539594
O  O2  1  0.32660000  0.75000000  0.92520000  1.0 -0.5280539594
O  O3  1  0.67350000  0.25000000  0.25160000  1.0 -0.5111590527
O  O4  1  0.32650000  0.75000000  0.74840000  1.0 -0.5111590527
O  O5  1  0.20010000  0.25000000  0.31630000  1.0 -0.5525727473
O  O6  1  0.79990000  0.75000000  0.68370000  1.0 -0.5525727473
O  O7  1  0.00360000  0.25000000  0.16320000  1.0 -0.5431809626
O  O8  1  0.99640000  0.75000000  0.83680000  1.0 -0.5431809626
O  O9  1  0.99500000  0.25000000  0.41650000  1.0 -0.8063078128
O  O10  1  0.00500000  0.75000000  0.58350000  1.0 -0.8045731984
