# DDEC6 charges by PACMAN v1.1 (https://github.com/mtap-research/PACMAN-charge/)
data_FUSVUN_ASR_pacman
_symmetry_space_group_name_H-M   'P 1'
_cell_length_a   15.21400000
_cell_length_b   15.21400000
_cell_length_c   15.80900000
_cell_angle_alpha   90.00000000
_cell_angle_beta   90.00000000
_cell_angle_gamma   120.00000000
_symmetry_Int_Tables_number   1
_chemical_formula_structural   Y2Mn3H18C42(NO4)6
_chemical_formula_sum   'Y4 Mn6 H36 C84 N12 O48'
_cell_volume   3168.99719654
_cell_formula_units_Z   2
loop_
 _symmetry_equiv_pos_site_id
 _symmetry_equiv_pos_as_xyz
  1  'x, y, z'
loop_
 _atom_site_type_symbol
 _atom_site_label
 _atom_site_symmetry_multiplicity
 _atom_site_fract_x
 _atom_site_fract_y
 _atom_site_fract_z
 _atom_site_occupancy
 _atom_site_charge
Y  Y1  1  0.66666667  0.33333333  0.24999000  1.0 1.4880904683
Y  Y2  1  0.33333333  0.66666667  0.75001000  1.0 1.4880904683
Y  Y3  1  0.33333333  0.66666667  0.24999000  1.0 1.4880904683
Y  Y4  1  0.66666667  0.33333333  0.75001000  1.0 1.4880904683
Mn  Mn1  1  0.50000000  0.50000000  0.00000000  1.0 1.0676067202
Mn  Mn2  1  0.50000000  0.00000000  0.00000000  1.0 1.0676067202
Mn  Mn3  1  0.00000000  0.50000000  0.00000000  1.0 1.0676067202
Mn  Mn4  1  0.50000000  0.00000000  0.50000000  1.0 1.0676067202
Mn  Mn5  1  0.00000000  0.50000000  0.50000000  1.0 1.0676067202
Mn  Mn6  1  0.50000000  0.50000000  0.50000000  1.0 1.0676067202
H  H1  1  0.29000000  0.05625000  0.34336000  1.0 0.1353496914
H  H2  1  0.20084000  0.10047000  0.25006000  1.0 0.1068525405
H  H3  1  0.28988000  0.23371000  0.15683000  1.0 0.1353496914
H  H4  1  0.71014000  0.76670000  0.15634000  1.0 0.1348399648
H  H5  1  0.79913000  0.89949000  0.25042000  1.0 0.1068525405
H  H6  1  0.70982000  0.94342000  0.34352000  1.0 0.1348399648
H  H7  1  0.94375000  0.23375000  0.34336000  1.0 0.1353496914
H  H8  1  0.89953000  0.10037000  0.25006000  1.0 0.1068525405
H  H9  1  0.76629000  0.05617000  0.15683000  1.0 0.1353496914
H  H10  1  0.23330000  0.94344000  0.15634000  1.0 0.1353496914
H  H11  1  0.10051000  0.89964000  0.25042000  1.0 0.1068525405
H  H12  1  0.05658000  0.76640000  0.34352000  1.0 0.1353496914
H  H13  1  0.76625000  0.71000000  0.34336000  1.0 0.1348399648
H  H14  1  0.89963000  0.79916000  0.25006000  1.0 0.1068525405
H  H15  1  0.94383000  0.71012000  0.15683000  1.0 0.1353496914
H  H16  1  0.05656000  0.28986000  0.15634000  1.0 0.1353496914
H  H17  1  0.10036000  0.20087000  0.25042000  1.0 0.1068525405
H  H18  1  0.23360000  0.29018000  0.34352000  1.0 0.1353496914
H  H19  1  0.71000000  0.94375000  0.65664000  1.0 0.1353496914
H  H20  1  0.79916000  0.89953000  0.74994000  1.0 0.1068525405
H  H21  1  0.71012000  0.76629000  0.84317000  1.0 0.1353496914
H  H22  1  0.28986000  0.23330000  0.84366000  1.0 0.1353496914
H  H23  1  0.20087000  0.10051000  0.74958000  1.0 0.1068525405
H  H24  1  0.29018000  0.05658000  0.65648000  1.0 0.1348399648
H  H25  1  0.05625000  0.76625000  0.65664000  1.0 0.1348399648
H  H26  1  0.10047000  0.89963000  0.74994000  1.0 0.1068525405
H  H27  1  0.23371000  0.94383000  0.84317000  1.0 0.1353496914
H  H28  1  0.76670000  0.05656000  0.84366000  1.0 0.1348399648
H  H29  1  0.89949000  0.10036000  0.74958000  1.0 0.1068525405
H  H30  1  0.94342000  0.23360000  0.65648000  1.0 0.1353496914
H  H31  1  0.23375000  0.29000000  0.65664000  1.0 0.1353496914
H  H32  1  0.10037000  0.20084000  0.74994000  1.0 0.1068525405
H  H33  1  0.05617000  0.28988000  0.84317000  1.0 0.1353496914
H  H34  1  0.94344000  0.71014000  0.84366000  1.0 0.1348399648
H  H35  1  0.89964000  0.79913000  0.74958000  1.0 0.1068525405
H  H36  1  0.76640000  0.70982000  0.65648000  1.0 0.1353496914
C  C1  1  0.49400000  0.14100000  0.35990000  1.0 0.5616301376
C  C2  1  0.42860000  0.16290000  0.30300000  1.0 0.1206217561
C  C3  1  0.32420000  0.10930000  0.30530000  1.0 -0.1339901371
C  C4  1  0.27140000  0.13570000  0.25000000  1.0 -0.0625457645
C  C5  1  0.32410000  0.21480000  0.19480000  1.0 -0.1355350635
C  C6  1  0.42870000  0.26570000  0.19680000  1.0 0.1206217561
C  C7  1  0.49390000  0.35320000  0.14020000  1.0 0.5616301376
C  C8  1  0.50610000  0.64700000  0.14020000  1.0 0.5616301376
C  C9  1  0.57130000  0.73420000  0.19700000  1.0 0.1206217561
C  C10  1  0.67590000  0.78520000  0.19460000  1.0 -0.1339901371
C  C11  1  0.72850000  0.86420000  0.25020000  1.0 -0.0625457645
C  C12  1  0.67560000  0.89040000  0.30540000  1.0 -0.1339901371
C  C13  1  0.57130000  0.83710000  0.30330000  1.0 0.1206217561
C  C14  1  0.50600000  0.85900000  0.35960000  1.0 0.5616301376
C  C15  1  0.85900000  0.35300000  0.35990000  1.0 0.5616301376
C  C16  1  0.83710000  0.26570000  0.30300000  1.0 0.1206217561
C  C17  1  0.89070000  0.21490000  0.30530000  1.0 -0.1339901371
C  C18  1  0.86430000  0.13570000  0.25000000  1.0 -0.0625457645
C  C19  1  0.78520000  0.10930000  0.19480000  1.0 -0.1355350635
C  C20  1  0.73430000  0.16300000  0.19680000  1.0 0.1206217561
C  C21  1  0.64680000  0.14070000  0.14020000  1.0 0.5616301376
C  C22  1  0.35300000  0.85910000  0.14020000  1.0 0.5616301376
C  C23  1  0.26580000  0.83710000  0.19700000  1.0 0.1206217561
C  C24  1  0.21480000  0.89070000  0.19460000  1.0 -0.1339901371
C  C25  1  0.13580000  0.86430000  0.25020000  1.0 -0.0625457645
C  C26  1  0.10960000  0.78520000  0.30540000  1.0 -0.1339901371
C  C27  1  0.16290000  0.73420000  0.30330000  1.0 0.1206217561
C  C28  1  0.14100000  0.64700000  0.35960000  1.0 0.5616301376
C  C29  1  0.64700000  0.50600000  0.35990000  1.0 0.5616301376
C  C30  1  0.73430000  0.57140000  0.30300000  1.0 0.1206217561
C  C31  1  0.78510000  0.67580000  0.30530000  1.0 -0.1339901371
C  C32  1  0.86430000  0.72860000  0.25000000  1.0 -0.0625457645
C  C33  1  0.89070000  0.67590000  0.19480000  1.0 -0.1355350635
C  C34  1  0.83700000  0.57130000  0.19680000  1.0 0.1206217561
C  C35  1  0.85930000  0.50610000  0.14020000  1.0 0.5616301376
C  C36  1  0.14090000  0.49390000  0.14020000  1.0 0.5616301376
C  C37  1  0.16290000  0.42870000  0.19700000  1.0 0.1206217561
C  C38  1  0.10930000  0.32410000  0.19460000  1.0 -0.1339901371
C  C39  1  0.13570000  0.27150000  0.25020000  1.0 -0.0625457645
C  C40  1  0.21480000  0.32440000  0.30540000  1.0 -0.1339901371
C  C41  1  0.26580000  0.42870000  0.30330000  1.0 0.1206217561
C  C42  1  0.35300000  0.49400000  0.35960000  1.0 0.5616301376
C  C43  1  0.50600000  0.85900000  0.64010000  1.0 0.5616301376
C  C44  1  0.57140000  0.83710000  0.69700000  1.0 0.1206217561
C  C45  1  0.67580000  0.89070000  0.69470000  1.0 -0.1339901371
C  C46  1  0.72860000  0.86430000  0.75000000  1.0 -0.0625457645
C  C47  1  0.67590000  0.78520000  0.80520000  1.0 -0.1355350635
C  C48  1  0.57130000  0.73430000  0.80320000  1.0 0.1206217561
C  C49  1  0.50610000  0.64680000  0.85980000  1.0 0.5616301376
C  C50  1  0.49390000  0.35300000  0.85980000  1.0 0.5616301376
C  C51  1  0.42870000  0.26580000  0.80300000  1.0 0.1206217561
C  C52  1  0.32410000  0.21480000  0.80540000  1.0 -0.1339901371
C  C53  1  0.27150000  0.13580000  0.74980000  1.0 -0.0625457645
C  C54  1  0.32440000  0.10960000  0.69460000  1.0 -0.1339901371
C  C55  1  0.42870000  0.16290000  0.69670000  1.0 0.1206217561
C  C56  1  0.49400000  0.14100000  0.64040000  1.0 0.5616301376
C  C57  1  0.14100000  0.64700000  0.64010000  1.0 0.5616301376
C  C58  1  0.16290000  0.73430000  0.69700000  1.0 0.1206217561
C  C59  1  0.10930000  0.78510000  0.69470000  1.0 -0.1339901371
C  C60  1  0.13570000  0.86430000  0.75000000  1.0 -0.0625457645
C  C61  1  0.21480000  0.89070000  0.80520000  1.0 -0.1355350635
C  C62  1  0.26570000  0.83700000  0.80320000  1.0 0.1206217561
C  C63  1  0.35320000  0.85930000  0.85980000  1.0 0.5616301376
C  C64  1  0.64700000  0.14090000  0.85980000  1.0 0.5616301376
C  C65  1  0.73420000  0.16290000  0.80300000  1.0 0.1206217561
C  C66  1  0.78520000  0.10930000  0.80540000  1.0 -0.1339901371
C  C67  1  0.86420000  0.13570000  0.74980000  1.0 -0.0625457645
C  C68  1  0.89040000  0.21480000  0.69460000  1.0 -0.1339901371
C  C69  1  0.83710000  0.26580000  0.69670000  1.0 0.1206217561
C  C70  1  0.85900000  0.35300000  0.64040000  1.0 0.5616301376
C  C71  1  0.35300000  0.49400000  0.64010000  1.0 0.5616301376
C  C72  1  0.26570000  0.42860000  0.69700000  1.0 0.1206217561
C  C73  1  0.21490000  0.32420000  0.69470000  1.0 -0.1339901371
C  C74  1  0.13570000  0.27140000  0.75000000  1.0 -0.0625457645
C  C75  1  0.10930000  0.32410000  0.80520000  1.0 -0.1355350635
C  C76  1  0.16300000  0.42870000  0.80320000  1.0 0.1206217561
C  C77  1  0.14070000  0.49390000  0.85980000  1.0 0.5616301376
C  C78  1  0.85910000  0.50610000  0.85980000  1.0 0.5616301376
C  C79  1  0.83710000  0.57130000  0.80300000  1.0 0.1206217561
C  C80  1  0.89070000  0.67590000  0.80540000  1.0 -0.1339901371
C  C81  1  0.86430000  0.72850000  0.74980000  1.0 -0.0625457645
C  C82  1  0.78520000  0.67560000  0.69460000  1.0 -0.1339901371
C  C83  1  0.73420000  0.57130000  0.69670000  1.0 0.1206217561
C  C84  1  0.64700000  0.50600000  0.64040000  1.0 0.5616301376
N  N1  1  0.47970000  0.23987000  0.24986000  1.0 -0.271689961
N  N2  1  0.52010000  0.76007000  0.24998000  1.0 -0.271689961
N  N3  1  0.76013000  0.23983000  0.24986000  1.0 -0.271689961
N  N4  1  0.23993000  0.76003000  0.24998000  1.0 -0.271689961
N  N5  1  0.76017000  0.52030000  0.24986000  1.0 -0.271689961
N  N6  1  0.23997000  0.47990000  0.24998000  1.0 -0.271689961
N  N7  1  0.52030000  0.76013000  0.75014000  1.0 -0.271689961
N  N8  1  0.47990000  0.23993000  0.75002000  1.0 -0.271689961
N  N9  1  0.23987000  0.76017000  0.75014000  1.0 -0.271689961
N  N10  1  0.76007000  0.23997000  0.75002000  1.0 -0.271689961
N  N11  1  0.23983000  0.47970000  0.75014000  1.0 -0.271689961
N  N12  1  0.76003000  0.52010000  0.75002000  1.0 -0.271689961
O  O1  1  0.58851000  0.20102000  0.35478000  1.0 -0.5388151816
O  O2  1  0.45030000  0.06610000  0.40692000  1.0 -0.5477103132
O  O3  1  0.58863000  0.38746000  0.14509000  1.0 -0.5388151816
O  O4  1  0.45040000  0.38400000  0.09300000  1.0 -0.5388151816
O  O5  1  0.54960000  0.61590000  0.09291000  1.0 -0.5477103132
O  O6  1  0.41134000  0.61246000  0.14529000  1.0 -0.5388151816
O  O7  1  0.41148000  0.79897000  0.35475000  1.0 -0.5388151816
O  O8  1  0.54960000  0.93380000  0.40685000  1.0 -0.5477103132
O  O9  1  0.79898000  0.38749000  0.35478000  1.0 -0.5388151816
O  O10  1  0.93390000  0.38420000  0.40692000  1.0 -0.5477103132
O  O11  1  0.61254000  0.20117000  0.14509000  1.0 -0.5388151816
O  O12  1  0.61600000  0.06640000  0.09300000  1.0 -0.5388151816
O  O13  1  0.38410000  0.93370000  0.09291000  1.0 -0.5477103132
O  O14  1  0.38754000  0.79888000  0.14529000  1.0 -0.5388151816
O  O15  1  0.20103000  0.61251000  0.35475000  1.0 -0.5388151816
O  O16  1  0.06620000  0.61580000  0.40685000  1.0 -0.5477103132
O  O17  1  0.61251000  0.41149000  0.35478000  1.0 -0.5388151816
O  O18  1  0.61580000  0.54970000  0.40692000  1.0 -0.5477103132
O  O19  1  0.79883000  0.41137000  0.14509000  1.0 -0.5388151816
O  O20  1  0.93360000  0.54960000  0.09300000  1.0 -0.5388151816
O  O21  1  0.06630000  0.45040000  0.09291000  1.0 -0.5477103132
O  O22  1  0.20112000  0.58866000  0.14529000  1.0 -0.5388151816
O  O23  1  0.38749000  0.58852000  0.35475000  1.0 -0.5388151816
O  O24  1  0.38420000  0.45040000  0.40685000  1.0 -0.5477103132
O  O25  1  0.41149000  0.79898000  0.64522000  1.0 -0.5388151816
O  O26  1  0.54970000  0.93390000  0.59308000  1.0 -0.5477103132
O  O27  1  0.41137000  0.61254000  0.85491000  1.0 -0.5388151816
O  O28  1  0.54960000  0.61600000  0.90700000  1.0 -0.5388151816
O  O29  1  0.45040000  0.38410000  0.90709000  1.0 -0.5477103132
O  O30  1  0.58866000  0.38754000  0.85471000  1.0 -0.5388151816
O  O31  1  0.58852000  0.20103000  0.64525000  1.0 -0.5388151816
O  O32  1  0.45040000  0.06620000  0.59315000  1.0 -0.5477103132
O  O33  1  0.20102000  0.61251000  0.64522000  1.0 -0.5388151816
O  O34  1  0.06610000  0.61580000  0.59308000  1.0 -0.5477103132
O  O35  1  0.38746000  0.79883000  0.85491000  1.0 -0.5388151816
O  O36  1  0.38400000  0.93360000  0.90700000  1.0 -0.5388151816
O  O37  1  0.61590000  0.06630000  0.90709000  1.0 -0.5477103132
O  O38  1  0.61246000  0.20112000  0.85471000  1.0 -0.5388151816
O  O39  1  0.79897000  0.38749000  0.64525000  1.0 -0.5388151816
O  O40  1  0.93380000  0.38420000  0.59315000  1.0 -0.5477103132
O  O41  1  0.38749000  0.58851000  0.64522000  1.0 -0.5388151816
O  O42  1  0.38420000  0.45030000  0.59308000  1.0 -0.5477103132
O  O43  1  0.20117000  0.58863000  0.85491000  1.0 -0.5388151816
O  O44  1  0.06640000  0.45040000  0.90700000  1.0 -0.5388151816
O  O45  1  0.93370000  0.54960000  0.90709000  1.0 -0.5477103132
O  O46  1  0.79888000  0.41134000  0.85471000  1.0 -0.5388151816
O  O47  1  0.61251000  0.41148000  0.64525000  1.0 -0.5388151816
O  O48  1  0.61580000  0.54960000  0.59315000  1.0 -0.5477103132
