# DDEC6 charges by PACMAN v1.1 (https://github.com/mtap-research/PACMAN-charge/)
data_FUSZEB_ASR_pacman
_symmetry_space_group_name_H-M   'P 1'
_cell_length_a   15.65660000
_cell_length_b   15.65660000
_cell_length_c   15.65660000
_cell_angle_alpha   60.00000000
_cell_angle_beta   60.00000000
_cell_angle_gamma   60.00000000
_symmetry_Int_Tables_number   1
_chemical_formula_structural   Ce3C24(N3O4)4
_chemical_formula_sum   'Ce6 C48 N24 O32'
_cell_volume   2713.79707990
_cell_formula_units_Z   2
loop_
 _symmetry_equiv_pos_site_id
 _symmetry_equiv_pos_as_xyz
  1  'x, y, z'
loop_
 _atom_site_type_symbol
 _atom_site_label
 _atom_site_symmetry_multiplicity
 _atom_site_fract_x
 _atom_site_fract_y
 _atom_site_fract_z
 _atom_site_occupancy
 _atom_site_charge
Ce  Ce1  1  0.63164000  0.36836000  0.63164000  1.0 2.2544175109
Ce  Ce2  1  0.36836000  0.63164000  0.36836000  1.0 2.2544175109
Ce  Ce3  1  0.36836000  0.63164000  0.63164000  1.0 2.2544175109
Ce  Ce4  1  0.63164000  0.36836000  0.36836000  1.0 2.2544175109
Ce  Ce5  1  0.63164000  0.63164000  0.36836000  1.0 2.2611095867
Ce  Ce6  1  0.36836000  0.36836000  0.63164000  1.0 2.2544175109
C  C1  1  0.95390000  0.04610000  0.42290000  1.0 0.1673810279
C  C2  1  0.42290000  0.57710000  0.95390000  1.0 0.1673810279
C  C3  1  0.04610000  0.95390000  0.57710000  1.0 0.1673810279
C  C4  1  0.57710000  0.42290000  0.04610000  1.0 0.1673810279
C  C5  1  0.04610000  0.42290000  0.95390000  1.0 0.1673810279
C  C6  1  0.57710000  0.95390000  0.42290000  1.0 0.1673810279
C  C7  1  0.95390000  0.57710000  0.04610000  1.0 0.1673810279
C  C8  1  0.42290000  0.04610000  0.57710000  1.0 0.1673810279
C  C9  1  0.42290000  0.95390000  0.04610000  1.0 0.1673810279
C  C10  1  0.95390000  0.42290000  0.57710000  1.0 0.1673810279
C  C11  1  0.57710000  0.04610000  0.95390000  1.0 0.1673810279
C  C12  1  0.04610000  0.57710000  0.42290000  1.0 0.1673810279
C  C13  1  0.04610000  0.42290000  0.57710000  1.0 0.1673810279
C  C14  1  0.57710000  0.95390000  0.04610000  1.0 0.1673810279
C  C15  1  0.95390000  0.57710000  0.42290000  1.0 0.1673810279
C  C16  1  0.42290000  0.04610000  0.95390000  1.0 0.1673810279
C  C17  1  0.95390000  0.42290000  0.04610000  1.0 0.1673810279
C  C18  1  0.42290000  0.95390000  0.57710000  1.0 0.1673810279
C  C19  1  0.04610000  0.57710000  0.95390000  1.0 0.1673810279
C  C20  1  0.57710000  0.04610000  0.42290000  1.0 0.1673810279
C  C21  1  0.57710000  0.42290000  0.95390000  1.0 0.1673810279
C  C22  1  0.04610000  0.95390000  0.42290000  1.0 0.1673810279
C  C23  1  0.42290000  0.57710000  0.04610000  1.0 0.1673810279
C  C24  1  0.95390000  0.04610000  0.57710000  1.0 0.1673810279
C  C25  1  0.81200000  0.18800000  0.50000000  1.0 0.7074359418
C  C26  1  0.91100000  0.08900000  0.50000000  1.0 -0.0990028395
C  C27  1  0.50000000  0.50000000  0.81200000  1.0 0.7074359418
C  C28  1  0.50000000  0.50000000  0.91100000  1.0 -0.0990028395
C  C29  1  0.18800000  0.81200000  0.50000000  1.0 0.7074359418
C  C30  1  0.08900000  0.91100000  0.50000000  1.0 -0.0990028395
C  C31  1  0.50000000  0.50000000  0.18800000  1.0 0.7074359418
C  C32  1  0.50000000  0.50000000  0.08900000  1.0 -0.0990028395
C  C33  1  0.18800000  0.50000000  0.81200000  1.0 0.7074359418
C  C34  1  0.08900000  0.50000000  0.91100000  1.0 -0.0990028395
C  C35  1  0.50000000  0.81200000  0.50000000  1.0 0.7074359418
C  C36  1  0.50000000  0.91100000  0.50000000  1.0 -0.0990028395
C  C37  1  0.81200000  0.50000000  0.18800000  1.0 0.7074359418
C  C38  1  0.91100000  0.50000000  0.08900000  1.0 -0.0990028395
C  C39  1  0.50000000  0.18800000  0.50000000  1.0 0.7074359418
C  C40  1  0.50000000  0.08900000  0.50000000  1.0 -0.0990028395
C  C41  1  0.50000000  0.81200000  0.18800000  1.0 0.7074359418
C  C42  1  0.50000000  0.91100000  0.08900000  1.0 -0.0990028395
C  C43  1  0.81200000  0.50000000  0.50000000  1.0 0.7074359418
C  C44  1  0.91100000  0.50000000  0.50000000  1.0 -0.0990028395
C  C45  1  0.50000000  0.18800000  0.81200000  1.0 0.7074359418
C  C46  1  0.50000000  0.08900000  0.91100000  1.0 -0.0990028395
C  C47  1  0.18800000  0.50000000  0.50000000  1.0 0.7074359418
C  C48  1  0.08900000  0.50000000  0.50000000  1.0 -0.0990028395
N  N1  1  0.90400000  0.09600000  0.34800000  1.0 -0.1418747487
N  N2  1  0.34800000  0.65200000  0.90400000  1.0 -0.1418747487
N  N3  1  0.09600000  0.90400000  0.65200000  1.0 -0.1418747487
N  N4  1  0.65200000  0.34800000  0.09600000  1.0 -0.1418747487
N  N5  1  0.09600000  0.34800000  0.90400000  1.0 -0.1418747487
N  N6  1  0.65200000  0.90400000  0.34800000  1.0 -0.1418747487
N  N7  1  0.90400000  0.65200000  0.09600000  1.0 -0.1418747487
N  N8  1  0.34800000  0.09600000  0.65200000  1.0 -0.1418747487
N  N9  1  0.34800000  0.90400000  0.09600000  1.0 -0.1418747487
N  N10  1  0.90400000  0.34800000  0.65200000  1.0 -0.1418747487
N  N11  1  0.65200000  0.09600000  0.90400000  1.0 -0.1418747487
N  N12  1  0.09600000  0.65200000  0.34800000  1.0 -0.1418747487
N  N13  1  0.09600000  0.34800000  0.65200000  1.0 -0.1418747487
N  N14  1  0.65200000  0.90400000  0.09600000  1.0 -0.1418747487
N  N15  1  0.90400000  0.65200000  0.34800000  1.0 -0.1418747487
N  N16  1  0.34800000  0.09600000  0.90400000  1.0 -0.1418747487
N  N17  1  0.90400000  0.34800000  0.09600000  1.0 -0.1418747487
N  N18  1  0.34800000  0.90400000  0.65200000  1.0 -0.1418747487
N  N19  1  0.09600000  0.65200000  0.90400000  1.0 -0.1418747487
N  N20  1  0.65200000  0.09600000  0.34800000  1.0 -0.1418747487
N  N21  1  0.65200000  0.34800000  0.90400000  1.0 -0.1418747487
N  N22  1  0.09600000  0.90400000  0.34800000  1.0 -0.1418747487
N  N23  1  0.34800000  0.65200000  0.09600000  1.0 -0.1418747487
N  N24  1  0.90400000  0.09600000  0.65200000  1.0 -0.1418747487
O  O1  1  0.44086000  0.44086000  0.67742000  1.0 -0.9770405728
O  O2  1  0.67742000  0.44086000  0.44086000  1.0 -0.9770405728
O  O3  1  0.44086000  0.44086000  0.44086000  1.0 -0.9738753596
O  O4  1  0.44086000  0.67742000  0.44086000  1.0 -0.9770405728
O  O5  1  0.55914000  0.55914000  0.32258000  1.0 -0.9738753596
O  O6  1  0.32258000  0.55914000  0.55914000  1.0 -0.9738753596
O  O7  1  0.55914000  0.32258000  0.55914000  1.0 -0.9738753596
O  O8  1  0.55914000  0.55914000  0.55914000  1.0 -0.9738753596
O  O9  1  0.77680000  0.22320000  0.57320000  1.0 -0.568585273
O  O10  1  0.57320000  0.42680000  0.77680000  1.0 -0.568585273
O  O11  1  0.22320000  0.77680000  0.42680000  1.0 -0.568585273
O  O12  1  0.42680000  0.57320000  0.22320000  1.0 -0.568585273
O  O13  1  0.22320000  0.57320000  0.77680000  1.0 -0.568585273
O  O14  1  0.42680000  0.77680000  0.57320000  1.0 -0.568585273
O  O15  1  0.77680000  0.42680000  0.22320000  1.0 -0.568585273
O  O16  1  0.57320000  0.22320000  0.42680000  1.0 -0.568585273
O  O17  1  0.57320000  0.77680000  0.22320000  1.0 -0.568585273
O  O18  1  0.77680000  0.57320000  0.42680000  1.0 -0.568585273
O  O19  1  0.42680000  0.22320000  0.77680000  1.0 -0.568585273
O  O20  1  0.22320000  0.42680000  0.57320000  1.0 -0.568585273
O  O21  1  0.22320000  0.57320000  0.42680000  1.0 -0.568585273
O  O22  1  0.42680000  0.77680000  0.22320000  1.0 -0.568585273
O  O23  1  0.77680000  0.42680000  0.57320000  1.0 -0.568585273
O  O24  1  0.57320000  0.22320000  0.77680000  1.0 -0.568585273
O  O25  1  0.77680000  0.57320000  0.22320000  1.0 -0.568585273
O  O26  1  0.57320000  0.77680000  0.42680000  1.0 -0.568585273
O  O27  1  0.22320000  0.42680000  0.77680000  1.0 -0.568585273
O  O28  1  0.42680000  0.22320000  0.57320000  1.0 -0.568585273
O  O29  1  0.42680000  0.57320000  0.77680000  1.0 -0.568585273
O  O30  1  0.22320000  0.77680000  0.57320000  1.0 -0.568585273
O  O31  1  0.57320000  0.42680000  0.22320000  1.0 -0.568585273
O  O32  1  0.77680000  0.22320000  0.42680000  1.0 -0.568585273
