# DDEC6 charges by PACMAN v1.1 (https://github.com/mtap-research/PACMAN-charge/)
data_FUSZAX_ASR_pacman
_symmetry_space_group_name_H-M   'P 1'
_cell_length_a   15.55610000
_cell_length_b   15.55610000
_cell_length_c   28.10980000
_cell_angle_alpha   90.00000000
_cell_angle_beta   90.00000000
_cell_angle_gamma   120.00000000
_symmetry_Int_Tables_number   1
_chemical_formula_structural   Ce3H18(C15O8)2
_chemical_formula_sum   'Ce12 H72 C120 O64'
_cell_volume   5891.01108429
_cell_formula_units_Z   4
loop_
 _symmetry_equiv_pos_site_id
 _symmetry_equiv_pos_as_xyz
  1  'x, y, z'
loop_
 _atom_site_type_symbol
 _atom_site_label
 _atom_site_symmetry_multiplicity
 _atom_site_fract_x
 _atom_site_fract_y
 _atom_site_fract_z
 _atom_site_occupancy
 _atom_site_charge
Ce  Ce1  1  0.82431000  0.91216000  0.44022000  1.0 2.1777746746
Ce  Ce2  1  0.08785000  0.17569000  0.44022000  1.0 2.1736469338
Ce  Ce3  1  0.08785000  0.91216000  0.44022000  1.0 2.1777746746
Ce  Ce4  1  0.17569000  0.08784000  0.94022000  1.0 2.1777746746
Ce  Ce5  1  0.91216000  0.82431000  0.94022000  1.0 2.1777746746
Ce  Ce6  1  0.91216000  0.08784000  0.94022000  1.0 2.1777746746
Ce  Ce7  1  0.91216000  0.08784000  0.55978000  1.0 2.1777746746
Ce  Ce8  1  0.91216000  0.82431000  0.55978000  1.0 2.1777746746
Ce  Ce9  1  0.17569000  0.08784000  0.55978000  1.0 2.1777746746
Ce  Ce10  1  0.08785000  0.91216000  0.05978000  1.0 2.1777746746
Ce  Ce11  1  0.08785000  0.17569000  0.05978000  1.0 2.1736469338
Ce  Ce12  1  0.82431000  0.91216000  0.05978000  1.0 2.1777746746
H  H1  1  0.52780000  0.62210000  0.44410000  1.0 0.130577352
H  H2  1  0.04040000  0.28570000  0.73470000  1.0 0.130577352
H  H3  1  0.04960000  0.89340000  0.26460000  1.0 0.1057270739
H  H4  1  0.09430000  0.47220000  0.44410000  1.0 0.130577352
H  H5  1  0.24530000  0.95960000  0.73470000  1.0 0.130577352
H  H6  1  0.84380000  0.95040000  0.26460000  1.0 0.1057270739
H  H7  1  0.37790000  0.90570000  0.44410000  1.0 0.130577352
H  H8  1  0.71430000  0.75470000  0.73470000  1.0 0.130577352
H  H9  1  0.10660000  0.15620000  0.26460000  1.0 0.1057270739
H  H10  1  0.47220000  0.37790000  0.94410000  1.0 0.130577352
H  H11  1  0.95960000  0.71430000  0.23470000  1.0 0.130577352
H  H12  1  0.95040000  0.10660000  0.76460000  1.0 0.1057270739
H  H13  1  0.90570000  0.52780000  0.94410000  1.0 0.130577352
H  H14  1  0.75470000  0.04040000  0.23470000  1.0 0.130577352
H  H15  1  0.15620000  0.04960000  0.76460000  1.0 0.1057270739
H  H16  1  0.62210000  0.09430000  0.94410000  1.0 0.130577352
H  H17  1  0.28570000  0.24530000  0.23470000  1.0 0.130577352
H  H18  1  0.89340000  0.84380000  0.76460000  1.0 0.1057270739
H  H19  1  0.90570000  0.37790000  0.55590000  1.0 0.130577352
H  H20  1  0.75470000  0.71430000  0.26530000  1.0 0.130577352
H  H21  1  0.15620000  0.10660000  0.73540000  1.0 0.1057270739
H  H22  1  0.62210000  0.52780000  0.55590000  1.0 0.130577352
H  H23  1  0.28570000  0.04040000  0.26530000  1.0 0.130577352
H  H24  1  0.89340000  0.04960000  0.73540000  1.0 0.1057270739
H  H25  1  0.47220000  0.09430000  0.55590000  1.0 0.130577352
H  H26  1  0.95960000  0.24530000  0.26530000  1.0 0.130577352
H  H27  1  0.95040000  0.84380000  0.73540000  1.0 0.1057270739
H  H28  1  0.09430000  0.62210000  0.05590000  1.0 0.130577352
H  H29  1  0.24530000  0.28570000  0.76530000  1.0 0.130577352
H  H30  1  0.84380000  0.89340000  0.23540000  1.0 0.1057270739
H  H31  1  0.37790000  0.47220000  0.05590000  1.0 0.130577352
H  H32  1  0.71430000  0.95960000  0.76530000  1.0 0.130577352
H  H33  1  0.10660000  0.95040000  0.23540000  1.0 0.104590773
H  H34  1  0.52780000  0.90570000  0.05590000  1.0 0.130577352
H  H35  1  0.04040000  0.75470000  0.76530000  1.0 0.130577352
H  H36  1  0.04960000  0.15620000  0.23540000  1.0 0.1057270739
H  H37  1  0.47220000  0.37790000  0.55590000  1.0 0.130577352
H  H38  1  0.95960000  0.71430000  0.26530000  1.0 0.130577352
H  H39  1  0.95040000  0.10660000  0.73540000  1.0 0.1057270739
H  H40  1  0.90570000  0.52780000  0.55590000  1.0 0.130577352
H  H41  1  0.75470000  0.04040000  0.26530000  1.0 0.130577352
H  H42  1  0.15620000  0.04960000  0.73540000  1.0 0.1057270739
H  H43  1  0.62210000  0.09430000  0.55590000  1.0 0.130577352
H  H44  1  0.28570000  0.24530000  0.26530000  1.0 0.130577352
H  H45  1  0.89340000  0.84380000  0.73540000  1.0 0.1057270739
H  H46  1  0.52780000  0.62210000  0.05590000  1.0 0.130577352
H  H47  1  0.04040000  0.28570000  0.76530000  1.0 0.130577352
H  H48  1  0.04960000  0.89340000  0.23540000  1.0 0.1057270739
H  H49  1  0.09430000  0.47220000  0.05590000  1.0 0.130577352
H  H50  1  0.24530000  0.95960000  0.76530000  1.0 0.130577352
H  H51  1  0.84380000  0.95040000  0.23540000  1.0 0.1057270739
H  H52  1  0.37790000  0.90570000  0.05590000  1.0 0.130577352
H  H53  1  0.71430000  0.75470000  0.76530000  1.0 0.130577352
H  H54  1  0.10660000  0.15620000  0.23540000  1.0 0.1057270739
H  H55  1  0.09430000  0.62210000  0.44410000  1.0 0.130577352
H  H56  1  0.24530000  0.28570000  0.73470000  1.0 0.130577352
H  H57  1  0.84380000  0.89340000  0.26460000  1.0 0.1057270739
H  H58  1  0.37790000  0.47220000  0.44410000  1.0 0.130577352
H  H59  1  0.71430000  0.95960000  0.73470000  1.0 0.130577352
H  H60  1  0.10660000  0.95040000  0.26460000  1.0 0.104590773
H  H61  1  0.52780000  0.90570000  0.44410000  1.0 0.130577352
H  H62  1  0.04040000  0.75470000  0.73470000  1.0 0.130577352
H  H63  1  0.04960000  0.15620000  0.26460000  1.0 0.1057270739
H  H64  1  0.90570000  0.37790000  0.94410000  1.0 0.130577352
H  H65  1  0.75470000  0.71430000  0.23470000  1.0 0.130577352
H  H66  1  0.15620000  0.10660000  0.76460000  1.0 0.1057270739
H  H67  1  0.62210000  0.52780000  0.94410000  1.0 0.130577352
H  H68  1  0.28570000  0.04040000  0.23470000  1.0 0.130577352
H  H69  1  0.89340000  0.04960000  0.76460000  1.0 0.1057270739
H  H70  1  0.47220000  0.09430000  0.94410000  1.0 0.130577352
H  H71  1  0.95960000  0.24530000  0.23470000  1.0 0.130577352
H  H72  1  0.95040000  0.84380000  0.76460000  1.0 0.1057270739
C  C1  1  0.51650000  0.57240000  0.46680000  1.0 -0.0975361298
C  C2  1  0.04210000  0.22760000  0.72460000  1.0 -0.0811078436
C  C3  1  0.99020000  0.83570000  0.27540000  1.0 -0.0811078436
C  C4  1  0.05590000  0.48350000  0.46680000  1.0 -0.0975361298
C  C5  1  0.18550000  0.95790000  0.72460000  1.0 -0.0811078436
C  C6  1  0.84550000  0.00980000  0.27540000  1.0 -0.0811078436
C  C7  1  0.42760000  0.94410000  0.46680000  1.0 -0.0975361298
C  C8  1  0.77240000  0.81450000  0.72460000  1.0 -0.0811078436
C  C9  1  0.16430000  0.15450000  0.27540000  1.0 -0.0811078436
C  C10  1  0.48350000  0.42760000  0.96680000  1.0 -0.0975361298
C  C11  1  0.95790000  0.77240000  0.22460000  1.0 -0.0811078436
C  C12  1  0.00980000  0.16430000  0.77540000  1.0 -0.0811078436
C  C13  1  0.94410000  0.51650000  0.96680000  1.0 -0.0975361298
C  C14  1  0.81450000  0.04210000  0.22460000  1.0 -0.0811078436
C  C15  1  0.15450000  0.99020000  0.77540000  1.0 -0.0811078436
C  C16  1  0.57240000  0.05590000  0.96680000  1.0 -0.0975361298
C  C17  1  0.22760000  0.18550000  0.22460000  1.0 -0.0811078436
C  C18  1  0.83570000  0.84550000  0.77540000  1.0 -0.0811078436
C  C19  1  0.94410000  0.42760000  0.53320000  1.0 -0.0975361298
C  C20  1  0.81450000  0.77240000  0.27540000  1.0 -0.0811078436
C  C21  1  0.15450000  0.16430000  0.72460000  1.0 -0.0811078436
C  C22  1  0.57240000  0.51650000  0.53320000  1.0 -0.0975361298
C  C23  1  0.22760000  0.04210000  0.27540000  1.0 -0.0811078436
C  C24  1  0.83570000  0.99020000  0.72460000  1.0 -0.0811078436
C  C25  1  0.48350000  0.05590000  0.53320000  1.0 -0.0975361298
C  C26  1  0.95790000  0.18550000  0.27540000  1.0 -0.0811078436
C  C27  1  0.00980000  0.84550000  0.72460000  1.0 -0.0811078436
C  C28  1  0.05590000  0.57240000  0.03320000  1.0 -0.0975361298
C  C29  1  0.18550000  0.22760000  0.77540000  1.0 -0.0811078436
C  C30  1  0.84550000  0.83570000  0.22460000  1.0 -0.0811078436
C  C31  1  0.42760000  0.48350000  0.03320000  1.0 -0.0975361298
C  C32  1  0.77240000  0.95790000  0.77540000  1.0 -0.0811078436
C  C33  1  0.16430000  0.00980000  0.22460000  1.0 -0.0811078436
C  C34  1  0.51650000  0.94410000  0.03320000  1.0 -0.0975361298
C  C35  1  0.04210000  0.81450000  0.77540000  1.0 -0.0811078436
C  C36  1  0.99020000  0.15450000  0.22460000  1.0 -0.0811078436
C  C37  1  0.48350000  0.42760000  0.53320000  1.0 -0.0975361298
C  C38  1  0.95790000  0.77240000  0.27540000  1.0 -0.0811078436
C  C39  1  0.00980000  0.16430000  0.72460000  1.0 -0.0811078436
C  C40  1  0.94410000  0.51650000  0.53320000  1.0 -0.0975361298
C  C41  1  0.81450000  0.04210000  0.27540000  1.0 -0.0811078436
C  C42  1  0.15450000  0.99020000  0.72460000  1.0 -0.0811078436
C  C43  1  0.57240000  0.05590000  0.53320000  1.0 -0.0975361298
C  C44  1  0.22760000  0.18550000  0.27540000  1.0 -0.0811078436
C  C45  1  0.83570000  0.84550000  0.72460000  1.0 -0.0811078436
C  C46  1  0.51650000  0.57240000  0.03320000  1.0 -0.0975361298
C  C47  1  0.04210000  0.22760000  0.77540000  1.0 -0.0811078436
C  C48  1  0.99020000  0.83570000  0.22460000  1.0 -0.0811078436
C  C49  1  0.05590000  0.48350000  0.03320000  1.0 -0.0975361298
C  C50  1  0.18550000  0.95790000  0.77540000  1.0 -0.0811078436
C  C51  1  0.84550000  0.00980000  0.22460000  1.0 -0.0811078436
C  C52  1  0.42760000  0.94410000  0.03320000  1.0 -0.0975361298
C  C53  1  0.77240000  0.81450000  0.77540000  1.0 -0.0811078436
C  C54  1  0.16430000  0.15450000  0.22460000  1.0 -0.0811078436
C  C55  1  0.05590000  0.57240000  0.46680000  1.0 -0.0975361298
C  C56  1  0.18550000  0.22760000  0.72460000  1.0 -0.0811078436
C  C57  1  0.84550000  0.83570000  0.27540000  1.0 -0.0811078436
C  C58  1  0.42760000  0.48350000  0.46680000  1.0 -0.0975361298
C  C59  1  0.77240000  0.95790000  0.72460000  1.0 -0.0811078436
C  C60  1  0.16430000  0.00980000  0.27540000  1.0 -0.0811078436
C  C61  1  0.51650000  0.94410000  0.46680000  1.0 -0.0975361298
C  C62  1  0.04210000  0.81450000  0.72460000  1.0 -0.0811078436
C  C63  1  0.99020000  0.15450000  0.27540000  1.0 -0.0811078436
C  C64  1  0.94410000  0.42760000  0.96680000  1.0 -0.0975361298
C  C65  1  0.81450000  0.77240000  0.22460000  1.0 -0.0811078436
C  C66  1  0.15450000  0.16430000  0.77540000  1.0 -0.0811078436
C  C67  1  0.57240000  0.51650000  0.96680000  1.0 -0.0975361298
C  C68  1  0.22760000  0.04210000  0.22460000  1.0 -0.0811078436
C  C69  1  0.83570000  0.99020000  0.77540000  1.0 -0.0811078436
C  C70  1  0.48350000  0.05590000  0.96680000  1.0 -0.0975361298
C  C71  1  0.95790000  0.18550000  0.22460000  1.0 -0.0811078436
C  C72  1  0.00980000  0.84550000  0.77540000  1.0 -0.0811078436
C  C73  1  0.68640000  0.68640000  0.50000000  1.0 0.6372706761
C  C74  1  0.58880000  0.58880000  0.50000000  1.0 -0.0046829247
C  C75  1  0.00000000  0.31360000  0.50000000  1.0 0.6372706761
C  C76  1  0.00000000  0.41120000  0.50000000  1.0 -0.0046829247
C  C77  1  0.31360000  0.00000000  0.50000000  1.0 0.6372706761
C  C78  1  0.41120000  0.00000000  0.50000000  1.0 -0.0058803248
C  C79  1  0.31360000  0.31360000  0.00000000  1.0 0.6372706761
C  C80  1  0.41120000  0.41120000  0.00000000  1.0 -0.0046829247
C  C81  1  0.00000000  0.68640000  0.00000000  1.0 0.6372706761
C  C82  1  0.00000000  0.58880000  0.00000000  1.0 -0.0058803248
C  C83  1  0.68640000  0.00000000  0.00000000  1.0 0.6372706761
C  C84  1  0.58880000  0.00000000  0.00000000  1.0 -0.0046829247
C  C85  1  0.31360000  0.31360000  0.50000000  1.0 0.6372706761
C  C86  1  0.41120000  0.41120000  0.50000000  1.0 -0.0046829247
C  C87  1  0.00000000  0.68640000  0.50000000  1.0 0.6372706761
C  C88  1  0.00000000  0.58880000  0.50000000  1.0 -0.0058803248
C  C89  1  0.68640000  0.00000000  0.50000000  1.0 0.6372706761
C  C90  1  0.58880000  0.00000000  0.50000000  1.0 -0.0046829247
C  C91  1  0.68640000  0.68640000  0.00000000  1.0 0.6372706761
C  C92  1  0.58880000  0.58880000  0.00000000  1.0 -0.0046829247
C  C93  1  0.00000000  0.31360000  0.00000000  1.0 0.6372706761
C  C94  1  0.00000000  0.41120000  0.00000000  1.0 -0.0046829247
C  C95  1  0.31360000  0.00000000  0.00000000  1.0 0.6372706761
C  C96  1  0.41120000  0.00000000  0.00000000  1.0 -0.0058803248
C  C97  1  0.09391000  0.18782000  0.64743000  1.0 0.5090035468
C  C98  1  0.09850000  0.19700000  0.70060000  1.0 -0.0259512718
C  C99  1  0.09391000  0.90609000  0.64743000  1.0 0.5090035468
C  C100  1  0.09850000  0.90150000  0.70060000  1.0 -0.0259512718
C  C101  1  0.81218000  0.90609000  0.64743000  1.0 0.5090035468
C  C102  1  0.80300000  0.90150000  0.70060000  1.0 -0.0259512718
C  C103  1  0.90609000  0.81218000  0.14743000  1.0 0.5090035468
C  C104  1  0.90150000  0.80300000  0.20060000  1.0 -0.0259512718
C  C105  1  0.90609000  0.09391000  0.14743000  1.0 0.5090035468
C  C106  1  0.90150000  0.09850000  0.20060000  1.0 -0.0259512718
C  C107  1  0.18782000  0.09391000  0.14743000  1.0 0.5090035468
C  C108  1  0.19700000  0.09850000  0.20060000  1.0 -0.0259512718
C  C109  1  0.90609000  0.81218000  0.35257000  1.0 0.5090035468
C  C110  1  0.90150000  0.80300000  0.29940000  1.0 -0.0259512718
C  C111  1  0.18782000  0.09391000  0.35257000  1.0 0.5090035468
C  C112  1  0.19700000  0.09850000  0.29940000  1.0 -0.0259512718
C  C113  1  0.90609000  0.09391000  0.35257000  1.0 0.5090035468
C  C114  1  0.90150000  0.09850000  0.29940000  1.0 -0.0259512718
C  C115  1  0.09391000  0.18782000  0.85257000  1.0 0.5090035468
C  C116  1  0.09850000  0.19700000  0.79940000  1.0 -0.0259512718
C  C117  1  0.81218000  0.90609000  0.85257000  1.0 0.5090035468
C  C118  1  0.80300000  0.90150000  0.79940000  1.0 -0.0259512718
C  C119  1  0.09391000  0.90609000  0.85257000  1.0 0.5090035468
C  C120  1  0.09850000  0.90150000  0.79940000  1.0 -0.0259512718
O  O1  1  0.69820000  0.74580000  0.46637000  1.0 -0.5832930188
O  O2  1  0.83560000  0.81510000  0.37330000  1.0 -0.5265609315
O  O3  1  0.04760000  0.30180000  0.46637000  1.0 -0.5832930188
O  O4  1  0.97950000  0.16440000  0.37330000  1.0 -0.5247198274
O  O5  1  0.25420000  0.95240000  0.46637000  1.0 -0.5832930188
O  O6  1  0.18490000  0.02050000  0.37330000  1.0 -0.5265609315
O  O7  1  0.30180000  0.25420000  0.96637000  1.0 -0.5832930188
O  O8  1  0.16440000  0.18490000  0.87330000  1.0 -0.5265609315
O  O9  1  0.95240000  0.69820000  0.96637000  1.0 -0.5832930188
O  O10  1  0.02050000  0.83560000  0.87330000  1.0 -0.5265609315
O  O11  1  0.74580000  0.04760000  0.96637000  1.0 -0.5832930188
O  O12  1  0.81510000  0.97950000  0.87330000  1.0 -0.5265609315
O  O13  1  0.95240000  0.25420000  0.53363000  1.0 -0.5832930188
O  O14  1  0.02050000  0.18490000  0.62670000  1.0 -0.5265609315
O  O15  1  0.74580000  0.69820000  0.53363000  1.0 -0.5832930188
O  O16  1  0.81510000  0.83560000  0.62670000  1.0 -0.5265609315
O  O17  1  0.30180000  0.04760000  0.53363000  1.0 -0.5832930188
O  O18  1  0.16440000  0.97950000  0.62670000  1.0 -0.5265609315
O  O19  1  0.04760000  0.74580000  0.03363000  1.0 -0.5832930188
O  O20  1  0.97950000  0.81510000  0.12670000  1.0 -0.5265609315
O  O21  1  0.25420000  0.30180000  0.03363000  1.0 -0.5832930188
O  O22  1  0.18490000  0.16440000  0.12670000  1.0 -0.5265609315
O  O23  1  0.69820000  0.95240000  0.03363000  1.0 -0.5832930188
O  O24  1  0.83560000  0.02050000  0.12670000  1.0 -0.5247198274
O  O25  1  0.30180000  0.25420000  0.53363000  1.0 -0.5832930188
O  O26  1  0.16440000  0.18490000  0.62670000  1.0 -0.5265609315
O  O27  1  0.95240000  0.69820000  0.53363000  1.0 -0.5832930188
O  O28  1  0.02050000  0.83560000  0.62670000  1.0 -0.5265609315
O  O29  1  0.74580000  0.04760000  0.53363000  1.0 -0.5832930188
O  O30  1  0.81510000  0.97950000  0.62670000  1.0 -0.5265609315
O  O31  1  0.69820000  0.74580000  0.03363000  1.0 -0.5832930188
O  O32  1  0.83560000  0.81510000  0.12670000  1.0 -0.5265609315
O  O33  1  0.04760000  0.30180000  0.03363000  1.0 -0.5832930188
O  O34  1  0.97950000  0.16440000  0.12670000  1.0 -0.5247198274
O  O35  1  0.25420000  0.95240000  0.03363000  1.0 -0.5832930188
O  O36  1  0.18490000  0.02050000  0.12670000  1.0 -0.5265609315
O  O37  1  0.04760000  0.74580000  0.46637000  1.0 -0.5832930188
O  O38  1  0.97950000  0.81510000  0.37330000  1.0 -0.5265609315
O  O39  1  0.25420000  0.30180000  0.46637000  1.0 -0.5832930188
O  O40  1  0.18490000  0.16440000  0.37330000  1.0 -0.5265609315
O  O41  1  0.69820000  0.95240000  0.46637000  1.0 -0.5832930188
O  O42  1  0.83560000  0.02050000  0.37330000  1.0 -0.5247198274
O  O43  1  0.95240000  0.25420000  0.96637000  1.0 -0.5832930188
O  O44  1  0.02050000  0.18490000  0.87330000  1.0 -0.5265609315
O  O45  1  0.74580000  0.69820000  0.96637000  1.0 -0.5832930188
O  O46  1  0.81510000  0.83560000  0.87330000  1.0 -0.5265609315
O  O47  1  0.30180000  0.04760000  0.96637000  1.0 -0.5832930188
O  O48  1  0.16440000  0.97950000  0.87330000  1.0 -0.5265609315
O  O49  1  0.92070000  0.07930000  0.47275000  1.0 -1.0215462377
O  O50  1  0.15860000  0.07930000  0.47275000  1.0 -1.0215462377
O  O51  1  0.92070000  0.84140000  0.47275000  1.0 -1.0215462377
O  O52  1  0.07930000  0.92070000  0.97275000  1.0 -1.0131554137
O  O53  1  0.84140000  0.92070000  0.97275000  1.0 -1.0131554137
O  O54  1  0.07930000  0.15860000  0.97275000  1.0 -1.0131554137
O  O55  1  0.84140000  0.92070000  0.52725000  1.0 -1.0131554137
O  O56  1  0.07930000  0.92070000  0.52725000  1.0 -1.0131554137
O  O57  1  0.07930000  0.15860000  0.52725000  1.0 -1.0131554137
O  O58  1  0.15860000  0.07930000  0.02725000  1.0 -1.0215462377
O  O59  1  0.92070000  0.07930000  0.02725000  1.0 -1.0215462377
O  O60  1  0.92070000  0.84140000  0.02725000  1.0 -1.0215462377
O  O61  1  0.00000000  0.00000000  0.41694000  1.0 -0.8098593732
O  O62  1  0.00000000  0.00000000  0.91694000  1.0 -0.8098593732
O  O63  1  0.00000000  0.00000000  0.58306000  1.0 -0.8098593732
O  O64  1  0.00000000  0.00000000  0.08306000  1.0 -0.8098593732
