# DDEC6 charges by PACMAN v1.1 (https://github.com/mtap-research/PACMAN-charge/)
data_FUTJOV_FSR_pacman
_symmetry_space_group_name_H-M   'P 1'
_cell_length_a   6.72000000
_cell_length_b   9.49400000
_cell_length_c   10.93950000
_cell_angle_alpha   109.03300000
_cell_angle_beta   104.37500000
_cell_angle_gamma   106.67800000
_symmetry_Int_Tables_number   1
_chemical_formula_structural   Cu3H4C4(N2O)2
_chemical_formula_sum   'Cu6 H8 C8 N8 O4'
_cell_volume   585.25945270
_cell_formula_units_Z   2
loop_
 _symmetry_equiv_pos_site_id
 _symmetry_equiv_pos_as_xyz
  1  'x, y, z'
loop_
 _atom_site_type_symbol
 _atom_site_label
 _atom_site_symmetry_multiplicity
 _atom_site_fract_x
 _atom_site_fract_y
 _atom_site_fract_z
 _atom_site_occupancy
 _atom_site_charge
Cu  Cu1  1  0.12391000  0.89586000  0.29210000  1.0 0.6386583963
Cu  Cu2  1  0.87609000  0.10414000  0.70790000  1.0 0.6386583963
Cu  Cu3  1  0.75877000  0.62019000  0.76927000  1.0 0.2968849161
Cu  Cu4  1  0.24123000  0.37981000  0.23073000  1.0 0.2968849161
Cu  Cu5  1  0.03047000  0.42643000  0.39001000  1.0 0.3463824907
Cu  Cu6  1  0.96953000  0.57357000  0.60999000  1.0 0.3396034458
H  H1  1  0.16770000  0.97130000  0.54030000  1.0 0.3396034458
H  H2  1  0.83230000  0.02870000  0.45970000  1.0 0.3396034458
H  H3  1  0.38880000  0.05560000  0.54010000  1.0 0.359347092
H  H4  1  0.61120000  0.94440000  0.45990000  1.0 0.359347092
H  H5  1  0.54870000  0.15060000  0.34170000  1.0 0.359347092
H  H6  1  0.45130000  0.84940000  0.65830000  1.0 0.359347092
H  H7  1  0.55110000  0.99770000  0.25150000  1.0 0.359347092
H  H8  1  0.44890000  0.00230000  0.74850000  1.0 0.359347092
C  C1  1  0.91270000  0.73610000  0.96860000  1.0 -0.120302715
C  C2  1  0.08730000  0.26390000  0.03140000  1.0 -0.120302715
C  C3  1  0.44870000  0.58360000  0.67220000  1.0 -0.0223453203
C  C4  1  0.55130000  0.41640000  0.32780000  1.0 -0.0223453203
C  C5  1  0.17830000  0.70240000  0.29720000  1.0 -0.0223453203
C  C6  1  0.82170000  0.29760000  0.70280000  1.0 -0.0223453203
C  C7  1  0.99590000  0.79870000  0.08780000  1.0 -0.2237273386
C  C8  1  0.00410000  0.20130000  0.91220000  1.0 -0.2274754426
N  N1  1  0.16560000  0.58720000  0.30980000  1.0 -0.3157846114
N  N2  1  0.83440000  0.41280000  0.69020000  1.0 -0.3143752596
N  N3  1  0.05590000  0.21510000  0.33140000  1.0 -0.1109132513
N  N4  1  0.94410000  0.78490000  0.66860000  1.0 -0.1109132513
N  N5  1  0.06150000  0.09140000  0.30920000  1.0 -0.0904243893
N  N6  1  0.93850000  0.90860000  0.69080000  1.0 -0.0904243893
N  N7  1  0.26790000  0.56320000  0.62000000  1.0 -0.3802822909
N  N8  1  0.73210000  0.43680000  0.38000000  1.0 -0.3802822909
O  O1  1  0.25070000  0.99250000  0.49580000  1.0 -0.6703312776
O  O2  1  0.74930000  0.00750000  0.50420000  1.0 -0.6703312776
O  O3  1  0.48650000  0.04770000  0.29590000  1.0 -0.7385551116
O  O4  1  0.51350000  0.95230000  0.70410000  1.0 -0.7385551116
