# DDEC6 charges by PACMAN v1.1 (https://github.com/mtap-research/PACMAN-charge/)
data_FUVDEH02_ASR_pacman
_symmetry_space_group_name_H-M   'P 1'
_cell_length_a   18.95080000
_cell_length_b   18.95080000
_cell_length_c   18.95080000
_cell_angle_alpha   91.00680000
_cell_angle_beta   91.00680000
_cell_angle_gamma   164.76600000
_symmetry_Int_Tables_number   1
_chemical_formula_structural   ZnH16C22(NO2)2
_chemical_formula_sum   'Zn4 H64 C88 N8 O16'
_cell_volume   1772.53614860
_cell_formula_units_Z   4
loop_
 _symmetry_equiv_pos_site_id
 _symmetry_equiv_pos_as_xyz
  1  'x, y, z'
loop_
 _atom_site_type_symbol
 _atom_site_label
 _atom_site_symmetry_multiplicity
 _atom_site_fract_x
 _atom_site_fract_y
 _atom_site_fract_z
 _atom_site_occupancy
 _atom_site_charge
Zn  Zn1  1  0.17868000  0.11937000  0.48705000  1.0 0.8459953177
Zn  Zn2  1  0.63232000  0.69163000  0.51295000  1.0 0.8459953177
Zn  Zn3  1  0.30837000  0.82132000  0.94069000  1.0 0.8459953177
Zn  Zn4  1  0.88063000  0.36768000  0.05931000  1.0 0.8459953177
H  H1  1  0.16290000  0.22880000  0.46310000  1.0 0.3574362951
H  H2  1  0.76570000  0.69980000  0.53690000  1.0 0.3574362951
H  H3  1  0.30020000  0.83710000  0.06590000  1.0 0.3574362951
H  H4  1  0.77120000  0.23430000  0.93410000  1.0 0.3574362951
H  H5  1  0.46550000  0.27360000  0.40170000  1.0 0.0985084537
H  H6  1  0.87190000  0.06380000  0.59830000  1.0 0.0985084537
H  H7  1  0.93620000  0.53450000  0.80810000  1.0 0.0985084537
H  H8  1  0.72640000  0.12810000  0.19190000  1.0 0.0985084537
H  H9  1  0.67250000  0.65910000  0.36480000  1.0 0.1417491394
H  H10  1  0.29430000  0.30770000  0.63520000  1.0 0.1417491394
H  H11  1  0.69230000  0.32750000  0.98660000  1.0 0.1417491394
H  H12  1  0.34090000  0.70570000  0.01340000  1.0 0.1417491394
H  H13  1  0.29070000  0.33640000  0.29070000  1.0 0.1197595771
H  H14  1  0.04570000  0.00000000  0.70930000  1.0 0.1197595771
H  H15  1  0.00000000  0.70930000  0.04570000  1.0 0.1197595771
H  H16  1  0.66360000  0.95430000  0.95430000  1.0 0.1197595771
H  H17  1  0.01460000  0.07740000  0.18260000  1.0 0.1095879967
H  H18  1  0.89480000  0.83200000  0.81740000  1.0 0.1095879967
H  H19  1  0.16800000  0.98540000  0.06280000  1.0 0.1095879967
H  H20  1  0.92260000  0.10520000  0.93720000  1.0 0.1095879967
H  H21  1  0.13290000  0.12240000  0.08870000  1.0 0.1095879967
H  H22  1  0.03370000  0.04420000  0.91130000  1.0 0.1095879967
H  H23  1  0.95580000  0.86710000  0.98950000  1.0 0.1095879967
H  H24  1  0.87760000  0.96630000  0.01050000  1.0 0.1095879967
H  H25  1  0.50360000  0.40880000  0.10360000  1.0 0.1197595771
H  H26  1  0.30520000  0.40000000  0.89640000  1.0 0.1197595771
H  H27  1  0.60000000  0.49640000  0.90520000  1.0 0.1197595771
H  H28  1  0.59120000  0.69480000  0.09480000  1.0 0.1197595771
H  H29  1  0.89260000  0.73370000  0.17570000  1.0 0.1197595771
H  H30  1  0.55800000  0.71690000  0.82430000  1.0 0.1197595771
H  H31  1  0.28310000  0.10740000  0.84110000  1.0 0.1197595771
H  H32  1  0.26630000  0.44200000  0.15890000  1.0 0.1197595771
H  H33  1  0.74190000  0.49650000  0.32720000  1.0 0.1095879967
H  H34  1  0.16930000  0.41470000  0.67280000  1.0 0.1095879967
H  H35  1  0.58530000  0.25810000  0.75460000  1.0 0.1095879967
H  H36  1  0.50350000  0.83070000  0.24540000  1.0 0.1095879967
H  H37  1  0.95280000  0.60860000  0.27360000  1.0 0.0985084537
H  H38  1  0.33500000  0.67920000  0.72640000  1.0 0.0985084537
H  H39  1  0.32080000  0.04720000  0.65580000  1.0 0.0985084537
H  H40  1  0.39140000  0.66500000  0.34420000  1.0 0.0985084537
H  H41  1  0.24990000  0.88730000  0.14900000  1.0 0.1095879967
H  H42  1  0.73830000  0.10090000  0.85100000  1.0 0.1095879967
H  H43  1  0.89910000  0.75010000  0.63740000  1.0 0.1095879967
H  H44  1  0.11270000  0.26170000  0.36260000  1.0 0.1095879967
H  H45  1  0.04650000  0.78280000  0.20430000  1.0 0.1095879967
H  H46  1  0.57850000  0.84220000  0.79570000  1.0 0.1095879967
H  H47  1  0.15780000  0.95350000  0.73630000  1.0 0.1095879967
H  H48  1  0.21720000  0.42150000  0.26370000  1.0 0.1095879967
H  H49  1  0.45920000  0.15480000  0.35920000  1.0 0.1095879967
H  H50  1  0.79560000  0.10000000  0.64080000  1.0 0.1095879967
H  H51  1  0.90000000  0.54080000  0.69560000  1.0 0.1095879967
H  H52  1  0.84520000  0.20440000  0.30440000  1.0 0.1095879967
H  H53  1  0.67010000  0.26420000  0.30630000  1.0 0.1095879967
H  H54  1  0.95790000  0.36380000  0.69370000  1.0 0.1095879967
H  H55  1  0.63620000  0.32990000  0.59410000  1.0 0.1095879967
H  H56  1  0.73580000  0.04210000  0.40590000  1.0 0.1095879967
H  H57  1  0.53410000  0.23090000  0.11360000  1.0 0.1095879967
H  H58  1  0.11730000  0.42050000  0.88640000  1.0 0.1095879967
H  H59  1  0.57950000  0.46590000  0.69680000  1.0 0.1095879967
H  H60  1  0.76910000  0.88270000  0.30320000  1.0 0.1095879967
H  H61  1  0.32990000  0.12520000  0.17250000  1.0 0.1095879967
H  H62  1  0.95270000  0.15740000  0.82750000  1.0 0.1095879967
H  H63  1  0.84260000  0.67010000  0.79530000  1.0 0.1095879967
H  H64  1  0.87480000  0.04730000  0.20470000  1.0 0.1095879967
C  C1  1  0.31500000  0.14700000  0.37400000  1.0 0.0692048766
C  C2  1  0.77300000  0.94100000  0.62600000  1.0 0.0692048766
C  C3  1  0.05900000  0.68500000  0.83200000  1.0 0.0692048766
C  C4  1  0.85300000  0.22700000  0.16800000  1.0 0.0692048766
C  C5  1  0.93900000  0.84520000  0.33420000  1.0 0.1095879967
C  C6  1  0.51100000  0.60480000  0.66580000  1.0 0.1095879967
C  C7  1  0.39520000  0.06100000  0.90620000  1.0 0.1095879967
C  C8  1  0.15480000  0.48900000  0.09380000  1.0 0.1095879967
C  C9  1  0.71530000  0.67320000  0.32650000  1.0 -0.1927048904
C  C10  1  0.34670000  0.38880000  0.67350000  1.0 -0.1927048904
C  C11  1  0.61120000  0.28470000  0.95790000  1.0 -0.1927048904
C  C12  1  0.32680000  0.65330000  0.04210000  1.0 -0.1927048904
C  C13  1  0.55650000  0.52270000  0.26120000  1.0 0.0692048766
C  C14  1  0.26150000  0.29530000  0.73880000  1.0 0.0692048766
C  C15  1  0.70470000  0.44350000  0.96620000  1.0 0.0692048766
C  C16  1  0.47730000  0.73850000  0.03380000  1.0 0.0692048766
C  C17  1  0.33130000  0.34870000  0.25200000  1.0 -0.1452845974
C  C18  1  0.09670000  0.07930000  0.74800000  1.0 -0.1452845974
C  C19  1  0.92070000  0.66870000  0.01740000  1.0 -0.1452845974
C  C20  1  0.65130000  0.90330000  0.98260000  1.0 -0.1452845974
C  C21  1  0.16590000  0.19420000  0.18810000  1.0 -0.1087820386
C  C22  1  0.00610000  0.97780000  0.81190000  1.0 -0.1087820386
C  C23  1  0.02220000  0.83410000  0.02830000  1.0 -0.1087820386
C  C24  1  0.80580000  0.99390000  0.97170000  1.0 -0.1087820386
C  C25  1  0.23830000  0.22280000  0.13310000  1.0 -0.1178542343
C  C26  1  0.08970000  0.10520000  0.86690000  1.0 -0.1178542343
C  C27  1  0.89480000  0.76170000  0.98450000  1.0 -0.1178542343
C  C28  1  0.77720000  0.91030000  0.01550000  1.0 -0.1178542343
C  C29  1  0.46240000  0.39590000  0.14230000  1.0 -0.1675852431
C  C30  1  0.25360000  0.32010000  0.85770000  1.0 -0.1675852431
C  C31  1  0.67990000  0.53760000  0.93350000  1.0 -0.1675852431
C  C32  1  0.60410000  0.74640000  0.06650000  1.0 -0.1675852431
C  C33  1  0.62860000  0.55100000  0.20620000  1.0 0.0758675741
C  C34  1  0.34480000  0.42240000  0.79380000  1.0 0.0758675741
C  C35  1  0.57760000  0.37140000  0.92240000  1.0 0.0758675741
C  C36  1  0.44900000  0.65520000  0.07760000  1.0 0.0758675741
C  C37  1  0.85240000  0.72310000  0.21350000  1.0 -0.2546412987
C  C38  1  0.50960000  0.63890000  0.78650000  1.0 -0.2546412987
C  C39  1  0.36110000  0.14760000  0.87070000  1.0 -0.2546412987
C  C40  1  0.27690000  0.49040000  0.12930000  1.0 -0.2546412987
C  C41  1  0.01500000  0.87930000  0.27830000  1.0 0.0985084537
C  C42  1  0.60100000  0.73670000  0.72170000  1.0 0.0985084537
C  C43  1  0.26330000  0.98500000  0.86430000  1.0 0.0985084537
C  C44  1  0.12070000  0.39900000  0.13570000  1.0 0.0985084537
C  C45  1  0.37380000  0.12910000  0.27090000  1.0 0.1095879967
C  C46  1  0.85820000  0.10290000  0.72910000  1.0 0.1095879967
C  C47  1  0.89710000  0.62620000  0.75530000  1.0 0.1095879967
C  C48  1  0.87090000  0.14180000  0.24470000  1.0 0.1095879967
C  C49  1  0.61730000  0.25570000  0.20700000  1.0 0.0074286235
C  C50  1  0.04870000  0.41030000  0.79300000  1.0 0.0074286235
C  C51  1  0.58970000  0.38270000  0.63840000  1.0 0.0074286235
C  C52  1  0.74430000  0.95130000  0.36160000  1.0 0.0074286235
C  C53  1  0.64430000  0.37510000  0.29140000  1.0 -0.0766226021
C  C54  1  0.08370000  0.35290000  0.70860000  1.0 -0.0766226021
C  C55  1  0.64710000  0.35570000  0.73080000  1.0 -0.0766226021
C  C56  1  0.62490000  0.91630000  0.26920000  1.0 -0.0766226021
C  C57  1  0.77090000  0.44300000  0.25990000  1.0 -0.1017206018
C  C58  1  0.18310000  0.51100000  0.74010000  1.0 -0.1017206018
C  C59  1  0.48900000  0.22910000  0.67210000  1.0 -0.1017206018
C  C60  1  0.55700000  0.81690000  0.32790000  1.0 -0.1017206018
C  C61  1  0.34790000  0.00900000  0.18490000  1.0 -0.0619215859
C  C62  1  0.82410000  0.16300000  0.81510000  1.0 -0.0619215859
C  C63  1  0.83700000  0.65210000  0.66110000  1.0 -0.0619215859
C  C64  1  0.99100000  0.17590000  0.33890000  1.0 -0.0619215859
C  C65  1  0.22900000  0.94900000  0.21800000  1.0 -0.0930109309
C  C66  1  0.73100000  0.01100000  0.78200000  1.0 -0.0930109309
C  C67  1  0.98900000  0.77100000  0.72000000  1.0 -0.0930109309
C  C68  1  0.05100000  0.26900000  0.28000000  1.0 -0.0930109309
C  C69  1  0.74320000  0.31350000  0.17470000  1.0 0.4279086547
C  C70  1  0.13880000  0.56850000  0.82530000  1.0 0.4279086547
C  C71  1  0.43150000  0.25680000  0.57030000  1.0 0.4279086547
C  C72  1  0.68650000  0.86120000  0.42970000  1.0 0.4279086547
C  C73  1  0.47460000  0.17020000  0.31080000  1.0 -0.0699734805
C  C74  1  0.85940000  0.16380000  0.68920000  1.0 -0.0699734805
C  C75  1  0.83620000  0.52540000  0.69560000  1.0 -0.0699734805
C  C76  1  0.82980000  0.14060000  0.30440000  1.0 -0.0699734805
C  C77  1  0.60050000  0.23530000  0.27980000  1.0 -0.0699734805
C  C78  1  0.95550000  0.32070000  0.72020000  1.0 -0.0699734805
C  C79  1  0.67930000  0.39950000  0.63480000  1.0 -0.0699734805
C  C80  1  0.76470000  0.04450000  0.36520000  1.0 -0.0699734805
C  C81  1  0.51970000  0.21630000  0.16200000  1.0 -0.1017206018
C  C82  1  0.05430000  0.35770000  0.83800000  1.0 -0.1017206018
C  C83  1  0.64230000  0.48030000  0.69660000  1.0 -0.1017206018
C  C84  1  0.78370000  0.94570000  0.30340000  1.0 -0.1017206018
C  C85  1  0.39910000  0.15340000  0.19850000  1.0 -0.0516047436
C  C86  1  0.95490000  0.20060000  0.80150000  1.0 -0.0516047436
C  C87  1  0.79940000  0.60090000  0.75430000  1.0 -0.0516047436
C  C88  1  0.84660000  0.04510000  0.24570000  1.0 -0.0516047436
N  N1  1  0.15110000  0.03470000  0.39780000  1.0 -0.3813220901
N  N2  1  0.63690000  0.75330000  0.60220000  1.0 -0.3813220901
N  N3  1  0.24670000  0.84890000  0.88360000  1.0 -0.3813220901
N  N4  1  0.96530000  0.36310000  0.11640000  1.0 -0.3813220901
N  N5  1  0.24060000  0.05780000  0.30440000  1.0 -0.1558104945
N  N6  1  0.75340000  0.93620000  0.69560000  1.0 -0.1558104945
N  N7  1  0.06380000  0.75940000  0.81720000  1.0 -0.1558104945
N  N8  1  0.94220000  0.24660000  0.18280000  1.0 -0.1558104945
O  O1  1  0.29760000  0.33140000  0.47300000  1.0 -0.834357862
O  O2  1  0.85840000  0.82460000  0.52700000  1.0 -0.834357862
O  O3  1  0.17540000  0.70240000  0.03380000  1.0 -0.834357862
O  O4  1  0.66860000  0.14160000  0.96620000  1.0 -0.834357862
O  O5  1  0.65350000  0.21110000  0.11060000  1.0 -0.5447059763
O  O6  1  0.10050000  0.54290000  0.88940000  1.0 -0.5447059763
O  O7  1  0.45710000  0.34650000  0.55760000  1.0 -0.5447059763
O  O8  1  0.78890000  0.89950000  0.44240000  1.0 -0.5447059763
O  O9  1  0.99900000  0.56440000  0.18940000  1.0 -0.1827977193
O  O10  1  0.37500000  0.80960000  0.81060000  1.0 -0.1827977193
O  O11  1  0.19040000  0.00100000  0.56540000  1.0 -0.1827977193
O  O12  1  0.43560000  0.62500000  0.43460000  1.0 -0.1827977193
O  O13  1  0.91400000  0.44100000  0.21100000  1.0 -0.1426729416
O  O14  1  0.23000000  0.70300000  0.78900000  1.0 -0.1426729416
O  O15  1  0.29700000  0.08600000  0.52700000  1.0 -0.1426729416
O  O16  1  0.55900000  0.77000000  0.47300000  1.0 -0.1426729416
