# DDEC6 charges by PACMAN v1.1 (https://github.com/mtap-research/PACMAN-charge/)
data_FUVDEH09_FSR_pacman
_symmetry_space_group_name_H-M   'P 1'
_cell_length_a   18.96190000
_cell_length_b   18.96190000
_cell_length_c   18.96190000
_cell_angle_alpha   91.07540000
_cell_angle_beta   91.07540000
_cell_angle_gamma   164.25200000
_symmetry_Int_Tables_number   1
_chemical_formula_structural   ZnH16C22(NO2)2
_chemical_formula_sum   'Zn4 H64 C88 N8 O16'
_cell_volume   1832.95610290
_cell_formula_units_Z   4
loop_
 _symmetry_equiv_pos_site_id
 _symmetry_equiv_pos_as_xyz
  1  'x, y, z'
loop_
 _atom_site_type_symbol
 _atom_site_label
 _atom_site_symmetry_multiplicity
 _atom_site_fract_x
 _atom_site_fract_y
 _atom_site_fract_z
 _atom_site_occupancy
 _atom_site_charge
Zn  Zn1  1  0.19475000  0.13662000  0.48677000  1.0 0.8493731085
Zn  Zn2  1  0.64985000  0.70798000  0.51323000  1.0 0.8493731085
Zn  Zn3  1  0.29202000  0.80525000  0.94187000  1.0 0.8493731085
Zn  Zn4  1  0.86338000  0.35015000  0.05813000  1.0 0.8493731085
H  H1  1  0.18430000  0.24710000  0.46680000  1.0 0.3645699832
H  H2  1  0.78030000  0.71750000  0.53320000  1.0 0.3645699832
H  H3  1  0.28250000  0.81570000  0.06280000  1.0 0.3645699832
H  H4  1  0.75290000  0.21970000  0.93720000  1.0 0.3645699832
H  H5  1  0.45910000  0.27220000  0.39990000  1.0 0.101240016
H  H6  1  0.87230000  0.05920000  0.60010000  1.0 0.101240016
H  H7  1  0.94080000  0.54090000  0.81310000  1.0 0.101240016
H  H8  1  0.72780000  0.12770000  0.18690000  1.0 0.101240016
H  H9  1  0.71250000  0.70160000  0.36630000  1.0 0.1411031696
H  H10  1  0.33530000  0.34620000  0.63370000  1.0 0.1411031696
H  H11  1  0.65380000  0.28750000  0.98910000  1.0 0.1411031696
H  H12  1  0.29840000  0.66470000  0.01090000  1.0 0.1411031696
H  H13  1  0.32660000  0.37420000  0.29240000  1.0 0.1228298415
H  H14  1  0.08180000  0.03420000  0.70760000  1.0 0.1228298415
H  H15  1  0.96580000  0.67340000  0.04760000  1.0 0.1228298415
H  H16  1  0.62580000  0.91820000  0.95240000  1.0 0.1228298415
H  H17  1  0.05060000  0.11120000  0.18520000  1.0 0.101240016
H  H18  1  0.92600000  0.86540000  0.81480000  1.0 0.101240016
H  H19  1  0.13460000  0.94940000  0.06060000  1.0 0.101240016
H  H20  1  0.88880000  0.07400000  0.93940000  1.0 0.101240016
H  H21  1  0.14290000  0.12780000  0.09090000  1.0 0.1098169377
H  H22  1  0.03690000  0.05200000  0.90910000  1.0 0.1098169377
H  H23  1  0.94800000  0.85710000  0.98490000  1.0 0.1098169377
H  H24  1  0.87220000  0.96310000  0.01510000  1.0 0.1098169377
H  H25  1  0.50510000  0.40380000  0.10570000  1.0 0.1098169377
H  H26  1  0.29810000  0.39940000  0.89430000  1.0 0.1098169377
H  H27  1  0.60060000  0.49490000  0.89870000  1.0 0.1098169377
H  H28  1  0.59620000  0.70190000  0.10130000  1.0 0.1098169377
H  H29  1  0.88720000  0.72550000  0.17470000  1.0 0.1228298415
H  H30  1  0.55080000  0.71250000  0.82530000  1.0 0.1228298415
H  H31  1  0.28750000  0.11280000  0.83830000  1.0 0.1228298415
H  H32  1  0.27450000  0.44920000  0.16170000  1.0 0.1228298415
H  H33  1  0.46340000  0.16160000  0.36060000  1.0 0.1098169377
H  H34  1  0.80100000  0.10280000  0.63940000  1.0 0.1098169377
H  H35  1  0.89720000  0.53660000  0.69820000  1.0 0.1098169377
H  H36  1  0.83840000  0.19900000  0.30180000  1.0 0.1098169377
H  H37  1  0.67130000  0.26740000  0.30930000  1.0 0.101240016
H  H38  1  0.95810000  0.36200000  0.69070000  1.0 0.101240016
H  H39  1  0.63800000  0.32870000  0.59610000  1.0 0.101240016
H  H40  1  0.73260000  0.04190000  0.40390000  1.0 0.101240016
H  H41  1  0.49770000  0.18980000  0.11310000  1.0 0.101240016
H  H42  1  0.07670000  0.38460000  0.88690000  1.0 0.101240016
H  H43  1  0.61540000  0.50230000  0.69210000  1.0 0.101240016
H  H44  1  0.81020000  0.92330000  0.30790000  1.0 0.101240016
H  H45  1  0.29860000  0.08990000  0.17070000  1.0 0.101240016
H  H46  1  0.91920000  0.12790000  0.82930000  1.0 0.101240016
H  H47  1  0.87210000  0.70140000  0.79130000  1.0 0.101240016
H  H48  1  0.91010000  0.08080000  0.20870000  1.0 0.101240016
H  H49  1  0.72370000  0.48360000  0.32030000  1.0 0.1098169377
H  H50  1  0.16330000  0.40340000  0.67970000  1.0 0.1098169377
H  H51  1  0.59660000  0.27630000  0.75990000  1.0 0.1098169377
H  H52  1  0.51640000  0.83670000  0.24010000  1.0 0.1098169377
H  H53  1  0.93260000  0.59330000  0.26830000  1.0 0.0908844161
H  H54  1  0.32500000  0.66430000  0.73170000  1.0 0.0908844161
H  H55  1  0.33570000  0.06740000  0.66070000  1.0 0.0908844161
H  H56  1  0.40670000  0.67500000  0.33930000  1.0 0.0908844161
H  H57  1  0.24080000  0.86990000  0.15610000  1.0 0.1098169377
H  H58  1  0.71380000  0.08470000  0.84390000  1.0 0.1098169377
H  H59  1  0.91530000  0.75920000  0.62910000  1.0 0.1098169377
H  H60  1  0.13010000  0.28620000  0.37090000  1.0 0.1098169377
H  H61  1  0.03920000  0.76720000  0.20980000  1.0 0.101240016
H  H62  1  0.55740000  0.82940000  0.79020000  1.0 0.101240016
H  H63  1  0.17060000  0.96080000  0.72800000  1.0 0.101240016
H  H64  1  0.23280000  0.44260000  0.27200000  1.0 0.101240016
C  C1  1  0.31070000  0.14680000  0.37230000  1.0 0.1098169377
C  C2  1  0.77450000  0.93840000  0.62770000  1.0 0.1098169377
C  C3  1  0.06160000  0.68930000  0.83610000  1.0 0.1098169377
C  C4  1  0.85320000  0.22550000  0.16390000  1.0 0.1098169377
C  C5  1  0.95960000  0.86620000  0.33440000  1.0 0.1228298415
C  C6  1  0.53180000  0.62520000  0.66560000  1.0 0.1228298415
C  C7  1  0.37480000  0.04040000  0.90660000  1.0 0.1228298415
C  C8  1  0.13380000  0.46820000  0.09340000  1.0 0.1228298415
C  C9  1  0.74560000  0.70480000  0.32820000  1.0 -0.2041836765
C  C10  1  0.37660000  0.41740000  0.67180000  1.0 -0.2041836765
C  C11  1  0.58260000  0.25440000  0.95920000  1.0 -0.2041836765
C  C12  1  0.29520000  0.62340000  0.04080000  1.0 -0.2041836765
C  C13  1  0.58110000  0.54750000  0.26380000  1.0 0.0738164249
C  C14  1  0.28370000  0.31730000  0.73620000  1.0 0.0738164249
C  C15  1  0.68270000  0.41890000  0.96640000  1.0 0.0738164249
C  C16  1  0.45250000  0.71630000  0.03360000  1.0 0.0738164249
C  C17  1  0.36300000  0.38060000  0.25460000  1.0 -0.1388418314
C  C18  1  0.12600000  0.10840000  0.74540000  1.0 -0.1388418314
C  C19  1  0.89160000  0.63700000  0.01760000  1.0 -0.1388418314
C  C20  1  0.61940000  0.87400000  0.98240000  1.0 -0.1388418314
C  C21  1  0.19610000  0.22190000  0.19040000  1.0 -0.1117495198
C  C22  1  0.03150000  0.00570000  0.80960000  1.0 -0.1117495198
C  C23  1  0.99430000  0.80390000  0.02580000  1.0 -0.1117495198
C  C24  1  0.77810000  0.96850000  0.97420000  1.0 -0.1117495198
C  C25  1  0.25150000  0.23200000  0.13430000  1.0 -0.1117495198
C  C26  1  0.09770000  0.11720000  0.86570000  1.0 -0.1117495198
C  C27  1  0.88280000  0.74850000  0.98050000  1.0 -0.1117495198
C  C28  1  0.76800000  0.90230000  0.01950000  1.0 -0.1117495198
C  C29  1  0.46950000  0.39830000  0.14340000  1.0 -0.1589536977
C  C30  1  0.25490000  0.32610000  0.85660000  1.0 -0.1589536977
C  C31  1  0.67390000  0.53050000  0.92880000  1.0 -0.1589536977
C  C32  1  0.60170000  0.74510000  0.07120000  1.0 -0.1589536977
C  C33  1  0.63650000  0.55740000  0.20750000  1.0 0.0804278354
C  C34  1  0.34990000  0.42900000  0.79250000  1.0 0.0804278354
C  C35  1  0.57100000  0.36350000  0.92090000  1.0 0.0804278354
C  C36  1  0.44260000  0.65010000  0.07910000  1.0 0.0804278354
C  C37  1  0.85280000  0.72080000  0.21280000  1.0 -0.263970488
C  C38  1  0.50800000  0.64000000  0.78720000  1.0 -0.263970488
C  C39  1  0.36000000  0.14720000  0.86800000  1.0 -0.263970488
C  C40  1  0.27920000  0.49200000  0.13200000  1.0 -0.263970488
C  C41  1  0.01490000  0.87680000  0.27770000  1.0 0.1098169377
C  C42  1  0.59910000  0.73720000  0.72230000  1.0 0.1098169377
C  C43  1  0.26280000  0.98510000  0.86190000  1.0 0.1098169377
C  C44  1  0.12320000  0.40090000  0.13810000  1.0 0.1098169377
C  C45  1  0.36100000  0.11530000  0.27030000  1.0 0.1098169377
C  C46  1  0.84500000  0.09070000  0.72970000  1.0 0.1098169377
C  C47  1  0.90930000  0.63900000  0.75430000  1.0 0.1098169377
C  C48  1  0.88470000  0.15500000  0.24570000  1.0 0.1098169377
C  C49  1  0.60270000  0.23930000  0.20800000  1.0 0.0098062109
C  C50  1  0.03130000  0.39470000  0.79200000  1.0 0.0098062109
C  C51  1  0.60530000  0.39730000  0.63660000  1.0 0.0098062109
C  C52  1  0.76070000  0.96870000  0.36340000  1.0 0.0098062109
C  C53  1  0.47160000  0.16830000  0.31190000  1.0 -0.0710082811
C  C54  1  0.85640000  0.15970000  0.68810000  1.0 -0.0710082811
C  C55  1  0.84030000  0.52840000  0.69670000  1.0 -0.0710082811
C  C56  1  0.83170000  0.14360000  0.30330000  1.0 -0.0710082811
C  C57  1  0.59600000  0.23160000  0.28160000  1.0 -0.0575743736
C  C58  1  0.95000000  0.31440000  0.71840000  1.0 -0.0575743736
C  C59  1  0.68560000  0.40400000  0.63560000  1.0 -0.0575743736
C  C60  1  0.76840000  0.05000000  0.36440000  1.0 -0.0575743736
C  C61  1  0.49230000  0.18560000  0.16190000  1.0 -0.1027229868
C  C62  1  0.02370000  0.33040000  0.83810000  1.0 -0.1027229868
C  C63  1  0.66960000  0.50770000  0.69330000  1.0 -0.1027229868
C  C64  1  0.81440000  0.97630000  0.30670000  1.0 -0.1027229868
C  C65  1  0.37410000  0.12560000  0.19770000  1.0 -0.0575743736
C  C66  1  0.92790000  0.17640000  0.80230000  1.0 -0.0575743736
C  C67  1  0.82360000  0.62590000  0.75150000  1.0 -0.0575743736
C  C68  1  0.87440000  0.07210000  0.24850000  1.0 -0.0575743736
C  C69  1  0.74170000  0.31570000  0.17140000  1.0 0.4254015896
C  C70  1  0.14430000  0.57030000  0.82860000  1.0 0.4254015896
C  C71  1  0.42970000  0.25830000  0.57400000  1.0 0.4254015896
C  C72  1  0.68430000  0.85570000  0.42600000  1.0 0.4254015896
C  C73  1  0.62690000  0.36040000  0.28730000  1.0 -0.0751819697
C  C74  1  0.07310000  0.33960000  0.71270000  1.0 -0.0751819697
C  C75  1  0.66040000  0.37310000  0.73350000  1.0 -0.0751819697
C  C76  1  0.63960000  0.92690000  0.26650000  1.0 -0.0751819697
C  C77  1  0.75310000  0.42760000  0.25670000  1.0 -0.1027229868
C  C78  1  0.17090000  0.49640000  0.74330000  1.0 -0.1027229868
C  C79  1  0.50360000  0.24690000  0.67450000  1.0 -0.1027229868
C  C80  1  0.57240000  0.82910000  0.32550000  1.0 -0.1027229868
C  C81  1  0.33690000  0.99230000  0.18920000  1.0 -0.0575743736
C  C82  1  0.80310000  0.14770000  0.81080000  1.0 -0.0575743736
C  C83  1  0.85230000  0.66310000  0.65540000  1.0 -0.0575743736
C  C84  1  0.00770000  0.19690000  0.34460000  1.0 -0.0575743736
C  C85  1  0.21840000  0.93290000  0.22130000  1.0 -0.0904189993
C  C86  1  0.71160000  0.99710000  0.77870000  1.0 -0.0904189993
C  C87  1  0.00290000  0.78160000  0.71450000  1.0 -0.0904189993
C  C88  1  0.06710000  0.28840000  0.28550000  1.0 -0.0904189993
N  N1  1  0.16120000  0.05010000  0.39730000  1.0 -0.382736766
N  N2  1  0.65280000  0.76390000  0.60270000  1.0 -0.382736766
N  N3  1  0.23610000  0.83880000  0.88890000  1.0 -0.382736766
N  N4  1  0.94990000  0.34720000  0.11110000  1.0 -0.382736766
N  N5  1  0.23930000  0.05580000  0.30390000  1.0 -0.1589536977
N  N6  1  0.75190000  0.93540000  0.69610000  1.0 -0.1589536977
N  N7  1  0.06460000  0.76070000  0.81650000  1.0 -0.1589536977
N  N8  1  0.94420000  0.24810000  0.18350000  1.0 -0.1589536977
O  O1  1  0.31730000  0.34830000  0.47660000  1.0 -0.8464587119
O  O2  1  0.87170000  0.84070000  0.52340000  1.0 -0.8464587119
O  O3  1  0.15930000  0.68270000  0.03100000  1.0 -0.8464587119
O  O4  1  0.65170000  0.12830000  0.96900000  1.0 -0.8464587119
O  O5  1  0.64350000  0.19760000  0.11110000  1.0 -0.5412509677
O  O6  1  0.08650000  0.53240000  0.88890000  1.0 -0.5412509677
O  O7  1  0.46760000  0.35650000  0.55410000  1.0 -0.5412509677
O  O8  1  0.80240000  0.91350000  0.44590000  1.0 -0.5412509677
O  O9  1  0.98530000  0.53870000  0.19400000  1.0 -0.1873846587
O  O10  1  0.34470000  0.79130000  0.80600000  1.0 -0.1840236522
O  O11  1  0.20870000  0.01470000  0.55340000  1.0 -0.1840236522
O  O12  1  0.46130000  0.65530000  0.44660000  1.0 -0.1840236522
O  O13  1  0.85000000  0.37000000  0.21600000  1.0 -0.1713567351
O  O14  1  0.15400000  0.63400000  0.78400000  1.0 -0.1713567351
O  O15  1  0.36600000  0.15000000  0.52000000  1.0 -0.1713567351
O  O16  1  0.63000000  0.84600000  0.48000000  1.0 -0.1713567351
