# DDEC6 charges by PACMAN v1.1 (https://github.com/mtap-research/PACMAN-charge/)
data_FUVDEH05_FSR_pacman
_symmetry_space_group_name_H-M   'P 1'
_cell_length_a   19.38200000
_cell_length_b   19.38200000
_cell_length_c   19.38200000
_cell_angle_alpha   90.65590000
_cell_angle_beta   90.65590000
_cell_angle_gamma   167.71600000
_symmetry_Int_Tables_number   1
_chemical_formula_structural   ZnH16C22(NO2)2
_chemical_formula_sum   'Zn4 H64 C88 N8 O16'
_cell_volume   1540.21250285
_cell_formula_units_Z   4
loop_
 _symmetry_equiv_pos_site_id
 _symmetry_equiv_pos_as_xyz
  1  'x, y, z'
loop_
 _atom_site_type_symbol
 _atom_site_label
 _atom_site_symmetry_multiplicity
 _atom_site_fract_x
 _atom_site_fract_y
 _atom_site_fract_z
 _atom_site_occupancy
 _atom_site_charge
Zn  Zn1  1  0.14558000  0.07907000  0.49445000  1.0 0.7731244332
Zn  Zn2  1  0.58462000  0.65113000  0.50555000  1.0 0.7731244332
Zn  Zn3  1  0.34887000  0.85442000  0.93349000  1.0 0.7731244332
Zn  Zn4  1  0.92093000  0.41538000  0.06651000  1.0 0.7731244332
H  H1  1  0.06490000  0.12550000  0.44800000  1.0 0.324359945
H  H2  1  0.67750000  0.61690000  0.55200000  1.0 0.324359945
H  H3  1  0.38310000  0.93510000  0.06060000  1.0 0.324359945
H  H4  1  0.87450000  0.32250000  0.93940000  1.0 0.324359945
H  H5  1  0.39680000  0.21680000  0.41780000  1.0 0.1016577585
H  H6  1  0.79900000  0.97900000  0.58220000  1.0 0.1016577585
H  H7  1  0.02100000  0.60320000  0.82000000  1.0 0.1016577585
H  H8  1  0.78320000  0.20100000  0.18000000  1.0 0.1016577585
H  H9  1  0.61560000  0.61080000  0.36300000  1.0 0.1300177938
H  H10  1  0.24780000  0.25260000  0.63700000  1.0 0.1300177938
H  H11  1  0.74740000  0.38440000  0.99520000  1.0 0.1300177938
H  H12  1  0.38920000  0.75220000  0.00480000  1.0 0.1300177938
H  H13  1  0.23900000  0.30130000  0.29110000  1.0 0.1016577585
H  H14  1  0.01020000  0.94790000  0.70890000  1.0 0.1016577585
H  H15  1  0.05210000  0.76100000  0.06230000  1.0 0.1016577585
H  H16  1  0.69870000  0.98980000  0.93770000  1.0 0.1016577585
H  H17  1  0.95050000  0.04220000  0.18370000  1.0 0.1016577585
H  H18  1  0.85850000  0.76680000  0.81630000  1.0 0.1016577585
H  H19  1  0.23320000  0.04950000  0.09170000  1.0 0.1016577585
H  H20  1  0.95780000  0.14150000  0.90830000  1.0 0.1016577585
H  H21  1  0.09360000  0.11450000  0.09130000  1.0 0.1106576293
H  H22  1  0.02320000  0.00230000  0.90870000  1.0 0.1106576293
H  H23  1  0.99770000  0.90640000  0.02090000  1.0 0.1106576293
H  H24  1  0.88550000  0.97680000  0.97910000  1.0 0.1106576293
H  H25  1  0.47590000  0.40440000  0.10510000  1.0 0.115395031
H  H26  1  0.29930000  0.37080000  0.89490000  1.0 0.115395031
H  H27  1  0.62920000  0.52410000  0.92850000  1.0 0.115395031
H  H28  1  0.59560000  0.70070000  0.07150000  1.0 0.115395031
H  H29  1  0.89620000  0.74950000  0.18050000  1.0 0.1106576293
H  H30  1  0.56900000  0.71570000  0.81950000  1.0 0.1106576293
H  H31  1  0.28430000  0.10380000  0.85330000  1.0 0.1106576293
H  H32  1  0.25050000  0.43100000  0.14670000  1.0 0.1106576293
H  H33  1  0.41120000  0.10050000  0.35930000  1.0 0.1106576293
H  H34  1  0.74120000  0.05190000  0.64070000  1.0 0.1106576293
H  H35  1  0.94810000  0.58880000  0.68930000  1.0 0.1106576293
H  H36  1  0.89950000  0.25880000  0.31070000  1.0 0.1106576293
H  H37  1  0.59780000  0.18920000  0.29700000  1.0 0.1016577585
H  H38  1  0.89220000  0.30080000  0.70300000  1.0 0.1016577585
H  H39  1  0.69920000  0.40220000  0.59140000  1.0 0.1016577585
H  H40  1  0.81080000  0.10780000  0.40860000  1.0 0.1016577585
H  H41  1  0.60550000  0.31920000  0.12570000  1.0 0.1106576293
H  H42  1  0.19350000  0.47980000  0.87430000  1.0 0.1106576293
H  H43  1  0.52020000  0.39450000  0.71370000  1.0 0.1106576293
H  H44  1  0.68080000  0.80650000  0.28630000  1.0 0.1106576293
H  H45  1  0.42040000  0.22810000  0.19370000  1.0 0.1106576293
H  H46  1  0.03440000  0.22670000  0.80630000  1.0 0.1106576293
H  H47  1  0.77330000  0.57960000  0.80770000  1.0 0.1106576293
H  H48  1  0.77190000  0.96560000  0.19230000  1.0 0.1106576293
H  H49  1  0.81300000  0.54560000  0.34420000  1.0 0.1106576293
H  H50  1  0.20140000  0.46880000  0.65580000  1.0 0.1106576293
H  H51  1  0.53120000  0.18700000  0.73260000  1.0 0.1106576293
H  H52  1  0.45440000  0.79860000  0.26740000  1.0 0.1106576293
H  H53  1  0.00280000  0.63990000  0.28090000  1.0 0.0947947828
H  H54  1  0.35900000  0.72190000  0.71910000  1.0 0.0947947828
H  H55  1  0.27810000  0.99720000  0.63710000  1.0 0.0947947828
H  H56  1  0.36010000  0.64100000  0.36290000  1.0 0.0947947828
H  H57  1  0.20100000  0.87100000  0.14400000  1.0 0.1016577585
H  H58  1  0.72700000  0.05700000  0.85600000  1.0 0.1016577585
H  H59  1  0.94300000  0.79900000  0.67000000  1.0 0.1016577585
H  H60  1  0.12900000  0.27300000  0.33000000  1.0 0.1016577585
H  H61  1  0.01970000  0.78460000  0.20870000  1.0 0.1106576293
H  H62  1  0.57590000  0.81100000  0.79130000  1.0 0.1106576293
H  H63  1  0.18900000  0.98030000  0.76490000  1.0 0.1106576293
H  H64  1  0.21540000  0.42410000  0.23510000  1.0 0.1106576293
C  C1  1  0.25330000  0.09560000  0.38290000  1.0 0.0437777555
C  C2  1  0.71270000  0.87040000  0.61710000  1.0 0.0437777555
C  C3  1  0.12960000  0.74670000  0.84230000  1.0 0.0437777555
C  C4  1  0.90440000  0.28730000  0.15770000  1.0 0.0437777555
C  C5  1  0.90910000  0.82030000  0.33740000  1.0 0.1752847797
C  C6  1  0.48290000  0.57170000  0.66260000  1.0 0.1752847797
C  C7  1  0.42830000  0.09090000  0.91120000  1.0 0.1752847797
C  C8  1  0.17970000  0.51710000  0.08880000  1.0 0.1752847797
C  C9  1  0.67180000  0.63850000  0.32630000  1.0 -0.2528524035
C  C10  1  0.31220000  0.34550000  0.67370000  1.0 -0.2528524035
C  C11  1  0.65450000  0.32820000  0.96670000  1.0 -0.2528524035
C  C12  1  0.36150000  0.68780000  0.03330000  1.0 -0.2528524035
C  C13  1  0.51860000  0.49800000  0.26060000  1.0 0.0822294913
C  C14  1  0.23740000  0.25800000  0.73940000  1.0 0.0822294913
C  C15  1  0.74200000  0.48140000  0.97940000  1.0 0.0822294913
C  C16  1  0.50200000  0.76260000  0.02060000  1.0 0.0822294913
C  C17  1  0.28330000  0.31900000  0.25230000  1.0 -0.17035701
C  C18  1  0.06670000  0.03100000  0.74770000  1.0 -0.17035701
C  C19  1  0.96900000  0.71670000  0.03570000  1.0 -0.17035701
C  C20  1  0.68100000  0.93330000  0.96430000  1.0 -0.17035701
C  C21  1  0.11060000  0.16480000  0.18940000  1.0 -0.1120119272
C  C22  1  0.97540000  0.92120000  0.81060000  1.0 -0.1120119272
C  C23  1  0.07880000  0.88940000  0.05420000  1.0 -0.1120119272
C  C24  1  0.83520000  0.02460000  0.94580000  1.0 -0.1120119272
C  C25  1  0.19810000  0.20940000  0.13550000  1.0 -0.1258448371
C  C26  1  0.07390000  0.06260000  0.86450000  1.0 -0.1258448371
C  C27  1  0.93740000  0.80190000  0.01130000  1.0 -0.1258448371
C  C28  1  0.79060000  0.92610000  0.98870000  1.0 -0.1258448371
C  C29  1  0.43230000  0.38750000  0.14380000  1.0 -0.164519515
C  C30  1  0.24370000  0.28850000  0.85620000  1.0 -0.164519515
C  C31  1  0.71150000  0.56770000  0.95520000  1.0 -0.164519515
C  C32  1  0.61250000  0.75630000  0.04480000  1.0 -0.164519515
C  C33  1  0.60500000  0.54180000  0.20680000  1.0 0.0822294913
C  C34  1  0.33500000  0.39820000  0.79320000  1.0 0.0822294913
C  C35  1  0.60180000  0.39500000  0.93680000  1.0 0.0822294913
C  C36  1  0.45820000  0.66500000  0.06320000  1.0 0.0822294913
C  C37  1  0.84090000  0.72260000  0.21750000  1.0 -0.2568369442
C  C38  1  0.50510000  0.62340000  0.78250000  1.0 -0.2568369442
C  C39  1  0.37660000  0.15910000  0.88170000  1.0 -0.2568369442
C  C40  1  0.27740000  0.49490000  0.11830000  1.0 -0.2568369442
C  C41  1  0.99530000  0.86390000  0.28320000  1.0 0.0568226287
C  C42  1  0.58070000  0.71210000  0.71680000  1.0 0.0568226287
C  C43  1  0.28790000  0.00470000  0.86860000  1.0 0.0568226287
C  C44  1  0.13610000  0.41930000  0.13140000  1.0 0.0568226287
C  C45  1  0.39720000  0.15510000  0.28230000  1.0 0.1016577585
C  C46  1  0.87280000  0.11490000  0.71770000  1.0 0.1016577585
C  C47  1  0.88510000  0.60280000  0.75790000  1.0 0.1016577585
C  C48  1  0.84490000  0.12720000  0.24210000  1.0 0.1016577585
C  C49  1  0.61380000  0.26040000  0.20820000  1.0 -0.0125932078
C  C50  1  0.05220000  0.40560000  0.79180000  1.0 -0.0125932078
C  C51  1  0.59440000  0.38620000  0.64660000  1.0 -0.0125932078
C  C52  1  0.73960000  0.94780000  0.35340000  1.0 -0.0125932078
C  C53  1  0.44980000  0.14350000  0.31330000  1.0 -0.0705225942
C  C54  1  0.83020000  0.13650000  0.68670000  1.0 -0.0705225942
C  C55  1  0.86350000  0.55020000  0.69370000  1.0 -0.0705225942
C  C56  1  0.85650000  0.16980000  0.30630000  1.0 -0.0705225942
C  C57  1  0.56080000  0.19600000  0.27680000  1.0 -0.0813713064
C  C58  1  0.91920000  0.28400000  0.72320000  1.0 -0.0813713064
C  C59  1  0.71600000  0.43920000  0.63520000  1.0 -0.0813713064
C  C60  1  0.80400000  0.08080000  0.36480000  1.0 -0.0813713064
C  C61  1  0.56740000  0.27650000  0.17190000  1.0 -0.1003318512
C  C62  1  0.10460000  0.39550000  0.82810000  1.0 -0.1003318512
C  C63  1  0.60450000  0.43260000  0.70910000  1.0 -0.1003318512
C  C64  1  0.72350000  0.89540000  0.29090000  1.0 -0.1003318512
C  C65  1  0.45690000  0.22060000  0.21350000  1.0 -0.0435008267
C  C66  1  0.00710000  0.24340000  0.78650000  1.0 -0.0435008267
C  C67  1  0.75660000  0.54310000  0.76370000  1.0 -0.0435008267
C  C68  1  0.77940000  0.99290000  0.23630000  1.0 -0.0435008267
C  C69  1  0.79300000  0.37660000  0.17760000  1.0 0.396804071
C  C70  1  0.19900000  0.61540000  0.82240000  1.0 0.396804071
C  C71  1  0.38460000  0.20700000  0.58360000  1.0 0.396804071
C  C72  1  0.62340000  0.80100000  0.41640000  1.0 0.396804071
C  C73  1  0.69110000  0.41090000  0.30400000  1.0 -0.0705225942
C  C74  1  0.10690000  0.38710000  0.69600000  1.0 -0.0705225942
C  C75  1  0.61290000  0.30890000  0.71980000  1.0 -0.0705225942
C  C76  1  0.58910000  0.89310000  0.28020000  1.0 -0.0705225942
C  C77  1  0.80490000  0.46800000  0.26690000  1.0 -0.1003318512
C  C78  1  0.20110000  0.53800000  0.73310000  1.0 -0.1003318512
C  C79  1  0.46200000  0.19510000  0.66310000  1.0 -0.1003318512
C  C80  1  0.53200000  0.79890000  0.33690000  1.0 -0.1003318512
C  C81  1  0.32180000  0.00460000  0.18440000  1.0 -0.0705225942
C  C82  1  0.82020000  0.13740000  0.81560000  1.0 -0.0705225942
C  C83  1  0.86260000  0.67820000  0.68280000  1.0 -0.0705225942
C  C84  1  0.99540000  0.17980000  0.31720000  1.0 -0.0705225942
C  C85  1  0.21700000  0.95610000  0.22310000  1.0 -0.0856929803
C  C86  1  0.73300000  0.99390000  0.77690000  1.0 -0.0856929803
C  C87  1  0.00610000  0.78300000  0.73910000  1.0 -0.0856929803
C  C88  1  0.04390000  0.26700000  0.26090000  1.0 -0.0856929803
N  N1  1  0.05370000  0.95070000  0.39440000  1.0 -0.2652075225
N  N2  1  0.55630000  0.65930000  0.60560000  1.0 -0.2652075225
N  N3  1  0.34070000  0.94630000  0.89700000  1.0 -0.2652075225
N  N4  1  0.04930000  0.44370000  0.10300000  1.0 -0.2652075225
N  N5  1  0.23560000  0.05620000  0.31580000  1.0 -0.2327605271
N  N6  1  0.74040000  0.91980000  0.68420000  1.0 -0.2327605271
N  N7  1  0.08020000  0.76440000  0.82060000  1.0 -0.2327605271
N  N8  1  0.94380000  0.25960000  0.17940000  1.0 -0.2327605271
O  O1  1  0.19990000  0.22810000  0.45800000  1.0 -0.8052350068
O  O2  1  0.77010000  0.74190000  0.54200000  1.0 -0.8052350068
O  O3  1  0.25810000  0.80010000  0.02820000  1.0 -0.8052350068
O  O4  1  0.77190000  0.22990000  0.97180000  1.0 -0.8052350068
O  O5  1  0.70080000  0.27300000  0.11780000  1.0 -0.4222447211
O  O6  1  0.15520000  0.58300000  0.88220000  1.0 -0.4222447211
O  O7  1  0.41700000  0.29920000  0.57220000  1.0 -0.4222447211
O  O8  1  0.72700000  0.84480000  0.42780000  1.0 -0.4222447211
O  O9  1  0.09720000  0.65480000  0.18200000  1.0 -0.0472323028
O  O10  1  0.47280000  0.91520000  0.81800000  1.0 -0.0472323028
O  O11  1  0.08480000  0.90280000  0.55760000  1.0 -0.0472323028
O  O12  1  0.34520000  0.52720000  0.44240000  1.0 -0.0472323028
O  O13  1  0.95030000  0.48480000  0.21710000  1.0 -0.17035701
O  O14  1  0.26770000  0.73320000  0.78290000  1.0 -0.17035701
O  O15  1  0.26680000  0.04970000  0.53450000  1.0 -0.17035701
O  O16  1  0.51520000  0.73230000  0.46550000  1.0 -0.164519515
