# DDEC6 charges by PACMAN v1.1 (https://github.com/mtap-research/PACMAN-charge/)
data_FUVDEH07_FSR_pacman
_symmetry_space_group_name_H-M   'P 1'
_cell_length_a   19.75200000
_cell_length_b   19.75200000
_cell_length_c   19.75200000
_cell_angle_alpha   90.49990000
_cell_angle_beta   90.49990000
_cell_angle_gamma   169.28100000
_symmetry_Int_Tables_number   1
_chemical_formula_structural   ZnH12C18(NO2)2
_chemical_formula_sum   'Zn4 H48 C72 N8 O16'
_cell_volume   1427.00531466
_cell_formula_units_Z   4
loop_
 _symmetry_equiv_pos_site_id
 _symmetry_equiv_pos_as_xyz
  1  'x, y, z'
loop_
 _atom_site_type_symbol
 _atom_site_label
 _atom_site_symmetry_multiplicity
 _atom_site_fract_x
 _atom_site_fract_y
 _atom_site_fract_z
 _atom_site_occupancy
 _atom_site_charge
Zn  Zn1  1  0.14802000  0.07839000  0.49761000  1.0 0.8121221293
Zn  Zn2  1  0.58078000  0.65041000  0.50239000  1.0 0.8121221293
Zn  Zn3  1  0.34959000  0.85198000  0.93037000  1.0 0.8121221293
Zn  Zn4  1  0.92161000  0.41922000  0.06963000  1.0 0.8121221293
H  H1  1  0.38170000  0.18110000  0.41940000  1.0 0.1083223742
H  H2  1  0.76170000  0.96230000  0.58060000  1.0 0.1083223742
H  H3  1  0.03770000  0.61830000  0.79940000  1.0 0.1083223742
H  H4  1  0.81890000  0.23830000  0.20060000  1.0 0.1083223742
H  H5  1  0.60140000  0.60550000  0.36630000  1.0 0.1387079212
H  H6  1  0.23920000  0.23510000  0.63370000  1.0 0.1387079212
H  H7  1  0.76490000  0.39860000  0.00410000  1.0 0.1387079212
H  H8  1  0.39450000  0.76080000  0.99590000  1.0 0.1387079212
H  H9  1  0.22980000  0.30710000  0.28550000  1.0 0.1083223742
H  H10  1  0.02160000  0.94430000  0.71450000  1.0 0.1083223742
H  H11  1  0.05570000  0.77020000  0.07730000  1.0 0.1083223742
H  H12  1  0.69290000  0.97840000  0.92270000  1.0 0.1083223742
H  H13  1  0.98580000  0.08990000  0.17510000  1.0 0.1023913476
H  H14  1  0.91480000  0.81070000  0.82490000  1.0 0.1023913476
H  H15  1  0.18930000  0.01420000  0.10410000  1.0 0.1023913476
H  H16  1  0.91010000  0.08520000  0.89590000  1.0 0.1023913476
H  H17  1  0.13440000  0.16190000  0.08890000  1.0 0.1023913476
H  H18  1  0.07300000  0.04550000  0.91110000  1.0 0.1023913476
H  H19  1  0.95450000  0.86560000  0.02750000  1.0 0.1023913476
H  H20  1  0.83810000  0.92700000  0.97250000  1.0 0.1023913476
H  H21  1  0.50580000  0.43490000  0.11270000  1.0 0.1083223742
H  H22  1  0.32220000  0.39310000  0.88730000  1.0 0.1083223742
H  H23  1  0.60690000  0.49420000  0.92910000  1.0 0.1083223742
H  H24  1  0.56510000  0.67780000  0.07090000  1.0 0.1083223742
H  H25  1  0.87310000  0.72620000  0.19070000  1.0 0.1177951883
H  H26  1  0.53550000  0.68240000  0.80930000  1.0 0.1177951883
H  H27  1  0.31760000  0.12690000  0.85310000  1.0 0.1177951883
H  H28  1  0.27380000  0.46450000  0.14690000  1.0 0.1177951883
H  H29  1  0.60890000  0.31050000  0.14500000  1.0 0.1083223742
H  H30  1  0.16550000  0.46390000  0.85500000  1.0 0.1083223742
H  H31  1  0.53610000  0.39110000  0.70160000  1.0 0.1083223742
H  H32  1  0.68950000  0.83450000  0.29840000  1.0 0.1083223742
H  H33  1  0.54450000  0.13810000  0.31420000  1.0 0.1177951883
H  H34  1  0.82390000  0.23030000  0.68580000  1.0 0.1177951883
H  H35  1  0.76970000  0.45550000  0.59360000  1.0 0.1177951883
H  H36  1  0.86190000  0.17610000  0.40640000  1.0 0.1177951883
H  H37  1  0.31760000  0.00900000  0.36800000  1.0 0.1311551261
H  H38  1  0.64100000  0.94960000  0.63200000  1.0 0.1311551261
H  H39  1  0.05040000  0.68240000  0.69140000  1.0 0.1311551261
H  H40  1  0.99100000  0.35900000  0.30860000  1.0 0.1311551261
H  H41  1  0.38200000  0.18140000  0.19880000  1.0 0.1083223742
H  H42  1  0.98260000  0.18320000  0.80120000  1.0 0.1083223742
H  H43  1  0.81680000  0.61800000  0.79940000  1.0 0.1083223742
H  H44  1  0.81860000  0.01740000  0.20060000  1.0 0.1083223742
H  H45  1  0.56670000  0.49270000  0.54300000  1.0 0.2844415832
H  H46  1  0.94970000  0.02370000  0.45700000  1.0 0.2844415832
H  H47  1  0.97630000  0.43330000  0.92600000  1.0 0.2844415832
H  H48  1  0.50730000  0.05030000  0.07400000  1.0 0.2844415832
C  C1  1  0.23810000  0.06600000  0.38810000  1.0 0.1083223742
C  C2  1  0.67790000  0.85000000  0.61190000  1.0 0.1083223742
C  C3  1  0.15000000  0.76190000  0.82790000  1.0 0.1083223742
C  C4  1  0.93400000  0.32210000  0.17210000  1.0 0.1083223742
C  C5  1  0.87660000  0.79130000  0.34370000  1.0 0.1311551261
C  C6  1  0.44760000  0.53290000  0.65630000  1.0 0.1311551261
C  C7  1  0.46710000  0.12340000  0.91470000  1.0 0.1311551261
C  C8  1  0.20870000  0.55240000  0.08530000  1.0 0.1311551261
C  C9  1  0.65430000  0.62870000  0.33100000  1.0 -0.200811274
C  C10  1  0.29770000  0.32330000  0.66900000  1.0 -0.200811274
C  C11  1  0.67670000  0.34570000  0.97440000  1.0 -0.200811274
C  C12  1  0.37130000  0.70230000  0.02560000  1.0 -0.200811274
C  C13  1  0.51190000  0.50090000  0.26480000  1.0 0.0786319397
C  C14  1  0.23610000  0.24710000  0.73520000  1.0 0.0786319397
C  C15  1  0.75290000  0.48810000  0.98900000  1.0 0.0786319397
C  C16  1  0.49910000  0.76390000  0.01100000  1.0 0.0786319397
C  C17  1  0.28520000  0.33300000  0.25020000  1.0 -0.1355554383
C  C18  1  0.08280000  0.03500000  0.74980000  1.0 -0.1355554383
C  C19  1  0.96500000  0.71480000  0.04780000  1.0 -0.1355554383
C  C20  1  0.66700000  0.91720000  0.95220000  1.0 -0.1355554383
C  C21  1  0.13710000  0.20140000  0.18450000  1.0 -0.1085617203
C  C22  1  0.01690000  0.95260000  0.81550000  1.0 -0.1085617203
C  C23  1  0.04740000  0.86290000  0.06430000  1.0 -0.1085617203
C  C24  1  0.79860000  0.98310000  0.93570000  1.0 -0.1085617203
C  C25  1  0.22770000  0.24590000  0.13360000  1.0 -0.1085617203
C  C26  1  0.11230000  0.09410000  0.86640000  1.0 -0.1085617203
C  C27  1  0.90590000  0.77230000  0.01820000  1.0 -0.1085617203
C  C28  1  0.75410000  0.88770000  0.98180000  1.0 -0.1085617203
C  C29  1  0.45350000  0.41240000  0.14790000  1.0 -0.1571016234
C  C30  1  0.26450000  0.30560000  0.85210000  1.0 -0.1571016234
C  C31  1  0.69440000  0.54650000  0.95890000  1.0 -0.1571016234
C  C32  1  0.58760000  0.73550000  0.04110000  1.0 -0.1571016234
C  C33  1  0.60220000  0.54530000  0.21410000  1.0 0.0860328529
C  C34  1  0.33120000  0.38810000  0.78590000  1.0 0.0860328529
C  C35  1  0.61190000  0.39780000  0.94310000  1.0 0.0860328529
C  C36  1  0.45470000  0.66880000  0.05690000  1.0 0.0860328529
C  C37  1  0.82340000  0.70650000  0.22590000  1.0 -0.228188479
C  C38  1  0.48060000  0.59750000  0.77410000  1.0 -0.228188479
C  C39  1  0.40250000  0.17660000  0.88310000  1.0 -0.228188479
C  C40  1  0.29350000  0.51940000  0.11690000  1.0 -0.228188479
C  C41  1  0.96950000  0.83870000  0.29220000  1.0 0.0786319397
C  C42  1  0.54650000  0.67730000  0.70780000  1.0 0.0786319397
C  C43  1  0.32270000  0.03050000  0.86920000  1.0 0.0786319397
C  C44  1  0.16130000  0.45350000  0.13080000  1.0 0.0786319397
C  C45  1  0.55010000  0.24960000  0.18970000  1.0 -0.0882829052
C  C46  1  0.05990000  0.36040000  0.81030000  1.0 -0.0882829052
C  C47  1  0.63960000  0.44990000  0.69950000  1.0 -0.0882829052
C  C48  1  0.75040000  0.94010000  0.30050000  1.0 -0.0882829052
C  C49  1  0.59920000  0.23710000  0.22430000  1.0 -0.0483796714
C  C50  1  0.01280000  0.37490000  0.77570000  1.0 -0.0483796714
C  C51  1  0.62510000  0.40080000  0.63790000  1.0 -0.0483796714
C  C52  1  0.76290000  0.98720000  0.36210000  1.0 -0.0483796714
C  C53  1  0.51210000  0.14700000  0.29110000  1.0 -0.0777509731
C  C54  1  0.85590000  0.22100000  0.70890000  1.0 -0.0777509731
C  C55  1  0.77900000  0.48790000  0.63490000  1.0 -0.0777509731
C  C56  1  0.85300000  0.14410000  0.36510000  1.0 -0.0777509731
C  C57  1  0.37600000  0.06940000  0.32340000  1.0 -0.1933866363
C  C58  1  0.74600000  0.05260000  0.67660000  1.0 -0.1933866363
C  C59  1  0.94740000  0.62400000  0.69340000  1.0 -0.1933866363
C  C60  1  0.93060000  0.25400000  0.30660000  1.0 -0.1933866363
C  C61  1  0.32730000  0.08240000  0.28870000  1.0 0.1820562113
C  C62  1  0.79370000  0.03860000  0.71130000  1.0 0.1820562113
C  C63  1  0.96140000  0.67270000  0.75510000  1.0 0.1820562113
C  C64  1  0.91760000  0.20630000  0.24490000  1.0 0.1820562113
C  C65  1  0.41490000  0.17300000  0.22190000  1.0 -0.1933866363
C  C66  1  0.95110000  0.19300000  0.77810000  1.0 -0.1933866363
C  C67  1  0.80700000  0.58510000  0.75810000  1.0 -0.1933866363
C  C68  1  0.82700000  0.04890000  0.24190000  1.0 -0.1933866363
C  C69  1  0.74860000  0.32680000  0.18340000  1.0 0.4334346283
C  C70  1  0.14340000  0.56520000  0.81660000  1.0 0.4334346283
C  C71  1  0.43480000  0.25140000  0.57820000  1.0 0.4334346283
C  C72  1  0.67320000  0.85660000  0.42180000  1.0 0.4334346283
N  N1  1  0.06390000  0.94900000  0.40490000  1.0 -0.3506702852
N  N2  1  0.54410000  0.65900000  0.59510000  1.0 -0.3506702852
N  N3  1  0.34100000  0.93610000  0.88510000  1.0 -0.3506702852
N  N4  1  0.05100000  0.45590000  0.11490000  1.0 -0.3506702852
N  N5  1  0.19130000  0.00530000  0.32060000  1.0 -0.0483796714
N  N6  1  0.68470000  0.87070000  0.67940000  1.0 -0.0483796714
N  N7  1  0.12930000  0.80870000  0.81400000  1.0 -0.0483796714
N  N8  1  0.99470000  0.31530000  0.18600000  1.0 -0.0483796714
O  O1  1  0.87620000  0.45870000  0.13490000  1.0 -0.3641798716
O  O2  1  0.32380000  0.74130000  0.86510000  1.0 -0.3641798716
O  O3  1  0.25870000  0.12380000  0.58250000  1.0 -0.3641798716
O  O4  1  0.54130000  0.67620000  0.41750000  1.0 -0.3641798716
O  O5  1  0.62500000  0.14900000  0.20800000  1.0 -0.228188479
O  O6  1  0.94100000  0.41700000  0.79200000  1.0 -0.228188479
O  O7  1  0.58300000  0.37500000  0.52400000  1.0 -0.228188479
O  O8  1  0.85100000  0.05900000  0.47600000  1.0 -0.228188479
O  O9  1  0.66666667  0.62760000  0.53230000  1.0 -0.7840296548
O  O10  1  0.09530000  0.13440000  0.46770000  1.0 -0.7840296548
O  O11  1  0.86560000  0.33333333  0.96090000  1.0 -0.7840296548
O  O12  1  0.37240000  0.90470000  0.03910000  1.0 -0.7840296548
O  O13  1  0.95610000  0.48850000  0.22060000  1.0 -0.1312617358
O  O14  1  0.26790000  0.73550000  0.77940000  1.0 -0.1312617358
O  O15  1  0.26450000  0.04390000  0.53240000  1.0 -0.1312617358
O  O16  1  0.51150000  0.73210000  0.46760000  1.0 -0.1312617358
