# DDEC6 charges by PACMAN v1.1 (https://github.com/mtap-research/PACMAN-charge/)
data_FUVDEH06_FSR_pacman
_symmetry_space_group_name_H-M   'P 1'
_cell_length_a   19.71080000
_cell_length_b   19.71080000
_cell_length_c   19.71080000
_cell_angle_alpha   90.52320000
_cell_angle_beta   90.52320000
_cell_angle_gamma   169.03400000
_symmetry_Int_Tables_number   1
_chemical_formula_structural   ZnH12C18(NO2)2
_chemical_formula_sum   'Zn4 H48 C72 N8 O16'
_cell_volume   1450.07794499
_cell_formula_units_Z   4
loop_
 _symmetry_equiv_pos_site_id
 _symmetry_equiv_pos_as_xyz
  1  'x, y, z'
loop_
 _atom_site_type_symbol
 _atom_site_label
 _atom_site_symmetry_multiplicity
 _atom_site_fract_x
 _atom_site_fract_y
 _atom_site_fract_z
 _atom_site_occupancy
 _atom_site_charge
Zn  Zn1  1  0.15198000  0.08304000  0.49722000  1.0 0.8414878617
Zn  Zn2  1  0.58582000  0.65476000  0.50278000  1.0 0.8414878617
Zn  Zn3  1  0.34524000  0.84802000  0.93106000  1.0 0.8414878617
Zn  Zn4  1  0.91696000  0.41418000  0.06894000  1.0 0.8414878617
H  H1  1  0.96880000  0.04190000  0.46070000  1.0 0.3008447509
H  H2  1  0.58120000  0.50810000  0.53930000  1.0 0.3008447509
H  H3  1  0.49190000  0.03120000  0.07310000  1.0 0.3008447509
H  H4  1  0.95810000  0.41880000  0.92690000  1.0 0.3008447509
H  H5  1  0.39280000  0.19360000  0.41880000  1.0 0.1189288343
H  H6  1  0.77480000  0.97400000  0.58120000  1.0 0.1189288343
H  H7  1  0.02600000  0.60720000  0.80080000  1.0 0.1189288343
H  H8  1  0.80640000  0.22520000  0.19920000  1.0 0.1189288343
H  H9  1  0.60460000  0.60820000  0.36620000  1.0 0.1421067189
H  H10  1  0.24200000  0.23840000  0.63380000  1.0 0.1421067189
H  H11  1  0.76160000  0.39540000  0.00360000  1.0 0.1421067189
H  H12  1  0.39180000  0.75800000  0.99640000  1.0 0.1421067189
H  H13  1  0.23060000  0.30660000  0.28380000  1.0 0.1189288343
H  H14  1  0.02280000  0.94680000  0.71620000  1.0 0.1189288343
H  H15  1  0.05320000  0.76940000  0.07600000  1.0 0.1189288343
H  H16  1  0.69340000  0.97720000  0.92400000  1.0 0.1189288343
H  H17  1  0.98840000  0.08930000  0.17370000  1.0 0.1022548075
H  H18  1  0.91560000  0.81470000  0.82630000  1.0 0.1022548075
H  H19  1  0.18530000  0.01160000  0.10090000  1.0 0.1022548075
H  H20  1  0.91070000  0.08440000  0.89910000  1.0 0.1022548075
H  H21  1  0.13760000  0.16180000  0.08780000  1.0 0.1097751544
H  H22  1  0.07400000  0.04980000  0.91220000  1.0 0.1097751544
H  H23  1  0.95020000  0.86240000  0.02420000  1.0 0.1097751544
H  H24  1  0.83820000  0.92600000  0.97580000  1.0 0.1097751544
H  H25  1  0.51080000  0.43790000  0.11350000  1.0 0.1097751544
H  H26  1  0.32440000  0.39730000  0.88650000  1.0 0.1097751544
H  H27  1  0.60270000  0.48920000  0.92710000  1.0 0.1097751544
H  H28  1  0.56210000  0.67560000  0.07290000  1.0 0.1097751544
H  H29  1  0.88480000  0.73820000  0.19040000  1.0 0.1189288343
H  H30  1  0.54780000  0.69440000  0.80960000  1.0 0.1189288343
H  H31  1  0.30560000  0.11520000  0.85340000  1.0 0.1189288343
H  H32  1  0.26180000  0.45220000  0.14660000  1.0 0.1189288343
H  H33  1  0.61720000  0.31840000  0.14480000  1.0 0.1097751544
H  H34  1  0.17360000  0.47240000  0.85520000  1.0 0.1097751544
H  H35  1  0.52760000  0.38280000  0.70120000  1.0 0.1097751544
H  H36  1  0.68160000  0.82640000  0.29880000  1.0 0.1097751544
H  H37  1  0.53540000  0.12910000  0.31390000  1.0 0.1189288343
H  H38  1  0.81520000  0.22150000  0.68610000  1.0 0.1189288343
H  H39  1  0.77850000  0.46460000  0.59370000  1.0 0.1189288343
H  H40  1  0.87090000  0.18480000  0.40630000  1.0 0.1189288343
H  H41  1  0.31460000  0.00690000  0.36710000  1.0 0.1342216726
H  H42  1  0.63980000  0.94750000  0.63290000  1.0 0.1342216726
H  H43  1  0.05250000  0.68540000  0.69230000  1.0 0.1342216726
H  H44  1  0.99310000  0.36020000  0.30770000  1.0 0.1342216726
H  H45  1  0.39640000  0.19620000  0.19800000  1.0 0.1097751544
H  H46  1  0.99820000  0.19840000  0.80200000  1.0 0.1097751544
H  H47  1  0.80160000  0.60360000  0.79980000  1.0 0.1097751544
H  H48  1  0.80380000  0.00180000  0.20020000  1.0 0.1097751544
C  C1  1  0.24840000  0.07740000  0.38780000  1.0 0.1421067189
C  C2  1  0.68960000  0.86060000  0.61220000  1.0 0.1421067189
C  C3  1  0.13940000  0.75160000  0.82900000  1.0 0.1421067189
C  C4  1  0.92260000  0.31040000  0.17100000  1.0 0.1421067189
C  C5  1  0.88430000  0.79920000  0.34350000  1.0 0.1342216726
C  C6  1  0.45570000  0.54080000  0.65650000  1.0 0.1342216726
C  C7  1  0.45920000  0.11570000  0.91490000  1.0 0.1342216726
C  C8  1  0.20080000  0.54430000  0.08510000  1.0 0.1342216726
C  C9  1  0.65850000  0.63240000  0.33090000  1.0 -0.1927874298
C  C10  1  0.30150000  0.32760000  0.66910000  1.0 -0.1927874298
C  C11  1  0.67240000  0.34150000  0.97390000  1.0 -0.1927874298
C  C12  1  0.36760000  0.69850000  0.02610000  1.0 -0.1927874298
C  C13  1  0.51630000  0.50450000  0.26480000  1.0 0.0805174282
C  C14  1  0.23970000  0.25150000  0.73520000  1.0 0.0805174282
C  C15  1  0.74850000  0.48370000  0.98820000  1.0 0.0805174282
C  C16  1  0.49550000  0.76030000  0.01180000  1.0 0.0805174282
C  C17  1  0.28740000  0.33350000  0.24890000  1.0 -0.1347968061
C  C18  1  0.08460000  0.03850000  0.75110000  1.0 -0.1347968061
C  C19  1  0.96150000  0.71260000  0.04610000  1.0 -0.1347968061
C  C20  1  0.66650000  0.91540000  0.95390000  1.0 -0.1347968061
C  C21  1  0.14090000  0.20250000  0.18340000  1.0 -0.0997723308
C  C22  1  0.01910000  0.95750000  0.81660000  1.0 -0.0997723308
C  C23  1  0.04250000  0.85910000  0.06160000  1.0 -0.0997723308
C  C24  1  0.79750000  0.98090000  0.93840000  1.0 -0.0997723308
C  C25  1  0.23050000  0.24620000  0.13270000  1.0 -0.1170651936
C  C26  1  0.11350000  0.09780000  0.86730000  1.0 -0.1170651936
C  C27  1  0.90220000  0.76950000  0.01570000  1.0 -0.1170651936
C  C28  1  0.75380000  0.88650000  0.98430000  1.0 -0.1170651936
C  C29  1  0.45650000  0.41380000  0.14830000  1.0 -0.1536936653
C  C30  1  0.26550000  0.30820000  0.85170000  1.0 -0.1536936653
C  C31  1  0.69180000  0.54350000  0.95730000  1.0 -0.1536936653
C  C32  1  0.58620000  0.73450000  0.04270000  1.0 -0.1536936653
C  C33  1  0.60490000  0.54710000  0.21400000  1.0 0.0805174282
C  C34  1  0.33310000  0.39090000  0.78600000  1.0 0.0805174282
C  C35  1  0.60910000  0.39510000  0.94220000  1.0 0.0805174282
C  C36  1  0.45290000  0.66690000  0.05780000  1.0 0.0805174282
C  C37  1  0.83050000  0.71340000  0.22590000  1.0 -0.2239635964
C  C38  1  0.48750000  0.60460000  0.77410000  1.0 -0.2239635964
C  C39  1  0.39540000  0.16950000  0.88290000  1.0 -0.2239635964
C  C40  1  0.28660000  0.51250000  0.11710000  1.0 -0.2239635964
C  C41  1  0.97360000  0.84270000  0.29230000  1.0 0.0805174282
C  C42  1  0.55040000  0.68130000  0.70770000  1.0 0.0805174282
C  C43  1  0.31870000  0.02640000  0.86910000  1.0 0.0805174282
C  C44  1  0.15730000  0.44960000  0.13090000  1.0 0.0805174282
C  C45  1  0.55700000  0.25640000  0.18940000  1.0 -0.0895490874
C  C46  1  0.06700000  0.36760000  0.81060000  1.0 -0.0895490874
C  C47  1  0.63240000  0.44300000  0.69940000  1.0 -0.0895490874
C  C48  1  0.74360000  0.93300000  0.30060000  1.0 -0.0895490874
C  C49  1  0.59820000  0.23590000  0.22410000  1.0 -0.0176386654
C  C50  1  0.01180000  0.37410000  0.77590000  1.0 -0.0176386654
C  C51  1  0.62590000  0.40180000  0.63770000  1.0 -0.0176386654
C  C52  1  0.76410000  0.98820000  0.36230000  1.0 -0.0176386654
C  C53  1  0.50780000  0.14290000  0.29070000  1.0 -0.0650422727
C  C54  1  0.85220000  0.21710000  0.70930000  1.0 -0.0647736047
C  C55  1  0.78290000  0.49220000  0.63510000  1.0 -0.0650422727
C  C56  1  0.85710000  0.14780000  0.36490000  1.0 -0.0650422727
C  C57  1  0.37520000  0.06930000  0.32250000  1.0 -0.1927874298
C  C58  1  0.74680000  0.05270000  0.67750000  1.0 -0.1927874298
C  C59  1  0.94730000  0.62480000  0.69410000  1.0 -0.1927874298
C  C60  1  0.93070000  0.25320000  0.30590000  1.0 -0.1927874298
C  C61  1  0.33400000  0.08980000  0.28780000  1.0 0.1802863176
C  C62  1  0.80200000  0.04620000  0.71220000  1.0 0.1802863176
C  C63  1  0.95380000  0.66600000  0.75580000  1.0 0.1802863176
C  C64  1  0.91020000  0.19800000  0.24420000  1.0 0.1802863176
C  C65  1  0.42440000  0.18290000  0.22130000  1.0 -0.1994152297
C  C66  1  0.96160000  0.20310000  0.77870000  1.0 -0.1994152297
C  C67  1  0.79690000  0.57560000  0.75850000  1.0 -0.1994152297
C  C68  1  0.81710000  0.03840000  0.24150000  1.0 -0.1994152297
C  C69  1  0.74240000  0.31620000  0.18860000  1.0 0.4993341784
C  C70  1  0.12760000  0.55380000  0.81140000  1.0 0.4993341784
C  C71  1  0.44620000  0.25760000  0.57380000  1.0 0.4993341784
C  C72  1  0.68380000  0.87240000  0.42620000  1.0 0.4993341784
N  N1  1  0.07370000  0.95960000  0.40530000  1.0 -0.3492007633
N  N2  1  0.55430000  0.66840000  0.59470000  1.0 -0.3492007633
N  N3  1  0.33160000  0.92630000  0.88590000  1.0 -0.3492007633
N  N4  1  0.04040000  0.44570000  0.11410000  1.0 -0.3492007633
N  N5  1  0.20070000  0.01540000  0.32010000  1.0 -0.0515005481
N  N6  1  0.69530000  0.88060000  0.67990000  1.0 -0.0515005481
N  N7  1  0.11940000  0.79930000  0.81470000  1.0 -0.0515005481
N  N8  1  0.98460000  0.30470000  0.18530000  1.0 -0.0515005481
O  O1  1  0.11450000  0.15280000  0.47130000  1.0 -0.7787325312
O  O2  1  0.68150000  0.64320000  0.52870000  1.0 -0.7787325312
O  O3  1  0.35680000  0.88550000  0.03830000  1.0 -0.7787325312
O  O4  1  0.84720000  0.31850000  0.96170000  1.0 -0.7787325312
O  O5  1  0.85080000  0.43090000  0.13570000  1.0 -0.3756354903
O  O6  1  0.29520000  0.71510000  0.86430000  1.0 -0.3756354903
O  O7  1  0.28490000  0.14920000  0.58010000  1.0 -0.3756354903
O  O8  1  0.56910000  0.70480000  0.41990000  1.0 -0.3756354903
O  O9  1  0.98980000  0.52180000  0.22160000  1.0 -0.2502805707
O  O10  1  0.30020000  0.76820000  0.77840000  1.0 -0.2502805707
O  O11  1  0.23180000  0.01020000  0.53200000  1.0 -0.2502805707
O  O12  1  0.47820000  0.69980000  0.46800000  1.0 -0.2502805707
O  O13  1  0.58080000  0.10160000  0.20440000  1.0 -0.341438495
O  O14  1  0.89720000  0.37640000  0.79560000  1.0 -0.341438495
O  O15  1  0.62360000  0.41920000  0.52080000  1.0 -0.341438495
O  O16  1  0.89840000  0.10280000  0.47920000  1.0 -0.341438495
