# DDEC6 charges by PACMAN v1.1 (https://github.com/mtap-research/PACMAN-charge/)
data_FUVDEH01_FSR_pacman
_symmetry_space_group_name_H-M   'P 1'
_cell_length_a   18.92320000
_cell_length_b   18.92320000
_cell_length_c   18.92320000
_cell_angle_alpha   91.07770000
_cell_angle_beta   91.07770000
_cell_angle_gamma   164.23500000
_symmetry_Int_Tables_number   1
_chemical_formula_structural   ZnH16C22(NO2)2
_chemical_formula_sum   'Zn4 H64 C88 N8 O16'
_cell_volume   1823.63573918
_cell_formula_units_Z   4
loop_
 _symmetry_equiv_pos_site_id
 _symmetry_equiv_pos_as_xyz
  1  'x, y, z'
loop_
 _atom_site_type_symbol
 _atom_site_label
 _atom_site_symmetry_multiplicity
 _atom_site_fract_x
 _atom_site_fract_y
 _atom_site_fract_z
 _atom_site_occupancy
 _atom_site_charge
Zn  Zn1  1  0.19348000  0.13513000  0.48685000  1.0 0.8277722796
Zn  Zn2  1  0.64828000  0.70663000  0.51315000  1.0 0.8277722796
Zn  Zn3  1  0.29337000  0.80652000  0.94165000  1.0 0.8277722796
Zn  Zn4  1  0.86487000  0.35172000  0.05835000  1.0 0.8277722796
H  H1  1  0.18430000  0.24750000  0.46500000  1.0 0.3523561856
H  H2  1  0.78250000  0.71930000  0.53500000  1.0 0.3523561856
H  H3  1  0.28070000  0.81570000  0.06320000  1.0 0.3523561856
H  H4  1  0.75250000  0.21750000  0.93680000  1.0 0.3523561856
H  H5  1  0.45280000  0.26690000  0.40110000  1.0 0.1004474223
H  H6  1  0.86580000  0.05170000  0.59890000  1.0 0.1004474223
H  H7  1  0.94830000  0.54720000  0.81410000  1.0 0.1004474223
H  H8  1  0.73310000  0.13420000  0.18590000  1.0 0.1004474223
H  H9  1  0.71400000  0.70450000  0.36550000  1.0 0.1413062712
H  H10  1  0.33900000  0.34850000  0.63450000  1.0 0.1413062712
H  H11  1  0.65150000  0.28600000  0.99050000  1.0 0.1413062712
H  H12  1  0.29550000  0.66100000  0.00950000  1.0 0.1413062712
H  H13  1  0.31240000  0.36060000  0.29140000  1.0 0.117023637
H  H14  1  0.06920000  0.02100000  0.70860000  1.0 0.117023637
H  H15  1  0.97900000  0.68760000  0.04820000  1.0 0.117023637
H  H16  1  0.63940000  0.93080000  0.95180000  1.0 0.117023637
H  H17  1  0.03650000  0.09210000  0.18480000  1.0 0.1004474223
H  H18  1  0.90730000  0.85170000  0.81520000  1.0 0.1004474223
H  H19  1  0.14830000  0.96350000  0.05560000  1.0 0.1004474223
H  H20  1  0.90790000  0.09270000  0.94440000  1.0 0.1004474223
H  H21  1  0.14510000  0.12960000  0.09010000  1.0 0.1004474223
H  H22  1  0.03950000  0.05500000  0.90990000  1.0 0.1004474223
H  H23  1  0.94500000  0.85490000  0.98450000  1.0 0.1004474223
H  H24  1  0.87040000  0.96050000  0.01550000  1.0 0.1004474223
H  H25  1  0.50550000  0.40710000  0.10100000  1.0 0.1097921914
H  H26  1  0.30610000  0.40450000  0.89900000  1.0 0.1097921914
H  H27  1  0.59550000  0.49450000  0.90160000  1.0 0.1097921914
H  H28  1  0.59290000  0.69390000  0.09840000  1.0 0.1097921914
H  H29  1  0.89370000  0.73190000  0.17480000  1.0 0.13171081
H  H30  1  0.55710000  0.71890000  0.82520000  1.0 0.13171081
H  H31  1  0.28110000  0.10630000  0.83820000  1.0 0.13171081
H  H32  1  0.26810000  0.44290000  0.16180000  1.0 0.13171081
H  H33  1  0.48640000  0.18920000  0.35980000  1.0 0.1097921914
H  H34  1  0.82940000  0.12660000  0.64020000  1.0 0.1097921914
H  H35  1  0.87340000  0.51360000  0.70280000  1.0 0.1097921914
H  H36  1  0.81080000  0.17060000  0.29720000  1.0 0.1097921914
H  H37  1  0.63350000  0.22990000  0.30840000  1.0 0.1004474223
H  H38  1  0.92150000  0.32510000  0.69160000  1.0 0.1004474223
H  H39  1  0.67490000  0.36650000  0.59640000  1.0 0.1004474223
H  H40  1  0.77010000  0.07850000  0.40360000  1.0 0.1004474223
H  H41  1  0.47770000  0.16880000  0.11810000  1.0 0.1097921914
H  H42  1  0.05070000  0.35960000  0.88190000  1.0 0.1097921914
H  H43  1  0.64040000  0.52230000  0.69110000  1.0 0.1097921914
H  H44  1  0.83120000  0.94930000  0.30890000  1.0 0.1097921914
H  H45  1  0.32650000  0.12230000  0.17320000  1.0 0.1004474223
H  H46  1  0.94910000  0.15330000  0.82680000  1.0 0.1004474223
H  H47  1  0.84670000  0.67350000  0.79580000  1.0 0.1004474223
H  H48  1  0.87770000  0.05090000  0.20420000  1.0 0.1004474223
H  H49  1  0.71820000  0.48430000  0.31790000  1.0 0.1004474223
H  H50  1  0.16640000  0.40030000  0.68210000  1.0 0.1004474223
H  H51  1  0.59970000  0.28180000  0.76610000  1.0 0.1004474223
H  H52  1  0.51570000  0.83360000  0.23390000  1.0 0.1004474223
H  H53  1  0.92800000  0.59080000  0.26520000  1.0 0.0809539914
H  H54  1  0.32560000  0.66280000  0.73480000  1.0 0.0809539914
H  H55  1  0.33720000  0.07200000  0.66280000  1.0 0.0809539914
H  H56  1  0.40920000  0.67440000  0.33720000  1.0 0.0809539914
H  H57  1  0.25720000  0.88920000  0.15240000  1.0 0.1097921914
H  H58  1  0.73680000  0.10480000  0.84760000  1.0 0.1097921914
H  H59  1  0.89520000  0.74280000  0.63200000  1.0 0.1097921914
H  H60  1  0.11080000  0.26320000  0.36800000  1.0 0.1097921914
H  H61  1  0.03640000  0.76200000  0.20900000  1.0 0.0809539914
H  H62  1  0.55300000  0.82740000  0.79100000  1.0 0.0809539914
H  H63  1  0.17260000  0.96360000  0.72560000  1.0 0.0809539914
H  H64  1  0.23800000  0.44700000  0.27440000  1.0 0.0809539914
C  C1  1  0.30753000  0.14427000  0.37180000  1.0 0.1004474223
C  C2  1  0.77247000  0.93573000  0.62820000  1.0 0.1004474223
C  C3  1  0.06427000  0.69247000  0.83674000  1.0 0.1004474223
C  C4  1  0.85573000  0.22753000  0.16326000  1.0 0.1004474223
C  C5  1  0.96286000  0.87263000  0.33449000  1.0 0.13171081
C  C6  1  0.53814000  0.62837000  0.66551000  1.0 0.13171081
C  C7  1  0.37163000  0.03714000  0.90977000  1.0 0.13171081
C  C8  1  0.12737000  0.46186000  0.09023000  1.0 0.13171081
C  C9  1  0.74941000  0.70990000  0.32751000  1.0 -0.2173925886
C  C10  1  0.38239000  0.42190000  0.67249000  1.0 -0.2173925886
C  C11  1  0.57810000  0.25059000  0.96049000  1.0 -0.2173925886
C  C12  1  0.29010000  0.61761000  0.03951000  1.0 -0.2173925886
C  C13  1  0.58447000  0.55171000  0.26318000  1.0 0.0809539914
C  C14  1  0.28853000  0.32129000  0.73682000  1.0 0.0809539914
C  C15  1  0.67871000  0.41553000  0.96724000  1.0 0.0809539914
C  C16  1  0.44829000  0.71147000  0.03276000  1.0 0.0809539914
C  C17  1  0.35310000  0.37117000  0.25387000  1.0 -0.1670012424
C  C18  1  0.11730000  0.09923000  0.74613000  1.0 -0.1670012424
C  C19  1  0.90077000  0.64690000  0.01807000  1.0 -0.1670012424
C  C20  1  0.62883000  0.88270000  0.98193000  1.0 -0.1670012424
C  C21  1  0.18952000  0.21260000  0.19012000  1.0 -0.1156779869
C  C22  1  0.02248000  0.99940000  0.80988000  1.0 -0.1156779869
C  C23  1  0.00060000  0.81048000  0.02308000  1.0 -0.1156779869
C  C24  1  0.78740000  0.97752000  0.97692000  1.0 -0.1156779869
C  C25  1  0.25350000  0.23290000  0.13360000  1.0 -0.1058645533
C  C26  1  0.09930000  0.11990000  0.86640000  1.0 -0.1058645533
C  C27  1  0.88010000  0.74650000  0.97940000  1.0 -0.1058645533
C  C28  1  0.76710000  0.90070000  0.02060000  1.0 -0.1058645533
C  C29  1  0.46898000  0.39892000  0.14010000  1.0 -0.1613758837
C  C30  1  0.25882000  0.32888000  0.85990000  1.0 -0.1613758837
C  C31  1  0.67112000  0.53102000  0.92994000  1.0 -0.1613758837
C  C32  1  0.60108000  0.74118000  0.07006000  1.0 -0.1613758837
C  C33  1  0.64040000  0.56066000  0.20506000  1.0 0.0809539914
C  C34  1  0.35560000  0.43534000  0.79494000  1.0 0.0809539914
C  C35  1  0.56466000  0.35960000  0.92026000  1.0 0.0809539914
C  C36  1  0.43934000  0.64440000  0.07974000  1.0 0.0809539914
C  C37  1  0.85635000  0.72462000  0.21257000  1.0 -0.2543939749
C  C38  1  0.51205000  0.64378000  0.78743000  1.0 -0.2543939749
C  C39  1  0.35622000  0.14365000  0.86827000  1.0 -0.2554963926
C  C40  1  0.27538000  0.48795000  0.13173000  1.0 -0.2554963926
C  C41  1  0.01513000  0.87718000  0.27731000  1.0 0.0918300668
C  C42  1  0.59987000  0.73782000  0.72269000  1.0 0.0918300668
C  C43  1  0.26218000  0.98487000  0.86205000  1.0 0.0918300668
C  C44  1  0.12282000  0.40013000  0.13795000  1.0 0.0918300668
C  C45  1  0.36013000  0.11524000  0.26977000  1.0 0.1004474223
C  C46  1  0.84547000  0.09036000  0.73023000  1.0 0.1004474223
C  C47  1  0.90964000  0.63987000  0.75511000  1.0 0.1004474223
C  C48  1  0.88476000  0.15453000  0.24489000  1.0 0.1004474223
C  C49  1  0.60180000  0.23842000  0.20562000  1.0 -0.010690614
C  C50  1  0.03280000  0.39618000  0.79438000  1.0 -0.010690614
C  C51  1  0.60382000  0.39820000  0.63662000  1.0 -0.010690614
C  C52  1  0.76158000  0.96720000  0.36338000  1.0 -0.010690614
C  C53  1  0.47660000  0.17580000  0.31040000  1.0 -0.0703762471
C  C54  1  0.86540000  0.16620000  0.68960000  1.0 -0.0703762471
C  C55  1  0.83380000  0.52340000  0.69920000  1.0 -0.0703762471
C  C56  1  0.82420000  0.13460000  0.30080000  1.0 -0.0703762471
C  C57  1  0.57870000  0.21600000  0.28070000  1.0 -0.0641486334
C  C58  1  0.93530000  0.29800000  0.71930000  1.0 -0.0641486334
C  C59  1  0.70200000  0.42130000  0.63730000  1.0 -0.0641486334
C  C60  1  0.78400000  0.06470000  0.36270000  1.0 -0.0641486334
C  C61  1  0.48740000  0.18020000  0.16760000  1.0 -0.0310861129
C  C62  1  0.01260000  0.31980000  0.83240000  1.0 -0.0310861129
C  C63  1  0.68020000  0.51260000  0.69280000  1.0 -0.0310861129
C  C64  1  0.81980000  0.98740000  0.30720000  1.0 -0.0310861129
C  C65  1  0.38220000  0.13670000  0.20010000  1.0 -0.0703762471
C  C66  1  0.93660000  0.18210000  0.79990000  1.0 -0.0703762471
C  C67  1  0.81790000  0.61780000  0.75450000  1.0 -0.0703762471
C  C68  1  0.86330000  0.06340000  0.24550000  1.0 -0.0703762471
C  C69  1  0.73870000  0.31150000  0.16960000  1.0 0.4019905379
C  C70  1  0.14190000  0.56910000  0.83040000  1.0 0.4019905379
C  C71  1  0.43090000  0.26130000  0.57280000  1.0 0.4019905379
C  C72  1  0.68850000  0.85810000  0.42720000  1.0 0.4019905379
C  C73  1  0.62200000  0.36020000  0.28620000  1.0 -0.0703762471
C  C74  1  0.07400000  0.33580000  0.71380000  1.0 -0.0703762471
C  C75  1  0.66420000  0.37800000  0.73820000  1.0 -0.0703762471
C  C76  1  0.63980000  0.92600000  0.26180000  1.0 -0.0703762471
C  C77  1  0.74780000  0.42410000  0.25390000  1.0 -0.0815150185
C  C78  1  0.17020000  0.49390000  0.74610000  1.0 -0.0815150185
C  C79  1  0.50610000  0.25220000  0.67630000  1.0 -0.0815150185
C  C80  1  0.57590000  0.82980000  0.32370000  1.0 -0.0815150185
C  C81  1  0.34950000  0.00640000  0.18790000  1.0 -0.0448492389
C  C82  1  0.81850000  0.16160000  0.81210000  1.0 -0.0448492389
C  C83  1  0.83840000  0.65050000  0.65690000  1.0 -0.0448492389
C  C84  1  0.99360000  0.18150000  0.34310000  1.0 -0.0448492389
C  C85  1  0.21790000  0.93220000  0.22010000  1.0 -0.0873690197
C  C86  1  0.71210000  0.99780000  0.77990000  1.0 -0.0873690197
C  C87  1  0.00220000  0.78210000  0.71430000  1.0 -0.0873690197
C  C88  1  0.06780000  0.28790000  0.28570000  1.0 -0.0873690197
N  N1  1  0.15479000  0.04562000  0.39241000  1.0 -0.3565431411
N  N2  1  0.65321000  0.76238000  0.60759000  1.0 -0.3565431411
N  N3  1  0.23762000  0.84521000  0.89083000  1.0 -0.3565431411
N  N4  1  0.95438000  0.34679000  0.10917000  1.0 -0.3565431411
N  N5  1  0.23702000  0.05320000  0.30402000  1.0 -0.1490329901
N  N6  1  0.74918000  0.93300000  0.69598000  1.0 -0.1490329901
N  N7  1  0.06700000  0.76298000  0.81618000  1.0 -0.1490329901
N  N8  1  0.94680000  0.25082000  0.18382000  1.0 -0.1490329901
O  O1  1  0.31683000  0.34837000  0.47480000  1.0 -0.8439519952
O  O2  1  0.87357000  0.84203000  0.52520000  1.0 -0.8439519952
O  O3  1  0.15797000  0.68317000  0.03154000  1.0 -0.8439519952
O  O4  1  0.65163000  0.12643000  0.96846000  1.0 -0.8439519952
O  O5  1  0.64614000  0.20182000  0.11116000  1.0 -0.4876658941
O  O6  1  0.09066000  0.53498000  0.88884000  1.0 -0.4876658941
O  O7  1  0.46502000  0.35386000  0.55568000  1.0 -0.4876658941
O  O8  1  0.79818000  0.90934000  0.44432000  1.0 -0.4876658941
O  O9  1  0.98900000  0.54040000  0.19140000  1.0 -0.2092436465
O  O10  1  0.34900000  0.79760000  0.80860000  1.0 -0.2092436465
O  O11  1  0.20240000  0.01100000  0.55140000  1.0 -0.2092436465
O  O12  1  0.45960000  0.65100000  0.44860000  1.0 -0.2092436465
O  O13  1  0.84620000  0.36740000  0.21360000  1.0 -0.1670012424
O  O14  1  0.15380000  0.63260000  0.78640000  1.0 -0.1613758837
O  O15  1  0.36740000  0.15380000  0.52120000  1.0 -0.1613758837
O  O16  1  0.63260000  0.84620000  0.47880000  1.0 -0.1613758837
