# DDEC6 charges by PACMAN v1.1 (https://github.com/mtap-research/PACMAN-charge/)
data_FUVDEH03_ASR_pacman
_symmetry_space_group_name_H-M   'P 1'
_cell_length_a   18.91550000
_cell_length_b   18.91550000
_cell_length_c   18.91550000
_cell_angle_alpha   90.97480000
_cell_angle_beta   90.97480000
_cell_angle_gamma   165.01100000
_symmetry_Int_Tables_number   1
_chemical_formula_structural   ZnH16C22(NO2)2
_chemical_formula_sum   'Zn4 H64 C88 N8 O16'
_cell_volume   1735.45074348
_cell_formula_units_Z   4
loop_
 _symmetry_equiv_pos_site_id
 _symmetry_equiv_pos_as_xyz
  1  'x, y, z'
loop_
 _atom_site_type_symbol
 _atom_site_label
 _atom_site_symmetry_multiplicity
 _atom_site_fract_x
 _atom_site_fract_y
 _atom_site_fract_z
 _atom_site_occupancy
 _atom_site_charge
Zn  Zn1  1  0.16929000  0.10937000  0.48746000  1.0 0.8100172313
Zn  Zn2  1  0.62191000  0.68183000  0.51254000  1.0 0.8100172313
Zn  Zn3  1  0.31817000  0.83071000  0.94008000  1.0 0.8100172313
Zn  Zn4  1  0.89063000  0.37809000  0.05992000  1.0 0.8100172313
H  H1  1  0.14260000  0.20690000  0.45850000  1.0 0.3435023309
H  H2  1  0.74840000  0.68410000  0.54150000  1.0 0.3435023309
H  H3  1  0.31590000  0.85740000  0.06430000  1.0 0.3435023309
H  H4  1  0.79310000  0.25160000  0.93570000  1.0 0.3435023309
H  H5  1  0.44810000  0.26390000  0.40380000  1.0 0.1006745355
H  H6  1  0.86010000  0.04430000  0.59620000  1.0 0.1006745355
H  H7  1  0.95570000  0.55190000  0.81580000  1.0 0.1006745355
H  H8  1  0.73610000  0.13990000  0.18420000  1.0 0.1006745355
H  H9  1  0.67700000  0.66920000  0.36460000  1.0 0.1334696891
H  H10  1  0.30460000  0.31240000  0.63540000  1.0 0.1334696891
H  H11  1  0.68760000  0.32300000  0.99220000  1.0 0.1334696891
H  H12  1  0.33080000  0.69540000  0.00780000  1.0 0.1334696891
H  H13  1  0.29670000  0.34820000  0.29150000  1.0 0.1101590871
H  H14  1  0.05670000  0.00520000  0.70850000  1.0 0.1101590871
H  H15  1  0.99480000  0.70330000  0.05150000  1.0 0.1101590871
H  H16  1  0.65180000  0.94330000  0.94850000  1.0 0.1101590871
H  H17  1  0.01100000  0.08030000  0.18470000  1.0 0.1006745355
H  H18  1  0.89560000  0.82630000  0.81530000  1.0 0.1006745355
H  H19  1  0.17370000  0.98900000  0.06930000  1.0 0.1006745355
H  H20  1  0.91970000  0.10440000  0.93070000  1.0 0.1006745355
H  H21  1  0.10560000  0.10040000  0.08900000  1.0 0.1006745355
H  H22  1  0.01140000  0.01660000  0.91100000  1.0 0.1006745355
H  H23  1  0.98340000  0.89440000  0.99480000  1.0 0.1101590871
H  H24  1  0.89960000  0.98860000  0.00520000  1.0 0.1101590871
H  H25  1  0.47780000  0.38540000  0.10240000  1.0 0.1101590871
H  H26  1  0.28300000  0.37540000  0.89760000  1.0 0.1101590871
H  H27  1  0.62460000  0.52220000  0.90760000  1.0 0.1101590871
H  H28  1  0.61460000  0.71700000  0.09240000  1.0 0.1101590871
H  H29  1  0.87760000  0.72010000  0.17510000  1.0 0.1216206433
H  H30  1  0.54500000  0.70250000  0.82490000  1.0 0.1216206433
H  H31  1  0.29750000  0.12240000  0.84250000  1.0 0.1216206433
H  H32  1  0.27990000  0.45500000  0.15750000  1.0 0.1216206433
H  H33  1  0.72820000  0.48680000  0.33000000  1.0 0.1101590871
H  H34  1  0.15680000  0.39820000  0.67000000  1.0 0.1101590871
H  H35  1  0.60180000  0.27180000  0.75860000  1.0 0.1101590871
H  H36  1  0.51320000  0.84320000  0.24140000  1.0 0.1101590871
H  H37  1  0.95420000  0.61340000  0.27880000  1.0 0.1006745355
H  H38  1  0.33460000  0.67540000  0.72120000  1.0 0.1006745355
H  H39  1  0.32460000  0.04580000  0.65920000  1.0 0.1006745355
H  H40  1  0.38660000  0.66540000  0.34080000  1.0 0.1006745355
H  H41  1  0.25270000  0.88930000  0.15040000  1.0 0.1101590871
H  H42  1  0.73890000  0.10230000  0.84960000  1.0 0.1101590871
H  H43  1  0.89770000  0.74730000  0.63660000  1.0 0.1101590871
H  H44  1  0.11070000  0.26110000  0.36340000  1.0 0.1101590871
H  H45  1  0.03460000  0.77090000  0.20270000  1.0 0.1101590871
H  H46  1  0.56820000  0.83190000  0.79730000  1.0 0.1101590871
H  H47  1  0.16810000  0.96540000  0.73630000  1.0 0.1101590871
H  H48  1  0.22910000  0.43180000  0.26370000  1.0 0.1101590871
H  H49  1  0.44430000  0.14350000  0.36080000  1.0 0.1101590871
H  H50  1  0.78270000  0.08350000  0.63920000  1.0 0.1101590871
H  H51  1  0.91650000  0.55570000  0.69920000  1.0 0.1101590871
H  H52  1  0.85650000  0.21730000  0.30080000  1.0 0.1101590871
H  H53  1  0.67080000  0.26830000  0.31070000  1.0 0.1101590871
H  H54  1  0.95760000  0.36010000  0.68930000  1.0 0.1101590871
H  H55  1  0.63990000  0.32920000  0.59750000  1.0 0.1101590871
H  H56  1  0.73170000  0.04240000  0.40250000  1.0 0.1101590871
H  H57  1  0.53930000  0.23590000  0.11560000  1.0 0.1006745355
H  H58  1  0.12030000  0.42370000  0.88440000  1.0 0.1101590871
H  H59  1  0.57630000  0.46070000  0.69660000  1.0 0.1101590871
H  H60  1  0.76410000  0.87970000  0.30340000  1.0 0.1101590871
H  H61  1  0.31810000  0.11340000  0.17190000  1.0 0.1101590871
H  H62  1  0.94150000  0.14620000  0.82810000  1.0 0.1101590871
H  H63  1  0.85380000  0.68190000  0.79530000  1.0 0.1101590871
H  H64  1  0.88660000  0.05850000  0.20470000  1.0 0.1101590871
C  C1  1  0.29790000  0.13660000  0.37450000  1.0 0.0765550963
C  C2  1  0.76210000  0.92340000  0.62550000  1.0 0.0765550963
C  C3  1  0.07660000  0.70210000  0.83870000  1.0 0.0765550963
C  C4  1  0.86340000  0.23790000  0.16130000  1.0 0.0765550963
C  C5  1  0.94200000  0.85150000  0.33550000  1.0 0.1216206433
C  C6  1  0.51600000  0.60650000  0.66450000  1.0 0.1216206433
C  C7  1  0.39350000  0.05800000  0.90950000  1.0 0.1216206433
C  C8  1  0.14850000  0.48400000  0.09050000  1.0 0.1216206433
C  C9  1  0.71830000  0.68060000  0.32690000  1.0 -0.2212647615
C  C10  1  0.35370000  0.39140000  0.67310000  1.0 -0.2212647615
C  C11  1  0.60860000  0.28170000  0.96230000  1.0 -0.2212647615
C  C12  1  0.31940000  0.64630000  0.03770000  1.0 -0.2212647615
C  C13  1  0.55590000  0.52550000  0.26140000  1.0 0.0765550963
C  C14  1  0.26410000  0.29450000  0.73860000  1.0 0.0765550963
C  C15  1  0.70550000  0.44410000  0.96960000  1.0 0.0765550963
C  C16  1  0.47450000  0.73590000  0.03040000  1.0 0.0765550963
C  C17  1  0.33230000  0.35460000  0.25290000  1.0 -0.1488174764
C  C18  1  0.10170000  0.07940000  0.74710000  1.0 -0.1488174764
C  C19  1  0.92060000  0.66770000  0.02230000  1.0 -0.1488174764
C  C20  1  0.64540000  0.89830000  0.97770000  1.0 -0.1488174764
C  C21  1  0.15990000  0.19330000  0.18920000  1.0 -0.1156002885
C  C22  1  0.00410000  0.97070000  0.81080000  1.0 -0.1156002885
C  C23  1  0.02930000  0.84010000  0.03340000  1.0 -0.1156002885
C  C24  1  0.80670000  0.99590000  0.96660000  1.0 -0.1156002885
C  C25  1  0.21770000  0.20690000  0.13260000  1.0 -0.1095365317
C  C26  1  0.07430000  0.08510000  0.86740000  1.0 -0.1095365317
C  C27  1  0.91490000  0.78230000  0.98920000  1.0 -0.1095365317
C  C28  1  0.79310000  0.92570000  0.01080000  1.0 -0.1095365317
C  C29  1  0.44120000  0.37780000  0.14100000  1.0 -0.16386566
C  C30  1  0.23680000  0.30020000  0.85900000  1.0 -0.16386566
C  C31  1  0.69980000  0.55880000  0.93660000  1.0 -0.16386566
C  C32  1  0.62220000  0.76320000  0.06340000  1.0 -0.16386566
C  C33  1  0.61360000  0.53910000  0.20470000  1.0 0.0765550963
C  C34  1  0.33440000  0.40890000  0.79530000  1.0 0.0765550963
C  C35  1  0.59110000  0.38640000  0.92550000  1.0 0.0765550963
C  C36  1  0.46090000  0.66560000  0.07450000  1.0 0.0765550963
C  C37  1  0.83710000  0.70970000  0.21280000  1.0 -0.2596895216
C  C38  1  0.49690000  0.62430000  0.78720000  1.0 -0.2596895216
C  C39  1  0.37570000  0.16290000  0.87260000  1.0 -0.2596895216
C  C40  1  0.29030000  0.50310000  0.12740000  1.0 -0.2596895216
C  C41  1  0.99750000  0.86300000  0.27850000  1.0 0.0873345839
C  C42  1  0.58450000  0.71900000  0.72150000  1.0 0.0873345839
C  C43  1  0.28100000  0.00250000  0.86550000  1.0 0.0873345839
C  C44  1  0.13700000  0.41550000  0.13450000  1.0 0.0873345839
C  C45  1  0.35910000  0.11610000  0.27120000  1.0 0.1006745355
C  C46  1  0.84490000  0.08790000  0.72880000  1.0 0.1006745355
C  C47  1  0.91210000  0.64090000  0.75700000  1.0 0.1006745355
C  C48  1  0.88390000  0.15510000  0.24300000  1.0 0.1006745355
C  C49  1  0.61890000  0.25980000  0.21070000  1.0 -0.0034723676
C  C50  1  0.04910000  0.40820000  0.78930000  1.0 -0.0034723676
C  C51  1  0.59180000  0.38110000  0.64090000  1.0 -0.0034723676
C  C52  1  0.74020000  0.95090000  0.35910000  1.0 -0.0034723676
C  C53  1  0.63390000  0.36790000  0.29380000  1.0 -0.0768054543
C  C54  1  0.07410000  0.34010000  0.70620000  1.0 -0.0768054543
C  C55  1  0.65990000  0.36610000  0.73400000  1.0 -0.0768054543
C  C56  1  0.63210000  0.92590000  0.26600000  1.0 -0.0768054543
C  C57  1  0.76930000  0.44450000  0.26380000  1.0 -0.1026758054
C  C58  1  0.18070000  0.50550000  0.73620000  1.0 -0.1026758054
C  C59  1  0.49450000  0.23070000  0.67520000  1.0 -0.1026758054
C  C60  1  0.55550000  0.81930000  0.32480000  1.0 -0.1026758054
C  C61  1  0.34650000  0.00800000  0.18650000  1.0 -0.0715035019
C  C62  1  0.82150000  0.16000000  0.81350000  1.0 -0.0715035019
C  C63  1  0.84000000  0.65350000  0.66150000  1.0 -0.0715035019
C  C64  1  0.99200000  0.17850000  0.33850000  1.0 -0.0715035019
C  C65  1  0.21960000  0.94020000  0.21780000  1.0 -0.089010012
C  C66  1  0.72240000  0.00180000  0.78220000  1.0 -0.089010012
C  C67  1  0.99820000  0.78040000  0.72060000  1.0 -0.089010012
C  C68  1  0.05980000  0.27760000  0.27940000  1.0 -0.089010012
C  C69  1  0.76580000  0.34950000  0.16730000  1.0 0.3909681322
C  C70  1  0.18220000  0.59850000  0.83270000  1.0 0.3909681322
C  C71  1  0.40150000  0.23420000  0.58370000  1.0 0.3909681322
C  C72  1  0.65050000  0.81780000  0.41630000  1.0 0.3909681322
C  C73  1  0.46410000  0.16240000  0.31250000  1.0 -0.0715035019
C  C74  1  0.84990000  0.15160000  0.68750000  1.0 -0.0715035019
C  C75  1  0.84840000  0.53590000  0.69830000  1.0 -0.0715035019
C  C76  1  0.83760000  0.15010000  0.30170000  1.0 -0.0715035019
C  C77  1  0.59890000  0.23650000  0.28340000  1.0 -0.0632703534
C  C78  1  0.95310000  0.31550000  0.71660000  1.0 -0.0632703534
C  C79  1  0.68450000  0.40110000  0.63760000  1.0 -0.0632703534
C  C80  1  0.76350000  0.04690000  0.36240000  1.0 -0.0632703534
C  C81  1  0.52030000  0.21760000  0.16390000  1.0 -0.1095365317
C  C82  1  0.05370000  0.35640000  0.83610000  1.0 -0.1095365317
C  C83  1  0.64360000  0.47970000  0.69730000  1.0 -0.1095365317
C  C84  1  0.78240000  0.94630000  0.30270000  1.0 -0.1095365317
C  C85  1  0.39000000  0.14490000  0.19890000  1.0 -0.0508723935
C  C86  1  0.94600000  0.19110000  0.80110000  1.0 -0.0508723935
C  C87  1  0.80890000  0.61000000  0.75490000  1.0 -0.0508723935
C  C88  1  0.85510000  0.05400000  0.24510000  1.0 -0.0508723935
N  N1  1  0.13210000  0.02400000  0.39610000  1.0 -0.3676287649
N  N2  1  0.62790000  0.73600000  0.60390000  1.0 -0.3676287649
N  N3  1  0.26400000  0.86790000  0.89190000  1.0 -0.3676287649
N  N4  1  0.97600000  0.37210000  0.10810000  1.0 -0.3676287649
N  N5  1  0.22990000  0.04960000  0.30550000  1.0 -0.16386566
N  N6  1  0.74410000  0.92440000  0.69450000  1.0 -0.16386566
N  N7  1  0.07560000  0.77010000  0.81970000  1.0 -0.16386566
N  N8  1  0.95040000  0.25590000  0.18030000  1.0 -0.16386566
O  O1  1  0.27820000  0.31020000  0.46840000  1.0 -0.8253702639
O  O2  1  0.84180000  0.80980000  0.53160000  1.0 -0.8253702639
O  O3  1  0.19020000  0.72180000  0.03200000  1.0 -0.8253702639
O  O4  1  0.68980000  0.15820000  0.96800000  1.0 -0.8253702639
O  O5  1  0.67330000  0.23540000  0.11070000  1.0 -0.4128473668
O  O6  1  0.12470000  0.56260000  0.88930000  1.0 -0.4128473668
O  O7  1  0.43740000  0.32670000  0.56210000  1.0 -0.4128473668
O  O8  1  0.76460000  0.87530000  0.43790000  1.0 -0.4128473668
O  O9  1  0.01940000  0.57110000  0.17450000  1.0 -0.1095365317
O  O10  1  0.39660000  0.84490000  0.82550000  1.0 -0.1095365317
O  O11  1  0.15510000  0.98060000  0.55170000  1.0 -0.1095365317
O  O12  1  0.42890000  0.60340000  0.44830000  1.0 -0.1095365317
O  O13  1  0.88920000  0.42820000  0.21740000  1.0 -0.1987013935
O  O14  1  0.21080000  0.67180000  0.78260000  1.0 -0.1987013935
O  O15  1  0.32820000  0.11080000  0.53900000  1.0 -0.1987013935
O  O16  1  0.57180000  0.78920000  0.46100000  1.0 -0.1987013935
