# DDEC6 charges by PACMAN v1.1 (https://github.com/mtap-research/PACMAN-charge/)
data_FUVDEH13_ASR_pacman
_symmetry_space_group_name_H-M   'P 1'
_cell_length_a   18.61500000
_cell_length_b   18.61500000
_cell_length_c   18.61500000
_cell_angle_alpha   91.05550000
_cell_angle_beta   91.05550000
_cell_angle_gamma   164.39900000
_symmetry_Int_Tables_number   1
_chemical_formula_structural   ZnH16C22(NO2)2
_chemical_formula_sum   'Zn4 H64 C88 N8 O16'
_cell_volume   1718.70668236
_cell_formula_units_Z   4
loop_
 _symmetry_equiv_pos_site_id
 _symmetry_equiv_pos_as_xyz
  1  'x, y, z'
loop_
 _atom_site_type_symbol
 _atom_site_label
 _atom_site_symmetry_multiplicity
 _atom_site_fract_x
 _atom_site_fract_y
 _atom_site_fract_z
 _atom_site_occupancy
 _atom_site_charge
Zn  Zn1  1  0.11841000  0.05822000  0.49143000  1.0 0.8378719139
Zn  Zn2  1  0.56679000  0.62698000  0.50857000  1.0 0.8378719139
Zn  Zn3  1  0.37302000  0.88159000  0.93981000  1.0 0.8378719139
Zn  Zn4  1  0.94178000  0.43321000  0.06019000  1.0 0.8378719139
H  H1  1  0.09390000  0.15850000  0.45960000  1.0 0.3541132111
H  H2  1  0.69890000  0.63430000  0.54040000  1.0 0.3541132111
H  H3  1  0.36570000  0.90610000  0.06460000  1.0 0.3541132111
H  H4  1  0.84150000  0.30110000  0.93540000  1.0 0.3541132111
H  H5  1  0.43070000  0.24150000  0.40700000  1.0 0.1009400162
H  H6  1  0.83450000  0.02370000  0.59300000  1.0 0.0914904371
H  H7  1  0.97630000  0.56930000  0.81080000  1.0 0.0914904371
H  H8  1  0.75850000  0.16550000  0.18920000  1.0 0.1009400162
H  H9  1  0.65170000  0.63540000  0.36650000  1.0 0.135554691
H  H10  1  0.26890000  0.28520000  0.63350000  1.0 0.135554691
H  H11  1  0.71480000  0.34830000  0.98370000  1.0 0.135554691
H  H12  1  0.36460000  0.73110000  0.01630000  1.0 0.135554691
H  H13  1  0.27990000  0.32400000  0.29230000  1.0 0.1095286342
H  H14  1  0.03170000  0.98760000  0.70770000  1.0 0.1095286342
H  H15  1  0.01240000  0.72010000  0.04410000  1.0 0.1095286342
H  H16  1  0.67600000  0.96830000  0.95590000  1.0 0.1095286342
H  H17  1  0.00860000  0.07430000  0.18070000  1.0 0.1009400162
H  H18  1  0.89360000  0.82790000  0.81930000  1.0 0.1009400162
H  H19  1  0.17210000  0.99140000  0.06570000  1.0 0.1009400162
H  H20  1  0.92570000  0.10640000  0.93430000  1.0 0.1009400162
H  H21  1  0.13880000  0.13370000  0.08350000  1.0 0.1095286342
H  H22  1  0.05020000  0.05530000  0.91650000  1.0 0.1095286342
H  H23  1  0.94470000  0.86120000  0.99490000  1.0 0.1095286342
H  H24  1  0.86630000  0.94980000  0.00510000  1.0 0.1095286342
H  H25  1  0.51190000  0.42200000  0.09570000  1.0 0.1158513773
H  H26  1  0.32630000  0.41620000  0.90430000  1.0 0.1158513773
H  H27  1  0.58380000  0.48810000  0.91010000  1.0 0.1158513773
H  H28  1  0.57800000  0.67370000  0.08990000  1.0 0.1158513773
H  H29  1  0.91000000  0.75500000  0.17020000  1.0 0.1095286342
H  H30  1  0.58480000  0.73980000  0.82980000  1.0 0.1095286342
H  H31  1  0.26020000  0.09000000  0.84500000  1.0 0.1095286342
H  H32  1  0.24500000  0.41520000  0.15500000  1.0 0.1095286342
H  H33  1  0.69500000  0.45980000  0.34020000  1.0 0.1095286342
H  H34  1  0.11960000  0.35480000  0.65980000  1.0 0.1095286342
H  H35  1  0.64520000  0.30500000  0.76480000  1.0 0.1095286342
H  H36  1  0.54020000  0.88040000  0.23520000  1.0 0.1095286342
H  H37  1  0.96900000  0.64200000  0.29000000  1.0 0.0914904371
H  H38  1  0.35200000  0.67900000  0.71000000  1.0 0.0914904371
H  H39  1  0.32100000  0.03100000  0.67300000  1.0 0.0914904371
H  H40  1  0.35800000  0.64800000  0.32700000  1.0 0.0914904371
H  H41  1  0.35420000  0.00220000  0.13340000  1.0 0.1095286342
H  H42  1  0.86880000  0.22080000  0.86660000  1.0 0.1095286342
H  H43  1  0.77920000  0.64580000  0.64800000  1.0 0.1095286342
H  H44  1  0.99780000  0.13120000  0.35200000  1.0 0.1095286342
H  H45  1  0.08660000  0.82630000  0.18570000  1.0 0.0914904371
H  H46  1  0.64060000  0.90090000  0.81430000  1.0 0.0914904371
H  H47  1  0.09910000  0.91340000  0.73970000  1.0 0.0914904371
H  H48  1  0.17370000  0.35940000  0.26030000  1.0 0.0914904371
H  H49  1  0.52400000  0.23700000  0.36180000  1.0 0.1095286342
H  H50  1  0.87520000  0.16220000  0.63820000  1.0 0.1095286342
H  H51  1  0.83780000  0.47600000  0.71300000  1.0 0.1095286342
H  H52  1  0.76300000  0.12480000  0.28700000  1.0 0.1095286342
H  H53  1  0.80040000  0.41900000  0.31260000  1.0 0.1095286342
H  H54  1  0.10640000  0.48780000  0.68740000  1.0 0.1009400162
H  H55  1  0.51220000  0.19960000  0.61860000  1.0 0.1009400162
H  H56  1  0.58100000  0.89360000  0.38140000  1.0 0.1009400162
H  H57  1  0.52500000  0.22390000  0.10850000  1.0 0.1009400162
H  H58  1  0.11540000  0.41650000  0.89150000  1.0 0.1009400162
H  H59  1  0.58350000  0.47500000  0.69890000  1.0 0.1009400162
H  H60  1  0.77610000  0.88460000  0.30110000  1.0 0.1009400162
H  H61  1  0.25870000  0.04980000  0.16390000  1.0 0.1009400162
H  H62  1  0.88590000  0.09480000  0.83610000  1.0 0.1009400162
H  H63  1  0.90520000  0.74130000  0.79110000  1.0 0.1009400162
H  H64  1  0.95020000  0.11410000  0.20890000  1.0 0.1009400162
C  C1  1  0.28250000  0.11750000  0.37800000  1.0 0.1009400162
C  C2  1  0.73950000  0.90450000  0.62200000  1.0 0.1009400162
C  C3  1  0.09550000  0.71750000  0.83500000  1.0 0.1009400162
C  C4  1  0.88250000  0.26050000  0.16500000  1.0 0.1009400162
C  C5  1  0.92640000  0.83080000  0.33520000  1.0 0.1095286342
C  C6  1  0.49560000  0.59120000  0.66480000  1.0 0.1095286342
C  C7  1  0.40880000  0.07360000  0.90440000  1.0 0.1095286342
C  C8  1  0.16920000  0.50440000  0.09560000  1.0 0.1095286342
C  C9  1  0.70060000  0.65660000  0.32720000  1.0 -0.1984436762
C  C10  1  0.32940000  0.37340000  0.67280000  1.0 -0.1984436762
C  C11  1  0.62660000  0.29940000  0.95600000  1.0 -0.1984436762
C  C12  1  0.34340000  0.67060000  0.04400000  1.0 -0.1984436762
C  C13  1  0.54890000  0.51460000  0.25950000  1.0 0.0729717064
C  C14  1  0.25510000  0.28940000  0.74050000  1.0 0.0729717064
C  C15  1  0.71060000  0.45110000  0.96570000  1.0 0.0729717064
C  C16  1  0.48540000  0.74490000  0.03430000  1.0 0.0729717064
C  C17  1  0.32420000  0.34160000  0.25180000  1.0 -0.1798925798
C  C18  1  0.08980000  0.07240000  0.74820000  1.0 -0.1798925798
C  C19  1  0.92760000  0.67580000  0.01740000  1.0 -0.1798925798
C  C20  1  0.65840000  0.91020000  0.98260000  1.0 -0.1798925798
C  C21  1  0.16060000  0.19150000  0.18610000  1.0 -0.1445230794
C  C22  1  0.00540000  0.97450000  0.81390000  1.0 -0.1457747372
C  C23  1  0.02550000  0.83940000  0.03090000  1.0 -0.1457747372
C  C24  1  0.80850000  0.99460000  0.96910000  1.0 -0.1457747372
C  C25  1  0.24130000  0.22960000  0.12890000  1.0 -0.1004427251
C  C26  1  0.10070000  0.11240000  0.87110000  1.0 -0.1004427251
C  C27  1  0.88760000  0.75870000  0.98830000  1.0 -0.1004427251
C  C28  1  0.77040000  0.89930000  0.01170000  1.0 -0.1004427251
C  C29  1  0.46780000  0.40440000  0.13620000  1.0 -0.1598014486
C  C30  1  0.26820000  0.33160000  0.86380000  1.0 -0.1598014486
C  C31  1  0.66840000  0.53220000  0.93660000  1.0 -0.1598014486
C  C32  1  0.59560000  0.73180000  0.06340000  1.0 -0.1598014486
C  C33  1  0.63050000  0.55360000  0.20210000  1.0 0.0914904371
C  C34  1  0.35150000  0.42840000  0.79790000  1.0 0.0914904371
C  C35  1  0.57160000  0.36950000  0.92310000  1.0 0.0914904371
C  C36  1  0.44640000  0.64850000  0.07690000  1.0 0.0914904371
C  C37  1  0.85620000  0.72770000  0.20990000  1.0 -0.2931351763
C  C38  1  0.51780000  0.64630000  0.79010000  1.0 -0.2931351763
C  C39  1  0.35370000  0.14380000  0.87150000  1.0 -0.2931351763
C  C40  1  0.27230000  0.48220000  0.12850000  1.0 -0.2931351763
C  C41  1  0.00010000  0.86030000  0.27840000  1.0 0.0914904371
C  C42  1  0.58190000  0.72170000  0.72160000  1.0 0.0914904371
C  C43  1  0.27830000  0.99990000  0.86020000  1.0 0.0914904371
C  C44  1  0.13970000  0.41810000  0.13980000  1.0 0.0914904371
C  C45  1  0.36420000  0.12550000  0.26770000  1.0 0.0914904371
C  C46  1  0.85780000  0.09650000  0.73230000  1.0 0.0914904371
C  C47  1  0.90350000  0.63580000  0.76130000  1.0 0.0914904371
C  C48  1  0.87450000  0.14220000  0.23870000  1.0 0.0914904371
C  C49  1  0.68250000  0.33530000  0.20780000  1.0 -0.0400806096
C  C50  1  0.12750000  0.47470000  0.79220000  1.0 -0.0400806096
C  C51  1  0.52530000  0.31750000  0.65280000  1.0 -0.0400806096
C  C52  1  0.66470000  0.87250000  0.34720000  1.0 -0.0400806096
C  C53  1  0.62780000  0.36890000  0.29870000  1.0 -0.0710075831
C  C54  1  0.07020000  0.32910000  0.70130000  1.0 -0.0710075831
C  C55  1  0.67090000  0.37220000  0.74110000  1.0 -0.0710075831
C  C56  1  0.63110000  0.92980000  0.25890000  1.0 -0.0710075831
C  C57  1  0.79140000  0.47790000  0.26930000  1.0 -0.0710075831
C  C58  1  0.20860000  0.52210000  0.73070000  1.0 -0.0710075831
C  C59  1  0.47790000  0.20860000  0.68650000  1.0 -0.0710075831
C  C60  1  0.52210000  0.79140000  0.31350000  1.0 -0.0710075831
C  C61  1  0.42180000  0.09330000  0.17510000  1.0 -0.0400806096
C  C62  1  0.91820000  0.24670000  0.82490000  1.0 -0.0400806096
C  C63  1  0.75330000  0.57820000  0.67150000  1.0 -0.0400806096
C  C64  1  0.90670000  0.08180000  0.32850000  1.0 -0.0400806096
C  C65  1  0.26410000  0.99030000  0.20640000  1.0 -0.0710075831
C  C66  1  0.78390000  0.05770000  0.79360000  1.0 -0.0710075831
C  C67  1  0.94230000  0.73590000  0.72620000  1.0 -0.0710075831
C  C68  1  0.00970000  0.21610000  0.27380000  1.0 -0.0710075831
C  C69  1  0.81840000  0.41060000  0.16500000  1.0 0.4095108483
C  C70  1  0.24560000  0.65340000  0.83500000  1.0 0.4095108483
C  C71  1  0.34660000  0.18160000  0.59220000  1.0 0.4095108483
C  C72  1  0.58940000  0.75440000  0.40780000  1.0 0.4095108483
C  C73  1  0.52490000  0.23500000  0.31190000  1.0 -0.0710075831
C  C74  1  0.92310000  0.21300000  0.68810000  1.0 -0.0710075831
C  C75  1  0.78700000  0.47510000  0.71010000  1.0 -0.0710075831
C  C76  1  0.76500000  0.07690000  0.28990000  1.0 -0.0710075831
C  C77  1  0.69080000  0.34440000  0.28320000  1.0 -0.0400806096
C  C78  1  0.06120000  0.40760000  0.71680000  1.0 -0.0400806096
C  C79  1  0.59240000  0.30920000  0.65360000  1.0 -0.0400806096
C  C80  1  0.65560000  0.93880000  0.34640000  1.0 -0.0400806096
C  C81  1  0.52530000  0.22710000  0.15840000  1.0 -0.0518025447
C  C82  1  0.06870000  0.36690000  0.84160000  1.0 -0.0518025447
C  C83  1  0.63310000  0.47470000  0.70180000  1.0 -0.0518025447
C  C84  1  0.77290000  0.93130000  0.29820000  1.0 -0.0518025447
C  C85  1  0.36860000  0.12440000  0.19300000  1.0 -0.0400806096
C  C86  1  0.93140000  0.17560000  0.80700000  1.0 -0.0400806096
C  C87  1  0.82440000  0.63140000  0.75580000  1.0 -0.0400806096
C  C88  1  0.87560000  0.06860000  0.24420000  1.0 -0.0400806096
N  N1  1  0.12270000  0.00800000  0.40670000  1.0 -0.3767082867
N  N2  1  0.60130000  0.71600000  0.59330000  1.0 -0.3767082867
N  N3  1  0.28400000  0.87730000  0.88530000  1.0 -0.3767082867
N  N4  1  0.99200000  0.39870000  0.11470000  1.0 -0.3767082867
N  N5  1  0.23760000  0.05500000  0.30660000  1.0 -0.2410070811
N  N6  1  0.74840000  0.93100000  0.69340000  1.0 -0.2410070811
N  N7  1  0.06900000  0.76240000  0.81740000  1.0 -0.2410070811
N  N8  1  0.94500000  0.25160000  0.18260000  1.0 -0.2410070811
O  O1  1  0.22960000  0.26190000  0.46950000  1.0 -0.8243288946
O  O2  1  0.79240000  0.76010000  0.53050000  1.0 -0.8243288946
O  O3  1  0.23990000  0.77040000  0.03230000  1.0 -0.8243288946
O  O4  1  0.73810000  0.20760000  0.96770000  1.0 -0.8243288946
O  O5  1  0.72540000  0.28770000  0.11110000  1.0 -0.4562721577
O  O6  1  0.17660000  0.61430000  0.88890000  1.0 -0.4562721577
O  O7  1  0.38570000  0.27460000  0.56230000  1.0 -0.4562721577
O  O8  1  0.71230000  0.82340000  0.43770000  1.0 -0.4562721577
O  O9  1  0.99880000  0.55420000  0.20900000  1.0 -0.0829959948
O  O10  1  0.34520000  0.78980000  0.79100000  1.0 -0.0829959948
O  O11  1  0.21020000  0.00120000  0.55540000  1.0 -0.0829959948
O  O12  1  0.44580000  0.65480000  0.44460000  1.0 -0.0829959948
O  O13  1  0.16700000  0.73500000  0.18200000  1.0 -0.1984436762
O  O14  1  0.55300000  0.98500000  0.81800000  1.0 -0.1984436762
O  O15  1  0.01500000  0.83300000  0.56800000  1.0 -0.1984436762
O  O16  1  0.26500000  0.44700000  0.43200000  1.0 -0.1984436762
