# DDEC6 charges by PACMAN v1.1 (https://github.com/mtap-research/PACMAN-charge/)
data_FUVDEH04_FSR_pacman
_symmetry_space_group_name_H-M   'P 1'
_cell_length_a   19.01430000
_cell_length_b   19.01430000
_cell_length_c   19.01430000
_cell_angle_alpha   90.87560000
_cell_angle_beta   90.87560000
_cell_angle_gamma   165.79800000
_symmetry_Int_Tables_number   1
_chemical_formula_structural   ZnH16C22(NO2)2
_chemical_formula_sum   'Zn4 H64 C88 N8 O16'
_cell_volume   1673.66149443
_cell_formula_units_Z   4
loop_
 _symmetry_equiv_pos_site_id
 _symmetry_equiv_pos_as_xyz
  1  'x, y, z'
loop_
 _atom_site_type_symbol
 _atom_site_label
 _atom_site_symmetry_multiplicity
 _atom_site_fract_x
 _atom_site_fract_y
 _atom_site_fract_z
 _atom_site_occupancy
 _atom_site_charge
Zn  Zn1  1  0.16145000  0.10000000  0.48865000  1.0 0.7947066174
Zn  Zn2  1  0.61135000  0.67280000  0.51135000  1.0 0.7947066174
Zn  Zn3  1  0.32720000  0.83855000  0.93855000  1.0 0.7947066174
Zn  Zn4  1  0.90000000  0.38865000  0.06145000  1.0 0.7947066174
H  H1  1  0.11720000  0.18470000  0.45210000  1.0 0.3375892387
H  H2  1  0.73260000  0.66510000  0.54790000  1.0 0.3375892387
H  H3  1  0.33490000  0.88280000  0.06750000  1.0 0.3375892387
H  H4  1  0.81530000  0.26740000  0.93250000  1.0 0.3375892387
H  H5  1  0.43630000  0.25380000  0.41090000  1.0 0.0976382863
H  H6  1  0.84290000  0.02540000  0.58910000  1.0 0.0976382863
H  H7  1  0.97460000  0.56370000  0.81750000  1.0 0.0976382863
H  H8  1  0.74620000  0.15710000  0.18250000  1.0 0.0976382863
H  H9  1  0.66770000  0.65800000  0.36790000  1.0 0.1304528461
H  H10  1  0.29010000  0.29980000  0.63210000  1.0 0.1304528461
H  H11  1  0.70020000  0.33230000  0.99030000  1.0 0.1304528461
H  H12  1  0.34200000  0.70990000  0.00970000  1.0 0.1304528461
H  H13  1  0.27410000  0.32650000  0.29200000  1.0 0.1100108042
H  H14  1  0.03450000  0.98210000  0.70800000  1.0 0.1100108042
H  H15  1  0.01790000  0.72590000  0.05240000  1.0 0.1100108042
H  H16  1  0.67350000  0.96550000  0.94760000  1.0 0.1100108042
H  H17  1  0.99670000  0.06800000  0.18350000  1.0 0.0976382863
H  H18  1  0.88450000  0.81320000  0.81650000  1.0 0.0976382863
H  H19  1  0.18680000  0.00330000  0.07130000  1.0 0.0976382863
H  H20  1  0.93200000  0.11550000  0.92870000  1.0 0.0976382863
H  H21  1  0.11520000  0.11310000  0.08930000  1.0 0.1100108042
H  H22  1  0.02380000  0.02590000  0.91070000  1.0 0.1100108042
H  H23  1  0.97410000  0.88480000  0.99790000  1.0 0.1100108042
H  H24  1  0.88690000  0.97620000  0.00210000  1.0 0.1100108042
H  H25  1  0.49550000  0.40520000  0.10610000  1.0 0.1100108042
H  H26  1  0.29910000  0.38940000  0.89390000  1.0 0.1100108042
H  H27  1  0.61060000  0.50450000  0.90970000  1.0 0.1100108042
H  H28  1  0.59480000  0.70090000  0.09030000  1.0 0.1100108042
H  H29  1  0.89250000  0.73740000  0.17950000  1.0 0.1100108042
H  H30  1  0.55790000  0.71300000  0.82050000  1.0 0.1100108042
H  H31  1  0.28700000  0.10750000  0.84490000  1.0 0.1100108042
H  H32  1  0.26260000  0.44210000  0.15510000  1.0 0.1100108042
H  H33  1  0.53100000  0.23360000  0.36280000  1.0 0.1157843144
H  H34  1  0.87080000  0.16820000  0.63720000  1.0 0.1157843144
H  H35  1  0.83180000  0.46900000  0.70260000  1.0 0.1157843144
H  H36  1  0.76640000  0.12920000  0.29740000  1.0 0.1157843144
H  H37  1  0.75530000  0.35980000  0.30610000  1.0 0.1100108042
H  H38  1  0.05370000  0.44920000  0.69390000  1.0 0.1100108042
H  H39  1  0.55080000  0.24470000  0.60450000  1.0 0.1100108042
H  H40  1  0.64020000  0.94630000  0.39550000  1.0 0.1100108042
H  H41  1  0.49360000  0.19510000  0.11370000  1.0 0.1100108042
H  H42  1  0.08140000  0.37990000  0.88630000  1.0 0.1100108042
H  H43  1  0.62010000  0.50640000  0.70150000  1.0 0.1100108042
H  H44  1  0.80490000  0.91860000  0.29850000  1.0 0.1100108042
H  H45  1  0.27910000  0.07600000  0.17650000  1.0 0.1100108042
H  H46  1  0.89950000  0.10260000  0.82350000  1.0 0.1100108042
H  H47  1  0.89740000  0.72090000  0.79690000  1.0 0.1100108042
H  H48  1  0.92400000  0.10050000  0.20310000  1.0 0.1100108042
H  H49  1  0.77910000  0.53810000  0.32860000  1.0 0.1100108042
H  H50  1  0.20950000  0.45050000  0.67140000  1.0 0.1100108042
H  H51  1  0.54950000  0.22090000  0.75900000  1.0 0.1100108042
H  H52  1  0.46190000  0.79050000  0.24100000  1.0 0.1100108042
H  H53  1  0.00150000  0.66480000  0.27090000  1.0 0.0911128027
H  H54  1  0.39390000  0.73060000  0.72910000  1.0 0.0911128027
H  H55  1  0.26940000  0.99850000  0.66330000  1.0 0.0911128027
H  H56  1  0.33520000  0.60610000  0.33670000  1.0 0.0911128027
H  H57  1  0.24460000  0.88940000  0.15140000  1.0 0.1100108042
H  H58  1  0.73800000  0.09320000  0.84860000  1.0 0.1100108042
H  H59  1  0.90680000  0.75540000  0.64480000  1.0 0.1100108042
H  H60  1  0.11060000  0.26200000  0.35520000  1.0 0.1100108042
H  H61  1  0.03010000  0.77080000  0.21050000  1.0 0.0976382863
H  H62  1  0.56030000  0.81960000  0.78950000  1.0 0.0976382863
H  H63  1  0.18040000  0.96990000  0.74070000  1.0 0.0976382863
H  H64  1  0.22920000  0.43970000  0.25930000  1.0 0.0976382863
C  C1  1  0.28870000  0.12790000  0.37860000  1.0 0.0911128027
C  C2  1  0.74930000  0.91010000  0.62140000  1.0 0.0911128027
C  C3  1  0.08990000  0.71130000  0.83920000  1.0 0.0911128027
C  C4  1  0.87210000  0.25070000  0.16080000  1.0 0.0911128027
C  C5  1  0.94040000  0.84810000  0.33850000  1.0 0.1635796027
C  C6  1  0.50960000  0.60190000  0.66150000  1.0 0.1635796027
C  C7  1  0.39810000  0.05960000  0.90770000  1.0 0.1635796027
C  C8  1  0.15190000  0.49040000  0.09230000  1.0 0.1635796027
C  C9  1  0.71140000  0.67260000  0.33000000  1.0 -0.2387614278
C  C10  1  0.34260000  0.38140000  0.67000000  1.0 -0.2387614278
C  C11  1  0.61860000  0.28860000  0.96120000  1.0 -0.2387614278
C  C12  1  0.32740000  0.65740000  0.03880000  1.0 -0.2387614278
C  C13  1  0.54980000  0.52070000  0.26450000  1.0 0.0808906676
C  C14  1  0.25620000  0.28530000  0.73550000  1.0 0.0808906676
C  C15  1  0.71470000  0.45020000  0.97090000  1.0 0.0808906676
C  C16  1  0.47930000  0.74380000  0.02910000  1.0 0.0808906676
C  C17  1  0.31920000  0.34270000  0.25390000  1.0 -0.1508927212
C  C18  1  0.08880000  0.06530000  0.74610000  1.0 -0.1508927212
C  C19  1  0.93470000  0.68080000  0.02350000  1.0 -0.1508927212
C  C20  1  0.65730000  0.91120000  0.97650000  1.0 -0.1508927212
C  C21  1  0.15100000  0.18640000  0.18940000  1.0 -0.1183723668
C  C22  1  0.99700000  0.96160000  0.81060000  1.0 -0.1183723668
C  C23  1  0.03840000  0.84900000  0.03540000  1.0 -0.1183723668
C  C24  1  0.81360000  0.00300000  0.96460000  1.0 -0.1183723668
C  C25  1  0.22200000  0.21370000  0.13370000  1.0 -0.1059078118
C  C26  1  0.08000000  0.08830000  0.86630000  1.0 -0.1059078118
C  C27  1  0.91170000  0.77800000  0.99170000  1.0 -0.1059078118
C  C28  1  0.78630000  0.92000000  0.00830000  1.0 -0.1059078118
C  C29  1  0.45170000  0.39050000  0.14420000  1.0 -0.1508927212
C  C30  1  0.24630000  0.30750000  0.85580000  1.0 -0.1508927212
C  C31  1  0.69250000  0.54830000  0.93880000  1.0 -0.1508927212
C  C32  1  0.60950000  0.75370000  0.06120000  1.0 -0.1508927212
C  C33  1  0.62090000  0.54800000  0.20890000  1.0 0.0808906676
C  C34  1  0.33910000  0.41200000  0.79110000  1.0 0.0808906676
C  C35  1  0.58800000  0.37910000  0.92710000  1.0 0.0808906676
C  C36  1  0.45200000  0.66090000  0.07290000  1.0 0.0808906676
C  C37  1  0.84770000  0.72170000  0.21740000  1.0 -0.2699945821
C  C38  1  0.50430000  0.63030000  0.78260000  1.0 -0.2699945821
C  C39  1  0.36970000  0.15230000  0.87400000  1.0 -0.2699945821
C  C40  1  0.27830000  0.49570000  0.12600000  1.0 -0.2699945821
C  C41  1  0.00930000  0.87360000  0.28290000  1.0 0.0642675543
C  C42  1  0.59070000  0.72640000  0.71710000  1.0 0.0642675543
C  C43  1  0.27360000  0.99070000  0.86430000  1.0 0.0642675543
C  C44  1  0.12640000  0.40930000  0.13570000  1.0 0.0642675543
C  C45  1  0.38300000  0.14220000  0.27520000  1.0 0.0911128027
C  C46  1  0.86700000  0.10780000  0.72480000  1.0 0.0911128027
C  C47  1  0.89220000  0.61700000  0.75920000  1.0 0.0911128027
C  C48  1  0.85780000  0.13300000  0.24080000  1.0 0.0911128027
C  C49  1  0.63910000  0.28570000  0.20680000  1.0 -0.0184419593
C  C50  1  0.07890000  0.43230000  0.79320000  1.0 -0.0184419593
C  C51  1  0.56770000  0.36090000  0.64660000  1.0 -0.0184419593
C  C52  1  0.71430000  0.92110000  0.35340000  1.0 -0.0184419593
C  C53  1  0.52480000  0.22690000  0.31370000  1.0 -0.0671780349
C  C54  1  0.91320000  0.21110000  0.68630000  1.0 -0.0671780349
C  C55  1  0.78890000  0.47520000  0.70210000  1.0 -0.0671780349
C  C56  1  0.77310000  0.08680000  0.29790000  1.0 -0.0671780349
C  C57  1  0.65860000  0.30200000  0.28060000  1.0 -0.0528521203
C  C58  1  0.02140000  0.37800000  0.71940000  1.0 -0.0528521203
C  C59  1  0.62200000  0.34140000  0.64340000  1.0 -0.0528521203
C  C60  1  0.69800000  0.97860000  0.35660000  1.0 -0.0528521203
C  C61  1  0.50140000  0.20330000  0.16270000  1.0 -0.0777533741
C  C62  1  0.04060000  0.33870000  0.83730000  1.0 -0.0777533741
C  C63  1  0.66130000  0.49860000  0.70190000  1.0 -0.0777533741
C  C64  1  0.79670000  0.95940000  0.29810000  1.0 -0.0777533741
C  C65  1  0.37500000  0.13260000  0.20160000  1.0 -0.044753979
C  C66  1  0.93100000  0.17340000  0.79840000  1.0 -0.044753979
C  C67  1  0.82660000  0.62500000  0.75760000  1.0 -0.044753979
C  C68  1  0.86740000  0.06900000  0.24240000  1.0 -0.044753979
C  C69  1  0.79070000  0.37510000  0.16980000  1.0 0.4092566417
C  C70  1  0.20530000  0.62090000  0.83020000  1.0 0.4092566417
C  C71  1  0.37910000  0.20930000  0.58440000  1.0 0.4092566417
C  C72  1  0.62490000  0.79470000  0.41560000  1.0 0.4092566417
C  C73  1  0.67260000  0.40840000  0.29300000  1.0 -0.0671780349
C  C74  1  0.11540000  0.37960000  0.70700000  1.0 -0.0671780349
C  C75  1  0.62040000  0.32740000  0.73580000  1.0 -0.0671780349
C  C76  1  0.59160000  0.88460000  0.26420000  1.0 -0.0671780349
C  C77  1  0.80600000  0.48510000  0.25910000  1.0 -0.0777533741
C  C78  1  0.22600000  0.54690000  0.74090000  1.0 -0.0777533741
C  C79  1  0.45310000  0.19400000  0.67910000  1.0 -0.0777533741
C  C80  1  0.51490000  0.77400000  0.32090000  1.0 -0.0777533741
C  C81  1  0.35060000  0.01850000  0.18710000  1.0 -0.0671780349
C  C82  1  0.83140000  0.16350000  0.81290000  1.0 -0.0671780349
C  C83  1  0.83650000  0.64940000  0.66790000  1.0 -0.0671780349
C  C84  1  0.98150000  0.16860000  0.33210000  1.0 -0.0671780349
C  C85  1  0.22480000  0.94980000  0.22260000  1.0 -0.0777533741
C  C86  1  0.72720000  0.00220000  0.77740000  1.0 -0.0777533741
C  C87  1  0.99780000  0.77520000  0.72500000  1.0 -0.0777533741
C  C88  1  0.05020000  0.27280000  0.27500000  1.0 -0.0777533741
N  N1  1  0.10870000  0.00120000  0.39590000  1.0 -0.2950126483
N  N2  1  0.60530000  0.71280000  0.60410000  1.0 -0.2950126483
N  N3  1  0.28720000  0.89130000  0.89250000  1.0 -0.2947302116
N  N4  1  0.99880000  0.39470000  0.10750000  1.0 -0.2947302116
N  N5  1  0.24640000  0.06370000  0.31010000  1.0 -0.2283790214
N  N6  1  0.75360000  0.93630000  0.68990000  1.0 -0.2283790214
N  N7  1  0.06370000  0.75360000  0.81730000  1.0 -0.2283790214
N  N8  1  0.93630000  0.24640000  0.18270000  1.0 -0.2283790214
O  O1  1  0.25250000  0.28750000  0.46200000  1.0 -0.8106295122
O  O2  1  0.82550000  0.79050000  0.53800000  1.0 -0.8106295122
O  O3  1  0.20950000  0.74750000  0.03500000  1.0 -0.8106295122
O  O4  1  0.71250000  0.17450000  0.96500000  1.0 -0.8106295122
O  O5  1  0.68640000  0.25500000  0.11140000  1.0 -0.4108870803
O  O6  1  0.14360000  0.57500000  0.88860000  1.0 -0.4108870803
O  O7  1  0.42500000  0.31360000  0.56860000  1.0 -0.4108870803
O  O8  1  0.74500000  0.85640000  0.43140000  1.0 -0.4108870803
O  O9  1  0.06410000  0.62800000  0.16810000  1.0 -0.1508927212
O  O10  1  0.45990000  0.89600000  0.83190000  1.0 -0.1508927212
O  O11  1  0.10400000  0.93590000  0.56390000  1.0 -0.1508927212
O  O12  1  0.37200000  0.54010000  0.43610000  1.0 -0.1508927212
O  O13  1  0.94070000  0.47750000  0.21220000  1.0 -0.2524449742
O  O14  1  0.26530000  0.72850000  0.78780000  1.0 -0.2524449742
O  O15  1  0.27150000  0.05930000  0.53680000  1.0 -0.2524449742
O  O16  1  0.52250000  0.73470000  0.46320000  1.0 -0.2524449742
