# DDEC6 charges by PACMAN v1.1 (https://github.com/mtap-research/PACMAN-charge/)
data_FUVDEH12_ASR_pacman
_symmetry_space_group_name_H-M   'P 1'
_cell_length_a   18.74230000
_cell_length_b   18.74230000
_cell_length_c   18.74230000
_cell_angle_alpha   91.04860000
_cell_angle_beta   91.04860000
_cell_angle_gamma   164.45000000
_symmetry_Int_Tables_number   1
_chemical_formula_structural   ZnH16C22(NO2)2
_chemical_formula_sum   'Zn4 H64 C88 N8 O16'
_cell_volume   1748.72409599
_cell_formula_units_Z   4
loop_
 _symmetry_equiv_pos_site_id
 _symmetry_equiv_pos_as_xyz
  1  'x, y, z'
loop_
 _atom_site_type_symbol
 _atom_site_label
 _atom_site_symmetry_multiplicity
 _atom_site_fract_x
 _atom_site_fract_y
 _atom_site_fract_z
 _atom_site_occupancy
 _atom_site_charge
Zn  Zn1  1  0.14639000  0.08687000  0.48886000  1.0 0.8473991912
Zn  Zn2  1  0.59801000  0.65753000  0.51114000  1.0 0.8473991912
Zn  Zn3  1  0.34247000  0.85361000  0.94048000  1.0 0.8473991912
Zn  Zn4  1  0.91313000  0.40199000  0.05952000  1.0 0.8473991912
H  H1  1  0.12660000  0.18880000  0.46000000  1.0 0.3525537115
H  H2  1  0.72880000  0.66666667  0.54000000  1.0 0.3525537115
H  H3  1  0.33340000  0.87340000  0.06220000  1.0 0.3525537115
H  H4  1  0.81120000  0.27120000  0.93780000  1.0 0.3525537115
H  H5  1  0.44390000  0.25660000  0.40790000  1.0 0.1000371675
H  H6  1  0.84870000  0.03600000  0.59210000  1.0 0.1000371675
H  H7  1  0.96400000  0.55610000  0.81270000  1.0 0.1000371675
H  H8  1  0.74340000  0.15130000  0.18730000  1.0 0.1000371675
H  H9  1  0.67530000  0.66030000  0.36640000  1.0 0.13508013
H  H10  1  0.29390000  0.30890000  0.63360000  1.0 0.13508013
H  H11  1  0.69110000  0.32470000  0.98500000  1.0 0.13508013
H  H12  1  0.33970000  0.70610000  0.01500000  1.0 0.13508013
H  H13  1  0.28930000  0.33490000  0.29020000  1.0 0.1100391879
H  H14  1  0.04470000  0.99910000  0.70980000  1.0 0.1100391879
H  H15  1  0.00090000  0.71070000  0.04560000  1.0 0.1100391879
H  H16  1  0.66510000  0.95530000  0.95440000  1.0 0.1100391879
H  H17  1  0.01930000  0.08090000  0.18040000  1.0 0.1000371675
H  H18  1  0.90050000  0.83890000  0.81960000  1.0 0.1000371675
H  H19  1  0.16110000  0.98070000  0.06160000  1.0 0.1000371675
H  H20  1  0.91910000  0.09950000  0.93840000  1.0 0.1000371675
H  H21  1  0.13260000  0.12150000  0.08370000  1.0 0.1000371675
H  H22  1  0.03780000  0.04890000  0.91630000  1.0 0.1000371675
H  H23  1  0.95110000  0.86740000  0.98890000  1.0 0.1000371675
H  H24  1  0.87850000  0.96220000  0.01110000  1.0 0.1000371675
H  H25  1  0.50700000  0.41020000  0.09960000  1.0 0.1100391879
H  H26  1  0.31060000  0.40740000  0.90040000  1.0 0.1100391879
H  H27  1  0.59260000  0.49300000  0.90320000  1.0 0.1100391879
H  H28  1  0.58980000  0.68940000  0.09680000  1.0 0.1100391879
H  H29  1  0.88440000  0.72480000  0.17180000  1.0 0.1100391879
H  H30  1  0.55300000  0.71260000  0.82820000  1.0 0.1100391879
H  H31  1  0.28740000  0.11560000  0.84040000  1.0 0.1100391879
H  H32  1  0.27520000  0.44700000  0.15960000  1.0 0.1100391879
H  H33  1  0.72580000  0.48260000  0.33340000  1.0 0.1100391879
H  H34  1  0.14920000  0.39240000  0.66666667  1.0 0.1100391879
H  H35  1  0.60760000  0.27420000  0.75680000  1.0 0.1100391879
H  H36  1  0.51740000  0.85080000  0.24320000  1.0 0.1100391879
H  H37  1  0.95240000  0.61190000  0.27890000  1.0 0.0912123036
H  H38  1  0.33300000  0.67350000  0.72110000  1.0 0.0912123036
H  H39  1  0.32650000  0.04760000  0.65950000  1.0 0.0912123036
H  H40  1  0.38810000  0.66700000  0.34050000  1.0 0.0912123036
H  H41  1  0.27560000  0.91640000  0.14380000  1.0 0.1100391879
H  H42  1  0.77260000  0.13180000  0.85620000  1.0 0.1100391879
H  H43  1  0.86820000  0.72440000  0.64080000  1.0 0.1100391879
H  H44  1  0.08360000  0.22740000  0.35920000  1.0 0.1100391879
H  H45  1  0.05650000  0.79420000  0.20010000  1.0 0.1000371675
H  H46  1  0.59410000  0.85640000  0.79990000  1.0 0.1000371675
H  H47  1  0.14360000  0.94350000  0.73770000  1.0 0.1000371675
H  H48  1  0.20580000  0.40590000  0.26230000  1.0 0.1000371675
H  H49  1  0.49550000  0.19610000  0.36280000  1.0 0.1100391879
H  H50  1  0.83330000  0.13270000  0.63720000  1.0 0.1100391879
H  H51  1  0.86730000  0.50450000  0.70060000  1.0 0.1100391879
H  H52  1  0.80390000  0.16670000  0.29940000  1.0 0.1100391879
H  H53  1  0.72280000  0.32350000  0.30910000  1.0 0.1100391879
H  H54  1  0.01440000  0.41370000  0.69090000  1.0 0.1100391879
H  H55  1  0.58630000  0.27720000  0.60070000  1.0 0.1100391879
H  H56  1  0.67650000  0.98560000  0.39930000  1.0 0.1100391879
H  H57  1  0.50490000  0.20240000  0.11130000  1.0 0.1100391879
H  H58  1  0.09110000  0.39360000  0.88870000  1.0 0.1100391879
H  H59  1  0.60640000  0.49510000  0.69750000  1.0 0.1100391879
H  H60  1  0.79760000  0.90890000  0.30250000  1.0 0.1100391879
H  H61  1  0.28620000  0.08030000  0.17110000  1.0 0.1100391879
H  H62  1  0.90920000  0.11510000  0.82890000  1.0 0.1100391879
H  H63  1  0.88490000  0.71380000  0.79410000  1.0 0.1100391879
H  H64  1  0.91970000  0.09080000  0.20590000  1.0 0.1100391879
C  C1  1  0.29620000  0.13150000  0.37770000  1.0 0.0820778284
C  C2  1  0.75380000  0.91850000  0.62230000  1.0 0.0820778284
C  C3  1  0.08150000  0.70380000  0.83530000  1.0 0.0820778284
C  C4  1  0.86850000  0.24620000  0.16470000  1.0 0.0820778284
C  C5  1  0.93900000  0.84320000  0.33420000  1.0 0.1189131226
C  C6  1  0.50900000  0.60480000  0.66580000  1.0 0.1189131226
C  C7  1  0.39520000  0.06100000  0.90420000  1.0 0.1189131226
C  C8  1  0.15680000  0.49100000  0.09580000  1.0 0.1189131226
C  C9  1  0.71650000  0.67290000  0.32740000  1.0 -0.2259289164
C  C10  1  0.34550000  0.38910000  0.67260000  1.0 -0.2259289164
C  C11  1  0.61090000  0.28350000  0.95640000  1.0 -0.2259289164
C  C12  1  0.32710000  0.65450000  0.04360000  1.0 -0.2259289164
C  C13  1  0.55700000  0.52240000  0.26140000  1.0 0.0820778284
C  C14  1  0.26100000  0.29560000  0.73860000  1.0 0.0820778284
C  C15  1  0.70440000  0.44300000  0.96540000  1.0 0.0820778284
C  C16  1  0.47760000  0.73900000  0.03460000  1.0 0.0820778284
C  C17  1  0.33240000  0.34910000  0.25150000  1.0 -0.1587206213
C  C18  1  0.09760000  0.08090000  0.74850000  1.0 -0.1587206213
C  C19  1  0.91910000  0.66760000  0.01670000  1.0 -0.1587206213
C  C20  1  0.65090000  0.90240000  0.98330000  1.0 -0.1587206213
C  C21  1  0.16950000  0.19630000  0.18580000  1.0 -0.1256187901
C  C22  1  0.01050000  0.98370000  0.81420000  1.0 -0.1256187901
C  C23  1  0.01630000  0.83050000  0.02680000  1.0 -0.1256187901
C  C24  1  0.80370000  0.98950000  0.97320000  1.0 -0.1256187901
C  C25  1  0.23750000  0.22090000  0.12840000  1.0 -0.1117751103
C  C26  1  0.09250000  0.10910000  0.87160000  1.0 -0.1117751103
C  C27  1  0.89090000  0.76250000  0.98340000  1.0 -0.1117751103
C  C28  1  0.77910000  0.90750000  0.01660000  1.0 -0.1117751103
C  C29  1  0.46320000  0.39510000  0.13830000  1.0 -0.1587206213
C  C30  1  0.25680000  0.32490000  0.86170000  1.0 -0.1587206213
C  C31  1  0.67510000  0.53680000  0.93190000  1.0 -0.1587206213
C  C32  1  0.60490000  0.74320000  0.06810000  1.0 -0.1587206213
C  C33  1  0.62500000  0.54710000  0.20410000  1.0 0.0820778284
C  C34  1  0.34300000  0.42090000  0.79590000  1.0 0.0820778284
C  C35  1  0.57910000  0.37500000  0.92210000  1.0 0.0820778284
C  C36  1  0.45290000  0.65700000  0.07790000  1.0 0.0820778284
C  C37  1  0.84710000  0.71730000  0.21040000  1.0 -0.2810026098
C  C38  1  0.50690000  0.63670000  0.78960000  1.0 -0.2810026098
C  C39  1  0.36330000  0.15290000  0.87020000  1.0 -0.2810026098
C  C40  1  0.28270000  0.49310000  0.12980000  1.0 -0.2810026098
C  C41  1  0.01210000  0.87560000  0.27570000  1.0 0.0912123036
C  C42  1  0.59990000  0.73640000  0.72430000  1.0 0.0912123036
C  C43  1  0.26360000  0.98790000  0.86350000  1.0 0.0912123036
C  C44  1  0.12440000  0.40010000  0.13650000  1.0 0.0912123036
C  C45  1  0.36860000  0.12550000  0.27210000  1.0 0.0820778284
C  C46  1  0.85340000  0.09650000  0.72790000  1.0 0.0820778284
C  C47  1  0.90350000  0.63140000  0.75690000  1.0 0.0820778284
C  C48  1  0.87450000  0.14660000  0.24310000  1.0 0.0820778284
C  C49  1  0.63040000  0.27270000  0.20710000  1.0 -0.0189091273
C  C50  1  0.06560000  0.42330000  0.79290000  1.0 -0.0189091273
C  C51  1  0.57670000  0.36960000  0.64230000  1.0 -0.0189091273
C  C52  1  0.72730000  0.93440000  0.35770000  1.0 -0.0189091273
C  C53  1  0.63610000  0.36930000  0.29540000  1.0 -0.0700473898
C  C54  1  0.07390000  0.34070000  0.70460000  1.0 -0.0700473898
C  C55  1  0.65930000  0.36390000  0.73320000  1.0 -0.0700473898
C  C56  1  0.63070000  0.92610000  0.26680000  1.0 -0.0700473898
C  C57  1  0.77190000  0.44740000  0.26330000  1.0 -0.0809107859
C  C58  1  0.18410000  0.50860000  0.73670000  1.0 -0.0809107859
C  C59  1  0.49140000  0.22810000  0.67550000  1.0 -0.0809107859
C  C60  1  0.55260000  0.81590000  0.32450000  1.0 -0.0809107859
C  C61  1  0.36500000  0.02910000  0.18210000  1.0 -0.0557743104
C  C62  1  0.84700000  0.18290000  0.81790000  1.0 -0.0557743104
C  C63  1  0.81710000  0.63500000  0.66410000  1.0 -0.0557743104
C  C64  1  0.97090000  0.15300000  0.33590000  1.0 -0.0557743104
C  C65  1  0.23690000  0.95880000  0.21570000  1.0 -0.0809107859
C  C66  1  0.74310000  0.02120000  0.78430000  1.0 -0.0809107859
C  C67  1  0.97880000  0.76310000  0.72190000  1.0 -0.0809107859
C  C68  1  0.04120000  0.25690000  0.27810000  1.0 -0.0809107859
C  C69  1  0.78320000  0.36910000  0.16430000  1.0 0.4340418663
C  C70  1  0.20480000  0.61890000  0.83570000  1.0 0.4340418663
C  C71  1  0.38110000  0.21680000  0.58590000  1.0 0.4340418663
C  C72  1  0.63090000  0.79520000  0.41410000  1.0 0.4340418663
C  C73  1  0.49880000  0.19850000  0.31330000  1.0 -0.0700473898
C  C74  1  0.88520000  0.18550000  0.68670000  1.0 -0.0700473898
C  C75  1  0.81450000  0.50120000  0.69970000  1.0 -0.0700473898
C  C76  1  0.80150000  0.11480000  0.30030000  1.0 -0.0700473898
C  C77  1  0.63500000  0.27490000  0.28190000  1.0 -0.0557743104
C  C78  1  0.99300000  0.35310000  0.71810000  1.0 -0.0557743104
C  C79  1  0.64690000  0.36500000  0.63990000  1.0 -0.0557743104
C  C80  1  0.72510000  0.00700000  0.36010000  1.0 -0.0557743104
C  C81  1  0.50340000  0.20150000  0.16090000  1.0 -0.0700473898
C  C82  1  0.04060000  0.34250000  0.83910000  1.0 -0.0700473898
C  C83  1  0.65750000  0.49660000  0.69810000  1.0 -0.0700473898
C  C84  1  0.79850000  0.95940000  0.30190000  1.0 -0.0700473898
C  C85  1  0.37470000  0.12940000  0.19810000  1.0 -0.0532414678
C  C86  1  0.93130000  0.17660000  0.80190000  1.0 -0.0532414678
C  C87  1  0.82340000  0.62530000  0.75470000  1.0 -0.0532414678
C  C88  1  0.87060000  0.06870000  0.24530000  1.0 -0.0532414678
N  N1  1  0.12420000  0.01160000  0.39780000  1.0 -0.3623287145
N  N2  1  0.61380000  0.72640000  0.60220000  1.0 -0.3623287145
N  N3  1  0.27360000  0.87580000  0.88740000  1.0 -0.3623287145
N  N4  1  0.98840000  0.38620000  0.11260000  1.0 -0.3623287145
N  N5  1  0.23480000  0.05260000  0.30740000  1.0 -0.1587206213
N  N6  1  0.74520000  0.92740000  0.69260000  1.0 -0.1587206213
N  N7  1  0.07260000  0.76520000  0.81780000  1.0 -0.1587206213
N  N8  1  0.94740000  0.25480000  0.18220000  1.0 -0.1587206213
O  O1  1  0.26100000  0.29090000  0.46990000  1.0 -0.8413604636
O  O2  1  0.82100000  0.79110000  0.53010000  1.0 -0.8413604636
O  O3  1  0.20890000  0.73900000  0.02990000  1.0 -0.8413604636
O  O4  1  0.70910000  0.17900000  0.97010000  1.0 -0.8413604636
O  O5  1  0.69270000  0.25400000  0.10670000  1.0 -0.4919099349
O  O6  1  0.14730000  0.58600000  0.89330000  1.0 -0.4919099349
O  O7  1  0.41400000  0.30730000  0.56130000  1.0 -0.4919099349
O  O8  1  0.74600000  0.85270000  0.43870000  1.0 -0.4919099349
O  O9  1  0.03580000  0.59120000  0.19700000  1.0 -0.1916745592
O  O10  1  0.39420000  0.83880000  0.80300000  1.0 -0.195572539
O  O11  1  0.16120000  0.96420000  0.55540000  1.0 -0.195572539
O  O12  1  0.40880000  0.60580000  0.44460000  1.0 -0.195572539
O  O13  1  0.86500000  0.39400000  0.22100000  1.0 -0.1228778985
O  O14  1  0.17300000  0.64400000  0.77900000  1.0 -0.1228778985
O  O15  1  0.35600000  0.13500000  0.52900000  1.0 -0.1228778985
O  O16  1  0.60600000  0.82700000  0.47100000  1.0 -0.1228778985
