# DDEC6 charges by PACMAN v1.1 (https://github.com/mtap-research/PACMAN-charge/)
data_FUVFAG_ASR_pacman
_symmetry_space_group_name_H-M   'P 1'
_cell_length_a   18.30110000
_cell_length_b   18.30110000
_cell_length_c   18.30110000
_cell_angle_alpha   114.18400000
_cell_angle_beta   109.87700000
_cell_angle_gamma   104.49600000
_symmetry_Int_Tables_number   1
_chemical_formula_structural   Cu2H72C95N9
_chemical_formula_sum   'Cu4 H144 C190 N18'
_cell_volume   4684.96205432
_cell_formula_units_Z   2
loop_
 _symmetry_equiv_pos_site_id
 _symmetry_equiv_pos_as_xyz
  1  'x, y, z'
loop_
 _atom_site_type_symbol
 _atom_site_label
 _atom_site_symmetry_multiplicity
 _atom_site_fract_x
 _atom_site_fract_y
 _atom_site_fract_z
 _atom_site_occupancy
 _atom_site_charge
Cu  Cu1  1  0.06162000  0.25062000  0.31100000  1.0 0.0469789909
Cu  Cu2  1  0.06038000  0.74938000  0.81100000  1.0 0.0594226307
Cu  Cu3  1  0.66133000  0.00000000  0.66133000  1.0 0.3519942161
Cu  Cu4  1  0.66133000  0.50000000  0.16133000  1.0 0.3519942161
H  H1  1  0.97770000  0.20322000  0.11124000  1.0 0.0692405502
H  H2  1  0.97850000  0.28213000  0.03795000  1.0 0.0991446139
H  H3  1  0.13589000  0.51694000  0.28793000  1.0 0.0991446139
H  H4  1  0.13509000  0.43802000  0.36123000  1.0 0.0594226307
H  H5  1  0.92928000  0.37059000  0.99831000  1.0 0.0396756968
H  H6  1  0.92945000  0.45405000  0.92978000  1.0 0.080530009
H  H7  1  0.18128000  0.63107000  0.12811000  1.0 0.0883305743
H  H8  1  0.18113000  0.54762000  0.19665000  1.0 0.0594226307
H  H9  1  0.97368000  0.63615000  0.98987000  1.0 0.0883305743
H  H10  1  0.97937000  0.71886000  0.92083000  1.0 0.0396756968
H  H11  1  0.14855000  0.64176000  0.85393000  1.0 0.0396756968
H  H12  1  0.14287000  0.55906000  0.92297000  1.0 0.0883305743
H  H13  1  0.20898000  0.69931000  0.84931000  1.0 0.0692405502
H  H14  1  0.36091000  0.77103000  0.91830000  1.0 0.0991446139
H  H15  1  0.35732000  0.01089000  0.99335000  1.0 0.080530009
H  H16  1  0.20539000  0.93918000  0.92437000  1.0 0.0594226307
H  H17  1  0.47721000  0.06716000  0.04163000  1.0 0.080530009
H  H18  1  0.62912000  0.14586000  0.11552000  1.0 0.0883305743
H  H19  1  0.64695000  0.91594000  0.06711000  1.0 0.0883305743
H  H20  1  0.49503000  0.83723000  0.99322000  1.0 0.0883305743
H  H21  1  0.77337000  0.97893000  0.12286000  1.0 0.0991446139
H  H22  1  0.92427000  0.05604000  0.19387000  1.0 0.0692405502
H  H23  1  0.91036000  0.27592000  0.23500000  1.0 0.080530009
H  H24  1  0.76034000  0.21075000  0.17773000  1.0 0.080530009
H  H25  1  0.90802000  0.79678000  0.77448000  1.0 0.0692405502
H  H26  1  0.75582000  0.71787000  0.69637000  1.0 0.0991446139
H  H27  1  0.77099000  0.48306000  0.61895000  1.0 0.0991446139
H  H28  1  0.92321000  0.56198000  0.69707000  1.0 0.0594226307
H  H29  1  0.62772000  0.62941000  0.55869000  1.0 0.0396756968
H  H30  1  0.47573000  0.54595000  0.47540000  1.0 0.0883305743
H  H31  1  0.49704000  0.36893000  0.55021000  1.0 0.0883305743
H  H32  1  0.64903000  0.45238000  0.63351000  1.0 0.0594226307
H  H33  1  0.35372000  0.36385000  0.33753000  1.0 0.0883305743
H  H34  1  0.20197000  0.28114000  0.26051000  1.0 0.0396756968
H  H35  1  0.21217000  0.35824000  0.50679000  1.0 0.0396756968
H  H36  1  0.36391000  0.44094000  0.58381000  1.0 0.0883305743
H  H37  1  0.15000000  0.30069000  0.50967000  1.0 0.0692405502
H  H38  1  0.14727000  0.22897000  0.58988000  1.0 0.0991446139
H  H39  1  0.98246000  0.98911000  0.34643000  1.0 0.080530009
H  H40  1  0.98519000  0.06082000  0.26621000  1.0 0.0594226307
H  H41  1  0.97447000  0.93284000  0.41005000  1.0 0.080530009
H  H42  1  0.96966000  0.85414000  0.48326000  1.0 0.0883305743
H  H43  1  0.15117000  0.08406000  0.73101000  1.0 0.0883305743
H  H44  1  0.15599000  0.16277000  0.65780000  1.0 0.0883305743
H  H45  1  0.14393000  0.02107000  0.79444000  1.0 0.0991446139
H  H46  1  0.13783000  0.94396000  0.86823000  1.0 0.0692405502
H  H47  1  0.95908000  0.72408000  0.63444000  1.0 0.080530009
H  H48  1  0.96698000  0.78925000  0.54959000  1.0 0.080530009
H  H49  1  0.90802000  0.63354000  0.61124000  1.0 0.0692405502
H  H50  1  0.75582000  0.55945000  0.53795000  1.0 0.0991446139
H  H51  1  0.77099000  0.65204000  0.78793000  1.0 0.0991446139
H  H52  1  0.92321000  0.72614000  0.86123000  1.0 0.0594226307
H  H53  1  0.62772000  0.56903000  0.49831000  1.0 0.0396756968
H  H54  1  0.47573000  0.50033000  0.42978000  1.0 0.0883305743
H  H55  1  0.49704000  0.44683000  0.62811000  1.0 0.0883305743
H  H56  1  0.64903000  0.51552000  0.69665000  1.0 0.0594226307
H  H57  1  0.35372000  0.51619000  0.48987000  1.0 0.0883305743
H  H58  1  0.20197000  0.44146000  0.42083000  1.0 0.0396756968
H  H59  1  0.21217000  0.20538000  0.35393000  1.0 0.0396756968
H  H60  1  0.36391000  0.28010000  0.42297000  1.0 0.0883305743
H  H61  1  0.15000000  0.14033000  0.34931000  1.0 0.0692405502
H  H62  1  0.14727000  0.05739000  0.41830000  1.0 0.0991446139
H  H63  1  0.98246000  0.13603000  0.49335000  1.0 0.080530009
H  H64  1  0.98519000  0.21898000  0.42437000  1.0 0.0594226307
H  H65  1  0.97447000  0.06442000  0.54163000  1.0 0.080530009
H  H66  1  0.96966000  0.98640000  0.61552000  1.0 0.0883305743
H  H67  1  0.15117000  0.92016000  0.56711000  1.0 0.0883305743
H  H68  1  0.15599000  0.99819000  0.49322000  1.0 0.0883305743
H  H69  1  0.14393000  0.84949000  0.62286000  1.0 0.0991446139
H  H70  1  0.13783000  0.76960000  0.69387000  1.0 0.0692405502
H  H71  1  0.95908000  0.82464000  0.73500000  1.0 0.080530009
H  H72  1  0.96698000  0.91739000  0.67773000  1.0 0.080530009
H  H73  1  0.97770000  0.36646000  0.27448000  1.0 0.0692405502
H  H74  1  0.97850000  0.44055000  0.19637000  1.0 0.0991446139
H  H75  1  0.13589000  0.34796000  0.11895000  1.0 0.0991446139
H  H76  1  0.13509000  0.27386000  0.19707000  1.0 0.0594226307
H  H77  1  0.92928000  0.43097000  0.05869000  1.0 0.0396756968
H  H78  1  0.92945000  0.49967000  0.97540000  1.0 0.080530009
H  H79  1  0.18128000  0.55317000  0.05021000  1.0 0.0883305743
H  H80  1  0.18113000  0.48448000  0.13351000  1.0 0.0594226307
H  H81  1  0.97368000  0.48381000  0.83753000  1.0 0.0883305743
H  H82  1  0.97937000  0.55854000  0.76051000  1.0 0.0396756968
H  H83  1  0.14855000  0.79462000  0.00679000  1.0 0.0396756968
H  H84  1  0.14287000  0.71990000  0.08381000  1.0 0.0883305743
H  H85  1  0.20898000  0.85967000  0.00967000  1.0 0.0692405502
H  H86  1  0.36091000  0.94261000  0.08988000  1.0 0.0991446139
H  H87  1  0.35732000  0.86397000  0.84643000  1.0 0.080530009
H  H88  1  0.20539000  0.78102000  0.76621000  1.0 0.0594226307
H  H89  1  0.47721000  0.93558000  0.91005000  1.0 0.080530009
H  H90  1  0.62912000  0.01360000  0.98326000  1.0 0.0883305743
H  H91  1  0.64695000  0.07984000  0.23101000  1.0 0.0883305743
H  H92  1  0.49503000  0.00181000  0.15780000  1.0 0.0883305743
H  H93  1  0.77337000  0.15051000  0.29444000  1.0 0.0991446139
H  H94  1  0.92427000  0.23040000  0.36823000  1.0 0.0692405502
H  H95  1  0.91036000  0.17536000  0.13444000  1.0 0.080530009
H  H96  1  0.76034000  0.08261000  0.04959000  1.0 0.080530009
H  H97  1  0.74693000  0.03942000  0.85583000  1.0 0.0991446139
H  H98  1  0.74729000  0.95826000  0.92685000  1.0 0.1232266442
H  H99  1  0.58262000  0.72629000  0.67559000  1.0 0.1108068944
H  H100  1  0.58226000  0.80744000  0.60456000  1.0 0.0991446139
H  H101  1  0.78624000  0.86687000  0.96215000  1.0 0.1108068944
H  H102  1  0.78377000  0.79164000  0.03901000  1.0 0.1108068944
H  H103  1  0.53520000  0.60721000  0.83633000  1.0 0.1108068944
H  H104  1  0.53767000  0.68244000  0.75945000  1.0 0.1108068944
H  H105  1  0.73601000  0.76018000  0.12701000  1.0 0.1287624982
H  H106  1  0.73588000  0.68764000  0.20668000  1.0 0.0991446139
H  H107  1  0.57775000  0.44716000  0.96253000  1.0 0.0991446139
H  H108  1  0.57787000  0.51971000  0.88286000  1.0 0.1232266442
H  H109  1  0.81641000  0.96058000  0.70751000  1.0 0.0991446139
H  H110  1  0.96859000  0.04174000  0.78903000  1.0 0.1232266442
H  H111  1  0.94930000  0.27371000  0.85633000  1.0 0.1108068944
H  H112  1  0.79712000  0.19256000  0.77482000  1.0 0.0991446139
H  H113  1  0.09528000  0.13313000  0.91937000  1.0 0.1108068944
H  H114  1  0.24737000  0.20836000  0.99213000  1.0 0.1108068944
H  H115  1  0.22912000  0.39279000  0.92799000  1.0 0.1108068944
H  H116  1  0.07701000  0.31756000  0.85523000  1.0 0.1108068944
H  H117  1  0.36683000  0.23982000  0.97583000  1.0 0.1287624982
H  H118  1  0.51904000  0.31236000  0.04824000  1.0 0.0991446139
H  H119  1  0.51537000  0.55284000  0.13059000  1.0 0.0991446139
H  H120  1  0.36315000  0.48029000  0.05816000  1.0 0.1232266442
H  H121  1  0.81641000  0.60890000  0.35583000  1.0 0.0991446139
H  H122  1  0.96859000  0.67956000  0.42685000  1.0 0.1232266442
H  H123  1  0.94930000  0.59297000  0.17559000  1.0 0.1108068944
H  H124  1  0.79712000  0.52230000  0.10456000  1.0 0.0991446139
H  H125  1  0.09528000  0.67591000  0.46215000  1.0 0.1108068944
H  H126  1  0.24737000  0.75524000  0.53901000  1.0 0.1108068944
H  H127  1  0.22912000  0.80113000  0.33633000  1.0 0.1108068944
H  H128  1  0.07701000  0.72178000  0.25945000  1.0 0.1108068944
H  H129  1  0.36683000  0.89100000  0.62701000  1.0 0.1287624982
H  H130  1  0.51904000  0.97080000  0.70668000  1.0 0.0991446139
H  H131  1  0.51537000  0.88478000  0.46253000  1.0 0.0991446139
H  H132  1  0.36315000  0.80499000  0.38286000  1.0 0.1232266442
H  H133  1  0.74693000  0.39110000  0.20751000  1.0 0.0991446139
H  H134  1  0.74729000  0.32044000  0.28903000  1.0 0.1232266442
H  H135  1  0.58262000  0.40703000  0.35633000  1.0 0.1108068944
H  H136  1  0.58226000  0.47770000  0.27482000  1.0 0.0991446139
H  H137  1  0.78624000  0.32409000  0.41937000  1.0 0.1108068944
H  H138  1  0.78377000  0.24476000  0.49213000  1.0 0.1108068944
H  H139  1  0.53520000  0.19887000  0.42799000  1.0 0.1108068944
H  H140  1  0.53767000  0.27822000  0.35523000  1.0 0.1108068944
H  H141  1  0.73601000  0.10900000  0.47583000  1.0 0.1287624982
H  H142  1  0.73588000  0.02920000  0.54824000  1.0 0.0991446139
H  H143  1  0.57775000  0.11522000  0.63059000  1.0 0.0991446139
H  H144  1  0.57787000  0.19501000  0.55816000  1.0 0.1232266442
C  C1  1  0.00980000  0.26690000  0.14710000  1.0 -0.0506519095
C  C2  1  0.01020000  0.31370000  0.10350000  1.0 -0.0431542511
C  C3  1  0.05730000  0.40700000  0.15610000  1.0 0.0116423448
C  C4  1  0.10380000  0.45330000  0.25210000  1.0 -0.0617406558
C  C5  1  0.10330000  0.40630000  0.29560000  1.0 -0.0699403978
C  C6  1  0.98040000  0.42340000  0.02460000  1.0 -0.0617406558
C  C7  1  0.98050000  0.47300000  0.98390000  1.0 -0.0906768482
C  C8  1  0.05530000  0.55040000  0.02250000  1.0 -0.0193670041
C  C9  1  0.13020000  0.57820000  0.10180000  1.0 -0.0699403978
C  C10  1  0.13000000  0.52860000  0.14240000  1.0 -0.0906768482
C  C11  1  0.05770000  0.58980000  0.96290000  1.0 0.0469789909
C  C12  1  0.00920000  0.63730000  0.96230000  1.0 -0.0989705402
C  C13  1  0.01260000  0.68650000  0.92130000  1.0 0.0692405502
C  C14  1  0.11310000  0.64060000  0.88150000  1.0 0.0991446139
C  C15  1  0.10970000  0.59150000  0.92260000  1.0 -0.1197614431
C  C16  1  0.23900000  0.76250000  0.87850000  1.0 -0.0699403978
C  C17  1  0.32940000  0.80520000  0.91960000  1.0 -0.0799425383
C  C18  1  0.37340000  0.89770000  0.96230000  1.0 0.0396756968
C  C19  1  0.32720000  0.94770000  0.96410000  1.0 -0.0799425383
C  C20  1  0.23690000  0.90500000  0.92310000  1.0 -0.0193670041
C  C21  1  0.47190000  0.94480000  0.01050000  1.0 0.0469789909
C  C22  1  0.51170000  0.03650000  0.04680000  1.0 -0.0699403978
C  C23  1  0.60190000  0.08320000  0.09070000  1.0 -0.0617406558
C  C24  1  0.65230000  0.03830000  0.09820000  1.0 0.0292259007
C  C25  1  0.61250000  0.94660000  0.06190000  1.0 -0.1197614431
C  C26  1  0.52220000  0.89980000  0.01800000  1.0 -0.1306972563
C  C27  1  0.74750000  0.08360000  0.14590000  1.0 0.0469789909
C  C28  1  0.80000000  0.04220000  0.15100000  1.0 -0.1086629875
C  C29  1  0.89010000  0.08750000  0.19520000  1.0 -0.2088096038
C  C30  1  0.88340000  0.21750000  0.22290000  1.0 0.0292259007
C  C31  1  0.79160000  0.17690000  0.18150000  1.0 -0.0906768482
C  C32  1  0.88020000  0.73310000  0.74290000  1.0 -0.0506519095
C  C33  1  0.78980000  0.68630000  0.69650000  1.0 -0.0431542511
C  C34  1  0.74910000  0.59300000  0.65030000  1.0 0.0116423448
C  C35  1  0.79880000  0.54670000  0.65050000  1.0 -0.0617406558
C  C36  1  0.88930000  0.59370000  0.69700000  1.0 -0.0699403978
C  C37  1  0.60120000  0.57660000  0.55700000  1.0 -0.0617406558
C  C38  1  0.51090000  0.52700000  0.50750000  1.0 -0.0906768482
C  C39  1  0.47210000  0.44960000  0.50490000  1.0 -0.0193670041
C  C40  1  0.52360000  0.42180000  0.55200000  1.0 -0.0699403978
C  C41  1  0.61380000  0.47140000  0.60140000  1.0 -0.0906768482
C  C42  1  0.37310000  0.41020000  0.46790000  1.0 0.0469789909
C  C43  1  0.32500000  0.36270000  0.37190000  1.0 -0.0989705402
C  C44  1  0.23480000  0.31350000  0.32610000  1.0 0.0692405502
C  C45  1  0.24090000  0.35940000  0.47250000  1.0 0.0991446139
C  C46  1  0.33110000  0.40850000  0.51820000  1.0 -0.1197614431
C  C47  1  0.11600000  0.23750000  0.47650000  1.0 -0.0699403978
C  C48  1  0.11440000  0.19480000  0.52420000  1.0 -0.0799425383
C  C49  1  0.06460000  0.10230000  0.47570000  1.0 0.0396756968
C  C50  1  0.01640000  0.05230000  0.37950000  1.0 -0.0799425383
C  C51  1  0.01810000  0.09500000  0.33190000  1.0 -0.0193670041
C  C52  1  0.06570000  0.05520000  0.52710000  1.0 0.0469789909
C  C53  1  0.01030000  0.96350000  0.47520000  1.0 -0.0699403978
C  C54  1  0.00750000  0.91680000  0.51870000  1.0 -0.0617406558
C  C55  1  0.05990000  0.96170000  0.61400000  1.0 0.0292259007
C  C56  1  0.11530000  0.05340000  0.66590000  1.0 -0.1197614431
C  C57  1  0.11820000  0.10020000  0.62240000  1.0 -0.1306972563
C  C58  1  0.06230000  0.91640000  0.66390000  1.0 0.0469789909
C  C59  1  0.10880000  0.95780000  0.75780000  1.0 -0.1086629875
C  C60  1  0.10770000  0.91250000  0.80260000  1.0 -0.2088096038
C  C61  1  0.00540000  0.78250000  0.66590000  1.0 0.0292259007
C  C62  1  0.00460000  0.82310000  0.61470000  1.0 -0.0906768482
C  C63  1  0.88020000  0.63730000  0.64710000  1.0 -0.0506519095
C  C64  1  0.78980000  0.59330000  0.60350000  1.0 -0.0431542511
C  C65  1  0.74910000  0.59880000  0.65610000  1.0 0.0116423448
C  C66  1  0.79880000  0.64830000  0.75210000  1.0 -0.0617406558
C  C67  1  0.88930000  0.69230000  0.79560000  1.0 -0.0617406558
C  C68  1  0.60120000  0.54420000  0.52460000  1.0 -0.0617406558
C  C69  1  0.51090000  0.50340000  0.48390000  1.0 -0.0906768482
C  C70  1  0.47210000  0.46720000  0.52250000  1.0 -0.0193670041
C  C71  1  0.52360000  0.47160000  0.60180000  1.0 -0.0699403978
C  C72  1  0.61380000  0.51240000  0.64240000  1.0 -0.0906768482
C  C73  1  0.37310000  0.40520000  0.46290000  1.0 0.0469789909
C  C74  1  0.32500000  0.45310000  0.46230000  1.0 -0.0989705402
C  C75  1  0.23480000  0.40870000  0.42130000  1.0 0.0692405502
C  C76  1  0.24090000  0.26840000  0.38150000  1.0 0.0991446139
C  C77  1  0.33110000  0.31290000  0.42260000  1.0 -0.1197614431
C  C78  1  0.11600000  0.13950000  0.37850000  1.0 -0.0699403978
C  C79  1  0.11440000  0.09020000  0.41960000  1.0 -0.0799425383
C  C80  1  0.06460000  0.08890000  0.46230000  1.0 0.0396756968
C  C81  1  0.01640000  0.13690000  0.46410000  1.0 -0.0799425383
C  C82  1  0.01810000  0.18620000  0.42310000  1.0 -0.0193670041
C  C83  1  0.06570000  0.03860000  0.51050000  1.0 0.0469789909
C  C84  1  0.01030000  0.03510000  0.54680000  1.0 -0.0699403978
C  C85  1  0.00750000  0.98880000  0.59070000  1.0 -0.0617406558
C  C86  1  0.05990000  0.94590000  0.59820000  1.0 0.0292259007
C  C87  1  0.11530000  0.94940000  0.56190000  1.0 -0.1197614431
C  C88  1  0.11820000  0.99580000  0.51800000  1.0 -0.1306972563
C  C89  1  0.06230000  0.89840000  0.64590000  1.0 0.0469789909
C  C90  1  0.10880000  0.85100000  0.65100000  1.0 -0.1086629875
C  C91  1  0.10770000  0.80510000  0.69520000  1.0 -0.2088096038
C  C92  1  0.00540000  0.83950000  0.72290000  1.0 0.0292259007
C  C93  1  0.00460000  0.88990000  0.68150000  1.0 -0.0906768482
C  C94  1  0.00980000  0.36270000  0.24290000  1.0 -0.0506519095
C  C95  1  0.01020000  0.40670000  0.19650000  1.0 -0.0431542511
C  C96  1  0.05730000  0.40120000  0.15030000  1.0 0.0116423448
C  C97  1  0.10380000  0.35170000  0.15050000  1.0 -0.0617406558
C  C98  1  0.10330000  0.30770000  0.19700000  1.0 -0.0699403978
C  C99  1  0.98040000  0.45580000  0.05700000  1.0 -0.0617406558
C  C100  1  0.98050000  0.49660000  0.00750000  1.0 -0.0906768482
C  C101  1  0.05530000  0.53280000  0.00490000  1.0 -0.0193670041
C  C102  1  0.13020000  0.52840000  0.05200000  1.0 -0.0699403978
C  C103  1  0.13000000  0.48760000  0.10140000  1.0 -0.0906768482
C  C104  1  0.05770000  0.59480000  0.96790000  1.0 0.0469789909
C  C105  1  0.00920000  0.54690000  0.87190000  1.0 -0.0989705402
C  C106  1  0.01260000  0.59130000  0.82610000  1.0 0.0692405502
C  C107  1  0.11310000  0.73160000  0.97250000  1.0 0.0991446139
C  C108  1  0.10970000  0.68710000  0.01820000  1.0 -0.1197614431
C  C109  1  0.23900000  0.86050000  0.97650000  1.0 -0.0699403978
C  C110  1  0.32940000  0.90980000  0.02420000  1.0 -0.0799425383
C  C111  1  0.37340000  0.91110000  0.97570000  1.0 0.0396756968
C  C112  1  0.32720000  0.86310000  0.87950000  1.0 -0.0799425383
C  C113  1  0.23690000  0.81380000  0.83190000  1.0 -0.0193670041
C  C114  1  0.47190000  0.96140000  0.02710000  1.0 0.0469789909
C  C115  1  0.51170000  0.96490000  0.97520000  1.0 -0.0799425383
C  C116  1  0.60190000  0.01120000  0.01870000  1.0 -0.0617406558
C  C117  1  0.65230000  0.05410000  0.11400000  1.0 0.0292259007
C  C118  1  0.61250000  0.05060000  0.16590000  1.0 -0.1197614431
C  C119  1  0.52220000  0.00420000  0.12240000  1.0 -0.1306972563
C  C120  1  0.74750000  0.10160000  0.16390000  1.0 0.0469789909
C  C121  1  0.80000000  0.14900000  0.25780000  1.0 -0.1086629875
C  C122  1  0.89010000  0.19490000  0.30260000  1.0 -0.2088096038
C  C123  1  0.88340000  0.16050000  0.16590000  1.0 0.0292259007
C  C124  1  0.79160000  0.11010000  0.11470000  1.0 -0.0906768482
C  C125  1  0.05520000  0.45130000  0.10390000  1.0 0.0237337505
C  C126  1  0.65260000  0.54870000  0.60390000  1.0 0.0237337505
C  C127  1  0.71360000  0.97590000  0.81930000  1.0 0.0396756968
C  C128  1  0.71380000  0.92760000  0.86140000  1.0 -0.2088096038
C  C129  1  0.66500000  0.83470000  0.80790000  1.0 0.0991446139
C  C130  1  0.61590000  0.78980000  0.71210000  1.0 -0.2237468812
C  C131  1  0.61570000  0.83800000  0.66990000  1.0 0.0237337505
C  C132  1  0.66220000  0.78180000  0.85360000  1.0 0.0594226307
C  C133  1  0.73530000  0.81410000  0.93660000  1.0 -0.1632030907
C  C134  1  0.73380000  0.76950000  0.98230000  1.0 -0.1712680239
C  C135  1  0.65930000  0.69240000  0.94490000  1.0 0.0594226307
C  C136  1  0.58620000  0.65990000  0.86190000  1.0 -0.1712680239
C  C137  1  0.58760000  0.70460000  0.81620000  1.0 -0.2088096038
C  C138  1  0.65690000  0.64670000  0.99740000  1.0 0.0991446139
C  C139  1  0.70390000  0.69670000  0.09360000  1.0 -0.2031338019
C  C140  1  0.70380000  0.65350000  0.14090000  1.0 0.0237337505
C  C141  1  0.60980000  0.51070000  0.99590000  1.0 0.0292259007
C  C142  1  0.61000000  0.55380000  0.94860000  1.0 -0.2088096038
C  C143  1  0.84340000  0.02410000  0.73770000  1.0 0.0396756968
C  C144  1  0.93380000  0.07240000  0.78620000  1.0 -0.2088096038
C  C145  1  0.97320000  0.16530000  0.83030000  1.0 0.0991446139
C  C146  1  0.92230000  0.21020000  0.82610000  1.0 -0.225817934
C  C147  1  0.83190000  0.16200000  0.77770000  1.0 0.0292259007
C  C148  1  0.07180000  0.21820000  0.88040000  1.0 0.0594226307
C  C149  1  0.12250000  0.18590000  0.92120000  1.0 -0.1632030907
C  C150  1  0.21280000  0.23050000  0.96430000  1.0 -0.1712680239
C  C151  1  0.25250000  0.30760000  0.96690000  1.0 0.0594226307
C  C152  1  0.20200000  0.34010000  0.92630000  1.0 -0.1712680239
C  C153  1  0.11160000  0.29540000  0.88300000  1.0 -0.2088096038
C  C154  1  0.35070000  0.35330000  0.01020000  1.0 0.0991446139
C  C155  1  0.39690000  0.30330000  0.00720000  1.0 -0.2031338019
C  C156  1  0.48740000  0.34650000  0.05030000  1.0 0.0237337505
C  C157  1  0.48520000  0.48930000  0.09910000  1.0 0.0292259007
C  C158  1  0.39480000  0.44620000  0.05620000  1.0 -0.2031338019
C  C159  1  0.84340000  0.60570000  0.31930000  1.0 0.0396756968
C  C160  1  0.93380000  0.64760000  0.36140000  1.0 -0.2088096038
C  C161  1  0.97320000  0.64290000  0.30790000  1.0 0.0991446139
C  C162  1  0.92230000  0.59620000  0.21210000  1.0 -0.2237468812
C  C163  1  0.83190000  0.55420000  0.16990000  1.0 0.0292259007
C  C164  1  0.07180000  0.69140000  0.35360000  1.0 0.0594226307
C  C165  1  0.12250000  0.70130000  0.43660000  1.0 -0.1632030907
C  C166  1  0.21280000  0.74850000  0.48230000  1.0 -0.1712680239
C  C167  1  0.25250000  0.78560000  0.44490000  1.0 0.0594226307
C  C168  1  0.20200000  0.77570000  0.36190000  1.0 -0.1712680239
C  C169  1  0.11160000  0.72860000  0.31620000  1.0 -0.2088096038
C  C170  1  0.35070000  0.84050000  0.49740000  1.0 0.0991446139
C  C171  1  0.39690000  0.88970000  0.59360000  1.0 -0.2031338019
C  C172  1  0.48740000  0.93710000  0.64090000  1.0 0.0237337505
C  C173  1  0.48520000  0.88610000  0.49590000  1.0 0.0292259007
C  C174  1  0.39480000  0.83860000  0.44860000  1.0 -0.2031338019
C  C175  1  0.71360000  0.39430000  0.23770000  1.0 0.0396756968
C  C176  1  0.71380000  0.35240000  0.28620000  1.0 -0.2088096038
C  C177  1  0.66500000  0.35710000  0.33030000  1.0 0.0991446139
C  C178  1  0.61590000  0.40380000  0.32610000  1.0 -0.225817934
C  C179  1  0.61570000  0.44580000  0.27770000  1.0 0.0237337505
C  C180  1  0.66220000  0.30860000  0.38040000  1.0 0.0594226307
C  C181  1  0.73530000  0.29870000  0.42120000  1.0 -0.1632030907
C  C182  1  0.73380000  0.25150000  0.46430000  1.0 -0.1712680239
C  C183  1  0.65930000  0.21440000  0.46690000  1.0 0.0594226307
C  C184  1  0.58620000  0.22430000  0.42630000  1.0 -0.1712680239
C  C185  1  0.58760000  0.27140000  0.38300000  1.0 -0.2088096038
C  C186  1  0.65690000  0.15950000  0.51020000  1.0 0.0991446139
C  C187  1  0.70390000  0.11030000  0.50720000  1.0 -0.2031338019
C  C188  1  0.70380000  0.06290000  0.55030000  1.0 0.0237337505
C  C189  1  0.60980000  0.11390000  0.59910000  1.0 0.0292259007
C  C190  1  0.61000000  0.16140000  0.55620000  1.0 -0.2088096038
N  N1  1  0.06450000  0.68800000  0.88090000  1.0 -0.255994201
N  N2  1  0.19290000  0.31200000  0.37650000  1.0 -0.255994201
N  N3  1  0.19290000  0.31640000  0.38090000  1.0 -0.255994201
N  N4  1  0.06450000  0.68360000  0.87650000  1.0 -0.255994201
N  N5  1  0.05630000  0.31320000  0.24310000  1.0 -0.0506519095
N  N6  1  0.19290000  0.81250000  0.88040000  1.0 -0.0799425383
N  N7  1  0.93090000  0.18640000  0.24450000  1.0 0.0237337505
N  N8  1  0.92990000  0.68680000  0.74310000  1.0 -0.0506519095
N  N9  1  0.06790000  0.18750000  0.38040000  1.0 -0.0799425383
N  N10  1  0.05810000  0.81360000  0.74450000  1.0 0.0116423448
N  N11  1  0.66450000  0.93100000  0.72350000  1.0 -0.2765332016
N  N12  1  0.65680000  0.56050000  0.09210000  1.0 -0.270983525
N  N13  1  0.79250000  0.06900000  0.73350000  1.0 -0.2765332016
N  N14  1  0.53160000  0.43950000  0.09630000  1.0 -0.270983525
N  N15  1  0.79250000  0.55900000  0.22350000  1.0 -0.2765332016
N  N16  1  0.53160000  0.93530000  0.59210000  1.0 -0.270983525
N  N17  1  0.66450000  0.44100000  0.23350000  1.0 -0.2765332016
N  N18  1  0.65680000  0.06470000  0.59630000  1.0 -0.270983525
