# DDEC6 charges by PACMAN v1.1 (https://github.com/mtap-research/PACMAN-charge/)
data_FUVFUZ_FSR_pacman
_symmetry_space_group_name_H-M   'P 1'
_cell_length_a   19.70670000
_cell_length_b   19.70670000
_cell_length_c   19.70670000
_cell_angle_alpha   90.47860000
_cell_angle_beta   90.47860000
_cell_angle_gamma   169.51200000
_symmetry_Int_Tables_number   1
_chemical_formula_structural   ZnH12C18(NO2)2
_chemical_formula_sum   'Zn4 H48 C72 N8 O16'
_cell_volume   1387.27429097
_cell_formula_units_Z   4
loop_
 _symmetry_equiv_pos_site_id
 _symmetry_equiv_pos_as_xyz
  1  'x, y, z'
loop_
 _atom_site_type_symbol
 _atom_site_label
 _atom_site_symmetry_multiplicity
 _atom_site_fract_x
 _atom_site_fract_y
 _atom_site_fract_z
 _atom_site_occupancy
 _atom_site_charge
Zn  Zn1  1  0.13635000  0.06597000  0.49852000  1.0 0.8024428653
Zn  Zn2  1  0.56745000  0.63783000  0.50148000  1.0 0.8024428653
Zn  Zn3  1  0.36217000  0.86365000  0.92962000  1.0 0.8024428653
Zn  Zn4  1  0.93403000  0.43255000  0.07038000  1.0 0.8024428653
H  H1  1  0.36730000  0.16720000  0.42230000  1.0 0.1092408611
H  H2  1  0.74490000  0.94500000  0.57770000  1.0 0.1092408611
H  H3  1  0.05500000  0.63270000  0.79990000  1.0 0.1092408611
H  H4  1  0.83280000  0.25510000  0.20010000  1.0 0.1092408611
H  H5  1  0.59070000  0.59570000  0.36640000  1.0 0.1402027643
H  H6  1  0.22930000  0.22430000  0.63360000  1.0 0.1402027643
H  H7  1  0.77570000  0.40930000  0.00500000  1.0 0.1402027643
H  H8  1  0.40430000  0.77070000  0.99500000  1.0 0.1402027643
H  H9  1  0.22770000  0.30670000  0.28360000  1.0 0.1092408611
H  H10  1  0.02310000  0.94410000  0.71640000  1.0 0.1092408611
H  H11  1  0.05590000  0.77230000  0.07900000  1.0 0.1092408611
H  H12  1  0.69330000  0.97690000  0.92100000  1.0 0.1092408611
H  H13  1  0.98810000  0.09320000  0.17270000  1.0 0.1013767476
H  H14  1  0.92050000  0.81540000  0.82730000  1.0 0.1013767476
H  H15  1  0.18460000  0.01190000  0.10510000  1.0 0.1013767476
H  H16  1  0.90680000  0.07950000  0.89490000  1.0 0.1013767476
H  H17  1  0.13890000  0.16750000  0.08640000  1.0 0.1013767476
H  H18  1  0.08110000  0.05250000  0.91360000  1.0 0.1013767476
H  H19  1  0.94750000  0.86110000  0.02860000  1.0 0.1013767476
H  H20  1  0.83250000  0.91890000  0.97140000  1.0 0.1013767476
H  H21  1  0.51310000  0.44230000  0.11080000  1.0 0.1092408611
H  H22  1  0.33150000  0.40230000  0.88920000  1.0 0.1092408611
H  H23  1  0.59770000  0.48690000  0.92920000  1.0 0.1092408611
H  H24  1  0.55770000  0.66850000  0.07080000  1.0 0.1092408611
H  H25  1  0.88540000  0.73850000  0.19070000  1.0 0.1193087435
H  H26  1  0.54780000  0.69470000  0.80930000  1.0 0.1193087435
H  H27  1  0.30530000  0.11460000  0.85310000  1.0 0.1193087435
H  H28  1  0.26150000  0.45220000  0.14690000  1.0 0.1193087435
H  H29  1  0.61610000  0.31840000  0.14530000  1.0 0.1092408611
H  H30  1  0.17310000  0.47080000  0.85470000  1.0 0.1092408611
H  H31  1  0.52920000  0.38390000  0.70230000  1.0 0.1092408611
H  H32  1  0.68160000  0.82690000  0.29770000  1.0 0.1092408611
H  H33  1  0.54820000  0.14090000  0.31410000  1.0 0.1193087435
H  H34  1  0.82680000  0.23410000  0.68590000  1.0 0.1193087435
H  H35  1  0.76590000  0.45180000  0.59270000  1.0 0.1193087435
H  H36  1  0.85910000  0.17320000  0.40730000  1.0 0.1193087435
H  H37  1  0.30850000  0.99850000  0.36820000  1.0 0.131622346
H  H38  1  0.63030000  0.94030000  0.63180000  1.0 0.131622346
H  H39  1  0.05970000  0.69150000  0.69000000  1.0 0.131622346
H  H40  1  0.00150000  0.36970000  0.31000000  1.0 0.131622346
H  H41  1  0.37640000  0.17590000  0.19930000  1.0 0.1092408611
H  H42  1  0.97660000  0.17710000  0.80070000  1.0 0.1092408611
H  H43  1  0.82290000  0.62360000  0.79950000  1.0 0.1092408611
H  H44  1  0.82410000  0.02340000  0.20050000  1.0 0.1092408611
H  H45  1  0.54480000  0.47100000  0.54160000  1.0 0.2924215066
H  H46  1  0.92940000  0.00320000  0.45840000  1.0 0.2924215066
H  H47  1  0.99680000  0.45520000  0.92620000  1.0 0.2924215066
H  H48  1  0.52900000  0.07060000  0.07380000  1.0 0.2924215066
C  C1  1  0.22700000  0.05500000  0.39000000  1.0 0.1193087435
C  C2  1  0.66500000  0.83700000  0.61000000  1.0 0.1193087435
C  C3  1  0.16300000  0.77300000  0.82800000  1.0 0.1193087435
C  C4  1  0.94500000  0.33500000  0.17200000  1.0 0.1193087435
C  C5  1  0.86990000  0.78480000  0.34470000  1.0 0.1402027643
C  C6  1  0.44010000  0.52520000  0.65530000  1.0 0.1402027643
C  C7  1  0.47480000  0.13010000  0.91490000  1.0 0.1402027643
C  C8  1  0.21520000  0.55990000  0.08510000  1.0 0.1402027643
C  C9  1  0.64720000  0.62220000  0.33140000  1.0 -0.2075513248
C  C10  1  0.29080000  0.31580000  0.66860000  1.0 -0.2075513248
C  C11  1  0.68420000  0.35280000  0.97500000  1.0 -0.2075513248
C  C12  1  0.37780000  0.70920000  0.02500000  1.0 -0.2075513248
C  C13  1  0.51040000  0.50000000  0.26440000  1.0 0.077650437
C  C14  1  0.23560000  0.24600000  0.73560000  1.0 0.077650437
C  C15  1  0.75400000  0.48960000  0.98960000  1.0 0.077650437
C  C16  1  0.50000000  0.76440000  0.01040000  1.0 0.077650437
C  C17  1  0.28490000  0.33380000  0.24870000  1.0 -0.1293195021
C  C18  1  0.08510000  0.03620000  0.75130000  1.0 -0.1293195021
C  C19  1  0.96380000  0.71510000  0.04890000  1.0 -0.1293195021
C  C20  1  0.66620000  0.91490000  0.95110000  1.0 -0.1293195021
C  C21  1  0.13970000  0.20470000  0.18240000  1.0 -0.1077408018
C  C22  1  0.02230000  0.95730000  0.81760000  1.0 -0.1077408018
C  C23  1  0.04270000  0.86030000  0.06500000  1.0 -0.1077408018
C  C24  1  0.79530000  0.97770000  0.93500000  1.0 -0.1077408018
C  C25  1  0.23110000  0.25010000  0.13120000  1.0 -0.1077408018
C  C26  1  0.11890000  0.09990000  0.86880000  1.0 -0.1077408018
C  C27  1  0.90010000  0.76890000  0.01900000  1.0 -0.1077408018
C  C28  1  0.74990000  0.88110000  0.98100000  1.0 -0.1077408018
C  C29  1  0.45640000  0.41560000  0.14600000  1.0 -0.1543006134
C  C30  1  0.26960000  0.31040000  0.85400000  1.0 -0.1543006134
C  C31  1  0.68960000  0.54360000  0.95920000  1.0 -0.1543006134
C  C32  1  0.58440000  0.73040000  0.04080000  1.0 -0.1543006134
C  C33  1  0.60080000  0.54410000  0.21290000  1.0 0.08775671
C  C34  1  0.33120000  0.38790000  0.78710000  1.0 0.08775671
C  C35  1  0.61210000  0.39920000  0.94330000  1.0 0.08775671
C  C36  1  0.45590000  0.66880000  0.05670000  1.0 0.08775671
C  C37  1  0.82360000  0.70620000  0.22580000  1.0 -0.2269160581
C  C38  1  0.48040000  0.59780000  0.77420000  1.0 -0.2269160581
C  C39  1  0.40220000  0.17640000  0.88260000  1.0 -0.2269160581
C  C40  1  0.29380000  0.51960000  0.11740000  1.0 -0.2269160581
C  C41  1  0.94970000  0.81750000  0.29320000  1.0 0.077650437
C  C42  1  0.52430000  0.65650000  0.70680000  1.0 0.077650437
C  C43  1  0.34350000  0.05030000  0.86780000  1.0 0.077650437
C  C44  1  0.18250000  0.47570000  0.13220000  1.0 0.077650437
C  C45  1  0.55410000  0.25390000  0.19000000  1.0 -0.0913447124
C  C46  1  0.06390000  0.36410000  0.81000000  1.0 -0.0913447124
C  C47  1  0.63590000  0.44590000  0.69980000  1.0 -0.0913447124
C  C48  1  0.74610000  0.93610000  0.30020000  1.0 -0.0913447124
C  C49  1  0.60620000  0.24410000  0.22430000  1.0 -0.0136682262
C  C50  1  0.01980000  0.38190000  0.77570000  1.0 -0.0136682262
C  C51  1  0.61810000  0.39380000  0.63790000  1.0 -0.0136682262
C  C52  1  0.75590000  0.98020000  0.36210000  1.0 -0.0136682262
C  C53  1  0.51350000  0.14770000  0.29120000  1.0 -0.0643789304
C  C54  1  0.85650000  0.22230000  0.70880000  1.0 -0.0643789304
C  C55  1  0.77770000  0.48650000  0.63420000  1.0 -0.0643789304
C  C56  1  0.85230000  0.14350000  0.36580000  1.0 -0.0643789304
C  C57  1  0.37050000  0.06300000  0.32350000  1.0 -0.1921577343
C  C58  1  0.73950000  0.04700000  0.67650000  1.0 -0.1921577343
C  C59  1  0.95300000  0.62950000  0.69250000  1.0 -0.1921577343
C  C60  1  0.93700000  0.26050000  0.30750000  1.0 -0.1921577343
C  C61  1  0.31840000  0.07280000  0.28920000  1.0 0.1800198498
C  C62  1  0.78360000  0.02920000  0.71080000  1.0 0.1800198498
C  C63  1  0.97080000  0.68160000  0.75440000  1.0 0.1800198498
C  C64  1  0.92720000  0.21640000  0.24560000  1.0 0.1800198498
C  C65  1  0.41120000  0.16920000  0.22240000  1.0 -0.1921577343
C  C66  1  0.94680000  0.18880000  0.77760000  1.0 -0.1921577343
C  C67  1  0.81120000  0.58880000  0.75800000  1.0 -0.1921577343
C  C68  1  0.83080000  0.05320000  0.24200000  1.0 -0.1921577343
C  C69  1  0.74130000  0.31970000  0.18100000  1.0 0.4844780433
C  C70  1  0.13870000  0.56030000  0.81900000  1.0 0.4844780433
C  C71  1  0.43970000  0.25870000  0.57840000  1.0 0.4844780433
C  C72  1  0.68030000  0.86130000  0.42160000  1.0 0.4844780433
N  N1  1  0.04690000  0.93310000  0.40400000  1.0 -0.3231558559
N  N2  1  0.52910000  0.64290000  0.59600000  1.0 -0.3231558559
N  N3  1  0.35710000  0.95310000  0.88620000  1.0 -0.3231558559
N  N4  1  0.06690000  0.47090000  0.11380000  1.0 -0.3231558559
N  N5  1  0.18330000  0.99700000  0.32230000  1.0 -0.0525652078
N  N6  1  0.67470000  0.86100000  0.67770000  1.0 -0.0525652078
N  N7  1  0.13900000  0.81670000  0.81370000  1.0 -0.0525652078
N  N8  1  0.00300000  0.32530000  0.18630000  1.0 -0.0525652078
O  O1  1  0.87450000  0.45950000  0.13200000  1.0 -0.3591491339
O  O2  1  0.32750000  0.74250000  0.86800000  1.0 -0.3591491339
O  O3  1  0.25750000  0.12550000  0.58500000  1.0 -0.3591491339
O  O4  1  0.54050000  0.67250000  0.41500000  1.0 -0.3591491339
O  O5  1  0.59730000  0.12060000  0.19990000  1.0 -0.3332170379
O  O6  1  0.92070000  0.39740000  0.80010000  1.0 -0.3332170379
O  O7  1  0.60260000  0.40270000  0.52330000  1.0 -0.3332170379
O  O8  1  0.87940000  0.07930000  0.47670000  1.0 -0.3332170379
O  O9  1  0.64570000  0.60710000  0.53080000  1.0 -0.7584167552
O  O10  1  0.07630000  0.11490000  0.46920000  1.0 -0.7584167552
O  O11  1  0.88510000  0.35430000  0.96140000  1.0 -0.7584167552
O  O12  1  0.39290000  0.92370000  0.03860000  1.0 -0.7584167552
O  O13  1  0.98170000  0.52000000  0.21970000  1.0 -0.2075513248
O  O14  1  0.30030000  0.76200000  0.78030000  1.0 -0.2075513248
O  O15  1  0.23800000  0.01830000  0.53830000  1.0 -0.2075513248
O  O16  1  0.48000000  0.69970000  0.46170000  1.0 -0.2075513248
