# DDEC6 charges by PACMAN v1.1 (https://github.com/mtap-research/PACMAN-charge/)
data_FUVGAG_ASR_pacman
_symmetry_space_group_name_H-M   'P 1'
_cell_length_a   19.67300000
_cell_length_b   19.67300000
_cell_length_c   19.67300000
_cell_angle_alpha   90.47220000
_cell_angle_beta   90.47220000
_cell_angle_gamma   169.58300000
_symmetry_Int_Tables_number   1
_chemical_formula_structural   ZnH12C18(NO2)2
_chemical_formula_sum   'Zn4 H48 C72 N8 O16'
_cell_volume   1371.00640903
_cell_formula_units_Z   4
loop_
 _symmetry_equiv_pos_site_id
 _symmetry_equiv_pos_as_xyz
  1  'x, y, z'
loop_
 _atom_site_type_symbol
 _atom_site_label
 _atom_site_symmetry_multiplicity
 _atom_site_fract_x
 _atom_site_fract_y
 _atom_site_fract_z
 _atom_site_occupancy
 _atom_site_charge
Zn  Zn1  1  0.13030000  0.05964000  0.49874000  1.0 0.8022744204
Zn  Zn2  1  0.56090000  0.63156000  0.50126000  1.0 0.8022744204
Zn  Zn3  1  0.36844000  0.86970000  0.92934000  1.0 0.8022744204
Zn  Zn4  1  0.94036000  0.43910000  0.07066000  1.0 0.8022744204
H  H1  1  0.35620000  0.15540000  0.42100000  1.0 0.1097888395
H  H2  1  0.73440000  0.93520000  0.57900000  1.0 0.1097888395
H  H3  1  0.06480000  0.64380000  0.79920000  1.0 0.1097888395
H  H4  1  0.84460000  0.26560000  0.20080000  1.0 0.1097888395
H  H5  1  0.58360000  0.58790000  0.36770000  1.0 0.1372523303
H  H6  1  0.22020000  0.21590000  0.63230000  1.0 0.1372523303
H  H7  1  0.78410000  0.41640000  0.00430000  1.0 0.1372523303
H  H8  1  0.41210000  0.77980000  0.99570000  1.0 0.1372523303
H  H9  1  0.21500000  0.29480000  0.28500000  1.0 0.1097888395
H  H10  1  0.00980000  0.93000000  0.71500000  1.0 0.1097888395
H  H11  1  0.07000000  0.78500000  0.07980000  1.0 0.1097888395
H  H12  1  0.70520000  0.99020000  0.92020000  1.0 0.1097888395
H  H13  1  0.97830000  0.08510000  0.17420000  1.0 0.1013836894
H  H14  1  0.91090000  0.80410000  0.82580000  1.0 0.1013836894
H  H15  1  0.19590000  0.02170000  0.10680000  1.0 0.1013836894
H  H16  1  0.91490000  0.08910000  0.89320000  1.0 0.1013836894
H  H17  1  0.12720000  0.15880000  0.08660000  1.0 0.1013836894
H  H18  1  0.07220000  0.04060000  0.91340000  1.0 0.1013836894
H  H19  1  0.95940000  0.87280000  0.03160000  1.0 0.1013836894
H  H20  1  0.84120000  0.92780000  0.96840000  1.0 0.1013836894
H  H21  1  0.50340000  0.43510000  0.11090000  1.0 0.1097888395
H  H22  1  0.32420000  0.39250000  0.88910000  1.0 0.1097888395
H  H23  1  0.60750000  0.49660000  0.93170000  1.0 0.1097888395
H  H24  1  0.56490000  0.67580000  0.06830000  1.0 0.1097888395
H  H25  1  0.86680000  0.72110000  0.19030000  1.0 0.1189158324
H  H26  1  0.53080000  0.67650000  0.80970000  1.0 0.1189158324
H  H27  1  0.32350000  0.13320000  0.85430000  1.0 0.1189158324
H  H28  1  0.27890000  0.46920000  0.14570000  1.0 0.1189158324
H  H29  1  0.61580000  0.31970000  0.14550000  1.0 0.1097888395
H  H30  1  0.17420000  0.47030000  0.85450000  1.0 0.1097888395
H  H31  1  0.52970000  0.38420000  0.70390000  1.0 0.1097888395
H  H32  1  0.68030000  0.82580000  0.29610000  1.0 0.1097888395
H  H33  1  0.54110000  0.13340000  0.31310000  1.0 0.1189158324
H  H34  1  0.82030000  0.22800000  0.68690000  1.0 0.1189158324
H  H35  1  0.77200000  0.45890000  0.59230000  1.0 0.1189158324
H  H36  1  0.86660000  0.17970000  0.40770000  1.0 0.1189158324
H  H37  1  0.30300000  0.99220000  0.36840000  1.0 0.134065419
H  H38  1  0.62380000  0.93460000  0.63160000  1.0 0.134065419
H  H39  1  0.06540000  0.69700000  0.68920000  1.0 0.134065419
H  H40  1  0.00780000  0.37620000  0.31080000  1.0 0.134065419
H  H41  1  0.37770000  0.17850000  0.20080000  1.0 0.1097888395
H  H42  1  0.97770000  0.17690000  0.79920000  1.0 0.1097888395
H  H43  1  0.82310000  0.62230000  0.80080000  1.0 0.1097888395
H  H44  1  0.82150000  0.02230000  0.19920000  1.0 0.1097888395
H  H45  1  0.53850000  0.46540000  0.54430000  1.0 0.2965077157
H  H46  1  0.92110000  0.99420000  0.45570000  1.0 0.2965077157
H  H47  1  0.00580000  0.46150000  0.92690000  1.0 0.2965077157
H  H48  1  0.53460000  0.07890000  0.07310000  1.0 0.2965077157
C  C1  1  0.21460000  0.04270000  0.38930000  1.0 0.1189158324
C  C2  1  0.65340000  0.82530000  0.61070000  1.0 0.1189158324
C  C3  1  0.17470000  0.78540000  0.82810000  1.0 0.1189158324
C  C4  1  0.95730000  0.34660000  0.17190000  1.0 0.1189158324
C  C5  1  0.86230000  0.77640000  0.34470000  1.0 0.1372523303
C  C6  1  0.43170000  0.51760000  0.65530000  1.0 0.1372523303
C  C7  1  0.48240000  0.13770000  0.91410000  1.0 0.1372523303
C  C8  1  0.22360000  0.56830000  0.08590000  1.0 0.1372523303
C  C9  1  0.63970000  0.61440000  0.33210000  1.0 -0.1968883802
C  C10  1  0.28230000  0.30760000  0.66790000  1.0 -0.1968883802
C  C11  1  0.69240000  0.36030000  0.97470000  1.0 -0.1968883802
C  C12  1  0.38560000  0.71770000  0.02530000  1.0 -0.1968883802
C  C13  1  0.50150000  0.49200000  0.26550000  1.0 0.0764419879
C  C14  1  0.22650000  0.23600000  0.73450000  1.0 0.0764419879
C  C15  1  0.76400000  0.49850000  0.99050000  1.0 0.0764419879
C  C16  1  0.50800000  0.77350000  0.00950000  1.0 0.0764419879
C  C17  1  0.27400000  0.32390000  0.24990000  1.0 -0.1308077429
C  C18  1  0.07400000  0.02410000  0.75010000  1.0 -0.1308077429
C  C19  1  0.97590000  0.72600000  0.04990000  1.0 -0.1308077429
C  C20  1  0.67610000  0.92600000  0.95010000  1.0 -0.1308077429
C  C21  1  0.13050000  0.19700000  0.18350000  1.0 -0.1074310546
C  C22  1  0.01350000  0.94700000  0.81650000  1.0 -0.1074310546
C  C23  1  0.05300000  0.86950000  0.06650000  1.0 -0.1074310546
C  C24  1  0.80300000  0.98650000  0.93350000  1.0 -0.1074310546
C  C25  1  0.22000000  0.24140000  0.13140000  1.0 -0.1074310546
C  C26  1  0.11000000  0.08860000  0.86860000  1.0 -0.1074310546
C  C27  1  0.91140000  0.78000000  0.02140000  1.0 -0.1074310546
C  C28  1  0.75860000  0.89000000  0.97860000  1.0 -0.1074310546
C  C29  1  0.44530000  0.40680000  0.14610000  1.0 -0.1506349896
C  C30  1  0.26070000  0.29920000  0.85390000  1.0 -0.1506349896
C  C31  1  0.70080000  0.55470000  0.96150000  1.0 -0.1506349896
C  C32  1  0.59320000  0.73930000  0.03850000  1.0 -0.1506349896
C  C33  1  0.58910000  0.53400000  0.21310000  1.0 0.0876518632
C  C34  1  0.32090000  0.37600000  0.78690000  1.0 0.0876518632
C  C35  1  0.62400000  0.41090000  0.94490000  1.0 0.0876518632
C  C36  1  0.46600000  0.67910000  0.05510000  1.0 0.0876518632
C  C37  1  0.81270000  0.69700000  0.22570000  1.0 -0.2287205462
C  C38  1  0.47130000  0.58700000  0.77430000  1.0 -0.2287205462
C  C39  1  0.41300000  0.18730000  0.88430000  1.0 -0.2287205462
C  C40  1  0.30300000  0.52870000  0.11570000  1.0 -0.2287205462
C  C41  1  0.95330000  0.82270000  0.29200000  1.0 0.0764419879
C  C42  1  0.53070000  0.66130000  0.70800000  1.0 0.0764419879
C  C43  1  0.33870000  0.04670000  0.86940000  1.0 0.0764419879
C  C44  1  0.17730000  0.46930000  0.13060000  1.0 0.0764419879
C  C45  1  0.55260000  0.25360000  0.19020000  1.0 -0.0929625188
C  C46  1  0.06340000  0.36240000  0.80980000  1.0 -0.0929625188
C  C47  1  0.63760000  0.44740000  0.70100000  1.0 -0.0929625188
C  C48  1  0.74640000  0.93660000  0.29900000  1.0 -0.0929625188
C  C49  1  0.60170000  0.24020000  0.22390000  1.0 -0.0289914668
C  C50  1  0.01630000  0.37780000  0.77610000  1.0 -0.0289914668
C  C51  1  0.62220000  0.39830000  0.63850000  1.0 -0.0289914668
C  C52  1  0.75980000  0.98370000  0.36150000  1.0 -0.0289914668
C  C53  1  0.50830000  0.14240000  0.29070000  1.0 -0.0719490205
C  C54  1  0.85170000  0.21760000  0.70930000  1.0 -0.0719490205
C  C55  1  0.78240000  0.49170000  0.63410000  1.0 -0.0719490205
C  C56  1  0.85760000  0.14830000  0.36590000  1.0 -0.0719490205
C  C57  1  0.36580000  0.05800000  0.32380000  1.0 -0.1919926558
C  C58  1  0.73420000  0.04200000  0.67620000  1.0 -0.1919926558
C  C59  1  0.95800000  0.63420000  0.69220000  1.0 -0.1919926558
C  C60  1  0.94200000  0.26580000  0.30780000  1.0 -0.1919926558
C  C61  1  0.31670000  0.07140000  0.29010000  1.0 0.1801644112
C  C62  1  0.78130000  0.02660000  0.70990000  1.0 0.1801644112
C  C63  1  0.97340000  0.68330000  0.75470000  1.0 0.1801644112
C  C64  1  0.92860000  0.21870000  0.24530000  1.0 0.1801644112
C  C65  1  0.41020000  0.16910000  0.22330000  1.0 -0.1968883802
C  C66  1  0.94580000  0.18690000  0.77670000  1.0 -0.1968883802
C  C67  1  0.81310000  0.58980000  0.75890000  1.0 -0.1968883802
C  C68  1  0.83090000  0.05420000  0.24110000  1.0 -0.1968883802
C  C69  1  0.75490000  0.33440000  0.18130000  1.0 0.4589169021
C  C70  1  0.15310000  0.57360000  0.81870000  1.0 0.4589169021
C  C71  1  0.42640000  0.24510000  0.57950000  1.0 0.4589169021
C  C72  1  0.66560000  0.84690000  0.42050000  1.0 0.4589169021
N  N1  1  0.03820000  0.92410000  0.40630000  1.0 -0.3368437295
N  N2  1  0.51780000  0.63190000  0.59370000  1.0 -0.3368437295
N  N3  1  0.36810000  0.96180000  0.88590000  1.0 -0.3368437295
N  N4  1  0.07590000  0.48220000  0.11410000  1.0 -0.3368437295
N  N5  1  0.17300000  0.98660000  0.32160000  1.0 -0.047285751
N  N6  1  0.66500000  0.85140000  0.67840000  1.0 -0.047285751
N  N7  1  0.14860000  0.82700000  0.81360000  1.0 -0.047285751
N  N8  1  0.01340000  0.33500000  0.18640000  1.0 -0.047285751
O  O1  1  0.89120000  0.47730000  0.13050000  1.0 -0.3743459587
O  O2  1  0.34680000  0.76070000  0.86950000  1.0 -0.3743459587
O  O3  1  0.23930000  0.10880000  0.58610000  1.0 -0.3743459587
O  O4  1  0.52270000  0.65320000  0.41390000  1.0 -0.3743459587
O  O5  1  0.63280000  0.15460000  0.19940000  1.0 -0.2980300789
O  O6  1  0.95520000  0.43340000  0.80060000  1.0 -0.2980300789
O  O7  1  0.56660000  0.36720000  0.52180000  1.0 -0.2980300789
O  O8  1  0.84540000  0.04480000  0.47820000  1.0 -0.2980300789
O  O9  1  0.64070000  0.60290000  0.53360000  1.0 -0.7529121642
O  O10  1  0.06930000  0.10710000  0.46640000  1.0 -0.7529121642
O  O11  1  0.89290000  0.35930000  0.96220000  1.0 -0.7529121642
O  O12  1  0.39710000  0.93070000  0.03780000  1.0 -0.7529121642
O  O13  1  0.99240000  0.52700000  0.21540000  1.0 -0.1813129489
O  O14  1  0.31160000  0.77700000  0.78460000  1.0 -0.1813129489
O  O15  1  0.22300000  0.00760000  0.53460000  1.0 -0.1813129489
O  O16  1  0.47300000  0.68840000  0.46540000  1.0 -0.1813129489
