# DDEC6 charges by PACMAN v1.1 (https://github.com/mtap-research/PACMAN-charge/)
data_FUVKIT_FSR_pacman
_symmetry_space_group_name_H-M   'P 1'
_cell_length_a   17.72040000
_cell_length_b   17.72040000
_cell_length_c   31.28040000
_cell_angle_alpha   90.00000000
_cell_angle_beta   90.00000000
_cell_angle_gamma   120.00000000
_symmetry_Int_Tables_number   1
_chemical_formula_structural   Co3H24C36N4O9
_chemical_formula_sum   'Co12 H96 C144 N16 O36'
_cell_volume   8506.48169014
_cell_formula_units_Z   4
loop_
 _symmetry_equiv_pos_site_id
 _symmetry_equiv_pos_as_xyz
  1  'x, y, z'
loop_
 _atom_site_type_symbol
 _atom_site_label
 _atom_site_symmetry_multiplicity
 _atom_site_fract_x
 _atom_site_fract_y
 _atom_site_fract_z
 _atom_site_occupancy
 _atom_site_charge
Co  Co1  1  0.00000000  0.12905000  0.96648000  1.0 0.9910008685
Co  Co2  1  0.12905000  0.00000000  0.96648000  1.0 0.9910008685
Co  Co3  1  0.87095000  0.87095000  0.96648000  1.0 0.9910008685
Co  Co4  1  0.12905000  0.12905000  0.03352000  1.0 0.9910008685
Co  Co5  1  0.87095000  0.00000000  0.03352000  1.0 0.9910008685
Co  Co6  1  0.00000000  0.87095000  0.03352000  1.0 0.9910008685
Co  Co7  1  0.00000000  0.87095000  0.46648000  1.0 0.9910008685
Co  Co8  1  0.87095000  0.00000000  0.46648000  1.0 0.9910008685
Co  Co9  1  0.12905000  0.12905000  0.46648000  1.0 0.9910008685
Co  Co10  1  0.87095000  0.87095000  0.53352000  1.0 0.9910008685
Co  Co11  1  0.12905000  0.00000000  0.53352000  1.0 0.9910008685
Co  Co12  1  0.00000000  0.12905000  0.53352000  1.0 0.9910008685
H  H1  1  0.71133000  0.12048000  0.04256000  1.0 0.1325428618
H  H2  1  0.63818000  0.19623000  0.04281000  1.0 0.1325428618
H  H3  1  0.87590000  0.07728000  0.89201000  1.0 0.1013908845
H  H4  1  0.87298000  0.09392000  0.82089000  1.0 0.1442089902
H  H5  1  0.40915000  0.28867000  0.04256000  1.0 0.1325428618
H  H6  1  0.55805000  0.36182000  0.04281000  1.0 0.1325428618
H  H7  1  0.20138000  0.12410000  0.89201000  1.0 0.1013908845
H  H8  1  0.22094000  0.12702000  0.82089000  1.0 0.1442089902
H  H9  1  0.87952000  0.59085000  0.04256000  1.0 0.1325428618
H  H10  1  0.80377000  0.44195000  0.04281000  1.0 0.1325428618
H  H11  1  0.92272000  0.79862000  0.89201000  1.0 0.1013908845
H  H12  1  0.90608000  0.77906000  0.82089000  1.0 0.1442089902
H  H13  1  0.40915000  0.12048000  0.95744000  1.0 0.1325428618
H  H14  1  0.55805000  0.19623000  0.95719000  1.0 0.1325428618
H  H15  1  0.20138000  0.07728000  0.10799000  1.0 0.1013908845
H  H16  1  0.22094000  0.09392000  0.17911000  1.0 0.1442089902
H  H17  1  0.87952000  0.28867000  0.95744000  1.0 0.1325428618
H  H18  1  0.80377000  0.36182000  0.95719000  1.0 0.1325428618
H  H19  1  0.92272000  0.12410000  0.10799000  1.0 0.1013908845
H  H20  1  0.90608000  0.12702000  0.17911000  1.0 0.1442089902
H  H21  1  0.71133000  0.59085000  0.95744000  1.0 0.1325428618
H  H22  1  0.63818000  0.44195000  0.95719000  1.0 0.1325428618
H  H23  1  0.87590000  0.79862000  0.10799000  1.0 0.1013908845
H  H24  1  0.87298000  0.77906000  0.17911000  1.0 0.145001583
H  H25  1  0.28867000  0.87952000  0.95744000  1.0 0.1325428618
H  H26  1  0.36182000  0.80377000  0.95719000  1.0 0.1325428618
H  H27  1  0.12410000  0.92272000  0.10799000  1.0 0.1013908845
H  H28  1  0.12702000  0.90608000  0.17911000  1.0 0.145001583
H  H29  1  0.59085000  0.71133000  0.95744000  1.0 0.1325428618
H  H30  1  0.44195000  0.63818000  0.95719000  1.0 0.1325428618
H  H31  1  0.79862000  0.87590000  0.10799000  1.0 0.1013908845
H  H32  1  0.77906000  0.87298000  0.17911000  1.0 0.1442089902
H  H33  1  0.12048000  0.40915000  0.95744000  1.0 0.1325428618
H  H34  1  0.19623000  0.55805000  0.95719000  1.0 0.1325428618
H  H35  1  0.07728000  0.20138000  0.10799000  1.0 0.1013908845
H  H36  1  0.09392000  0.22094000  0.17911000  1.0 0.1442089902
H  H37  1  0.59085000  0.87952000  0.04256000  1.0 0.1325428618
H  H38  1  0.44195000  0.80377000  0.04281000  1.0 0.1325428618
H  H39  1  0.79862000  0.92272000  0.89201000  1.0 0.1013908845
H  H40  1  0.77906000  0.90608000  0.82089000  1.0 0.1442089902
H  H41  1  0.12048000  0.71133000  0.04256000  1.0 0.1325428618
H  H42  1  0.19623000  0.63818000  0.04281000  1.0 0.1325428618
H  H43  1  0.07728000  0.87590000  0.89201000  1.0 0.1013908845
H  H44  1  0.09392000  0.87298000  0.82089000  1.0 0.1442089902
H  H45  1  0.28867000  0.40915000  0.04256000  1.0 0.1325428618
H  H46  1  0.36182000  0.55805000  0.04281000  1.0 0.1325428618
H  H47  1  0.12410000  0.20138000  0.89201000  1.0 0.1013908845
H  H48  1  0.12702000  0.22094000  0.82089000  1.0 0.1442089902
H  H49  1  0.28867000  0.87952000  0.54256000  1.0 0.1325428618
H  H50  1  0.36182000  0.80377000  0.54281000  1.0 0.1325428618
H  H51  1  0.12410000  0.92272000  0.39201000  1.0 0.1013908845
H  H52  1  0.12702000  0.90608000  0.32089000  1.0 0.145001583
H  H53  1  0.59085000  0.71133000  0.54256000  1.0 0.1325428618
H  H54  1  0.44195000  0.63818000  0.54281000  1.0 0.1325428618
H  H55  1  0.79862000  0.87590000  0.39201000  1.0 0.1013908845
H  H56  1  0.77906000  0.87298000  0.32089000  1.0 0.1442089902
H  H57  1  0.12048000  0.40915000  0.54256000  1.0 0.1325428618
H  H58  1  0.19623000  0.55805000  0.54281000  1.0 0.1325428618
H  H59  1  0.07728000  0.20138000  0.39201000  1.0 0.1013908845
H  H60  1  0.09392000  0.22094000  0.32089000  1.0 0.1442089902
H  H61  1  0.59085000  0.87952000  0.45744000  1.0 0.1325428618
H  H62  1  0.44195000  0.80377000  0.45719000  1.0 0.1325428618
H  H63  1  0.79862000  0.92272000  0.60799000  1.0 0.1013908845
H  H64  1  0.77906000  0.90608000  0.67911000  1.0 0.1442089902
H  H65  1  0.12048000  0.71133000  0.45744000  1.0 0.1325428618
H  H66  1  0.19623000  0.63818000  0.45719000  1.0 0.1325428618
H  H67  1  0.07728000  0.87590000  0.60799000  1.0 0.1013908845
H  H68  1  0.09392000  0.87298000  0.67911000  1.0 0.1442089902
H  H69  1  0.28867000  0.40915000  0.45744000  1.0 0.1325428618
H  H70  1  0.36182000  0.55805000  0.45719000  1.0 0.1325428618
H  H71  1  0.12410000  0.20138000  0.60799000  1.0 0.1013908845
H  H72  1  0.12702000  0.22094000  0.67911000  1.0 0.1442089902
H  H73  1  0.71133000  0.12048000  0.45744000  1.0 0.1325428618
H  H74  1  0.63818000  0.19623000  0.45719000  1.0 0.1325428618
H  H75  1  0.87590000  0.07728000  0.60799000  1.0 0.1013908845
H  H76  1  0.87298000  0.09392000  0.67911000  1.0 0.1442089902
H  H77  1  0.40915000  0.28867000  0.45744000  1.0 0.1325428618
H  H78  1  0.55805000  0.36182000  0.45719000  1.0 0.1325428618
H  H79  1  0.20138000  0.12410000  0.60799000  1.0 0.1013908845
H  H80  1  0.22094000  0.12702000  0.67911000  1.0 0.1442089902
H  H81  1  0.87952000  0.59085000  0.45744000  1.0 0.1325428618
H  H82  1  0.80377000  0.44195000  0.45719000  1.0 0.1325428618
H  H83  1  0.92272000  0.79862000  0.60799000  1.0 0.1013908845
H  H84  1  0.90608000  0.77906000  0.67911000  1.0 0.1442089902
H  H85  1  0.40915000  0.12048000  0.54256000  1.0 0.1325428618
H  H86  1  0.55805000  0.19623000  0.54281000  1.0 0.1325428618
H  H87  1  0.20138000  0.07728000  0.39201000  1.0 0.1013908845
H  H88  1  0.22094000  0.09392000  0.32089000  1.0 0.1442089902
H  H89  1  0.87952000  0.28867000  0.54256000  1.0 0.1325428618
H  H90  1  0.80377000  0.36182000  0.54281000  1.0 0.1325428618
H  H91  1  0.92272000  0.12410000  0.39201000  1.0 0.1013908845
H  H92  1  0.90608000  0.12702000  0.32089000  1.0 0.1442089902
H  H93  1  0.71133000  0.59085000  0.54256000  1.0 0.1325428618
H  H94  1  0.63818000  0.44195000  0.54281000  1.0 0.1325428618
H  H95  1  0.87590000  0.79862000  0.39201000  1.0 0.1013908845
H  H96  1  0.87298000  0.77906000  0.32089000  1.0 0.145001583
C  C1  1  0.73080000  0.16960000  0.02535000  1.0 -0.0857642689
C  C2  1  0.68670000  0.21490000  0.02530000  1.0 -0.1865391431
C  C3  1  0.92860000  0.10880000  0.87770000  1.0 0.1013908845
C  C4  1  0.92670000  0.11690000  0.83450000  1.0 -0.211386745
C  C5  1  0.43880000  0.26920000  0.02535000  1.0 -0.0857642689
C  C6  1  0.52820000  0.31330000  0.02530000  1.0 -0.1865391431
C  C7  1  0.18020000  0.07140000  0.87770000  1.0 0.1013908845
C  C8  1  0.19020000  0.07330000  0.83450000  1.0 -0.211386745
C  C9  1  0.83040000  0.56120000  0.02535000  1.0 -0.0857642689
C  C10  1  0.78510000  0.47180000  0.02530000  1.0 -0.1865391431
C  C11  1  0.89120000  0.81980000  0.87770000  1.0 0.1013908845
C  C12  1  0.88310000  0.80980000  0.83450000  1.0 -0.211386745
C  C13  1  0.43880000  0.16960000  0.97465000  1.0 -0.0857642689
C  C14  1  0.52820000  0.21490000  0.97470000  1.0 -0.1865391431
C  C15  1  0.18020000  0.10880000  0.12230000  1.0 0.1013908845
C  C16  1  0.19020000  0.11690000  0.16550000  1.0 -0.211386745
C  C17  1  0.83040000  0.26920000  0.97465000  1.0 -0.0857642689
C  C18  1  0.78510000  0.31330000  0.97470000  1.0 -0.1865391431
C  C19  1  0.89120000  0.07140000  0.12230000  1.0 0.1013908845
C  C20  1  0.88310000  0.07330000  0.16550000  1.0 -0.211386745
C  C21  1  0.73080000  0.56120000  0.97465000  1.0 -0.0857642689
C  C22  1  0.68670000  0.47180000  0.97470000  1.0 -0.1865391431
C  C23  1  0.92860000  0.81980000  0.12230000  1.0 0.1013908845
C  C24  1  0.92670000  0.80980000  0.16550000  1.0 -0.211386745
C  C25  1  0.26920000  0.83040000  0.97465000  1.0 -0.0857642689
C  C26  1  0.31330000  0.78510000  0.97470000  1.0 -0.1865391431
C  C27  1  0.07140000  0.89120000  0.12230000  1.0 0.1013908845
C  C28  1  0.07330000  0.88310000  0.16550000  1.0 -0.211386745
C  C29  1  0.56120000  0.73080000  0.97465000  1.0 -0.0857642689
C  C30  1  0.47180000  0.68670000  0.97470000  1.0 -0.1865391431
C  C31  1  0.81980000  0.92860000  0.12230000  1.0 0.1013908845
C  C32  1  0.80980000  0.92670000  0.16550000  1.0 -0.211386745
C  C33  1  0.16960000  0.43880000  0.97465000  1.0 -0.0857642689
C  C34  1  0.21490000  0.52820000  0.97470000  1.0 -0.1865391431
C  C35  1  0.10880000  0.18020000  0.12230000  1.0 0.1013908845
C  C36  1  0.11690000  0.19020000  0.16550000  1.0 -0.211386745
C  C37  1  0.56120000  0.83040000  0.02535000  1.0 -0.0857642689
C  C38  1  0.47180000  0.78510000  0.02530000  1.0 -0.1865391431
C  C39  1  0.81980000  0.89120000  0.87770000  1.0 0.1013908845
C  C40  1  0.80980000  0.88310000  0.83450000  1.0 -0.211386745
C  C41  1  0.16960000  0.73080000  0.02535000  1.0 -0.0857642689
C  C42  1  0.21490000  0.68670000  0.02530000  1.0 -0.1865391431
C  C43  1  0.10880000  0.92860000  0.87770000  1.0 0.1013908845
C  C44  1  0.11690000  0.92670000  0.83450000  1.0 -0.211386745
C  C45  1  0.26920000  0.43880000  0.02535000  1.0 -0.0857642689
C  C46  1  0.31330000  0.52820000  0.02530000  1.0 -0.1865391431
C  C47  1  0.07140000  0.18020000  0.87770000  1.0 0.1013908845
C  C48  1  0.07330000  0.19020000  0.83450000  1.0 -0.211386745
C  C49  1  0.00000000  0.15700000  0.81070000  1.0 -0.010316195
C  C50  1  0.15700000  0.00000000  0.81070000  1.0 -0.010316195
C  C51  1  0.84300000  0.84300000  0.81070000  1.0 -0.010316195
C  C52  1  0.15700000  0.15700000  0.18930000  1.0 -0.010316195
C  C53  1  0.84300000  0.00000000  0.18930000  1.0 -0.010316195
C  C54  1  0.00000000  0.84300000  0.18930000  1.0 -0.010316195
C  C55  1  0.85260000  0.14740000  0.00000000  1.0 0.5692955629
C  C56  1  0.80385000  0.19615000  0.00000000  1.0 -0.0332562437
C  C57  1  0.71245000  0.28755000  0.00000000  1.0 0.1676553613
C  C58  1  0.29480000  0.14740000  0.00000000  1.0 0.5692955629
C  C59  1  0.39230000  0.19615000  0.00000000  1.0 -0.0332562437
C  C60  1  0.57510000  0.28755000  0.00000000  1.0 0.1676553613
C  C61  1  0.85260000  0.70520000  0.00000000  1.0 0.5692955629
C  C62  1  0.80385000  0.60770000  0.00000000  1.0 -0.0332562437
C  C63  1  0.71245000  0.42490000  0.00000000  1.0 0.1676553613
C  C64  1  0.14740000  0.85260000  0.00000000  1.0 0.5692955629
C  C65  1  0.19615000  0.80385000  0.00000000  1.0 -0.0332562437
C  C66  1  0.28755000  0.71245000  0.00000000  1.0 0.1676553613
C  C67  1  0.70520000  0.85260000  0.00000000  1.0 0.5692955629
C  C68  1  0.60770000  0.80385000  0.00000000  1.0 -0.0332562437
C  C69  1  0.42490000  0.71245000  0.00000000  1.0 0.1676553613
C  C70  1  0.14740000  0.29480000  0.00000000  1.0 0.5692955629
C  C71  1  0.19615000  0.39230000  0.00000000  1.0 -0.0332562437
C  C72  1  0.28755000  0.57510000  0.00000000  1.0 0.1676553613
C  C73  1  0.26920000  0.83040000  0.52535000  1.0 -0.0857642689
C  C74  1  0.31330000  0.78510000  0.52530000  1.0 -0.1865391431
C  C75  1  0.07140000  0.89120000  0.37770000  1.0 0.1013908845
C  C76  1  0.07330000  0.88310000  0.33450000  1.0 -0.211386745
C  C77  1  0.56120000  0.73080000  0.52535000  1.0 -0.0857642689
C  C78  1  0.47180000  0.68670000  0.52530000  1.0 -0.1865391431
C  C79  1  0.81980000  0.92860000  0.37770000  1.0 0.1013908845
C  C80  1  0.80980000  0.92670000  0.33450000  1.0 -0.211386745
C  C81  1  0.16960000  0.43880000  0.52535000  1.0 -0.0857642689
C  C82  1  0.21490000  0.52820000  0.52530000  1.0 -0.1865391431
C  C83  1  0.10880000  0.18020000  0.37770000  1.0 0.1013908845
C  C84  1  0.11690000  0.19020000  0.33450000  1.0 -0.211386745
C  C85  1  0.56120000  0.83040000  0.47465000  1.0 -0.0857642689
C  C86  1  0.47180000  0.78510000  0.47470000  1.0 -0.1865391431
C  C87  1  0.81980000  0.89120000  0.62230000  1.0 0.1013908845
C  C88  1  0.80980000  0.88310000  0.66550000  1.0 -0.211386745
C  C89  1  0.16960000  0.73080000  0.47465000  1.0 -0.0857642689
C  C90  1  0.21490000  0.68670000  0.47470000  1.0 -0.1865391431
C  C91  1  0.10880000  0.92860000  0.62230000  1.0 0.1013908845
C  C92  1  0.11690000  0.92670000  0.66550000  1.0 -0.211386745
C  C93  1  0.26920000  0.43880000  0.47465000  1.0 -0.0857642689
C  C94  1  0.31330000  0.52820000  0.47470000  1.0 -0.1865391431
C  C95  1  0.07140000  0.18020000  0.62230000  1.0 0.1013908845
C  C96  1  0.07330000  0.19020000  0.66550000  1.0 -0.211386745
C  C97  1  0.73080000  0.16960000  0.47465000  1.0 -0.0857642689
C  C98  1  0.68670000  0.21490000  0.47470000  1.0 -0.1865391431
C  C99  1  0.92860000  0.10880000  0.62230000  1.0 0.1013908845
C  C100  1  0.92670000  0.11690000  0.66550000  1.0 -0.211386745
C  C101  1  0.43880000  0.26920000  0.47465000  1.0 -0.0857642689
C  C102  1  0.52820000  0.31330000  0.47470000  1.0 -0.1865391431
C  C103  1  0.18020000  0.07140000  0.62230000  1.0 0.1013908845
C  C104  1  0.19020000  0.07330000  0.66550000  1.0 -0.211386745
C  C105  1  0.83040000  0.56120000  0.47465000  1.0 -0.0857642689
C  C106  1  0.78510000  0.47180000  0.47470000  1.0 -0.1865391431
C  C107  1  0.89120000  0.81980000  0.62230000  1.0 0.1013908845
C  C108  1  0.88310000  0.80980000  0.66550000  1.0 -0.211386745
C  C109  1  0.43880000  0.16960000  0.52535000  1.0 -0.0857642689
C  C110  1  0.52820000  0.21490000  0.52530000  1.0 -0.1865391431
C  C111  1  0.18020000  0.10880000  0.37770000  1.0 0.1013908845
C  C112  1  0.19020000  0.11690000  0.33450000  1.0 -0.211386745
C  C113  1  0.83040000  0.26920000  0.52535000  1.0 -0.0857642689
C  C114  1  0.78510000  0.31330000  0.52530000  1.0 -0.1865391431
C  C115  1  0.89120000  0.07140000  0.37770000  1.0 0.1013908845
C  C116  1  0.88310000  0.07330000  0.33450000  1.0 -0.211386745
C  C117  1  0.73080000  0.56120000  0.52535000  1.0 -0.0857642689
C  C118  1  0.68670000  0.47180000  0.52530000  1.0 -0.1865391431
C  C119  1  0.92860000  0.81980000  0.37770000  1.0 0.1013908845
C  C120  1  0.92670000  0.80980000  0.33450000  1.0 -0.211386745
C  C121  1  0.00000000  0.84300000  0.31070000  1.0 -0.010316195
C  C122  1  0.84300000  0.00000000  0.31070000  1.0 -0.010316195
C  C123  1  0.15700000  0.15700000  0.31070000  1.0 -0.010316195
C  C124  1  0.84300000  0.84300000  0.68930000  1.0 -0.010316195
C  C125  1  0.15700000  0.00000000  0.68930000  1.0 -0.010316195
C  C126  1  0.00000000  0.15700000  0.68930000  1.0 -0.010316195
C  C127  1  0.14740000  0.85260000  0.50000000  1.0 0.5692955629
C  C128  1  0.19615000  0.80385000  0.50000000  1.0 -0.0332562437
C  C129  1  0.28755000  0.71245000  0.50000000  1.0 0.1676553613
C  C130  1  0.70520000  0.85260000  0.50000000  1.0 0.5692955629
C  C131  1  0.60770000  0.80385000  0.50000000  1.0 -0.0332562437
C  C132  1  0.42490000  0.71245000  0.50000000  1.0 0.1676553613
C  C133  1  0.14740000  0.29480000  0.50000000  1.0 0.5692955629
C  C134  1  0.19615000  0.39230000  0.50000000  1.0 -0.0332562437
C  C135  1  0.28755000  0.57510000  0.50000000  1.0 0.1676553613
C  C136  1  0.85260000  0.14740000  0.50000000  1.0 0.5692955629
C  C137  1  0.80385000  0.19615000  0.50000000  1.0 -0.0332562437
C  C138  1  0.71245000  0.28755000  0.50000000  1.0 0.1676553613
C  C139  1  0.29480000  0.14740000  0.50000000  1.0 0.5692955629
C  C140  1  0.39230000  0.19615000  0.50000000  1.0 -0.0332562437
C  C141  1  0.57510000  0.28755000  0.50000000  1.0 0.1676553613
C  C142  1  0.85260000  0.70520000  0.50000000  1.0 0.5692955629
C  C143  1  0.80385000  0.60770000  0.50000000  1.0 -0.0332562437
C  C144  1  0.71245000  0.42490000  0.50000000  1.0 0.1676553613
N  N1  1  0.00000000  0.14280000  0.90000000  1.0 -0.211386745
N  N2  1  0.14280000  0.00000000  0.90000000  1.0 -0.211386745
N  N3  1  0.85720000  0.85720000  0.90000000  1.0 -0.211386745
N  N4  1  0.14280000  0.14280000  0.10000000  1.0 -0.211386745
N  N5  1  0.85720000  0.00000000  0.10000000  1.0 -0.211386745
N  N6  1  0.00000000  0.85720000  0.10000000  1.0 -0.211386745
N  N7  1  0.66666667  0.33333333  0.00000000  1.0 -0.1634399218
N  N8  1  0.33333333  0.66666667  0.00000000  1.0 -0.1634399218
N  N9  1  0.00000000  0.85720000  0.40000000  1.0 -0.211386745
N  N10  1  0.85720000  0.00000000  0.40000000  1.0 -0.211386745
N  N11  1  0.14280000  0.14280000  0.40000000  1.0 -0.211386745
N  N12  1  0.85720000  0.85720000  0.60000000  1.0 -0.211386745
N  N13  1  0.14280000  0.00000000  0.60000000  1.0 -0.211386745
N  N14  1  0.00000000  0.14280000  0.60000000  1.0 -0.211386745
N  N15  1  0.33333333  0.66666667  0.50000000  1.0 -0.1634399218
N  N16  1  0.66666667  0.33333333  0.50000000  1.0 -0.1634399218
O  O1  1  0.90830000  0.16630000  0.97134000  1.0 -0.5024882007
O  O2  1  0.25800000  0.09170000  0.97134000  1.0 -0.5024882007
O  O3  1  0.83370000  0.74200000  0.97134000  1.0 -0.5024882007
O  O4  1  0.25800000  0.16630000  0.02866000  1.0 -0.5024882007
O  O5  1  0.83370000  0.09170000  0.02866000  1.0 -0.5024882007
O  O6  1  0.90830000  0.74200000  0.02866000  1.0 -0.5024882007
O  O7  1  0.09170000  0.83370000  0.02866000  1.0 -0.5024882007
O  O8  1  0.74200000  0.90830000  0.02866000  1.0 -0.5024882007
O  O9  1  0.16630000  0.25800000  0.02866000  1.0 -0.5024882007
O  O10  1  0.74200000  0.83370000  0.97134000  1.0 -0.5024882007
O  O11  1  0.16630000  0.90830000  0.97134000  1.0 -0.5024882007
O  O12  1  0.09170000  0.25800000  0.97134000  1.0 -0.5024882007
O  O13  1  0.09760000  0.09760000  0.96714000  1.0 -0.6705730829
O  O14  1  0.00000000  0.90240000  0.96714000  1.0 -0.6705730829
O  O15  1  0.90240000  0.00000000  0.96714000  1.0 -0.6705730829
O  O16  1  0.00000000  0.09760000  0.03286000  1.0 -0.6705730829
O  O17  1  0.90240000  0.90240000  0.03286000  1.0 -0.6705730829
O  O18  1  0.09760000  0.00000000  0.03286000  1.0 -0.6705730829
O  O19  1  0.09170000  0.83370000  0.47134000  1.0 -0.5024882007
O  O20  1  0.74200000  0.90830000  0.47134000  1.0 -0.5024882007
O  O21  1  0.16630000  0.25800000  0.47134000  1.0 -0.5024882007
O  O22  1  0.74200000  0.83370000  0.52866000  1.0 -0.5024882007
O  O23  1  0.16630000  0.90830000  0.52866000  1.0 -0.5024882007
O  O24  1  0.09170000  0.25800000  0.52866000  1.0 -0.5024882007
O  O25  1  0.90830000  0.16630000  0.52866000  1.0 -0.5024882007
O  O26  1  0.25800000  0.09170000  0.52866000  1.0 -0.5024882007
O  O27  1  0.83370000  0.74200000  0.52866000  1.0 -0.5024882007
O  O28  1  0.25800000  0.16630000  0.47134000  1.0 -0.5024882007
O  O29  1  0.83370000  0.09170000  0.47134000  1.0 -0.5024882007
O  O30  1  0.90830000  0.74200000  0.47134000  1.0 -0.5024882007
O  O31  1  0.90240000  0.90240000  0.46714000  1.0 -0.6705730829
O  O32  1  0.00000000  0.09760000  0.46714000  1.0 -0.6705730829
O  O33  1  0.09760000  0.00000000  0.46714000  1.0 -0.6705730829
O  O34  1  0.00000000  0.90240000  0.53286000  1.0 -0.6705730829
O  O35  1  0.09760000  0.09760000  0.53286000  1.0 -0.6705730829
O  O36  1  0.90240000  0.00000000  0.53286000  1.0 -0.6705730829
