# DDEC6 charges by PACMAN v1.1 (https://github.com/mtap-research/PACMAN-charge/)
data_FUVVIE_FSR_pacman
_symmetry_space_group_name_H-M   'P 1'
_cell_length_a   17.84520000
_cell_length_b   13.95740000
_cell_length_c   19.82770000
_cell_angle_alpha   90.00000000
_cell_angle_beta   93.84700000
_cell_angle_gamma   90.00000000
_symmetry_Int_Tables_number   1
_chemical_formula_structural   Cd3H56C76(N5O7)2
_chemical_formula_sum   'Cd6 H112 C152 N20 O28'
_cell_volume   4927.40901166
_cell_formula_units_Z   2
loop_
 _symmetry_equiv_pos_site_id
 _symmetry_equiv_pos_as_xyz
  1  'x, y, z'
loop_
 _atom_site_type_symbol
 _atom_site_label
 _atom_site_symmetry_multiplicity
 _atom_site_fract_x
 _atom_site_fract_y
 _atom_site_fract_z
 _atom_site_occupancy
 _atom_site_charge
Cd  Cd1  1  0.49132000  0.00142000  0.24485000  1.0 0.9093112438
Cd  Cd2  1  0.27452000  0.04879000  0.17087000  1.0 0.8474797695
Cd  Cd3  1  0.70937000  0.99795000  0.32768000  1.0 0.8474797695
Cd  Cd4  1  0.50868000  0.50142000  0.75515000  1.0 0.9093112438
Cd  Cd5  1  0.72548000  0.54879000  0.82913000  1.0 0.8474797695
Cd  Cd6  1  0.29063000  0.49795000  0.67232000  1.0 0.8474797695
H  H1  1  0.77609000  0.04135000  0.14504000  1.0 0.2675614297
H  H2  1  0.50115000  0.35398000  0.16354000  1.0 0.1208966989
H  H3  1  0.20709000  0.02602000  0.36302000  1.0 0.2675614297
H  H4  1  0.50189000  0.82993000  0.13682000  1.0 0.1093039938
H  H5  1  0.58495000  0.07006000  0.03903000  1.0 0.1093039938
H  H6  1  0.65952000  0.07629000  0.99916000  1.0 0.1093039938
H  H7  1  0.47830000  0.33798000  0.36418000  1.0 0.1208966989
H  H8  1  0.44867000  0.03315000  0.07556000  1.0 0.0986797978
H  H9  1  0.47211000  0.64615000  0.32377000  1.0 0.1208966989
H  H10  1  0.66893000  0.94753000  0.07324000  1.0 0.1093039938
H  H11  1  0.48407000  0.17096000  0.35470000  1.0 0.0922550946
H  H12  1  0.53048000  0.99007000  0.41672000  1.0 0.0922550946
H  H13  1  0.31040000  0.88426000  0.39065000  1.0 0.0922550946
H  H14  1  0.47831000  0.49440000  0.31386000  1.0 0.1208966989
H  H15  1  0.47503000  0.81598000  0.32646000  1.0 0.0986797978
H  H16  1  0.29822000  0.21489000  0.27933000  1.0 0.0986797978
H  H17  1  0.29996000  0.38153000  0.29036000  1.0 0.1208966989
H  H18  1  0.69675000  0.50252000  0.25419000  1.0 0.1208966989
H  H19  1  0.29797000  0.54221000  0.24568000  1.0 0.1208966989
H  H20  1  0.71588000  0.82588000  0.21927000  1.0 0.1093039938
H  H21  1  0.49864000  0.50490000  0.17755000  1.0 0.1208966989
H  H22  1  0.31066000  0.97400000  0.49440000  1.0 0.1208966989
H  H23  1  0.39056000  0.95440000  0.46562000  1.0 0.1093039938
H  H24  1  0.47221000  0.48046000  0.03279000  1.0 0.1276729904
H  H25  1  0.49608000  0.19408000  0.00807000  1.0 0.1276729904
H  H26  1  0.29720000  0.87715000  0.07445000  1.0 0.1093039938
H  H27  1  0.50305000  0.19037000  0.15994000  1.0 0.0986797978
H  H28  1  0.00787000  0.10729000  0.20076000  1.0 0.1208966989
H  H29  1  0.69431000  0.49118000  0.39212000  1.0 0.1208966989
H  H30  1  0.68264000  0.81150000  0.41079000  1.0 0.0986797978
H  H31  1  0.87800000  0.09271000  0.17048000  1.0 0.1208966989
H  H32  1  0.28306000  0.40547000  0.08723000  1.0 0.137745041
H  H33  1  0.72044000  0.37632000  0.10895000  1.0 0.2907738551
H  H34  1  0.28097000  0.23734000  0.08232000  1.0 0.1208966989
H  H35  1  0.27031000  0.69247000  0.25882000  1.0 0.1208966989
H  H36  1  0.25120000  0.85637000  0.26145000  1.0 0.1093039938
H  H37  1  0.97175000  0.99224000  0.28015000  1.0 0.1208966989
H  H38  1  0.27860000  0.55039000  0.10626000  1.0 0.1208966989
H  H39  1  0.27360000  0.16604000  0.41269000  1.0 0.1208966989
H  H40  1  0.49989000  0.03114000  0.53743000  1.0 0.1093039938
H  H41  1  0.75408000  0.20813000  0.10438000  1.0 0.1208966989
H  H42  1  0.28694000  0.71519000  0.06026000  1.0 0.1276729904
H  H43  1  0.10069000  0.97328000  0.30494000  1.0 0.1276729904
H  H44  1  0.48363000  0.36363000  0.50008000  1.0 0.1208966989
H  H45  1  0.60154000  0.13135000  0.56517000  1.0 0.1093039938
H  H46  1  0.34243000  0.31434000  0.43764000  1.0 0.2907738551
H  H47  1  0.50455000  0.66520000  0.12771000  1.0 0.137745041
H  H48  1  0.59037000  0.29456000  0.55117000  1.0 0.1093039938
H  H49  1  0.70738000  0.66677000  0.20604000  1.0 0.137745041
H  H50  1  0.67440000  0.64229000  0.40437000  1.0 0.1276729904
H  H51  1  0.05155000  0.98361000  0.02516000  1.0 0.1208966989
H  H52  1  0.70211000  0.33783000  0.44241000  1.0 0.137745041
H  H53  1  0.71251000  0.17049000  0.43220000  1.0 0.1208966989
H  H54  1  0.92407000  0.97446000  0.99244000  1.0 0.1208966989
H  H55  1  0.06251000  0.90761000  0.49620000  1.0 0.1093039938
H  H56  1  0.93377000  0.93648000  0.47097000  1.0 0.1208966989
H  H57  1  0.22391000  0.54135000  0.85496000  1.0 0.2675614297
H  H58  1  0.49885000  0.85398000  0.83646000  1.0 0.1208966989
H  H59  1  0.79291000  0.52602000  0.63698000  1.0 0.2675614297
H  H60  1  0.49811000  0.32993000  0.86318000  1.0 0.1093039938
H  H61  1  0.41505000  0.57006000  0.96097000  1.0 0.1093039938
H  H62  1  0.34048000  0.57629000  0.00084000  1.0 0.1093039938
H  H63  1  0.52170000  0.83798000  0.63582000  1.0 0.1208966989
H  H64  1  0.55133000  0.53315000  0.92444000  1.0 0.0986797978
H  H65  1  0.52789000  0.14615000  0.67623000  1.0 0.1208966989
H  H66  1  0.33107000  0.44753000  0.92676000  1.0 0.1093039938
H  H67  1  0.51593000  0.67096000  0.64530000  1.0 0.0922550946
H  H68  1  0.46952000  0.49007000  0.58328000  1.0 0.0922550946
H  H69  1  0.68960000  0.38426000  0.60935000  1.0 0.0922550946
H  H70  1  0.52169000  0.99440000  0.68614000  1.0 0.1208966989
H  H71  1  0.52497000  0.31598000  0.67354000  1.0 0.0986797978
H  H72  1  0.70178000  0.71489000  0.72067000  1.0 0.0986797978
H  H73  1  0.70004000  0.88153000  0.70964000  1.0 0.1208966989
H  H74  1  0.30325000  0.00252000  0.74581000  1.0 0.1208966989
H  H75  1  0.70203000  0.04221000  0.75432000  1.0 0.1208966989
H  H76  1  0.28412000  0.32588000  0.78073000  1.0 0.1093039938
H  H77  1  0.50136000  0.00490000  0.82245000  1.0 0.1208966989
H  H78  1  0.68934000  0.47400000  0.50560000  1.0 0.1208966989
H  H79  1  0.60944000  0.45440000  0.53438000  1.0 0.1093039938
H  H80  1  0.52779000  0.98046000  0.96721000  1.0 0.1276729904
H  H81  1  0.50392000  0.69408000  0.99193000  1.0 0.1276729904
H  H82  1  0.70280000  0.37715000  0.92555000  1.0 0.1093039938
H  H83  1  0.49695000  0.69037000  0.84006000  1.0 0.0986797978
H  H84  1  0.99213000  0.60729000  0.79924000  1.0 0.1208966989
H  H85  1  0.30569000  0.99118000  0.60788000  1.0 0.1208966989
H  H86  1  0.31736000  0.31150000  0.58921000  1.0 0.0986797978
H  H87  1  0.12200000  0.59271000  0.82952000  1.0 0.1208966989
H  H88  1  0.71694000  0.90547000  0.91277000  1.0 0.137745041
H  H89  1  0.27956000  0.87632000  0.89105000  1.0 0.2907738551
H  H90  1  0.71903000  0.73734000  0.91768000  1.0 0.1208966989
H  H91  1  0.72969000  0.19247000  0.74118000  1.0 0.1208966989
H  H92  1  0.74880000  0.35637000  0.73855000  1.0 0.1093039938
H  H93  1  0.02825000  0.49224000  0.71985000  1.0 0.1208966989
H  H94  1  0.72140000  0.05039000  0.89374000  1.0 0.1208966989
H  H95  1  0.72640000  0.66604000  0.58731000  1.0 0.1208966989
H  H96  1  0.50011000  0.53114000  0.46257000  1.0 0.1093039938
H  H97  1  0.24592000  0.70813000  0.89562000  1.0 0.1208966989
H  H98  1  0.71306000  0.21519000  0.93974000  1.0 0.1276729904
H  H99  1  0.89931000  0.47328000  0.69506000  1.0 0.1208966989
H  H100  1  0.51637000  0.86363000  0.49992000  1.0 0.1208966989
H  H101  1  0.39846000  0.63135000  0.43483000  1.0 0.1093039938
H  H102  1  0.65757000  0.81434000  0.56236000  1.0 0.2907738551
H  H103  1  0.49545000  0.16520000  0.87229000  1.0 0.137745041
H  H104  1  0.40963000  0.79456000  0.44883000  1.0 0.1093039938
H  H105  1  0.29262000  0.16677000  0.79396000  1.0 0.137745041
H  H106  1  0.32560000  0.14229000  0.59563000  1.0 0.1208966989
H  H107  1  0.94845000  0.48361000  0.97484000  1.0 0.1208966989
H  H108  1  0.29789000  0.83783000  0.55759000  1.0 0.137745041
H  H109  1  0.28749000  0.67049000  0.56780000  1.0 0.1208966989
H  H110  1  0.07593000  0.47446000  0.00756000  1.0 0.1208966989
H  H111  1  0.93749000  0.40761000  0.50380000  1.0 0.1208966989
H  H112  1  0.06623000  0.43648000  0.52903000  1.0 0.1208966989
C  C1  1  0.34020000  0.99570000  0.32910000  1.0 0.5645003706
C  C2  1  0.49690000  0.31860000  0.20410000  1.0 -0.175785555
C  C3  1  0.64360000  0.01240000  0.16200000  1.0 0.5681630164
C  C4  1  0.48940000  0.36770000  0.26520000  1.0 0.1581075479
C  C5  1  0.49720000  0.79230000  0.17620000  1.0 0.0802802383
C  C6  1  0.49120000  0.63830000  0.22680000  1.0 0.1460674196
C  C7  1  0.63920000  0.08540000  0.04400000  1.0 -0.2790082406
C  C8  1  0.48400000  0.30980000  0.32120000  1.0 -0.2290154011
C  C9  1  0.40260000  0.03990000  0.09640000  1.0 0.439401844
C  C10  1  0.48030000  0.68170000  0.28410000  1.0 -0.1898379343
C  C11  1  0.67770000  0.01260000  0.09340000  1.0 0.0082843923
C  C12  1  0.48670000  0.20860000  0.31500000  1.0 0.0986797978
C  C13  1  0.12400000  0.05220000  0.13600000  1.0 0.5404028683
C  C14  1  0.57760000  0.98980000  0.39720000  1.0 0.4264449417
C  C15  1  0.88820000  0.02550000  0.07900000  1.0 -0.0285148712
C  C16  1  0.80610000  0.01220000  0.05650000  1.0 0.4623193457
C  C17  1  0.30470000  0.95550000  0.39170000  1.0 0.001711044
C  C18  1  0.48600000  0.46880000  0.27050000  1.0 -0.1552732796
C  C19  1  0.29010000  0.41360000  0.18920000  1.0 0.1581075479
C  C20  1  0.69310000  0.63350000  0.30500000  1.0 0.1581075479
C  C21  1  0.48120000  0.78430000  0.28480000  1.0 0.0802802383
C  C22  1  0.29430000  0.25360000  0.23980000  1.0 0.0986797978
C  C23  1  0.29550000  0.35370000  0.24650000  1.0 -0.2229487857
C  C24  1  0.69490000  0.52770000  0.29860000  1.0 -0.1298776826
C  C25  1  0.29100000  0.51810000  0.20090000  1.0 -0.1399000794
C  C26  1  0.70790000  0.78760000  0.25780000  1.0 0.0530077606
C  C27  1  0.49250000  0.53070000  0.22120000  1.0 -0.1298776826
C  C28  1  0.34300000  0.99040000  0.45740000  1.0 -0.2852485091
C  C29  1  0.59070000  0.26040000  0.04800000  1.0 -0.0368104041
C  C30  1  0.62070000  0.34850000  0.06840000  1.0 0.1581075479
C  C31  1  0.57650000  0.43050000  0.06270000  1.0 -0.1969834146
C  C32  1  0.50240000  0.42440000  0.03670000  1.0 -0.1711015426
C  C33  1  0.47240000  0.33630000  0.01630000  1.0 -0.068029758
C  C34  1  0.51660000  0.25430000  0.02200000  1.0 -0.1898379343
C  C35  1  0.28460000  0.83990000  0.11220000  1.0 0.0728232428
C  C36  1  0.49820000  0.22090000  0.20220000  1.0 0.043309093
C  C37  1  0.99070000  0.07880000  0.15900000  1.0 -0.0997400983
C  C38  1  0.69410000  0.46610000  0.34760000  1.0 -0.1192857925
C  C39  1  0.68900000  0.78060000  0.36890000  1.0 0.1093039938
C  C40  1  0.91360000  0.06940000  0.14090000  1.0 -0.1399000794
C  C41  1  0.28550000  0.36900000  0.12780000  1.0 -0.1898379343
C  C42  1  0.42560000  0.23730000  0.48380000  1.0 0.1581075479
C  C43  1  0.85870000  0.98360000  0.35750000  1.0 0.5404028683
C  C44  1  0.68930000  0.31500000  0.27870000  1.0 -0.175785555
C  C45  1  0.28440000  0.26750000  0.12540000  1.0 0.0922550946
C  C46  1  0.27040000  0.72880000  0.21830000  1.0 -0.213245234
C  C47  1  0.26250000  0.82810000  0.21980000  1.0 0.0630990505
C  C48  1  0.04090000  0.04530000  0.11410000  1.0 0.0082843923
C  C49  1  0.64750000  0.18940000  0.06290000  1.0 0.0267914883
C  C50  1  0.99040000  0.97830000  0.32510000  1.0 -0.0997400983
C  C51  1  0.28250000  0.57700000  0.15050000  1.0 -0.1091860891
C  C52  1  0.32140000  0.17110000  0.43670000  1.0 -0.0905286656
C  C53  1  0.69450000  0.21640000  0.27900000  1.0 0.2071291669
C  C54  1  0.27820000  0.68340000  0.15640000  1.0 0.1460674196
C  C55  1  0.49680000  0.09760000  0.52740000  1.0 -0.1711015426
C  C56  1  0.70720000  0.23600000  0.08980000  1.0 -0.0905286656
C  C57  1  0.69300000  0.36220000  0.34070000  1.0 0.1581075479
C  C58  1  0.28370000  0.74160000  0.10410000  1.0 -0.1969834146
C  C59  1  0.06720000  0.96470000  0.33970000  1.0 -0.1192857925
C  C60  1  0.48640000  0.29620000  0.50600000  1.0 -0.2229487857
C  C61  1  0.55590000  0.15750000  0.54570000  1.0 -0.1298776826
C  C62  1  0.36090000  0.09620000  0.46220000  1.0 0.043309093
C  C63  1  0.09510000  0.93950000  0.40240000  1.0 -0.0285148712
C  C64  1  0.49850000  0.69420000  0.17030000  1.0 -0.213245234
C  C65  1  0.54950000  0.25460000  0.53620000  1.0 -0.0997400983
C  C66  1  0.70350000  0.69370000  0.24970000  1.0 -0.1969834146
C  C67  1  0.94170000  0.97160000  0.37580000  1.0 0.0082843923
C  C68  1  0.68400000  0.67850000  0.36530000  1.0 -0.213245234
C  C69  1  0.43060000  0.13640000  0.49310000  1.0 -0.068029758
C  C70  1  0.01610000  0.00650000  0.05500000  1.0 -0.0997400983
C  C71  1  0.17610000  0.91880000  0.41830000  1.0 0.4623193457
C  C72  1  0.70050000  0.30840000  0.39910000  1.0 -0.1969834146
C  C73  1  0.70560000  0.20770000  0.39220000  1.0 0.0922550946
C  C74  1  0.93980000  0.99870000  0.03590000  1.0 -0.0997400983
C  C75  1  0.04510000  0.92700000  0.45210000  1.0 -0.0997400983
C  C76  1  0.96780000  0.94460000  0.43660000  1.0 -0.0997400983
C  C77  1  0.65980000  0.49570000  0.67090000  1.0 0.5645003706
C  C78  1  0.50310000  0.81860000  0.79590000  1.0 -0.175785555
C  C79  1  0.35640000  0.51240000  0.83800000  1.0 0.5681630164
C  C80  1  0.51060000  0.86770000  0.73480000  1.0 0.1581075479
C  C81  1  0.50280000  0.29230000  0.82380000  1.0 0.0802802383
C  C82  1  0.50880000  0.13830000  0.77320000  1.0 0.1460674196
C  C83  1  0.36080000  0.58540000  0.95600000  1.0 -0.2790082406
C  C84  1  0.51600000  0.80980000  0.67880000  1.0 -0.2290154011
C  C85  1  0.59740000  0.53990000  0.90360000  1.0 0.439401844
C  C86  1  0.51970000  0.18170000  0.71590000  1.0 -0.1898379343
C  C87  1  0.32230000  0.51260000  0.90660000  1.0 0.0082843923
C  C88  1  0.51330000  0.70860000  0.68500000  1.0 0.0986797978
C  C89  1  0.87600000  0.55220000  0.86400000  1.0 0.5404028683
C  C90  1  0.42240000  0.48980000  0.60280000  1.0 0.4264449417
C  C91  1  0.11180000  0.52550000  0.92100000  1.0 -0.0285148712
C  C92  1  0.19390000  0.51220000  0.94350000  1.0 0.4623193457
C  C93  1  0.69530000  0.45550000  0.60830000  1.0 0.001711044
C  C94  1  0.51400000  0.96880000  0.72950000  1.0 -0.1552732796
C  C95  1  0.70990000  0.91360000  0.81080000  1.0 0.1581075479
C  C96  1  0.30690000  0.13350000  0.69500000  1.0 0.1581075479
C  C97  1  0.51880000  0.28430000  0.71520000  1.0 0.0802802383
C  C98  1  0.70570000  0.75360000  0.76020000  1.0 0.0986797978
C  C99  1  0.70450000  0.85370000  0.75350000  1.0 -0.2229487857
C  C100  1  0.30510000  0.02770000  0.70140000  1.0 -0.1298776826
C  C101  1  0.70900000  0.01810000  0.79910000  1.0 -0.1399000794
C  C102  1  0.29210000  0.28760000  0.74220000  1.0 0.0530077606
C  C103  1  0.50750000  0.03070000  0.77880000  1.0 -0.1298776826
C  C104  1  0.65700000  0.49040000  0.54260000  1.0 -0.2790082406
C  C105  1  0.40930000  0.76040000  0.95200000  1.0 -0.0368104041
C  C106  1  0.37930000  0.84850000  0.93160000  1.0 0.1581075479
C  C107  1  0.42350000  0.93050000  0.93730000  1.0 -0.1969834146
C  C108  1  0.49760000  0.92440000  0.96330000  1.0 -0.1711015426
C  C109  1  0.52760000  0.83630000  0.98370000  1.0 -0.068029758
C  C110  1  0.48340000  0.75430000  0.97800000  1.0 -0.1898379343
C  C111  1  0.71540000  0.33990000  0.88780000  1.0 0.0728232428
C  C112  1  0.50180000  0.72090000  0.79780000  1.0 0.043309093
C  C113  1  0.00930000  0.57880000  0.84100000  1.0 -0.0997400983
C  C114  1  0.30590000  0.96610000  0.65240000  1.0 -0.1192857925
C  C115  1  0.31100000  0.28060000  0.63110000  1.0 0.1093039938
C  C116  1  0.08640000  0.56940000  0.85910000  1.0 -0.1399000794
C  C117  1  0.71450000  0.86900000  0.87220000  1.0 -0.1898379343
C  C118  1  0.57440000  0.73730000  0.51620000  1.0 0.1581075479
C  C119  1  0.14130000  0.48360000  0.64250000  1.0 0.5404028683
C  C120  1  0.31070000  0.81500000  0.72130000  1.0 -0.175785555
C  C121  1  0.71560000  0.76750000  0.87460000  1.0 0.0922550946
C  C122  1  0.72960000  0.22880000  0.78170000  1.0 -0.213245234
C  C123  1  0.73750000  0.32810000  0.78020000  1.0 0.0630990505
C  C124  1  0.95910000  0.54530000  0.88590000  1.0 0.0082843923
C  C125  1  0.35250000  0.68940000  0.93710000  1.0 0.0267914883
C  C126  1  0.00960000  0.47830000  0.67490000  1.0 -0.0997400983
C  C127  1  0.71750000  0.07700000  0.84950000  1.0 -0.1091860891
C  C128  1  0.67860000  0.67110000  0.56330000  1.0 -0.0905286656
C  C129  1  0.30550000  0.71640000  0.72100000  1.0 0.2071291669
C  C130  1  0.72180000  0.18340000  0.84360000  1.0 0.1460674196
C  C131  1  0.50320000  0.59760000  0.47260000  1.0 -0.1711015426
C  C132  1  0.29280000  0.73600000  0.91020000  1.0 -0.0905286656
C  C133  1  0.30700000  0.86220000  0.65930000  1.0 0.1581075479
C  C134  1  0.71630000  0.24160000  0.89590000  1.0 -0.1969834146
C  C135  1  0.93280000  0.46470000  0.66030000  1.0 -0.1192857925
C  C136  1  0.51360000  0.79620000  0.49400000  1.0 -0.2229487857
C  C137  1  0.44410000  0.65750000  0.45430000  1.0 -0.1298776826
C  C138  1  0.63910000  0.59620000  0.53780000  1.0 0.043309093
C  C139  1  0.90490000  0.43950000  0.59760000  1.0 -0.0248363954
C  C140  1  0.50150000  0.19420000  0.82970000  1.0 -0.213245234
C  C141  1  0.45050000  0.75460000  0.46380000  1.0 -0.0997400983
C  C142  1  0.29650000  0.19370000  0.75030000  1.0 -0.1898379343
C  C143  1  0.05830000  0.47160000  0.62420000  1.0 0.0082843923
C  C144  1  0.31600000  0.17850000  0.63470000  1.0 -0.213245234
C  C145  1  0.56940000  0.63640000  0.50690000  1.0 -0.068029758
C  C146  1  0.98390000  0.50650000  0.94500000  1.0 -0.0997400983
C  C147  1  0.82390000  0.41880000  0.58170000  1.0 0.4623193457
C  C148  1  0.29950000  0.80840000  0.60090000  1.0 -0.1969834146
C  C149  1  0.29440000  0.70770000  0.60780000  1.0 0.0922550946
C  C150  1  0.06020000  0.49870000  0.96410000  1.0 -0.0997400983
C  C151  1  0.95490000  0.42700000  0.54790000  1.0 -0.0997400983
C  C152  1  0.03220000  0.44460000  0.56340000  1.0 -0.0997400983
N  N1  1  0.48970000  0.83550000  0.23260000  1.0 -0.213245234
N  N2  1  0.70190000  0.83190000  0.31700000  1.0 -0.2229487857
N  N3  1  0.75790000  0.02470000  0.10440000  1.0 -0.3805592866
N  N4  1  0.26970000  0.88680000  0.16730000  1.0 -0.2290154011
N  N5  1  0.28800000  0.21210000  0.18040000  1.0 -0.2290154011
N  N6  1  0.22430000  0.97640000  0.38660000  1.0 -0.3932680101
N  N7  1  0.49270000  0.16510000  0.25800000  1.0 -0.2586930901
N  N8  1  0.70150000  0.16260000  0.33430000  1.0 -0.175785555
N  N9  1  0.68940000  0.33170000  0.09270000  1.0 -0.1969834146
N  N10  1  0.35900000  0.25700000  0.44960000  1.0 -0.2519056559
N  N11  1  0.51030000  0.33550000  0.76740000  1.0 -0.213245234
N  N12  1  0.29810000  0.33190000  0.68300000  1.0 -0.2229487857
N  N13  1  0.24210000  0.52470000  0.89560000  1.0 -0.3805592866
N  N14  1  0.73030000  0.38680000  0.83270000  1.0 -0.2290154011
N  N15  1  0.71200000  0.71210000  0.81960000  1.0 -0.2290154011
N  N16  1  0.77570000  0.47640000  0.61340000  1.0 -0.3932680101
N  N17  1  0.50730000  0.66510000  0.74200000  1.0 -0.2586930901
N  N18  1  0.29850000  0.66260000  0.66570000  1.0 -0.175785555
N  N19  1  0.31060000  0.83170000  0.90730000  1.0 -0.1969834146
N  N20  1  0.64100000  0.75700000  0.55040000  1.0 -0.2519056559
O  O1  1  0.29800000  0.03990000  0.28610000  1.0 -0.5633142204
O  O2  1  0.40130000  0.02220000  0.15940000  1.0 -0.5495580406
O  O3  1  0.40860000  0.98050000  0.32690000  1.0 -0.5711875171
O  O4  1  0.57330000  0.01080000  0.15990000  1.0 -0.5711875171
O  O5  1  0.57910000  0.99210000  0.33290000  1.0 -0.5495580406
O  O6  1  0.68790000  0.01330000  0.21210000  1.0 -0.5302691669
O  O7  1  0.63610000  0.98730000  0.43490000  1.0 -0.4980928213
O  O8  1  0.34630000  0.06560000  0.06150000  1.0 -0.468725285
O  O9  1  0.17030000  0.05060000  0.09010000  1.0 -0.5495580406
O  O10  1  0.14480000  0.05970000  0.19680000  1.0 -0.5495580406
O  O11  1  0.83600000  0.99330000  0.29850000  1.0 -0.5302691669
O  O12  1  0.81450000  0.98700000  0.40480000  1.0 -0.5495580406
O  O13  1  0.78600000  0.99060000  0.99930000  1.0 -0.4608582467
O  O14  1  0.19950000  0.85820000  0.46120000  1.0 -0.5079341144
O  O15  1  0.70200000  0.53990000  0.71390000  1.0 -0.5633142204
O  O16  1  0.59870000  0.52220000  0.84060000  1.0 -0.5495580406
O  O17  1  0.59140000  0.48050000  0.67310000  1.0 -0.5711875171
O  O18  1  0.42670000  0.51080000  0.84010000  1.0 -0.5711875171
O  O19  1  0.42090000  0.49210000  0.66710000  1.0 -0.5495580406
O  O20  1  0.31210000  0.51330000  0.78790000  1.0 -0.5302691669
O  O21  1  0.36390000  0.48730000  0.56510000  1.0 -0.4980928213
O  O22  1  0.65370000  0.56560000  0.93850000  1.0 -0.468725285
O  O23  1  0.82970000  0.55060000  0.90990000  1.0 -0.5495580406
O  O24  1  0.85520000  0.55970000  0.80320000  1.0 -0.5495580406
O  O25  1  0.16400000  0.49330000  0.70150000  1.0 -0.5302691669
O  O26  1  0.18550000  0.48700000  0.59520000  1.0 -0.5495580406
O  O27  1  0.21400000  0.49060000  0.00070000  1.0 -0.4608582467
O  O28  1  0.80050000  0.35820000  0.53880000  1.0 -0.5079341144
