# DDEC6 charges by PACMAN v1.1 (https://github.com/mtap-research/PACMAN-charge/)
data_FUVVUQ_ASR_pacman
_symmetry_space_group_name_H-M   'P 1'
_cell_length_a   9.63000000
_cell_length_b   13.86000000
_cell_length_c   22.86000000
_cell_angle_alpha   97.70000000
_cell_angle_beta   97.70000000
_cell_angle_gamma   90.94000000
_symmetry_Int_Tables_number   1
_chemical_formula_structural   Cd2H45C59(N3O5)2
_chemical_formula_sum   'Cd4 H90 C118 N12 O20'
_cell_volume   2994.55556459
_cell_formula_units_Z   2
loop_
 _symmetry_equiv_pos_site_id
 _symmetry_equiv_pos_as_xyz
  1  'x, y, z'
loop_
 _atom_site_type_symbol
 _atom_site_label
 _atom_site_symmetry_multiplicity
 _atom_site_fract_x
 _atom_site_fract_y
 _atom_site_fract_z
 _atom_site_occupancy
 _atom_site_charge
Cd  Cd1  1  0.87253000  0.44254000  0.68390000  1.0 0.8590990576
Cd  Cd2  1  0.12428000  0.59994000  0.61147000  1.0 0.8590990576
Cd  Cd3  1  0.85488000  0.39458000  0.18500000  1.0 0.8705538782
Cd  Cd4  1  0.12487000  0.55735000  0.10792000  1.0 0.8590990576
H  H1  1  0.44550000  0.53830000  0.54500000  1.0 0.1503544397
H  H2  1  0.61350000  0.54070000  0.62570000  1.0 0.1108299239
H  H3  1  0.62350000  0.51970000  0.12040000  1.0 0.1108299239
H  H4  1  0.55130000  0.64450000  0.38290000  1.0 0.1287106111
H  H5  1  0.31760000  0.35730000  0.82110000  1.0 0.1287106111
H  H6  1  0.76190000  0.06190000  0.22690000  1.0 0.2734035822
H  H7  1  0.22740000  0.69400000  0.22670000  1.0 0.1287106111
H  H8  1  0.71280000  0.50810000  0.33180000  1.0 0.1395532676
H  H9  1  0.02070000  0.23020000  0.62120000  1.0 0.1287106111
H  H10  1  0.63440000  0.31280000  0.46460000  1.0 0.1287106111
H  H11  1  0.37210000  0.71220000  0.31370000  1.0 0.1395532676
H  H12  1  0.21360000  0.72170000  0.73850000  1.0 0.1108299239
H  H13  1  0.46370000  0.52680000  0.04000000  1.0 0.1503544397
H  H14  1  0.81610000  0.65990000  0.55710000  1.0 0.1108299239
H  H15  1  0.40060000  0.33740000  0.91470000  1.0 0.1201389507
H  H16  1  0.37460000  0.48980000  0.43940000  1.0 0.1201389507
H  H17  1  0.60360000  0.66780000  0.20800000  1.0 0.1108299239
H  H18  1  0.36430000  0.72590000  0.82650000  1.0 0.1201389507
H  H19  1  0.66180000  0.64860000  0.47040000  1.0 0.1287106111
H  H20  1  0.86340000  0.97770000  0.68910000  1.0 0.1201389507
H  H21  1  0.16510000  0.35990000  0.73540000  1.0 0.1108299239
H  H22  1  0.94130000  0.55700000  0.81430000  1.0 0.1007224368
H  H23  1  0.53880000  0.48670000  0.75560000  1.0 0.1287106111
H  H24  1  0.79800000  0.32010000  0.54880000  1.0 0.1108299239
H  H25  1  0.25040000  0.51310000  0.35960000  1.0 0.1287106111
H  H26  1  0.07490000  0.06750000  0.59530000  1.0 0.1201389507
H  H27  1  0.49980000  0.81670000  0.20370000  1.0 0.1287106111
H  H28  1  0.08900000  0.50430000  0.47780000  1.0 0.1108299239
H  H29  1  0.85900000  0.93330000  0.17060000  1.0 0.1287106111
H  H30  1  0.94210000  0.81880000  0.66740000  1.0 0.1395532676
H  H31  1  0.94640000  0.20860000  0.11270000  1.0 0.1108299239
H  H32  1  0.34340000  0.24510000  0.08140000  1.0 0.1108299239
H  H33  1  0.34480000  0.14950000  0.49200000  1.0 0.1201389507
H  H34  1  0.57750000  0.87520000  0.78110000  1.0 0.1201389507
H  H35  1  0.65490000  0.50270000  0.84830000  1.0 0.1395532676
H  H36  1  0.95910000  0.78360000  0.16910000  1.0 0.1395532676
H  H37  1  0.92980000  0.71010000  0.04460000  1.0 0.1108299239
H  H38  1  0.09050000  0.55940000  0.90330000  1.0 0.1395532676
H  H39  1  0.41510000  0.29780000  0.39830000  1.0 0.1287106111
H  H40  1  0.68080000  0.84720000  0.53400000  1.0 0.1201389507
H  H41  1  0.30710000  0.51510000  0.95940000  1.0 0.1287106111
H  H42  1  0.22540000  0.22200000  0.32090000  1.0 0.1503544397
H  H43  1  0.36000000  0.07910000  0.06400000  1.0 0.1287106111
H  H44  1  0.62270000  0.16720000  0.60610000  1.0 0.1108299239
H  H45  1  0.46450000  0.87190000  0.64480000  1.0 0.1395532676
H  H46  1  0.52970000  0.79480000  0.60060000  1.0 0.1287106111
H  H47  1  0.30330000  0.31100000  0.52060000  1.0 0.1108299239
H  H48  1  0.81530000  0.11130000  0.73910000  1.0 0.2919374081
H  H49  1  0.04470000  0.23750000  0.24690000  1.0 0.1108299239
H  H50  1  0.48850000  0.04730000  0.63340000  1.0 0.1201389507
H  H51  1  0.65440000  0.72090000  0.75800000  1.0 0.1108299239
H  H52  1  0.07530000  0.52030000  0.28310000  1.0 0.1108299239
H  H53  1  0.34090000  0.83600000  0.92550000  1.0 0.1201389507
H  H54  1  0.76130000  0.31360000  0.34580000  1.0 0.1201389507
H  H55  1  0.94440000  0.48710000  0.38900000  1.0 0.1287106111
H  H56  1  0.68180000  0.19090000  0.92200000  1.0 0.1108299239
H  H57  1  0.87250000  0.16550000  0.99100000  1.0 0.1108299239
H  H58  1  0.09830000  0.19890000  0.97260000  1.0 0.1108299239
H  H59  1  0.13320000  0.25770000  0.88510000  1.0 0.1108299239
H  H60  1  0.94250000  0.28310000  0.81610000  1.0 0.1108299239
H  H61  1  0.24930000  0.78780000  0.00060000  1.0 0.1007224368
H  H62  1  0.67570000  0.90380000  0.04400000  1.0 0.1287106111
H  H63  1  0.91270000  0.43200000  0.00900000  1.0 0.1108299239
H  H64  1  0.56540000  0.68490000  0.88360000  1.0 0.1287106111
H  H65  1  0.81840000  0.96900000  0.50950000  1.0 0.1201389507
H  H66  1  0.95900000  0.04320000  0.09090000  1.0 0.1201389507
H  H67  1  0.42310000  0.93280000  0.86420000  1.0 0.1201389507
H  H68  1  0.64200000  0.31850000  0.82370000  1.0 0.1287106111
H  H69  1  0.58790000  0.21450000  0.83150000  1.0 0.1395532676
H  H70  1  0.79400000  0.12860000  0.54740000  1.0 0.1108299239
H  H71  1  0.52540000  0.15800000  0.19820000  1.0 0.1108299239
H  H72  1  0.95300000  0.30200000  0.41540000  1.0 0.1108299239
H  H73  1  0.52880000  0.24370000  0.29530000  1.0 0.1201389507
H  H74  1  0.49660000  0.13210000  0.29340000  1.0 0.1201389507
H  H75  1  0.70940000  0.25790000  0.06710000  1.0 0.1108299239
H  H76  1  0.76720000  0.43080000  0.92430000  1.0 0.1201389507
H  H77  1  0.73540000  0.02050000  0.98830000  1.0 0.1201389507
H  H78  1  0.76020000  0.72290000  0.96450000  1.0 0.1287106111
H  H79  1  0.98500000  0.15970000  0.46100000  1.0 0.1108299239
H  H80  1  0.51680000  0.79110000  0.06670000  1.0 0.1201389507
H  H81  1  0.46620000  0.71780000  0.00900000  1.0 0.1108299239
H  H82  1  0.37660000  0.48320000  0.66920000  1.0 0.1007224368
H  H83  1  0.38130000  0.44530000  0.17280000  1.0 0.1108299239
H  H84  1  0.64800000  0.03880000  0.35150000  1.0 0.1287106111
H  H85  1  0.53580000  0.45420000  0.25770000  1.0 0.1503544397
H  H86  1  0.54680000  0.25140000  0.98360000  1.0 0.1287106111
H  H87  1  0.85580000  0.02320000  0.41520000  1.0 0.1201389507
H  H88  1  0.59560000  0.05100000  0.90330000  1.0 0.1108299239
H  H89  1  0.62920000  0.50240000  0.83510000  1.0 0.1287106111
H  H90  1  0.59100000  0.69450000  0.89940000  1.0 0.1108299239
C  C1  1  0.51650000  0.49370000  0.54450000  1.0 -0.1696166543
C  C2  1  0.61690000  0.49380000  0.59280000  1.0 0.038826068
C  C3  1  0.24550000  0.71600000  0.07160000  1.0 0.5373864742
C  C4  1  0.80570000  0.75600000  0.71160000  1.0 -0.0125864241
C  C5  1  0.61210000  0.46590000  0.09100000  1.0 0.0531584407
C  C6  1  0.13500000  0.39230000  0.59310000  1.0 0.5583350332
C  C7  1  0.57400000  0.59870000  0.35230000  1.0 -0.139302634
C  C8  1  0.85040000  0.65080000  0.69820000  1.0 0.5529851588
C  C9  1  0.24310000  0.39910000  0.82070000  1.0 -0.2095324536
C  C10  1  0.47710000  0.58500000  0.29630000  1.0 0.1603443993
C  C11  1  0.70380000  0.24220000  0.21310000  1.0 0.5373864742
C  C12  1  0.29120000  0.64580000  0.23360000  1.0 0.0657053339
C  C13  1  0.67860000  0.21540000  0.75690000  1.0 0.1108299239
C  C14  1  0.47200000  0.60920000  0.79990000  1.0 0.1201389507
C  C15  1  0.68880000  0.55250000  0.36280000  1.0 -0.1208850993
C  C16  1  0.22320000  0.46120000  0.87140000  1.0 0.1503544397
C  C17  1  0.08830000  0.21440000  0.59630000  1.0 -0.110236688
C  C18  1  0.52290000  0.42510000  0.49410000  1.0 0.1503544397
C  C19  1  0.62820000  0.36020000  0.49700000  1.0 -0.2025678086
C  C20  1  0.12280000  0.35160000  0.09950000  1.0 0.5529851588
C  C21  1  0.37730000  0.65790000  0.28560000  1.0 -0.2095324536
C  C22  1  0.33520000  0.84160000  0.56190000  1.0 0.2040495994
C  C23  1  0.27930000  0.67360000  0.74200000  1.0 0.0879027853
C  C24  1  0.51550000  0.47110000  0.04280000  1.0 -0.1696166543
C  C25  1  0.84080000  0.62500000  0.52260000  1.0 0.0795799503
C  C26  1  0.40030000  0.39200000  0.94320000  1.0 -0.1615014253
C  C27  1  0.41570000  0.43000000  0.44210000  1.0 -0.139302634
C  C28  1  0.59780000  0.98650000  0.19150000  1.0 0.4479137333
C  C29  1  0.26290000  0.99140000  0.52650000  1.0 0.4602547409
C  C30  1  0.65470000  0.72110000  0.20030000  1.0 -0.1030169221
C  C31  1  0.37130000  0.67740000  0.79480000  1.0 -0.2498297123
C  C32  1  0.74710000  0.61810000  0.47080000  1.0 -0.2025678086
C  C33  1  0.82160000  0.92590000  0.70300000  1.0 -0.1277252501
C  C34  1  0.15820000  0.28640000  0.57460000  1.0 -0.0282509169
C  C35  1  0.86250000  0.61490000  0.19360000  1.0 0.5583350332
C  C36  1  0.14920000  0.40070000  0.76940000  1.0 0.1108299239
C  C37  1  0.01760000  0.51670000  0.81590000  1.0 0.038826068
C  C38  1  0.47360000  0.53520000  0.75290000  1.0 -0.2921398012
C  C39  1  0.72670000  0.36450000  0.54830000  1.0 0.1108299239
C  C40  1  0.56990000  0.93300000  0.58800000  1.0 0.1395532676
C  C41  1  0.67050000  0.89130000  0.18930000  1.0 -0.0241165263
C  C42  1  0.79440000  0.71180000  0.19030000  1.0 -0.0241165263
C  C43  1  0.21000000  0.45590000  0.33740000  1.0 -0.2025678086
C  C44  1  0.78290000  0.56400000  0.41860000  1.0 0.1603443993
C  C45  1  0.12030000  0.11670000  0.58040000  1.0 -0.1030169221
C  C46  1  0.59360000  0.81060000  0.19850000  1.0 -0.1030169221
C  C47  1  0.00230000  0.53310000  0.47610000  1.0 0.1007224368
C  C48  1  0.25720000  0.36530000  0.35020000  1.0 0.1603443993
C  C49  1  0.80740000  0.88000000  0.17800000  1.0 -0.1277252501
C  C50  1  0.86930000  0.83070000  0.69000000  1.0 -0.0910106723
C  C51  1  0.02810000  0.18270000  0.10060000  1.0 -0.110236688
C  C52  1  0.75690000  0.28620000  0.72800000  1.0 0.4999301704
C  C53  1  0.21770000  0.09380000  0.54320000  1.0 0.0011390057
C  C54  1  0.26570000  0.20510000  0.08260000  1.0 -0.1030169221
C  C55  1  0.28280000  0.16620000  0.51920000  1.0 -0.110236688
C  C56  1  0.25320000  0.75560000  0.57920000  1.0 0.4999301704
C  C57  1  0.64970000  0.86470000  0.75800000  1.0 -0.110236688
C  C58  1  0.71110000  0.94230000  0.73680000  1.0 -0.0282509169
C  C59  1  0.65200000  0.56100000  0.87370000  1.0 -0.0582467364
C  C60  1  0.64790000  0.03950000  0.74840000  1.0 0.4602547409
C  C61  1  0.86790000  0.79060000  0.17780000  1.0 -0.0910106723
C  C62  1  0.89430000  0.65380000  0.02000000  1.0 0.0879027853
C  C63  1  0.10800000  0.51900000  0.86940000  1.0 -0.1772976769
C  C64  1  0.16220000  0.04390000  0.07340000  1.0 0.020525395
C  C65  1  0.37090000  0.35690000  0.39810000  1.0 -0.1615014253
C  C66  1  0.16230000  0.93720000  0.05220000  1.0 0.43931928
C  C67  1  0.66950000  0.91150000  0.54970000  1.0 -0.1470087695
C  C68  1  0.31260000  0.46230000  0.93020000  1.0 -0.1470087695
C  C69  1  0.13850000  0.24680000  0.09510000  1.0 -0.070858608
C  C70  1  0.19470000  0.28360000  0.31470000  1.0 -0.1930610342
C  C71  1  0.68610000  0.17570000  0.33840000  1.0 0.1287106111
C  C72  1  0.27530000  0.10550000  0.07210000  1.0 -0.1030169221
C  C73  1  0.63650000  0.10230000  0.59230000  1.0 -0.0910106723
C  C74  1  0.48090000  0.85560000  0.60380000  1.0 -0.2972940234
C  C75  1  0.25650000  0.26230000  0.53540000  1.0 -0.1208850993
C  C76  1  0.08620000  0.29350000  0.27000000  1.0 0.0795799503
C  C77  1  0.55510000  0.03020000  0.60830000  1.0 -0.139302634
C  C78  1  0.69680000  0.77290000  0.74460000  1.0 -0.110236688
C  C79  1  0.10350000  0.45930000  0.29160000  1.0 0.0795799503
C  C80  1  0.42540000  0.87070000  0.93800000  1.0 -0.1772976769
C  C81  1  0.77730000  0.25470000  0.36040000  1.0 -0.1696166543
C  C82  1  0.91550000  0.52210000  0.42250000  1.0 -0.2095324536
C  C83  1  0.79320000  0.23950000  0.86220000  1.0 0.1287106111
C  C84  1  0.77230000  0.20430000  0.91460000  1.0 -0.1696166543
C  C85  1  0.88660000  0.18910000  0.95590000  1.0 -0.0832613064
C  C86  1  0.02180000  0.20910000  0.94490000  1.0 -0.0910106723
C  C87  1  0.04280000  0.24430000  0.89250000  1.0 -0.0832613064
C  C88  1  0.92850000  0.25960000  0.85110000  1.0 -0.1615014253
C  C89  1  0.49470000  0.39410000  0.99820000  1.0 0.1690650704
C  C90  1  0.30450000  0.79520000  0.04030000  1.0 0.013613062
C  C91  1  0.61860000  0.91200000  0.00900000  1.0 -0.1470087695
C  C92  1  0.88640000  0.49210000  0.99810000  1.0 0.0795799503
C  C93  1  0.56800000  0.62650000  0.85850000  1.0 -0.0582467364
C  C94  1  0.75170000  0.98480000  0.53490000  1.0 -0.0910106723
C  C95  1  0.03570000  0.08370000  0.08880000  1.0 -0.1208850993
C  C96  1  0.46860000  0.93420000  0.90280000  1.0 -0.0910106723
C  C97  1  0.74620000  0.57620000  0.93140000  1.0 0.1108299239
C  C98  1  0.66510000  0.25030000  0.82010000  1.0 -0.3135764626
C  C99  1  0.50130000  0.85600000  0.99100000  1.0 0.1287106111
C  C100  1  0.73660000  0.07990000  0.55670000  1.0 -0.110236688
C  C101  1  0.61200000  0.16050000  0.22630000  1.0 0.013613062
C  C102  1  0.89140000  0.24850000  0.40330000  1.0 -0.1030169221
C  C103  1  0.56890000  0.17990000  0.29000000  1.0 -0.2787577537
C  C104  1  0.66180000  0.31410000  0.06050000  1.0 0.0879027853
C  C105  1  0.79580000  0.48980000  0.94770000  1.0 -0.2498297123
C  C106  1  0.65400000  0.98260000  0.97490000  1.0 -0.0910106723
C  C107  1  0.79460000  0.66240000  0.97110000  1.0 -0.2582107214
C  C108  1  0.91560000  0.16240000  0.42890000  1.0 -0.110236688
C  C109  1  0.45600000  0.78320000  0.02880000  1.0 -0.2582107214
C  C110  1  0.37560000  0.53350000  0.70050000  1.0 0.1007224368
C  C111  1  0.38110000  0.49980000  0.20140000  1.0 0.0879027853
C  C112  1  0.71120000  0.09170000  0.36250000  1.0 -0.1696166543
C  C113  1  0.47440000  0.50440000  0.25240000  1.0 -0.1930610342
C  C114  1  0.56490000  0.30920000  0.00950000  1.0 -0.2095324536
C  C115  1  0.83290000  0.08390000  0.40450000  1.0 -0.0832613064
C  C116  1  0.57610000  0.99900000  0.92310000  1.0 -0.1030169221
C  C117  1  0.59100000  0.56300000  0.84200000  1.0 -0.036912105
C  C118  1  0.62600000  0.63300000  0.89110000  1.0 -0.049619141
N  N1  1  0.28250000  0.60240000  0.69550000  1.0 -0.2394547043
N  N2  1  0.29060000  0.56780000  0.19030000  1.0 -0.2394547043
N  N3  1  0.04010000  0.45530000  0.76520000  1.0 -0.2394547043
N  N4  1  0.28370000  0.89570000  0.06640000  1.0 -0.4100835053
N  N5  1  0.26150000  0.93070000  0.56770000  1.0 -0.4525276749
N  N6  1  0.03740000  0.38120000  0.25830000  1.0 -0.2498297123
N  N7  1  0.96750000  0.58310000  0.52530000  1.0 -0.2344982652
N  N8  1  0.67330000  0.06650000  0.21640000  1.0 -0.3428714452
N  N9  1  0.94100000  0.56790000  0.03300000  1.0 -0.2394547043
N  N10  1  0.69140000  0.39110000  0.09970000  1.0 -0.2191529302
N  N11  1  0.72240000  0.42830000  0.59550000  1.0 -0.2394547043
N  N12  1  0.73070000  0.11880000  0.74650000  1.0 -0.3428714452
O  O1  1  0.04780000  0.41460000  0.62750000  1.0 -0.5685685901
O  O2  1  0.78860000  0.58740000  0.71980000  1.0 -0.5300213027
O  O3  1  0.68250000  0.32930000  0.23440000  1.0 -0.5524184434
O  O4  1  0.16480000  0.77170000  0.61300000  1.0 -0.5300213027
O  O5  1  0.79760000  0.22400000  0.18120000  1.0 -0.5524184434
O  O6  1  0.20610000  0.45350000  0.57290000  1.0 -0.5300213027
O  O7  1  0.20980000  0.40410000  0.08060000  1.0 -0.524254444
O  O8  1  0.26270000  0.62920000  0.04860000  1.0 -0.5685685901
O  O9  1  0.30200000  0.96880000  0.47750000  1.0 -0.4936127392
O  O10  1  0.71490000  0.37300000  0.73380000  1.0 -0.5524184434
O  O11  1  0.47170000  0.98840000  0.16980000  1.0 -0.4673288492
O  O12  1  0.28540000  0.67190000  0.55820000  1.0 -0.5685685901
O  O13  1  0.85890000  0.26350000  0.70000000  1.0 -0.5685685901
O  O14  1  0.18520000  0.73780000  0.11440000  1.0 -0.4988022772
O  O15  1  0.52740000  0.04730000  0.75990000  1.0 -0.4525276749
O  O16  1  0.79570000  0.54780000  0.21210000  1.0 -0.5524184434
O  O17  1  0.94040000  0.63260000  0.66460000  1.0 -0.5604043035
O  O18  1  0.01280000  0.38950000  0.11900000  1.0 -0.5995670287
O  O19  1  0.98120000  0.60440000  0.17940000  1.0 -0.5604043035
O  O20  1  0.05610000  0.89270000  0.02180000  1.0 -0.524254444
