# DDEC6 charges by PACMAN v1.1 (https://github.com/mtap-research/PACMAN-charge/)
data_FUXCOS_ASR_pacman
_symmetry_space_group_name_H-M   'P 1'
_cell_length_a   22.55130000
_cell_length_b   18.06270000
_cell_length_c   16.24410000
_cell_angle_alpha   82.00930000
_cell_angle_beta   52.48440000
_cell_angle_gamma   45.50630000
_symmetry_Int_Tables_number   1
_chemical_formula_structural   AgH12C28(S3N2)2
_chemical_formula_sum   'Ag4 H48 C112 S24 N16'
_cell_volume   3223.39707670
_cell_formula_units_Z   4
loop_
 _symmetry_equiv_pos_site_id
 _symmetry_equiv_pos_as_xyz
  1  'x, y, z'
loop_
 _atom_site_type_symbol
 _atom_site_label
 _atom_site_symmetry_multiplicity
 _atom_site_fract_x
 _atom_site_fract_y
 _atom_site_fract_z
 _atom_site_occupancy
 _atom_site_charge
Ag  Ag1  1  0.50000000  0.50000000  0.50000000  1.0 0.4878582249
Ag  Ag2  1  0.25000000  0.25000000  0.25000000  1.0 0.5011427591
Ag  Ag3  1  0.75000000  0.75000000  0.75000000  1.0 0.4849899004
Ag  Ag4  1  0.00000000  0.00000000  0.00000000  1.0 0.5011427591
H  H1  1  0.07900000  0.93680000  0.62940000  1.0 0.1252203474
H  H2  1  0.93680000  0.07900000  0.35480000  1.0 0.1252203474
H  H3  1  0.62940000  0.35480000  0.07900000  1.0 0.1252203474
H  H4  1  0.35480000  0.62940000  0.93680000  1.0 0.1252203474
H  H5  1  0.91810000  0.15710000  0.73410000  1.0 0.1252203474
H  H6  1  0.15710000  0.91810000  0.19070000  1.0 0.1252203474
H  H7  1  0.73410000  0.19070000  0.91810000  1.0 0.1252203474
H  H8  1  0.19070000  0.73410000  0.15710000  1.0 0.1252203474
H  H9  1  0.03100000  0.25260000  0.81620000  1.0 0.1252203474
H  H10  1  0.25260000  0.03100000  0.90020000  1.0 0.1252203474
H  H11  1  0.81620000  0.90020000  0.03100000  1.0 0.1252203474
H  H12  1  0.90020000  0.81620000  0.25260000  1.0 0.1252203474
H  H13  1  0.87130000  0.47370000  0.91910000  1.0 0.1209726554
H  H14  1  0.47370000  0.87130000  0.73590000  1.0 0.1209726554
H  H15  1  0.91910000  0.73590000  0.87130000  1.0 0.1252203474
H  H16  1  0.73590000  0.91910000  0.47370000  1.0 0.1252203474
H  H17  1  0.54060000  0.63880000  0.02320000  1.0 0.1209726554
H  H18  1  0.63880000  0.54060000  0.79740000  1.0 0.1209726554
H  H19  1  0.02320000  0.79740000  0.54060000  1.0 0.1209726554
H  H20  1  0.79740000  0.02320000  0.63880000  1.0 0.1209726554
H  H21  1  0.37890000  0.85830000  0.13530000  1.0 0.1209726554
H  H22  1  0.85830000  0.37890000  0.62750000  1.0 0.1209726554
H  H23  1  0.13530000  0.62750000  0.37890000  1.0 0.1209726554
H  H24  1  0.62750000  0.13530000  0.85830000  1.0 0.1209726554
H  H25  1  0.17100000  0.31320000  0.62060000  1.0 0.1252203474
H  H26  1  0.31320000  0.17100000  0.89520000  1.0 0.1252203474
H  H27  1  0.62060000  0.89520000  0.17100000  1.0 0.1252203474
H  H28  1  0.89520000  0.62060000  0.31320000  1.0 0.1252203474
H  H29  1  0.33190000  0.09290000  0.51590000  1.0 0.1252203474
H  H30  1  0.09290000  0.33190000  0.05930000  1.0 0.1252203474
H  H31  1  0.51590000  0.05930000  0.33190000  1.0 0.1252203474
H  H32  1  0.05930000  0.51590000  0.09290000  1.0 0.1252203474
H  H33  1  0.21900000  0.99740000  0.43380000  1.0 0.1252203474
H  H34  1  0.99740000  0.21900000  0.34980000  1.0 0.1252203474
H  H35  1  0.43380000  0.34980000  0.21900000  1.0 0.1252203474
H  H36  1  0.34980000  0.43380000  0.99740000  1.0 0.1252203474
H  H37  1  0.37870000  0.77630000  0.33090000  1.0 0.1252203474
H  H38  1  0.77630000  0.37870000  0.51410000  1.0 0.1252203474
H  H39  1  0.33090000  0.51410000  0.37870000  1.0 0.1252203474
H  H40  1  0.51410000  0.33090000  0.77630000  1.0 0.1209726554
H  H41  1  0.70940000  0.61120000  0.22680000  1.0 0.1209726554
H  H42  1  0.61120000  0.70940000  0.45260000  1.0 0.1209726554
H  H43  1  0.22680000  0.45260000  0.70940000  1.0 0.1209726554
H  H44  1  0.45260000  0.22680000  0.61120000  1.0 0.1209726554
H  H45  1  0.87110000  0.39170000  0.11470000  1.0 0.1209726554
H  H46  1  0.39170000  0.87110000  0.62250000  1.0 0.1209726554
H  H47  1  0.11470000  0.62250000  0.87110000  1.0 0.1209726554
H  H48  1  0.62250000  0.11470000  0.39170000  1.0 0.1209726554
C  C1  1  0.27011000  0.79971000  0.59829000  1.0 0.279924799
C  C2  1  0.79971000  0.27011000  0.33189000  1.0 0.279924799
C  C3  1  0.59829000  0.33189000  0.27011000  1.0 0.279924799
C  C4  1  0.33189000  0.59829000  0.79971000  1.0 0.279924799
C  C5  1  0.16370000  0.92470000  0.65430000  1.0 -0.0494544795
C  C6  1  0.92470000  0.16370000  0.25730000  1.0 -0.0494544795
C  C7  1  0.65430000  0.25730000  0.16370000  1.0 -0.0494544795
C  C8  1  0.25730000  0.65430000  0.92470000  1.0 -0.0494544795
C  C9  1  0.07736000  0.97916000  0.66144000  1.0 -0.1268606514
C  C10  1  0.97916000  0.07736000  0.28204000  1.0 -0.1268606514
C  C11  1  0.66144000  0.28204000  0.07736000  1.0 -0.1268606514
C  C12  1  0.28204000  0.66144000  0.97916000  1.0 -0.1268606514
C  C13  1  0.98547000  0.10507000  0.72113000  1.0 -0.1720950541
C  C14  1  0.10507000  0.98547000  0.18833000  1.0 -0.1720950541
C  C15  1  0.72113000  0.18833000  0.98547000  1.0 -0.1720950541
C  C16  1  0.18833000  0.72113000  0.10507000  1.0 -0.1720950541
C  C17  1  0.00259000  0.14539000  0.75901000  1.0 -0.016048683
C  C18  1  0.14539000  0.00259000  0.09301000  1.0 -0.016048683
C  C19  1  0.75901000  0.09301000  0.00259000  1.0 -0.016048683
C  C20  1  0.09301000  0.75901000  0.14539000  1.0 -0.016048683
C  C21  1  0.92970000  0.26768000  0.81992000  1.0 -0.0111625588
C  C22  1  0.26768000  0.92970000  0.98270000  1.0 -0.0111625588
C  C23  1  0.81992000  0.98270000  0.92970000  1.0 -0.0111625588
C  C24  1  0.98270000  0.81992000  0.26768000  1.0 -0.0111625588
C  C25  1  0.95770000  0.30590000  0.83990000  1.0 -0.1720950541
C  C26  1  0.30590000  0.95770000  0.89650000  1.0 -0.1720950541
C  C27  1  0.83990000  0.89650000  0.95770000  1.0 -0.1720950541
C  C28  1  0.89650000  0.83990000  0.30590000  1.0 -0.1720950541
C  C29  1  0.86584000  0.43284000  0.89956000  1.0 -0.1645670494
C  C30  1  0.43284000  0.86584000  0.80176000  1.0 -0.1645670494
C  C31  1  0.89956000  0.80176000  0.86584000  1.0 -0.1645670494
C  C32  1  0.80176000  0.89956000  0.43284000  1.0 -0.1720950541
C  C33  1  0.76723000  0.49103000  0.92657000  1.0 -0.0041992114
C  C34  1  0.49103000  0.76723000  0.81517000  1.0 -0.0041992114
C  C35  1  0.92657000  0.81517000  0.76723000  1.0 -0.0041992114
C  C36  1  0.81517000  0.92657000  0.49103000  1.0 -0.0041992114
C  C37  1  0.65445000  0.61977000  0.99103000  1.0 -0.0111625588
C  C38  1  0.61977000  0.65445000  0.73475000  1.0 -0.0111625588
C  C39  1  0.99103000  0.73475000  0.65445000  1.0 -0.0111625588
C  C40  1  0.73475000  0.99103000  0.61977000  1.0 -0.0111625588
C  C41  1  0.55005000  0.67885000  0.03435000  1.0 -0.1720950541
C  C42  1  0.67885000  0.55005000  0.73675000  1.0 -0.1720950541
C  C43  1  0.03435000  0.73675000  0.55005000  1.0 -0.1720950541
C  C44  1  0.73675000  0.03435000  0.67885000  1.0 -0.1720950541
C  C45  1  0.45804000  0.80404000  0.09696000  1.0 -0.1268606514
C  C46  1  0.80404000  0.45804000  0.64096000  1.0 -0.1268606514
C  C47  1  0.09696000  0.64096000  0.45804000  1.0 -0.1268606514
C  C48  1  0.64096000  0.09696000  0.80404000  1.0 -0.1268606514
C  C49  1  0.49550000  0.83890000  0.09650000  1.0 -0.0494544795
C  C50  1  0.83890000  0.49550000  0.56910000  1.0 -0.0557877941
C  C51  1  0.09650000  0.56910000  0.49550000  1.0 -0.0557877941
C  C52  1  0.56910000  0.09650000  0.83890000  1.0 -0.0494544795
C  C53  1  0.42467000  0.95871000  0.15509000  1.0 0.279924799
C  C54  1  0.95871000  0.42467000  0.46153000  1.0 0.279924799
C  C55  1  0.15509000  0.46153000  0.42467000  1.0 0.279924799
C  C56  1  0.46153000  0.15509000  0.95871000  1.0 0.279924799
C  C57  1  0.97989000  0.45029000  0.65171000  1.0 0.279924799
C  C58  1  0.45029000  0.97989000  0.91811000  1.0 0.279924799
C  C59  1  0.65171000  0.91811000  0.97989000  1.0 0.279924799
C  C60  1  0.91811000  0.65171000  0.45029000  1.0 0.279924799
C  C61  1  0.08630000  0.32530000  0.59570000  1.0 -0.0494544795
C  C62  1  0.32530000  0.08630000  0.99270000  1.0 -0.0494544795
C  C63  1  0.59570000  0.99270000  0.08630000  1.0 -0.0494544795
C  C64  1  0.99270000  0.59570000  0.32530000  1.0 -0.0494544795
C  C65  1  0.17264000  0.27084000  0.58856000  1.0 -0.1268606514
C  C66  1  0.27084000  0.17264000  0.96796000  1.0 -0.1268606514
C  C67  1  0.58856000  0.96796000  0.17264000  1.0 -0.1268606514
C  C68  1  0.96796000  0.58856000  0.27084000  1.0 -0.1268606514
C  C69  1  0.26453000  0.14493000  0.52887000  1.0 -0.1720950541
C  C70  1  0.14493000  0.26453000  0.06167000  1.0 -0.1720950541
C  C71  1  0.52887000  0.06167000  0.26453000  1.0 -0.1720950541
C  C72  1  0.06167000  0.52887000  0.14493000  1.0 -0.1720950541
C  C73  1  0.24741000  0.10461000  0.49099000  1.0 -0.016048683
C  C74  1  0.10461000  0.24741000  0.15699000  1.0 -0.016048683
C  C75  1  0.49099000  0.15699000  0.24741000  1.0 -0.016048683
C  C76  1  0.15699000  0.49099000  0.10461000  1.0 -0.016048683
C  C77  1  0.32030000  0.98232000  0.43008000  1.0 -0.0111625588
C  C78  1  0.98232000  0.32030000  0.26730000  1.0 -0.0111625588
C  C79  1  0.43008000  0.26730000  0.32030000  1.0 -0.0111625588
C  C80  1  0.26730000  0.43008000  0.98232000  1.0 -0.0111625588
C  C81  1  0.29230000  0.94410000  0.41010000  1.0 -0.1720950541
C  C82  1  0.94410000  0.29230000  0.35350000  1.0 -0.1720950541
C  C83  1  0.41010000  0.35350000  0.29230000  1.0 -0.1720950541
C  C84  1  0.35350000  0.41010000  0.94410000  1.0 -0.1720950541
C  C85  1  0.38416000  0.81716000  0.35044000  1.0 -0.1645670494
C  C86  1  0.81716000  0.38416000  0.44824000  1.0 -0.1645670494
C  C87  1  0.35044000  0.44824000  0.38416000  1.0 -0.1720950541
C  C88  1  0.44824000  0.35044000  0.81716000  1.0 -0.1645670494
C  C89  1  0.48277000  0.75897000  0.32343000  1.0 -0.0041992114
C  C90  1  0.75897000  0.48277000  0.43483000  1.0 -0.0041992114
C  C91  1  0.32343000  0.43483000  0.48277000  1.0 -0.0041992114
C  C92  1  0.43483000  0.32343000  0.75897000  1.0 -0.0041992114
C  C93  1  0.59555000  0.63023000  0.25897000  1.0 -0.0111625588
C  C94  1  0.63023000  0.59555000  0.51525000  1.0 -0.0111625588
C  C95  1  0.25897000  0.51525000  0.59555000  1.0 -0.0111625588
C  C96  1  0.51525000  0.25897000  0.63023000  1.0 -0.0111625588
C  C97  1  0.69995000  0.57115000  0.21565000  1.0 -0.1720950541
C  C98  1  0.57115000  0.69995000  0.51325000  1.0 -0.1720950541
C  C99  1  0.21565000  0.51325000  0.69995000  1.0 -0.1720950541
C  C100  1  0.51325000  0.21565000  0.57115000  1.0 -0.1720950541
C  C101  1  0.79196000  0.44596000  0.15304000  1.0 -0.1268606514
C  C102  1  0.44596000  0.79196000  0.60904000  1.0 -0.1268606514
C  C103  1  0.15304000  0.60904000  0.79196000  1.0 -0.1268606514
C  C104  1  0.60904000  0.15304000  0.44596000  1.0 -0.1268606514
C  C105  1  0.75450000  0.41110000  0.15350000  1.0 -0.0494544795
C  C106  1  0.41110000  0.75450000  0.68090000  1.0 -0.0557877941
C  C107  1  0.15350000  0.68090000  0.75450000  1.0 -0.0494544795
C  C108  1  0.68090000  0.15350000  0.41110000  1.0 -0.0557877941
C  C109  1  0.82533000  0.29129000  0.09491000  1.0 0.279924799
C  C110  1  0.29129000  0.82533000  0.78847000  1.0 0.279924799
C  C111  1  0.09491000  0.78847000  0.82533000  1.0 0.279924799
C  C112  1  0.78847000  0.09491000  0.29129000  1.0 0.279924799
S  S1  1  0.13230000  0.02776000  0.72238000  1.0 0.1209726554
S  S2  1  0.02776000  0.13230000  0.11756000  1.0 0.1209726554
S  S3  1  0.72238000  0.11756000  0.13230000  1.0 0.1209726554
S  S4  1  0.11756000  0.72238000  0.02776000  1.0 0.1209726554
S  S5  1  0.78752000  0.38886000  0.87880000  1.0 0.0880616114
S  S6  1  0.38886000  0.78752000  0.94482000  1.0 0.0880616114
S  S7  1  0.87880000  0.94482000  0.78752000  1.0 0.0880616114
S  S8  1  0.94482000  0.87880000  0.38886000  1.0 0.0880616114
S  S9  1  0.64293000  0.71869000  0.02291000  1.0 0.1209726554
S  S10  1  0.71869000  0.64293000  0.61547000  1.0 0.1209726554
S  S11  1  0.02291000  0.61547000  0.64293000  1.0 0.113167421
S  S12  1  0.61547000  0.02291000  0.71869000  1.0 0.113167421
S  S13  1  0.11770000  0.22224000  0.52762000  1.0 0.1209726554
S  S14  1  0.22224000  0.11770000  0.13244000  1.0 0.1209726554
S  S15  1  0.52762000  0.13244000  0.11770000  1.0 0.1209726554
S  S16  1  0.13244000  0.52762000  0.22224000  1.0 0.1209726554
S  S17  1  0.46248000  0.86114000  0.37120000  1.0 0.0880616114
S  S18  1  0.86114000  0.46248000  0.30518000  1.0 0.0880616114
S  S19  1  0.37120000  0.30518000  0.46248000  1.0 0.0880616114
S  S20  1  0.30518000  0.37120000  0.86114000  1.0 0.0880616114
S  S21  1  0.60707000  0.53131000  0.22709000  1.0 0.113167421
S  S22  1  0.53131000  0.60707000  0.63453000  1.0 0.113167421
S  S23  1  0.22709000  0.63453000  0.60707000  1.0 0.113167421
S  S24  1  0.63453000  0.22709000  0.53131000  1.0 0.1209726554
N  N1  1  0.35713000  0.69905000  0.55255000  1.0 -0.3965085583
N  N2  1  0.69905000  0.35713000  0.39127000  1.0 -0.3965085583
N  N3  1  0.55255000  0.39127000  0.35713000  1.0 -0.3965085583
N  N4  1  0.39127000  0.55255000  0.69905000  1.0 -0.3965085583
N  N5  1  0.36815000  0.05449000  0.20111000  1.0 -0.394880574
N  N6  1  0.05449000  0.36815000  0.37625000  1.0 -0.3965085583
N  N7  1  0.20111000  0.37625000  0.36815000  1.0 -0.3965085583
N  N8  1  0.37625000  0.20111000  0.05449000  1.0 -0.394880574
N  N9  1  0.89287000  0.55095000  0.69745000  1.0 -0.3965085583
N  N10  1  0.55095000  0.89287000  0.85873000  1.0 -0.3965085583
N  N11  1  0.69745000  0.85873000  0.89287000  1.0 -0.3965085583
N  N12  1  0.85873000  0.69745000  0.55095000  1.0 -0.3965085583
N  N13  1  0.88185000  0.19551000  0.04889000  1.0 -0.394880574
N  N14  1  0.19551000  0.88185000  0.87375000  1.0 -0.3965085583
N  N15  1  0.04889000  0.87375000  0.88185000  1.0 -0.394880574
N  N16  1  0.87375000  0.04889000  0.19551000  1.0 -0.394880574
