# DDEC6 charges by PACMAN v1.1 (https://github.com/mtap-research/PACMAN-charge/)
data_FUXRAU_ASR_pacman
_symmetry_space_group_name_H-M   'P 1'
_cell_length_a   11.36690000
_cell_length_b   11.36690000
_cell_length_c   7.39050000
_cell_angle_alpha   90.00000000
_cell_angle_beta   90.00000000
_cell_angle_gamma   117.69000000
_symmetry_Int_Tables_number   1
_chemical_formula_structural   CoH16C10(N3O7)2
_chemical_formula_sum   'Co2 H32 C20 N12 O28'
_cell_volume   845.53984452
_cell_formula_units_Z   2
loop_
 _symmetry_equiv_pos_site_id
 _symmetry_equiv_pos_as_xyz
  1  'x, y, z'
loop_
 _atom_site_type_symbol
 _atom_site_label
 _atom_site_symmetry_multiplicity
 _atom_site_fract_x
 _atom_site_fract_y
 _atom_site_fract_z
 _atom_site_occupancy
 _atom_site_charge
Co  Co1  1  0.00000000  0.50000000  0.00000000  1.0 0.6143978577
Co  Co2  1  0.50000000  0.00000000  0.50000000  1.0 0.6143978577
H  H1  1  0.03750000  0.67290000  0.25710000  1.0 0.2955279094
H  H2  1  0.13740000  0.73200000  0.11720000  1.0 0.2428223793
H  H3  1  0.96250000  0.32710000  0.25710000  1.0 0.2955279094
H  H4  1  0.86260000  0.26800000  0.11720000  1.0 0.2428223793
H  H5  1  0.96250000  0.32710000  0.74290000  1.0 0.2955279094
H  H6  1  0.86260000  0.26800000  0.88280000  1.0 0.2428223793
H  H7  1  0.03750000  0.67290000  0.74290000  1.0 0.2955279094
H  H8  1  0.13740000  0.73200000  0.88280000  1.0 0.2428223793
H  H9  1  0.11810000  0.31030000  0.00000000  1.0 0.0677241426
H  H10  1  0.31590000  0.30070000  0.00000000  1.0 0.1281755236
H  H11  1  0.50290000  0.69790000  0.00000000  1.0 0.1193942916
H  H12  1  0.29870000  0.69430000  0.00000000  1.0 0.0479928073
H  H13  1  0.88190000  0.68970000  0.00000000  1.0 0.0677241426
H  H14  1  0.68410000  0.69930000  0.00000000  1.0 0.1281755236
H  H15  1  0.49710000  0.30210000  0.00000000  1.0 0.1193942916
H  H16  1  0.70130000  0.30570000  0.00000000  1.0 0.0479928073
H  H17  1  0.32710000  0.96250000  0.24290000  1.0 0.2955279094
H  H18  1  0.26800000  0.86260000  0.38280000  1.0 0.2428223793
H  H19  1  0.67290000  0.03750000  0.24290000  1.0 0.2955279094
H  H20  1  0.73200000  0.13740000  0.38280000  1.0 0.2428223793
H  H21  1  0.67290000  0.03750000  0.75710000  1.0 0.2955279094
H  H22  1  0.73200000  0.13740000  0.61720000  1.0 0.2428223793
H  H23  1  0.32710000  0.96250000  0.75710000  1.0 0.2955279094
H  H24  1  0.26800000  0.86260000  0.61720000  1.0 0.2428223793
H  H25  1  0.68970000  0.88190000  0.50000000  1.0 0.0677241426
H  H26  1  0.69930000  0.68410000  0.50000000  1.0 0.1281755236
H  H27  1  0.30210000  0.49710000  0.50000000  1.0 0.1193942916
H  H28  1  0.30570000  0.70130000  0.50000000  1.0 0.0479928073
H  H29  1  0.31030000  0.11810000  0.50000000  1.0 0.0677241426
H  H30  1  0.30070000  0.31590000  0.50000000  1.0 0.1281755236
H  H31  1  0.69790000  0.50290000  0.50000000  1.0 0.1193942916
H  H32  1  0.69430000  0.29870000  0.50000000  1.0 0.0479928073
C  C1  1  0.30230000  0.61290000  0.00000000  1.0 -0.0932922173
C  C2  1  0.42470000  0.61470000  0.00000000  1.0 -0.1995523262
C  C3  1  0.43520000  0.50020000  0.00000000  1.0 0.1281755236
C  C4  1  0.31610000  0.38430000  0.00000000  1.0 -0.1675332296
C  C5  1  0.19730000  0.38930000  0.00000000  1.0 -0.0016241956
C  C6  1  0.69770000  0.38710000  0.00000000  1.0 -0.0932922173
C  C7  1  0.57530000  0.38530000  0.00000000  1.0 -0.1995523262
C  C8  1  0.56480000  0.49980000  0.00000000  1.0 0.1281755236
C  C9  1  0.68390000  0.61570000  0.00000000  1.0 -0.1675332296
C  C10  1  0.80270000  0.61070000  0.00000000  1.0 0.0002039194
C  C11  1  0.38710000  0.69770000  0.50000000  1.0 -0.0932922173
C  C12  1  0.38530000  0.57530000  0.50000000  1.0 -0.1995523262
C  C13  1  0.49980000  0.56480000  0.50000000  1.0 0.1281755236
C  C14  1  0.61570000  0.68390000  0.50000000  1.0 -0.1675332296
C  C15  1  0.61070000  0.80270000  0.50000000  1.0 -0.0016241956
C  C16  1  0.61290000  0.30230000  0.50000000  1.0 -0.0932922173
C  C17  1  0.61470000  0.42470000  0.50000000  1.0 -0.1995523262
C  C18  1  0.50020000  0.43520000  0.50000000  1.0 0.1281755236
C  C19  1  0.38430000  0.31610000  0.50000000  1.0 -0.1675332296
C  C20  1  0.38930000  0.19730000  0.50000000  1.0 -0.0016241956
N  N1  1  0.03060000  0.64360000  0.36760000  1.0 0.1091565103
N  N2  1  0.96940000  0.35640000  0.36760000  1.0 0.1091565103
N  N3  1  0.96940000  0.35640000  0.63240000  1.0 0.1091565103
N  N4  1  0.03060000  0.64360000  0.63240000  1.0 0.1091565103
N  N5  1  0.18840000  0.50100000  0.00000000  1.0 -0.4442074481
N  N6  1  0.81160000  0.49900000  0.00000000  1.0 -0.4442074481
N  N7  1  0.35640000  0.96940000  0.13240000  1.0 0.1091565103
N  N8  1  0.64360000  0.03060000  0.13240000  1.0 0.1091565103
N  N9  1  0.64360000  0.03060000  0.86760000  1.0 0.1091565103
N  N10  1  0.35640000  0.96940000  0.86760000  1.0 0.1091565103
N  N11  1  0.49900000  0.81160000  0.50000000  1.0 -0.4442074481
N  N12  1  0.50100000  0.18840000  0.50000000  1.0 -0.4442074481
O  O1  1  0.08080000  0.64340000  0.21540000  1.0 -0.0733833625
O  O2  1  0.92050000  0.54990000  0.40560000  1.0 -0.2055153039
O  O3  1  0.07200000  0.66940000  0.16120000  1.0 -0.1338976779
O  O4  1  0.91920000  0.35660000  0.21540000  1.0 -0.0733833625
O  O5  1  0.07950000  0.45010000  0.40560000  1.0 -0.2055153039
O  O6  1  0.92800000  0.33060000  0.16120000  1.0 -0.1338976779
O  O7  1  0.91920000  0.35660000  0.78460000  1.0 -0.0733833625
O  O8  1  0.07950000  0.45010000  0.59440000  1.0 -0.2055153039
O  O9  1  0.92800000  0.33060000  0.83880000  1.0 -0.1357016075
O  O10  1  0.08080000  0.64340000  0.78460000  1.0 -0.0733833625
O  O11  1  0.92050000  0.54990000  0.59440000  1.0 -0.2055153039
O  O12  1  0.07200000  0.66940000  0.83880000  1.0 -0.1357016075
O  O13  1  0.09140000  0.73060000  0.50000000  1.0 -0.3615655709
O  O14  1  0.90860000  0.26940000  0.50000000  1.0 -0.3615655709
O  O15  1  0.35660000  0.91920000  0.28460000  1.0 -0.0733833625
O  O16  1  0.45010000  0.07950000  0.09440000  1.0 -0.1995523262
O  O17  1  0.33060000  0.92800000  0.33880000  1.0 -0.1357016075
O  O18  1  0.64340000  0.08080000  0.28460000  1.0 -0.0733833625
O  O19  1  0.54990000  0.92050000  0.09440000  1.0 -0.2055153039
O  O20  1  0.66940000  0.07200000  0.33880000  1.0 -0.1338976779
O  O21  1  0.64340000  0.08080000  0.71540000  1.0 -0.0733833625
O  O22  1  0.54990000  0.92050000  0.90560000  1.0 -0.2055153039
O  O23  1  0.66940000  0.07200000  0.66120000  1.0 -0.1357016075
O  O24  1  0.35660000  0.91920000  0.71540000  1.0 -0.0733833625
O  O25  1  0.45010000  0.07950000  0.90560000  1.0 -0.2055153039
O  O26  1  0.33060000  0.92800000  0.66120000  1.0 -0.1357016075
O  O27  1  0.26940000  0.90860000  0.00000000  1.0 -0.3615655709
O  O28  1  0.73060000  0.09140000  0.00000000  1.0 -0.3615655709
