# DDEC6 charges by PACMAN v1.1 (https://github.com/mtap-research/PACMAN-charge/)
data_FUXXIH_ASR_pacman
_symmetry_space_group_name_H-M   'P 1'
_cell_length_a   17.65170000
_cell_length_b   17.65170000
_cell_length_c   11.08980000
_cell_angle_alpha   73.15650000
_cell_angle_beta   106.84300000
_cell_angle_gamma   86.87810000
_symmetry_Int_Tables_number   1
_chemical_formula_structural   Ni3H29C35NO13
_chemical_formula_sum   'Ni6 H58 C70 N2 O26'
_cell_volume   3128.93736415
_cell_formula_units_Z   2
loop_
 _symmetry_equiv_pos_site_id
 _symmetry_equiv_pos_as_xyz
  1  'x, y, z'
loop_
 _atom_site_type_symbol
 _atom_site_label
 _atom_site_symmetry_multiplicity
 _atom_site_fract_x
 _atom_site_fract_y
 _atom_site_fract_z
 _atom_site_occupancy
 _atom_site_charge
Ni  Ni1  1  0.83550000  0.32338000  0.97985000  1.0 0.6933664271
Ni  Ni2  1  0.32338000  0.83550000  0.02015000  1.0 0.6933664271
Ni  Ni3  1  0.78249000  0.29407000  0.51766000  1.0 0.8022777327
Ni  Ni4  1  0.29407000  0.78249000  0.48234000  1.0 0.8022777327
Ni  Ni5  1  0.81184000  0.31000000  0.25020000  1.0 0.9068440684
Ni  Ni6  1  0.31000000  0.81184000  0.74980000  1.0 0.9068440684
H  H1  1  0.41950000  0.39330000  0.36470000  1.0 0.1012525969
H  H2  1  0.39330000  0.41950000  0.63530000  1.0 0.1012525969
H  H3  1  0.19600000  0.29820000  0.56010000  1.0 0.108922213
H  H4  1  0.29820000  0.19600000  0.43990000  1.0 0.108922213
H  H5  1  0.43210000  0.31650000  0.93960000  1.0 0.108922213
H  H6  1  0.31650000  0.43210000  0.06040000  1.0 0.108922213
H  H7  1  0.19140000  0.23040000  0.14840000  1.0 0.1012525969
H  H8  1  0.23040000  0.19140000  0.85160000  1.0 0.1012525969
H  H9  1  0.40590000  0.23470000  0.30840000  1.0 0.108922213
H  H10  1  0.23470000  0.40590000  0.69160000  1.0 0.108922213
H  H11  1  0.21350000  0.36790000  0.20220000  1.0 0.108922213
H  H12  1  0.36790000  0.21350000  0.79780000  1.0 0.108922213
H  H13  1  0.07540000  0.36940000  0.10450000  1.0 0.1187426099
H  H14  1  0.36940000  0.07540000  0.89550000  1.0 0.1187426099
H  H15  1  0.52940000  0.26820000  0.39030000  1.0 0.108922213
H  H16  1  0.26820000  0.52940000  0.60970000  1.0 0.108922213
H  H17  1  0.55610000  0.32510000  0.02480000  1.0 0.1187426099
H  H18  1  0.32510000  0.55610000  0.97520000  1.0 0.1187426099
H  H19  1  0.05370000  0.29210000  0.46450000  1.0 0.108922213
H  H20  1  0.29210000  0.05370000  0.53550000  1.0 0.108922213
H  H21  1  0.77120000  0.21780000  0.10130000  1.0 0.3900051751
H  H22  1  0.21780000  0.77120000  0.89870000  1.0 0.3900051751
H  H23  1  0.86520000  0.19720000  0.17160000  1.0 0.3773211726
H  H24  1  0.19720000  0.86520000  0.82840000  1.0 0.3773211726
H  H25  1  0.17570000  0.09510000  0.25900000  1.0 0.1253318676
H  H26  1  0.09510000  0.17570000  0.74100000  1.0 0.1253318676
H  H27  1  0.45640000  0.50460000  0.24190000  1.0 0.1187426099
H  H28  1  0.50460000  0.45640000  0.75810000  1.0 0.1187426099
H  H29  1  0.37270000  0.00190000  0.24790000  1.0 0.1351655164
H  H30  1  0.00190000  0.37270000  0.75210000  1.0 0.1351655164
H  H31  1  0.81050000  0.17690000  0.42550000  1.0 0.3988707551
H  H32  1  0.17690000  0.81050000  0.57450000  1.0 0.3988707551
H  H33  1  0.89340000  0.20700000  0.47730000  1.0 0.3900051751
H  H34  1  0.20700000  0.89340000  0.52270000  1.0 0.3900051751
H  H35  1  0.83460000  0.44200000  0.08110000  1.0 0.4147722312
H  H36  1  0.44200000  0.83460000  0.91890000  1.0 0.4147722312
H  H37  1  0.74400000  0.42960000  0.02370000  1.0 0.3988707551
H  H38  1  0.42960000  0.74400000  0.97630000  1.0 0.3988707551
H  H39  1  0.25530000  0.63270000  0.25350000  1.0 0.108922213
H  H40  1  0.63270000  0.25530000  0.74650000  1.0 0.108922213
H  H41  1  0.21670000  0.50690000  0.37500000  1.0 0.1187426099
H  H42  1  0.50690000  0.21670000  0.62500000  1.0 0.1187426099
H  H43  1  0.63950000  0.39390000  0.57350000  1.0 0.0789902025
H  H44  1  0.39390000  0.63950000  0.42650000  1.0 0.0904758263
H  H45  1  0.64340000  0.42220000  0.42760000  1.0 0.0904758263
H  H46  1  0.42220000  0.64340000  0.57240000  1.0 0.0904758263
H  H47  1  0.39420000  0.11920000  0.14380000  1.0 0.1187426099
H  H48  1  0.11920000  0.39420000  0.85620000  1.0 0.1187426099
H  H49  1  0.60960000  0.54020000  0.45610000  1.0 0.1012525969
H  H50  1  0.54020000  0.60960000  0.54390000  1.0 0.1012525969
H  H51  1  0.66890000  0.51310000  0.60420000  1.0 0.108922213
H  H52  1  0.51310000  0.66890000  0.39580000  1.0 0.108922213
H  H53  1  0.83770000  0.46130000  0.57430000  1.0 0.108922213
H  H54  1  0.46130000  0.83770000  0.42570000  1.0 0.108922213
H  H55  1  0.71060000  0.55760000  0.36800000  1.0 0.1012525969
H  H56  1  0.55760000  0.71060000  0.63200000  1.0 0.1012525969
H  H57  1  0.75500000  0.57280000  0.50230000  1.0 0.1012525969
H  H58  1  0.57280000  0.75500000  0.49770000  1.0 0.1012525969
C  C1  1  0.38530000  0.44090000  0.34110000  1.0 -0.1496206434
C  C2  1  0.44090000  0.38530000  0.65890000  1.0 -0.1496206434
C  C3  1  0.31080000  0.26460000  0.05110000  1.0 -0.0204564153
C  C4  1  0.26460000  0.31080000  0.94890000  1.0 -0.0204564153
C  C5  1  0.30090000  0.35110000  0.45020000  1.0 -0.0204564153
C  C6  1  0.35110000  0.30090000  0.54980000  1.0 -0.0204564153
C  C7  1  0.32320000  0.43180000  0.38270000  1.0 0.0616321937
C  C8  1  0.43180000  0.32320000  0.61730000  1.0 0.0616321937
C  C9  1  0.29940000  0.18600000  0.12590000  1.0 0.0616321937
C  C10  1  0.18600000  0.29940000  0.87410000  1.0 0.0616321937
C  C11  1  0.17200000  0.31380000  0.46840000  1.0 -0.1496206434
C  C12  1  0.31380000  0.17200000  0.53160000  1.0 -0.1496206434
C  C13  1  0.45230000  0.30350000  0.03160000  1.0 -0.1496206434
C  C14  1  0.30350000  0.45230000  0.96840000  1.0 -0.1496206434
C  C15  1  0.21450000  0.34070000  0.38950000  1.0 0.0789902025
C  C16  1  0.34070000  0.21450000  0.61050000  1.0 0.0789902025
C  C17  1  0.22780000  0.18560000  0.16500000  1.0 -0.162241008
C  C18  1  0.18560000  0.22780000  0.83500000  1.0 -0.162241008
C  C19  1  0.43450000  0.25730000  0.25180000  1.0 -0.1892480961
C  C20  1  0.25730000  0.43450000  0.74820000  1.0 -0.1892480961
C  C21  1  0.05980000  0.32900000  0.27320000  1.0 -0.0418712533
C  C22  1  0.32900000  0.05980000  0.72680000  1.0 -0.0418712533
C  C23  1  0.26920000  0.03920000  0.26870000  1.0 -0.0204564153
C  C24  1  0.03920000  0.26920000  0.73130000  1.0 -0.0204564153
C  C25  1  0.39880000  0.27800000  0.10560000  1.0 0.0335567781
C  C26  1  0.27800000  0.39880000  0.89440000  1.0 0.0335567781
C  C27  1  0.56510000  0.29410000  0.22130000  1.0 -0.0316886519
C  C28  1  0.29410000  0.56510000  0.77870000  1.0 -0.0316886519
C  C29  1  0.18120000  0.35580000  0.25610000  1.0 -0.2061918489
C  C30  1  0.35580000  0.18120000  0.74390000  1.0 -0.2061918489
C  C31  1  0.09890000  0.35350000  0.19640000  1.0 -0.0814632921
C  C32  1  0.35350000  0.09890000  0.80360000  1.0 -0.0814632921
C  C33  1  0.51060000  0.27220000  0.30090000  1.0 -0.1185934655
C  C34  1  0.27220000  0.51060000  0.69910000  1.0 -0.1185934655
C  C35  1  0.35860000  0.58260000  0.23930000  1.0 -0.1185934655
C  C36  1  0.58260000  0.35860000  0.76070000  1.0 -0.1185934655
C  C37  1  0.52620000  0.30960000  0.08210000  1.0 -0.0884595773
C  C38  1  0.30960000  0.52620000  0.91790000  1.0 -0.0884595773
C  C39  1  0.08650000  0.30810000  0.41260000  1.0 -0.1011048927
C  C40  1  0.30810000  0.08650000  0.58740000  1.0 -0.1011048927
C  C41  1  0.22210000  0.10170000  0.23570000  1.0 -0.131068522
C  C42  1  0.10170000  0.22210000  0.76430000  1.0 -0.131068522
C  C43  1  0.41120000  0.50760000  0.26860000  1.0 -0.0814632921
C  C44  1  0.50760000  0.41120000  0.73140000  1.0 -0.0814632921
C  C45  1  0.97500000  0.32200000  0.21550000  1.0 0.5672059693
C  C46  1  0.32200000  0.97500000  0.78450000  1.0 0.5672059693
C  C47  1  0.33580000  0.04680000  0.22900000  1.0 -0.1103974803
C  C48  1  0.04680000  0.33580000  0.77100000  1.0 -0.1103974803
C  C49  1  0.28740000  0.58400000  0.27600000  1.0 -0.1103974803
C  C50  1  0.58400000  0.28740000  0.72400000  1.0 -0.1103974803
C  C51  1  0.26300000  0.50780000  0.35080000  1.0 -0.1713619119
C  C52  1  0.50780000  0.26300000  0.64920000  1.0 -0.1713619119
C  C53  1  0.81600000  0.45080000  0.38890000  1.0 0.5288480409
C  C54  1  0.45080000  0.81600000  0.61110000  1.0 0.5288480409
C  C55  1  0.66750000  0.42430000  0.51690000  1.0 -0.0733620486
C  C56  1  0.42430000  0.66750000  0.48310000  1.0 -0.0733620486
C  C57  1  0.34680000  0.11700000  0.16500000  1.0 -0.131068522
C  C58  1  0.11700000  0.34680000  0.83500000  1.0 -0.131068522
C  C59  1  0.66060000  0.50920000  0.51590000  1.0 -0.1820497288
C  C60  1  0.50920000  0.66060000  0.48410000  1.0 -0.1820497288
C  C61  1  0.79000000  0.45720000  0.50570000  1.0 -0.0316886519
C  C62  1  0.45720000  0.79000000  0.49430000  1.0 -0.0316886519
C  C63  1  0.72980000  0.53400000  0.46400000  1.0 -0.1820497288
C  C64  1  0.53400000  0.72980000  0.53600000  1.0 -0.1820497288
C  C65  1  0.65150000  0.30070000  0.27680000  1.0 0.5509041437
C  C66  1  0.30070000  0.65150000  0.72320000  1.0 0.5509041437
C  C67  1  0.36690000  0.65910000  0.15980000  1.0 0.4889466503
C  C68  1  0.65910000  0.36690000  0.84020000  1.0 0.4889466503
C  C69  1  0.23480000  0.96340000  0.34980000  1.0 0.5672059693
C  C70  1  0.96340000  0.23480000  0.65020000  1.0 0.5672059693
N  N1  1  0.75400000  0.38880000  0.56780000  1.0 -0.3911377898
N  N2  1  0.38880000  0.75400000  0.43220000  1.0 -0.3911377898
O  O1  1  0.92350000  0.32190000  0.28630000  1.0 -0.6090099028
O  O2  1  0.32190000  0.92350000  0.71370000  1.0 -0.6090099028
O  O3  1  0.68610000  0.32130000  0.20170000  1.0 -0.4938388578
O  O4  1  0.32130000  0.68610000  0.79830000  1.0 -0.4938388578
O  O5  1  0.95090000  0.32790000  0.08910000  1.0 -0.599175047
O  O6  1  0.32790000  0.95090000  0.91090000  1.0 -0.599175047
O  O7  1  0.67610000  0.29430000  0.40260000  1.0 -0.5732794515
O  O8  1  0.29430000  0.67610000  0.59740000  1.0 -0.5732794515
O  O9  1  0.81990000  0.23990000  0.12880000  1.0 -0.7308502308
O  O10  1  0.23990000  0.81990000  0.87120000  1.0 -0.7308502308
O  O11  1  0.83640000  0.22340000  0.43160000  1.0 -0.7584003917
O  O12  1  0.22340000  0.83640000  0.56840000  1.0 -0.7584003917
O  O13  1  0.79880000  0.40300000  0.06950000  1.0 -0.7584003917
O  O14  1  0.40300000  0.79880000  0.93050000  1.0 -0.7584003917
O  O15  1  0.84110000  0.49610000  0.32870000  1.0 -0.2994544319
O  O16  1  0.49610000  0.84110000  0.67130000  1.0 -0.2994544319
O  O17  1  0.81570000  0.38470000  0.36110000  1.0 -0.4938388578
O  O18  1  0.38470000  0.81570000  0.63890000  1.0 -0.4938388578
O  O19  1  0.41860000  0.66140000  0.09630000  1.0 -0.4418880454
O  O20  1  0.66140000  0.41860000  0.90370000  1.0 -0.4418880454
O  O21  1  0.34420000  0.71480000  0.15160000  1.0 -0.2782116345
O  O22  1  0.71480000  0.34420000  0.84840000  1.0 -0.2782116345
O  O23  1  0.17870000  0.97030000  0.37620000  1.0 -0.2994544319
O  O24  1  0.97030000  0.17870000  0.62380000  1.0 -0.2994544319
O  O25  1  0.30490000  0.89370000  0.36430000  1.0 -0.6457042507
O  O26  1  0.89370000  0.30490000  0.63570000  1.0 -0.6457042507
