# DDEC6 charges by PACMAN v1.1 (https://github.com/mtap-research/PACMAN-charge/)
data_FUYZAB_ASR_pacman
_symmetry_space_group_name_H-M   'P 1'
_cell_length_a   20.31900000
_cell_length_b   20.31900000
_cell_length_c   18.23390000
_cell_angle_alpha   90.00000000
_cell_angle_beta   90.00000000
_cell_angle_gamma   90.00000000
_symmetry_Int_Tables_number   1
_chemical_formula_structural   Mn3Mo12(P4O25)2
_chemical_formula_sum   'Mn12 Mo48 P32 O200'
_cell_volume   7528.08006390
_cell_formula_units_Z   4
loop_
 _symmetry_equiv_pos_site_id
 _symmetry_equiv_pos_as_xyz
  1  'x, y, z'
loop_
 _atom_site_type_symbol
 _atom_site_label
 _atom_site_symmetry_multiplicity
 _atom_site_fract_x
 _atom_site_fract_y
 _atom_site_fract_z
 _atom_site_occupancy
 _atom_site_charge
Mn  Mn1  1  0.75000000  0.25000000  0.75000000  1.0 1.3387862874
Mn  Mn2  1  0.25000000  0.75000000  0.75000000  1.0 1.3387862874
Mn  Mn3  1  0.75000000  0.75000000  0.25000000  1.0 1.3387862874
Mn  Mn4  1  0.25000000  0.25000000  0.25000000  1.0 1.3387862874
Mn  Mn5  1  0.03786000  0.25553000  0.59320000  1.0 1.150427921
Mn  Mn6  1  0.96214000  0.74447000  0.59320000  1.0 1.150427921
Mn  Mn7  1  0.75553000  0.46214000  0.09320000  1.0 1.150427921
Mn  Mn8  1  0.24447000  0.53786000  0.09320000  1.0 1.150427921
Mn  Mn9  1  0.46214000  0.24447000  0.90680000  1.0 1.150427921
Mn  Mn10  1  0.53786000  0.75553000  0.90680000  1.0 1.150427921
Mn  Mn11  1  0.74447000  0.03786000  0.40680000  1.0 1.150427921
Mn  Mn12  1  0.25553000  0.96214000  0.40680000  1.0 1.150427921
Mo  Mo1  1  0.75161000  0.26343000  0.54039000  1.0 1.9501277298
Mo  Mo2  1  0.24839000  0.73657000  0.54039000  1.0 1.9501277298
Mo  Mo3  1  0.76343000  0.74839000  0.04039000  1.0 1.9501277298
Mo  Mo4  1  0.23657000  0.25161000  0.04039000  1.0 1.9501277298
Mo  Mo5  1  0.74839000  0.23657000  0.95961000  1.0 1.958736125
Mo  Mo6  1  0.25161000  0.76343000  0.95961000  1.0 1.958736125
Mo  Mo7  1  0.73657000  0.75161000  0.45961000  1.0 1.958736125
Mo  Mo8  1  0.26343000  0.24839000  0.45961000  1.0 1.958736125
Mo  Mo9  1  0.73657000  0.37981000  0.60007000  1.0 2.0001734777
Mo  Mo10  1  0.26343000  0.62019000  0.60007000  1.0 2.0001734777
Mo  Mo11  1  0.87981000  0.76343000  0.10007000  1.0 2.0001734777
Mo  Mo12  1  0.12019000  0.23657000  0.10007000  1.0 2.0001734777
Mo  Mo13  1  0.76343000  0.12019000  0.89993000  1.0 2.0001734777
Mo  Mo14  1  0.23657000  0.87981000  0.89993000  1.0 2.0001734777
Mo  Mo15  1  0.62019000  0.73657000  0.39993000  1.0 2.0001734777
Mo  Mo16  1  0.37981000  0.26343000  0.39993000  1.0 2.0001734777
Mo  Mo17  1  0.82359000  0.42263000  0.75559000  1.0 1.9908132269
Mo  Mo18  1  0.17641000  0.57737000  0.75559000  1.0 1.9908132269
Mo  Mo19  1  0.92263000  0.67641000  0.25559000  1.0 1.9830207858
Mo  Mo20  1  0.07737000  0.32359000  0.25559000  1.0 1.9830207858
Mo  Mo21  1  0.67641000  0.07737000  0.74441000  1.0 1.9908132269
Mo  Mo22  1  0.32359000  0.92263000  0.74441000  1.0 1.9830207858
Mo  Mo23  1  0.57737000  0.82359000  0.24441000  1.0 1.9908132269
Mo  Mo24  1  0.42263000  0.17641000  0.24441000  1.0 1.9908132269
Mo  Mo25  1  0.90487000  0.33778000  0.81254000  1.0 1.958736125
Mo  Mo26  1  0.09513000  0.66222000  0.81254000  1.0 1.9501277298
Mo  Mo27  1  0.83778000  0.59513000  0.31254000  1.0 1.9419221414
Mo  Mo28  1  0.16222000  0.40487000  0.31254000  1.0 1.9419221414
Mo  Mo29  1  0.59513000  0.16222000  0.68746000  1.0 1.9501277298
Mo  Mo30  1  0.40487000  0.83778000  0.68746000  1.0 1.9419221414
Mo  Mo31  1  0.66222000  0.90487000  0.18746000  1.0 1.9501277298
Mo  Mo32  1  0.33778000  0.09513000  0.18746000  1.0 1.9501277298
Mo  Mo33  1  0.92642000  0.18035000  0.73691000  1.0 1.9296096845
Mo  Mo34  1  0.07358000  0.81965000  0.73691000  1.0 1.9296096845
Mo  Mo35  1  0.68035000  0.57358000  0.23691000  1.0 1.9296096845
Mo  Mo36  1  0.31965000  0.42642000  0.23691000  1.0 1.9296096845
Mo  Mo37  1  0.57358000  0.31965000  0.76309000  1.0 1.9296096845
Mo  Mo38  1  0.42642000  0.68035000  0.76309000  1.0 1.9296096845
Mo  Mo39  1  0.81965000  0.92642000  0.26309000  1.0 1.9296096845
Mo  Mo40  1  0.18035000  0.07358000  0.26309000  1.0 1.9296096845
Mo  Mo41  1  0.86229000  0.15269000  0.61789000  1.0 1.9501277298
Mo  Mo42  1  0.13771000  0.84731000  0.61789000  1.0 1.9419221414
Mo  Mo43  1  0.65269000  0.63771000  0.11789000  1.0 1.958736125
Mo  Mo44  1  0.34731000  0.36229000  0.11789000  1.0 1.9501277298
Mo  Mo45  1  0.63771000  0.34731000  0.88211000  1.0 1.9501277298
Mo  Mo46  1  0.36229000  0.65269000  0.88211000  1.0 1.9501277298
Mo  Mo47  1  0.84731000  0.86229000  0.38211000  1.0 1.9501277298
Mo  Mo48  1  0.15269000  0.13771000  0.38211000  1.0 1.9501277298
P  P1  1  0.89373000  0.31410000  0.62755000  1.0 1.4994175418
P  P2  1  0.10627000  0.68590000  0.62755000  1.0 1.4994175418
P  P3  1  0.81410000  0.60627000  0.12755000  1.0 1.4994175418
P  P4  1  0.18590000  0.39373000  0.12755000  1.0 1.4994175418
P  P5  1  0.60627000  0.18590000  0.87245000  1.0 1.4994175418
P  P6  1  0.39373000  0.81410000  0.87245000  1.0 1.4994175418
P  P7  1  0.68590000  0.89373000  0.37245000  1.0 1.4994175418
P  P8  1  0.31410000  0.10627000  0.37245000  1.0 1.4994175418
P  P9  1  0.85167000  0.16947000  0.43433000  1.0 1.3827506138
P  P10  1  0.14833000  0.83053000  0.43433000  1.0 1.3880069488
P  P11  1  0.66947000  0.64833000  0.93433000  1.0 1.3880069488
P  P12  1  0.33053000  0.35167000  0.93433000  1.0 1.3880069488
P  P13  1  0.64833000  0.33053000  0.06567000  1.0 1.3880069488
P  P14  1  0.35167000  0.66947000  0.06567000  1.0 1.3880069488
P  P15  1  0.83053000  0.85167000  0.56567000  1.0 1.3827506138
P  P16  1  0.16947000  0.14833000  0.56567000  1.0 1.3880069488
P  P17  1  0.80377000  0.52926000  0.61932000  1.0 1.3505525338
P  P18  1  0.19623000  0.47074000  0.61932000  1.0 1.3505525338
P  P19  1  0.02926000  0.69623000  0.11932000  1.0 1.3387862874
P  P20  1  0.97074000  0.30377000  0.11932000  1.0 1.3387862874
P  P21  1  0.69623000  0.97074000  0.88068000  1.0 1.3505525338
P  P22  1  0.30377000  0.02926000  0.88068000  1.0 1.3505525338
P  P23  1  0.47074000  0.80377000  0.38068000  1.0 1.3387862874
P  P24  1  0.52926000  0.19623000  0.38068000  1.0 1.3387862874
P  P25  1  0.05341000  0.27723000  0.76963000  1.0 1.3581845953
P  P26  1  0.94659000  0.72277000  0.76963000  1.0 1.3505525338
P  P27  1  0.77723000  0.44659000  0.26963000  1.0 1.3505525338
P  P28  1  0.22277000  0.55341000  0.26963000  1.0 1.3581845953
P  P29  1  0.44659000  0.22277000  0.73037000  1.0 1.3581845953
P  P30  1  0.55341000  0.77723000  0.73037000  1.0 1.3581845953
P  P31  1  0.72277000  0.05341000  0.23037000  1.0 1.3505525338
P  P32  1  0.27723000  0.94659000  0.23037000  1.0 1.3581845953
O  O1  1  0.73009000  0.29069000  0.64174000  1.0 -0.8810383148
O  O2  1  0.26991000  0.70931000  0.64174000  1.0 -0.8810383148
O  O3  1  0.79069000  0.76991000  0.14174000  1.0 -0.8810383148
O  O4  1  0.20931000  0.23009000  0.14174000  1.0 -0.8810383148
O  O5  1  0.76991000  0.20931000  0.85826000  1.0 -0.8810383148
O  O6  1  0.23009000  0.79069000  0.85826000  1.0 -0.8810383148
O  O7  1  0.70931000  0.73009000  0.35826000  1.0 -0.8810383148
O  O8  1  0.29069000  0.26991000  0.35826000  1.0 -0.8810383148
O  O9  1  0.83147000  0.18459000  0.71429000  1.0 -0.861697801
O  O10  1  0.16853000  0.81541000  0.71429000  1.0 -0.861697801
O  O11  1  0.68459000  0.66853000  0.21429000  1.0 -0.861697801
O  O12  1  0.31541000  0.33147000  0.21429000  1.0 -0.861697801
O  O13  1  0.66853000  0.31541000  0.78571000  1.0 -0.861697801
O  O14  1  0.33147000  0.68459000  0.78571000  1.0 -0.861697801
O  O15  1  0.81541000  0.83147000  0.28571000  1.0 -0.861697801
O  O16  1  0.18459000  0.16853000  0.28571000  1.0 -0.861697801
O  O17  1  0.85541000  0.55802000  0.56914000  1.0 -0.6285719938
O  O18  1  0.14459000  0.44198000  0.56914000  1.0 -0.6374465137
O  O19  1  0.05802000  0.64459000  0.06914000  1.0 -0.6374465137
O  O20  1  0.94198000  0.35541000  0.06914000  1.0 -0.6374465137
O  O21  1  0.64459000  0.94198000  0.93086000  1.0 -0.6374465137
O  O22  1  0.35541000  0.05802000  0.93086000  1.0 -0.6374465137
O  O23  1  0.44198000  0.85541000  0.43086000  1.0 -0.6241173313
O  O24  1  0.55802000  0.14459000  0.43086000  1.0 -0.6241173313
O  O25  1  0.84714000  0.37198000  0.63979000  1.0 -0.8222374883
O  O26  1  0.15286000  0.62802000  0.63979000  1.0 -0.8222374883
O  O27  1  0.87198000  0.65286000  0.13979000  1.0 -0.8253410624
O  O28  1  0.12802000  0.34714000  0.13979000  1.0 -0.8253410624
O  O29  1  0.65286000  0.12802000  0.86021000  1.0 -0.8222374883
O  O30  1  0.34714000  0.87198000  0.86021000  1.0 -0.8222374883
O  O31  1  0.62802000  0.84714000  0.36021000  1.0 -0.8222374883
O  O32  1  0.37198000  0.15286000  0.36021000  1.0 -0.8222374883
O  O33  1  0.81113000  0.33060000  0.78506000  1.0 -0.8705727163
O  O34  1  0.18887000  0.66940000  0.78506000  1.0 -0.8705727163
O  O35  1  0.83060000  0.68887000  0.28506000  1.0 -0.8705727163
O  O36  1  0.16940000  0.31113000  0.28506000  1.0 -0.8705727163
O  O37  1  0.68887000  0.16940000  0.71494000  1.0 -0.8705727163
O  O38  1  0.31113000  0.83060000  0.71494000  1.0 -0.8705727163
O  O39  1  0.66940000  0.81113000  0.21494000  1.0 -0.8705727163
O  O40  1  0.33060000  0.18887000  0.21494000  1.0 -0.8705727163
O  O41  1  0.78012000  0.35119000  0.50857000  1.0 -0.7905758189
O  O42  1  0.21988000  0.64881000  0.50857000  1.0 -0.7905758189
O  O43  1  0.85119000  0.71988000  0.00857000  1.0 -0.7905758189
O  O44  1  0.14881000  0.28012000  0.00857000  1.0 -0.7905758189
O  O45  1  0.71988000  0.14881000  0.99143000  1.0 -0.7905758189
O  O46  1  0.28012000  0.85119000  0.99143000  1.0 -0.7905758189
O  O47  1  0.64881000  0.78012000  0.49143000  1.0 -0.7905758189
O  O48  1  0.35119000  0.21988000  0.49143000  1.0 -0.7905758189
O  O49  1  0.73551000  0.41347000  0.70381000  1.0 -0.8705727163
O  O50  1  0.26449000  0.58653000  0.70381000  1.0 -0.8705727163
O  O51  1  0.91347000  0.76449000  0.20381000  1.0 -0.8705727163
O  O52  1  0.08653000  0.23551000  0.20381000  1.0 -0.8705727163
O  O53  1  0.76449000  0.08653000  0.79619000  1.0 -0.8705727163
O  O54  1  0.23551000  0.91347000  0.79619000  1.0 -0.8705727163
O  O55  1  0.58653000  0.73551000  0.29619000  1.0 -0.8705727163
O  O56  1  0.41347000  0.26449000  0.29619000  1.0 -0.8705727163
O  O57  1  0.95468000  0.17600000  0.63422000  1.0 -0.8705727163
O  O58  1  0.04532000  0.82400000  0.63422000  1.0 -0.8705727163
O  O59  1  0.67600000  0.54532000  0.13422000  1.0 -0.861697801
O  O60  1  0.32400000  0.45468000  0.13422000  1.0 -0.861697801
O  O61  1  0.54532000  0.32400000  0.86578000  1.0 -0.861697801
O  O62  1  0.45468000  0.67600000  0.86578000  1.0 -0.861697801
O  O63  1  0.82400000  0.95468000  0.36578000  1.0 -0.861697801
O  O64  1  0.17600000  0.04532000  0.36578000  1.0 -0.861697801
O  O65  1  0.80136000  0.22553000  0.45049000  1.0 -0.7310870405
O  O66  1  0.19864000  0.77447000  0.45049000  1.0 -0.7310870405
O  O67  1  0.72553000  0.69864000  0.95049000  1.0 -0.7310870405
O  O68  1  0.27447000  0.30136000  0.95049000  1.0 -0.7310870405
O  O69  1  0.69864000  0.27447000  0.04951000  1.0 -0.7310870405
O  O70  1  0.30136000  0.72553000  0.04951000  1.0 -0.7310870405
O  O71  1  0.77447000  0.80136000  0.54951000  1.0 -0.7310870405
O  O72  1  0.22553000  0.19864000  0.54951000  1.0 -0.7310870405
O  O73  1  0.91908000  0.42152000  0.76404000  1.0 -0.7617576233
O  O74  1  0.08092000  0.57848000  0.76404000  1.0 -0.7617576233
O  O75  1  0.92152000  0.58092000  0.26404000  1.0 -0.7690940532
O  O76  1  0.07848000  0.41908000  0.26404000  1.0 -0.7617576233
O  O77  1  0.58092000  0.07848000  0.73596000  1.0 -0.7617576233
O  O78  1  0.41908000  0.92152000  0.73596000  1.0 -0.7617576233
O  O79  1  0.57848000  0.91908000  0.23596000  1.0 -0.7690940532
O  O80  1  0.42152000  0.08092000  0.23596000  1.0 -0.7690940532
O  O81  1  0.83928000  0.50160000  0.68943000  1.0 -0.7371278422
O  O82  1  0.16072000  0.49840000  0.68943000  1.0 -0.7371278422
O  O83  1  0.00160000  0.66072000  0.18943000  1.0 -0.7310870405
O  O84  1  0.99840000  0.33928000  0.18943000  1.0 -0.7310870405
O  O85  1  0.66072000  0.99840000  0.81057000  1.0 -0.7310870405
O  O86  1  0.33928000  0.00160000  0.81057000  1.0 -0.7310870405
O  O87  1  0.49840000  0.83928000  0.31057000  1.0 -0.7371278422
O  O88  1  0.50160000  0.16072000  0.31057000  1.0 -0.7371278422
O  O89  1  0.07016000  0.30330000  0.69272000  1.0 -0.7197411268
O  O90  1  0.92984000  0.69670000  0.69272000  1.0 -0.7197411268
O  O91  1  0.80330000  0.42984000  0.19272000  1.0 -0.7124677764
O  O92  1  0.19670000  0.57016000  0.19272000  1.0 -0.7124677764
O  O93  1  0.42984000  0.19670000  0.80728000  1.0 -0.7124677764
O  O94  1  0.57016000  0.80330000  0.80728000  1.0 -0.7124677764
O  O95  1  0.69670000  0.07016000  0.30728000  1.0 -0.7197411268
O  O96  1  0.30330000  0.92984000  0.30728000  1.0 -0.7197411268
O  O97  1  0.85310000  0.25876000  0.58976000  1.0 -0.850045623
O  O98  1  0.14690000  0.74124000  0.58976000  1.0 -0.850045623
O  O99  1  0.75876000  0.64690000  0.08976000  1.0 -0.850045623
O  O100  1  0.24124000  0.35310000  0.08976000  1.0 -0.850045623
O  O101  1  0.64690000  0.24124000  0.91024000  1.0 -0.850045623
O  O102  1  0.35310000  0.75876000  0.91024000  1.0 -0.850045623
O  O103  1  0.74124000  0.85310000  0.41024000  1.0 -0.850045623
O  O104  1  0.25876000  0.14690000  0.41024000  1.0 -0.850045623
O  O105  1  0.76369000  0.16730000  0.58358000  1.0 -0.9174260662
O  O106  1  0.23631000  0.83270000  0.58358000  1.0 -0.9174260662
O  O107  1  0.66730000  0.73631000  0.08358000  1.0 -0.9085847801
O  O108  1  0.33270000  0.26369000  0.08358000  1.0 -0.9085847801
O  O109  1  0.73631000  0.33270000  0.91642000  1.0 -0.9085847801
O  O110  1  0.26369000  0.66730000  0.91642000  1.0 -0.9085847801
O  O111  1  0.83270000  0.76369000  0.41642000  1.0 -0.9085847801
O  O112  1  0.16730000  0.23631000  0.41642000  1.0 -0.9085847801
O  O113  1  0.88457000  0.14865000  0.50757000  1.0 -0.7495831168
O  O114  1  0.11543000  0.85135000  0.50757000  1.0 -0.7495831168
O  O115  1  0.64865000  0.61543000  0.00757000  1.0 -0.7495831168
O  O116  1  0.35135000  0.38457000  0.00757000  1.0 -0.7495831168
O  O117  1  0.61543000  0.35135000  0.99243000  1.0 -0.7495831168
O  O118  1  0.38457000  0.64865000  0.99243000  1.0 -0.7495831168
O  O119  1  0.85135000  0.88457000  0.49243000  1.0 -0.7495831168
O  O120  1  0.14865000  0.11543000  0.49243000  1.0 -0.7495831168
O  O121  1  0.95373000  0.32831000  0.58130000  1.0 -0.6541476117
O  O122  1  0.04627000  0.67169000  0.58130000  1.0 -0.6541476117
O  O123  1  0.82831000  0.54627000  0.08130000  1.0 -0.6558879928
O  O124  1  0.17169000  0.45373000  0.08130000  1.0 -0.6558879928
O  O125  1  0.54627000  0.17169000  0.91870000  1.0 -0.6541476117
O  O126  1  0.45373000  0.82831000  0.91870000  1.0 -0.6541476117
O  O127  1  0.67169000  0.95373000  0.41870000  1.0 -0.6558879928
O  O128  1  0.32831000  0.04627000  0.41870000  1.0 -0.6558879928
O  O129  1  0.90537000  0.19780000  0.38549000  1.0 -0.6285719938
O  O130  1  0.09463000  0.80220000  0.38549000  1.0 -0.6285719938
O  O131  1  0.69780000  0.59463000  0.88549000  1.0 -0.6374465137
O  O132  1  0.30220000  0.40537000  0.88549000  1.0 -0.6374465137
O  O133  1  0.59463000  0.30220000  0.11451000  1.0 -0.6285719938
O  O134  1  0.40537000  0.69780000  0.11451000  1.0 -0.6285719938
O  O135  1  0.80220000  0.90537000  0.61451000  1.0 -0.6241173313
O  O136  1  0.19780000  0.09463000  0.61451000  1.0 -0.6285719938
O  O137  1  0.81850000  0.11094000  0.39921000  1.0 -0.7197411268
O  O138  1  0.18150000  0.88906000  0.39921000  1.0 -0.7197411268
O  O139  1  0.61094000  0.68150000  0.89921000  1.0 -0.7197411268
O  O140  1  0.38906000  0.31850000  0.89921000  1.0 -0.7197411268
O  O141  1  0.68150000  0.38906000  0.10079000  1.0 -0.7197411268
O  O142  1  0.31850000  0.61094000  0.10079000  1.0 -0.7197411268
O  O143  1  0.88906000  0.81850000  0.60079000  1.0 -0.7197411268
O  O144  1  0.11094000  0.18150000  0.60079000  1.0 -0.7197411268
O  O145  1  0.01865000  0.21059000  0.76152000  1.0 -0.7617576233
O  O146  1  0.98135000  0.78941000  0.76152000  1.0 -0.7617576233
O  O147  1  0.71059000  0.48135000  0.26152000  1.0 -0.7690940532
O  O148  1  0.28941000  0.51865000  0.26152000  1.0 -0.7690940532
O  O149  1  0.48135000  0.28941000  0.73848000  1.0 -0.7690940532
O  O150  1  0.51865000  0.71059000  0.73848000  1.0 -0.7690940532
O  O151  1  0.78941000  0.01865000  0.23848000  1.0 -0.7690940532
O  O152  1  0.21059000  0.98135000  0.23848000  1.0 -0.7690940532
O  O153  1  0.75195000  0.57923000  0.64460000  1.0 -0.5592478679
O  O154  1  0.24805000  0.42077000  0.64460000  1.0 -0.5695635842
O  O155  1  0.07923000  0.74805000  0.14460000  1.0 -0.5695635842
O  O156  1  0.92077000  0.25195000  0.14460000  1.0 -0.5695635842
O  O157  1  0.74805000  0.92077000  0.85540000  1.0 -0.5512192216
O  O158  1  0.25195000  0.07923000  0.85540000  1.0 -0.5592478679
O  O159  1  0.42077000  0.75195000  0.35540000  1.0 -0.5695635842
O  O160  1  0.57923000  0.24805000  0.35540000  1.0 -0.5695635842
O  O161  1  0.91642000  0.28884000  0.70390000  1.0 -0.8705727163
O  O162  1  0.08358000  0.71116000  0.70390000  1.0 -0.8705727163
O  O163  1  0.78884000  0.58358000  0.20390000  1.0 -0.8810383148
O  O164  1  0.21116000  0.41642000  0.20390000  1.0 -0.8810383148
O  O165  1  0.58358000  0.21116000  0.79610000  1.0 -0.8810383148
O  O166  1  0.41642000  0.78884000  0.79610000  1.0 -0.8810383148
O  O167  1  0.71116000  0.91642000  0.29610000  1.0 -0.8705727163
O  O168  1  0.28884000  0.08358000  0.29610000  1.0 -0.8705727163
O  O169  1  0.90292000  0.23351000  0.83061000  1.0 -0.8991409025
O  O170  1  0.09708000  0.76649000  0.83061000  1.0 -0.8944628404
O  O171  1  0.73351000  0.59708000  0.33061000  1.0 -0.8991409025
O  O172  1  0.26649000  0.40292000  0.33061000  1.0 -0.8991409025
O  O173  1  0.59708000  0.26649000  0.66939000  1.0 -0.8991409025
O  O174  1  0.40292000  0.73351000  0.66939000  1.0 -0.8991409025
O  O175  1  0.76649000  0.90292000  0.16939000  1.0 -0.8991409025
O  O176  1  0.23351000  0.09708000  0.16939000  1.0 -0.8991409025
O  O177  1  0.00541000  0.32720000  0.80781000  1.0 -0.7124677764
O  O178  1  0.99459000  0.67280000  0.80781000  1.0 -0.7124677764
O  O179  1  0.82720000  0.49459000  0.30781000  1.0 -0.7124677764
O  O180  1  0.17280000  0.50541000  0.30781000  1.0 -0.7124677764
O  O181  1  0.49459000  0.17280000  0.69219000  1.0 -0.7197411268
O  O182  1  0.50541000  0.82720000  0.69219000  1.0 -0.7197411268
O  O183  1  0.67280000  0.00541000  0.19219000  1.0 -0.7124677764
O  O184  1  0.32720000  0.99459000  0.19219000  1.0 -0.7124677764
O  O185  1  0.11389000  0.27060000  0.81630000  1.0 -0.5512192216
O  O186  1  0.88611000  0.72940000  0.81630000  1.0 -0.5512192216
O  O187  1  0.77060000  0.38611000  0.31630000  1.0 -0.5421912041
O  O188  1  0.22940000  0.61389000  0.31630000  1.0 -0.5421912041
O  O189  1  0.38611000  0.22940000  0.68370000  1.0 -0.5421912041
O  O190  1  0.61389000  0.77060000  0.68370000  1.0 -0.5421912041
O  O191  1  0.72940000  0.11389000  0.18370000  1.0 -0.5421912041
O  O192  1  0.27060000  0.88611000  0.18370000  1.0 -0.5421912041
O  O193  1  0.76953000  0.47244000  0.57750000  1.0 -0.7617576233
O  O194  1  0.23047000  0.52756000  0.57750000  1.0 -0.7617576233
O  O195  1  0.97244000  0.73047000  0.07750000  1.0 -0.7495831168
O  O196  1  0.02756000  0.26953000  0.07750000  1.0 -0.7495831168
O  O197  1  0.73047000  0.02756000  0.92250000  1.0 -0.7617576233
O  O198  1  0.26953000  0.97244000  0.92250000  1.0 -0.7617576233
O  O199  1  0.52756000  0.76953000  0.42250000  1.0 -0.7495831168
O  O200  1  0.47244000  0.23047000  0.42250000  1.0 -0.7495831168
