# DDEC6 charges by PACMAN v1.1 (https://github.com/mtap-research/PACMAN-charge/)
data_GADFAV_ASR_pacman
_symmetry_space_group_name_H-M   'P 1'
_cell_length_a   13.29130000
_cell_length_b   13.29130000
_cell_length_c   10.03900000
_cell_angle_alpha   86.15690000
_cell_angle_beta   93.84310000
_cell_angle_gamma   39.06200000
_symmetry_Int_Tables_number   1
_chemical_formula_structural   LaC12(ClO)6
_chemical_formula_sum   'La2 C24 Cl12 O12'
_cell_volume   1094.88584377
_cell_formula_units_Z   2
loop_
 _symmetry_equiv_pos_site_id
 _symmetry_equiv_pos_as_xyz
  1  'x, y, z'
loop_
 _atom_site_type_symbol
 _atom_site_label
 _atom_site_symmetry_multiplicity
 _atom_site_fract_x
 _atom_site_fract_y
 _atom_site_fract_z
 _atom_site_occupancy
 _atom_site_charge
La  La1  1  0.76588000  0.76588000  0.00000000  1.0 1.9035571285
La  La2  1  0.23412000  0.23412000  0.00000000  1.0 1.9035571285
C  C1  1  0.38265000  0.08365000  0.75220000  1.0 0.6120304235
C  C2  1  0.08365000  0.38265000  0.24780000  1.0 0.6120304235
C  C3  1  0.61735000  0.91635000  0.24780000  1.0 0.6120304235
C  C4  1  0.91635000  0.61735000  0.75220000  1.0 0.6120304235
C  C5  1  0.43943000  0.04423000  0.62050000  1.0 -0.104116243
C  C6  1  0.04423000  0.43943000  0.37950000  1.0 -0.104116243
C  C7  1  0.56057000  0.95577000  0.37950000  1.0 -0.104116243
C  C8  1  0.95577000  0.56057000  0.62050000  1.0 -0.104116243
C  C9  1  0.43881000  0.95901000  0.54730000  1.0 0.0704043508
C  C10  1  0.95901000  0.43881000  0.45270000  1.0 0.0704043508
C  C11  1  0.56119000  0.04099000  0.45270000  1.0 0.0704043508
C  C12  1  0.04099000  0.56119000  0.54730000  1.0 0.0704043508
C  C13  1  0.49756000  0.08736000  0.56730000  1.0 0.0704043508
C  C14  1  0.08736000  0.49756000  0.43270000  1.0 0.0704043508
C  C15  1  0.50244000  0.91264000  0.43270000  1.0 0.0704043508
C  C16  1  0.91264000  0.50244000  0.56730000  1.0 0.0704043508
C  C17  1  0.88410000  0.88410000  0.00000000  1.0 0.576254464
C  C18  1  0.11590000  0.11590000  0.00000000  1.0 0.576254464
C  C19  1  0.94350000  0.94350000  0.00000000  1.0 -0.0921808004
C  C20  1  0.05650000  0.05650000  0.00000000  1.0 -0.0921808004
C  C21  1  0.94920000  0.99740000  0.87210000  1.0 0.0767012753
C  C22  1  0.99740000  0.94920000  0.12790000  1.0 0.0704043508
C  C23  1  0.05080000  0.00260000  0.12790000  1.0 0.0767012753
C  C24  1  0.00260000  0.05080000  0.87210000  1.0 0.0704043508
Cl  Cl1  1  0.36570000  0.90444000  0.61576000  1.0 -0.0502479078
Cl  Cl2  1  0.90444000  0.36570000  0.38424000  1.0 -0.0502479078
Cl  Cl3  1  0.63430000  0.09556000  0.38424000  1.0 -0.0387037969
Cl  Cl4  1  0.09556000  0.63430000  0.61576000  1.0 -0.0502479078
Cl  Cl5  1  0.49258000  0.19986000  0.65594000  1.0 -0.0387037969
Cl  Cl6  1  0.19986000  0.49258000  0.34406000  1.0 -0.0387037969
Cl  Cl7  1  0.50742000  0.80014000  0.34406000  1.0 -0.0387037969
Cl  Cl8  1  0.80014000  0.50742000  0.65594000  1.0 -0.0387037969
Cl  Cl9  1  0.89122000  0.98294000  0.72750000  1.0 -0.0502479078
Cl  Cl10  1  0.98294000  0.89122000  0.27250000  1.0 -0.0502479078
Cl  Cl11  1  0.10878000  0.01706000  0.27250000  1.0 -0.0502479078
Cl  Cl12  1  0.01706000  0.10878000  0.72750000  1.0 -0.0502479078
O  O1  1  0.47804000  0.01164000  0.86590000  1.0 -0.6318737052
O  O2  1  0.01164000  0.47804000  0.13410000  1.0 -0.6318737052
O  O3  1  0.52196000  0.98836000  0.13410000  1.0 -0.6318737052
O  O4  1  0.98836000  0.52196000  0.86590000  1.0 -0.6318737052
O  O5  1  0.22905000  0.20645000  0.75180000  1.0 -0.5725044093
O  O6  1  0.20645000  0.22905000  0.24820000  1.0 -0.5725044093
O  O7  1  0.77095000  0.79355000  0.24820000  1.0 -0.5725044093
O  O8  1  0.79355000  0.77095000  0.75180000  1.0 -0.5725044093
O  O9  1  0.98410000  0.73390000  0.00610000  1.0 -0.575399392
O  O10  1  0.73390000  0.98410000  0.99390000  1.0 -0.575399392
O  O11  1  0.01590000  0.26610000  0.99390000  1.0 -0.575399392
O  O12  1  0.26610000  0.01590000  0.00610000  1.0 -0.575399392
