# DDEC6 charges by PACMAN v1.1 (https://github.com/mtap-research/PACMAN-charge/)
data_GADHIF_ASR_pacman
_symmetry_space_group_name_H-M   'P 1'
_cell_length_a   17.74100000
_cell_length_b   17.74100000
_cell_length_c   20.32720000
_cell_angle_alpha   57.83490000
_cell_angle_beta   122.16500000
_cell_angle_gamma   121.02100000
_symmetry_Int_Tables_number   1
_chemical_formula_structural   ZnH21C31N7O6
_chemical_formula_sum   'Zn4 H84 C124 N28 O24'
_cell_volume   4337.84675585
_cell_formula_units_Z   4
loop_
 _symmetry_equiv_pos_site_id
 _symmetry_equiv_pos_as_xyz
  1  'x, y, z'
loop_
 _atom_site_type_symbol
 _atom_site_label
 _atom_site_symmetry_multiplicity
 _atom_site_fract_x
 _atom_site_fract_y
 _atom_site_fract_z
 _atom_site_occupancy
 _atom_site_charge
Zn  Zn1  1  0.83325000  0.57337000  0.41392000  1.0 0.7252210949
Zn  Zn2  1  0.57337000  0.83325000  0.08608000  1.0 0.7252210949
Zn  Zn3  1  0.16675000  0.42663000  0.58608000  1.0 0.7252210949
Zn  Zn4  1  0.42663000  0.16675000  0.91392000  1.0 0.7252210949
H  H1  1  0.77190000  0.27170000  0.56450000  1.0 0.1294115169
H  H2  1  0.27170000  0.77190000  0.93550000  1.0 0.1294115169
H  H3  1  0.22810000  0.72830000  0.43550000  1.0 0.1294115169
H  H4  1  0.72830000  0.22810000  0.06450000  1.0 0.1294115169
H  H5  1  0.68510000  0.11330000  0.60660000  1.0 0.1294115169
H  H6  1  0.11330000  0.68510000  0.89340000  1.0 0.1294115169
H  H7  1  0.31490000  0.88670000  0.39340000  1.0 0.1294115169
H  H8  1  0.88670000  0.31490000  0.10660000  1.0 0.1294115169
H  H9  1  0.51210000  0.14270000  0.36960000  1.0 0.1226632222
H  H10  1  0.14270000  0.51210000  0.13040000  1.0 0.1226632222
H  H11  1  0.48790000  0.85730000  0.63040000  1.0 0.1226632222
H  H12  1  0.85730000  0.48790000  0.86960000  1.0 0.1226632222
H  H13  1  0.59870000  0.30110000  0.32750000  1.0 0.1110366254
H  H14  1  0.30110000  0.59870000  0.17250000  1.0 0.1110366254
H  H15  1  0.40130000  0.69890000  0.67250000  1.0 0.1110366254
H  H16  1  0.69890000  0.40130000  0.82750000  1.0 0.1110366254
H  H17  1  0.86020000  0.84980000  0.18970000  1.0 0.1226632222
H  H18  1  0.84980000  0.86020000  0.31030000  1.0 0.1226632222
H  H19  1  0.13980000  0.15020000  0.81030000  1.0 0.1226632222
H  H20  1  0.15020000  0.13980000  0.68970000  1.0 0.1226632222
H  H21  1  0.90730000  0.96390000  0.08020000  1.0 0.1110366254
H  H22  1  0.96390000  0.90730000  0.41980000  1.0 0.1110366254
H  H23  1  0.09270000  0.03610000  0.91980000  1.0 0.1110366254
H  H24  1  0.03610000  0.09270000  0.58020000  1.0 0.1110366254
H  H25  1  0.05460000  0.81960000  0.12480000  1.0 0.1294115169
H  H26  1  0.81960000  0.05460000  0.37520000  1.0 0.1294115169
H  H27  1  0.94540000  0.18040000  0.87520000  1.0 0.1294115169
H  H28  1  0.18040000  0.94540000  0.62480000  1.0 0.1294115169
H  H29  1  0.01210000  0.70870000  0.24060000  1.0 0.1226632222
H  H30  1  0.70870000  0.01210000  0.25940000  1.0 0.1226632222
H  H31  1  0.98790000  0.29130000  0.75940000  1.0 0.1226632222
H  H32  1  0.29130000  0.98790000  0.74060000  1.0 0.1226632222
H  H33  1  0.67950000  0.44790000  0.48830000  1.0 0.1110366254
H  H34  1  0.44790000  0.67950000  0.01170000  1.0 0.1110366254
H  H35  1  0.32050000  0.55210000  0.51170000  1.0 0.1110366254
H  H36  1  0.55210000  0.32050000  0.98830000  1.0 0.1110366254
H  H37  1  0.53820000  0.43700000  0.47080000  1.0 0.1395497694
H  H38  1  0.43700000  0.53820000  0.02920000  1.0 0.1395497694
H  H39  1  0.46180000  0.56300000  0.52920000  1.0 0.1395497694
H  H40  1  0.56300000  0.46180000  0.97080000  1.0 0.1395497694
H  H41  1  0.58010000  0.70250000  0.30400000  1.0 0.150002029
H  H42  1  0.70250000  0.58010000  0.19600000  1.0 0.150002029
H  H43  1  0.41990000  0.29750000  0.69600000  1.0 0.150002029
H  H44  1  0.29750000  0.41990000  0.80400000  1.0 0.150002029
H  H45  1  0.72060000  0.70360000  0.32700000  1.0 0.1110366254
H  H46  1  0.70360000  0.72060000  0.17300000  1.0 0.1110366254
H  H47  1  0.27940000  0.29640000  0.67300000  1.0 0.1110366254
H  H48  1  0.29640000  0.27940000  0.82700000  1.0 0.1110366254
H  H49  1  0.21690000  0.39710000  0.40920000  1.0 0.1395497694
H  H50  1  0.39710000  0.21690000  0.09080000  1.0 0.1395497694
H  H51  1  0.78310000  0.60290000  0.59080000  1.0 0.1395497694
H  H52  1  0.60290000  0.78310000  0.90920000  1.0 0.1395497694
H  H53  1  0.07980000  0.44040000  0.33960000  1.0 0.1110366254
H  H54  1  0.44040000  0.07980000  0.16040000  1.0 0.1110366254
H  H55  1  0.92020000  0.55960000  0.66040000  1.0 0.1110366254
H  H56  1  0.55960000  0.92020000  0.83960000  1.0 0.1110366254
H  H57  1  0.09070000  0.59750000  0.25520000  1.0 0.1395497694
H  H58  1  0.59750000  0.09070000  0.24480000  1.0 0.1395497694
H  H59  1  0.90930000  0.40250000  0.74480000  1.0 0.1395497694
H  H60  1  0.40250000  0.90930000  0.75520000  1.0 0.1395497694
H  H61  1  0.26190000  0.04810000  0.97120000  1.0 0.1110366254
H  H62  1  0.04810000  0.26190000  0.52880000  1.0 0.1110366254
H  H63  1  0.73810000  0.95190000  0.02880000  1.0 0.1110366254
H  H64  1  0.95190000  0.73810000  0.47120000  1.0 0.1110366254
H  H65  1  0.21150000  0.90950000  0.06880000  1.0 0.150002029
H  H66  1  0.90950000  0.21150000  0.43120000  1.0 0.150002029
H  H67  1  0.78850000  0.09050000  0.93120000  1.0 0.150002029
H  H68  1  0.09050000  0.78850000  0.56880000  1.0 0.150002029
H  H69  1  0.46270000  0.88030000  0.16410000  1.0 0.150002029
H  H70  1  0.88030000  0.46270000  0.33590000  1.0 0.150002029
H  H71  1  0.53730000  0.11970000  0.83590000  1.0 0.150002029
H  H72  1  0.11970000  0.53730000  0.66410000  1.0 0.150002029
H  H73  1  0.50680000  0.02100000  0.06620000  1.0 0.1294115169
H  H74  1  0.02100000  0.50680000  0.43380000  1.0 0.1294115169
H  H75  1  0.49320000  0.97900000  0.93380000  1.0 0.1294115169
H  H76  1  0.97900000  0.49320000  0.56620000  1.0 0.1294115169
H  H77  1  0.35700000  0.77200000  0.22700000  1.0 0.2896866884
H  H78  1  0.77200000  0.35700000  0.27300000  1.0 0.2896866884
H  H79  1  0.64300000  0.22800000  0.77300000  1.0 0.2896866884
H  H80  1  0.22800000  0.64300000  0.72700000  1.0 0.2896866884
H  H81  1  0.45920000  0.62560000  0.35400000  1.0 0.2896866884
H  H82  1  0.62560000  0.45920000  0.14600000  1.0 0.2896866884
H  H83  1  0.54080000  0.37440000  0.64600000  1.0 0.2896866884
H  H84  1  0.37440000  0.54080000  0.85400000  1.0 0.2896866884
C  C1  1  0.74390000  0.40390000  0.41360000  1.0 0.5254044656
C  C2  1  0.40390000  0.74390000  0.08640000  1.0 0.5254044656
C  C3  1  0.25610000  0.59610000  0.58640000  1.0 0.5254044656
C  C4  1  0.59610000  0.25610000  0.91360000  1.0 0.5254044656
C  C5  1  0.69390000  0.30210000  0.44180000  1.0 -0.0420654367
C  C6  1  0.30210000  0.69390000  0.05820000  1.0 -0.0420654367
C  C7  1  0.30610000  0.69790000  0.55820000  1.0 -0.0420654367
C  C8  1  0.69790000  0.30610000  0.94180000  1.0 -0.0420654367
C  C9  1  0.71980000  0.24580000  0.52550000  1.0 -0.0931200299
C  C10  1  0.24580000  0.71980000  0.97450000  1.0 -0.0931200299
C  C11  1  0.28020000  0.75420000  0.47450000  1.0 -0.0931200299
C  C12  1  0.75420000  0.28020000  0.02550000  1.0 -0.0931200299
C  C13  1  0.66790000  0.15090000  0.55070000  1.0 -0.1671452548
C  C14  1  0.15090000  0.66790000  0.94930000  1.0 -0.1671452548
C  C15  1  0.33210000  0.84910000  0.44930000  1.0 -0.1671452548
C  C16  1  0.84910000  0.33210000  0.05070000  1.0 -0.1671452548
C  C17  1  0.59000000  0.11240000  0.49230000  1.0 0.150002029
C  C18  1  0.11240000  0.59000000  0.00770000  1.0 0.150002029
C  C19  1  0.41000000  0.88760000  0.50770000  1.0 0.150002029
C  C20  1  0.88760000  0.41000000  0.99230000  1.0 0.150002029
C  C21  1  0.56410000  0.16850000  0.40860000  1.0 -0.1671452548
C  C22  1  0.16850000  0.56410000  0.09140000  1.0 -0.1671452548
C  C23  1  0.43590000  0.83150000  0.59140000  1.0 -0.1671452548
C  C24  1  0.83150000  0.43590000  0.90860000  1.0 -0.1671452548
C  C25  1  0.61610000  0.26350000  0.38340000  1.0 -0.0931200299
C  C26  1  0.26350000  0.61610000  0.11660000  1.0 -0.0931200299
C  C27  1  0.38390000  0.73650000  0.61660000  1.0 -0.0931200299
C  C28  1  0.73650000  0.38390000  0.88340000  1.0 -0.0931200299
C  C29  1  0.89890000  0.68870000  0.29780000  1.0 0.5380439584
C  C30  1  0.68870000  0.89890000  0.20220000  1.0 0.5380439584
C  C31  1  0.10110000  0.31130000  0.70220000  1.0 0.5380439584
C  C32  1  0.31130000  0.10110000  0.79780000  1.0 0.5380439584
C  C33  1  0.92810000  0.76450000  0.22590000  1.0 -0.0311030236
C  C34  1  0.76450000  0.92810000  0.27410000  1.0 -0.0311030236
C  C35  1  0.07190000  0.23550000  0.77410000  1.0 -0.0311030236
C  C36  1  0.23550000  0.07190000  0.72590000  1.0 -0.0311030236
C  C37  1  0.89920000  0.84320000  0.17710000  1.0 -0.0984440695
C  C38  1  0.84320000  0.89920000  0.32290000  1.0 -0.0984440695
C  C39  1  0.10080000  0.15680000  0.82290000  1.0 -0.0984440695
C  C40  1  0.15680000  0.10080000  0.67710000  1.0 -0.0984440695
C  C41  1  0.92650000  0.91110000  0.11120000  1.0 -0.1564205016
C  C42  1  0.91110000  0.92650000  0.38880000  1.0 -0.1564205016
C  C43  1  0.07350000  0.08890000  0.88880000  1.0 -0.1564205016
C  C44  1  0.08890000  0.07350000  0.61120000  1.0 -0.1564205016
C  C45  1  0.98290000  0.90190000  0.09010000  1.0 0.1635026049
C  C46  1  0.90190000  0.98290000  0.40990000  1.0 0.1635026049
C  C47  1  0.01710000  0.09810000  0.90990000  1.0 0.1635026049
C  C48  1  0.09810000  0.01710000  0.59010000  1.0 0.1635026049
C  C49  1  0.01580000  0.82600000  0.13790000  1.0 -0.1488329775
C  C50  1  0.82600000  0.01580000  0.36210000  1.0 -0.1488329775
C  C51  1  0.98420000  0.17400000  0.86210000  1.0 -0.1488329775
C  C52  1  0.17400000  0.98420000  0.63790000  1.0 -0.1488329775
C  C53  1  0.98870000  0.75890000  0.20660000  1.0 -0.0984440695
C  C54  1  0.75890000  0.98870000  0.29340000  1.0 -0.0984440695
C  C55  1  0.01130000  0.24110000  0.79340000  1.0 -0.0984440695
C  C56  1  0.24110000  0.01130000  0.70660000  1.0 -0.0984440695
C  C57  1  0.38020000  0.49660000  0.38470000  1.0 0.431992424
C  C58  1  0.49660000  0.38020000  0.11530000  1.0 0.431992424
C  C59  1  0.61980000  0.50340000  0.61530000  1.0 0.431992424
C  C60  1  0.50340000  0.61980000  0.88470000  1.0 0.431992424
C  C61  1  0.65840000  0.49940000  0.45020000  1.0 0.0697173078
C  C62  1  0.49940000  0.65840000  0.04980000  1.0 0.0697173078
C  C63  1  0.34160000  0.50060000  0.54980000  1.0 0.0697173078
C  C64  1  0.50060000  0.34160000  0.95020000  1.0 0.0697173078
C  C65  1  0.57330000  0.49170000  0.44010000  1.0 -0.2293877897
C  C66  1  0.49170000  0.57330000  0.05990000  1.0 -0.2293877897
C  C67  1  0.42670000  0.50830000  0.55990000  1.0 -0.2293877897
C  C68  1  0.50830000  0.42670000  0.94010000  1.0 -0.2293877897
C  C69  1  0.53940000  0.56740000  0.38260000  1.0 0.2840966705
C  C70  1  0.56740000  0.53940000  0.11740000  1.0 0.2840966705
C  C71  1  0.46060000  0.43260000  0.61740000  1.0 0.2840966705
C  C72  1  0.43260000  0.46060000  0.88260000  1.0 0.2840966705
C  C73  1  0.59850000  0.64930000  0.34100000  1.0 -0.2293877897
C  C74  1  0.64930000  0.59850000  0.15900000  1.0 -0.2293877897
C  C75  1  0.40150000  0.35070000  0.65900000  1.0 -0.2293877897
C  C76  1  0.35070000  0.40150000  0.84100000  1.0 -0.2293877897
C  C77  1  0.68300000  0.64940000  0.35580000  1.0 0.0898351908
C  C78  1  0.64940000  0.68300000  0.14420000  1.0 0.0898351908
C  C79  1  0.31700000  0.35060000  0.64420000  1.0 0.0898351908
C  C80  1  0.35060000  0.31700000  0.85580000  1.0 0.0898351908
C  C81  1  0.22350000  0.73110000  0.19540000  1.0 0.423211952
C  C82  1  0.73110000  0.22350000  0.30460000  1.0 0.423211952
C  C83  1  0.77650000  0.26890000  0.80460000  1.0 0.423211952
C  C84  1  0.26890000  0.77650000  0.69540000  1.0 0.423211952
C  C85  1  0.29460000  0.52420000  0.34900000  1.0 0.1110366254
C  C86  1  0.52420000  0.29460000  0.15100000  1.0 0.1110366254
C  C87  1  0.70540000  0.47580000  0.65100000  1.0 0.1110366254
C  C88  1  0.47580000  0.70540000  0.84900000  1.0 0.1110366254
C  C89  1  0.21630000  0.45710000  0.37040000  1.0 -0.1488329775
C  C90  1  0.45710000  0.21630000  0.12960000  1.0 -0.1488329775
C  C91  1  0.78370000  0.54290000  0.62960000  1.0 -0.1488329775
C  C92  1  0.54290000  0.78370000  0.87040000  1.0 -0.1488329775
C  C93  1  0.13550000  0.48390000  0.33040000  1.0 -0.0420654367
C  C94  1  0.48390000  0.13550000  0.16960000  1.0 -0.0420654367
C  C95  1  0.86450000  0.51610000  0.66960000  1.0 -0.0420654367
C  C96  1  0.51610000  0.86450000  0.83040000  1.0 -0.0420654367
C  C97  1  0.14070000  0.57650000  0.27710000  1.0 -0.131197917
C  C98  1  0.57650000  0.14070000  0.22290000  1.0 -0.131197917
C  C99  1  0.85930000  0.42350000  0.72290000  1.0 -0.131197917
C  C100  1  0.42350000  0.85930000  0.77710000  1.0 -0.131197917
C  C101  1  0.22040000  0.63680000  0.25690000  1.0 0.0831363191
C  C102  1  0.63680000  0.22040000  0.24310000  1.0 0.0898351908
C  C103  1  0.77960000  0.36320000  0.74310000  1.0 0.0898351908
C  C104  1  0.36320000  0.77960000  0.75690000  1.0 0.0898351908
C  C105  1  0.30360000  0.01420000  0.01130000  1.0 0.0898351908
C  C106  1  0.01420000  0.30360000  0.48870000  1.0 0.0898351908
C  C107  1  0.69640000  0.98580000  0.98870000  1.0 0.0898351908
C  C108  1  0.98580000  0.69640000  0.51130000  1.0 0.0898351908
C  C109  1  0.27150000  0.92990000  0.06920000  1.0 -0.2293877897
C  C110  1  0.92990000  0.27150000  0.43080000  1.0 -0.2293877897
C  C111  1  0.72850000  0.07010000  0.93080000  1.0 -0.2293877897
C  C112  1  0.07010000  0.72850000  0.56920000  1.0 -0.2293877897
C  C113  1  0.33100000  0.87640000  0.12780000  1.0 0.2630871211
C  C114  1  0.87640000  0.33100000  0.37220000  1.0 0.2630871211
C  C115  1  0.66900000  0.12360000  0.87220000  1.0 0.2630871211
C  C116  1  0.12360000  0.66900000  0.62780000  1.0 0.2630871211
C  C117  1  0.42030000  0.91350000  0.12540000  1.0 -0.2293877897
C  C118  1  0.91350000  0.42030000  0.37460000  1.0 -0.2293877897
C  C119  1  0.57970000  0.08650000  0.87460000  1.0 -0.2293877897
C  C120  1  0.08650000  0.57970000  0.62540000  1.0 -0.2293877897
C  C121  1  0.44650000  0.99810000  0.06650000  1.0 0.0831363191
C  C122  1  0.99810000  0.44650000  0.43350000  1.0 0.0831363191
C  C123  1  0.55350000  0.00190000  0.93350000  1.0 0.0831363191
C  C124  1  0.00190000  0.55350000  0.56650000  1.0 0.0831363191
N  N1  1  0.71537000  0.57583000  0.40950000  1.0 -0.2503427516
N  N2  1  0.57583000  0.71537000  0.09050000  1.0 -0.2503427516
N  N3  1  0.28463000  0.42417000  0.59050000  1.0 -0.2503427516
N  N4  1  0.42417000  0.28463000  0.90950000  1.0 -0.2503427516
N  N5  1  0.45360000  0.57080000  0.36290000  1.0 -0.3296721454
N  N6  1  0.57080000  0.45360000  0.13710000  1.0 -0.3296721454
N  N7  1  0.54640000  0.42920000  0.63710000  1.0 -0.3296721454
N  N8  1  0.42920000  0.54640000  0.86290000  1.0 -0.3296721454
N  N9  1  0.30920000  0.78880000  0.18890000  1.0 -0.3296721454
N  N10  1  0.78880000  0.30920000  0.31110000  1.0 -0.3296721454
N  N11  1  0.69080000  0.21120000  0.81110000  1.0 -0.3296721454
N  N12  1  0.21120000  0.69080000  0.68890000  1.0 -0.3296721454
N  N13  1  0.38800000  0.05060000  0.00810000  1.0 -0.2503427516
N  N14  1  0.05060000  0.38800000  0.49190000  1.0 -0.2503427516
N  N15  1  0.61200000  0.94940000  0.99190000  1.0 -0.2503427516
N  N16  1  0.94940000  0.61200000  0.50810000  1.0 -0.2503427516
N  N17  1  0.29830000  0.61190000  0.29530000  1.0 -0.3296721454
N  N18  1  0.61190000  0.29830000  0.20470000  1.0 -0.3296721454
N  N19  1  0.70170000  0.38810000  0.70470000  1.0 -0.3296721454
N  N20  1  0.38810000  0.70170000  0.79530000  1.0 -0.3296721454
N  N21  1  0.53600000  0.01340000  0.52010000  1.0 -0.0706898298
N  N22  1  0.01340000  0.53600000  0.97990000  1.0 -0.0706898298
N  N23  1  0.46400000  0.98660000  0.47990000  1.0 -0.0706898298
N  N24  1  0.98660000  0.46400000  0.02010000  1.0 -0.0706898298
N  N25  1  0.01850000  0.96890000  0.02240000  1.0 -0.1239206258
N  N26  1  0.96890000  0.01850000  0.47760000  1.0 -0.1239206258
N  N27  1  0.98150000  0.03110000  0.97760000  1.0 -0.1239206258
N  N28  1  0.03110000  0.98150000  0.52240000  1.0 -0.1239206258
O  O1  1  0.84793000  0.70007000  0.31540000  1.0 -0.5319947477
O  O2  1  0.70007000  0.84793000  0.18460000  1.0 -0.5319947477
O  O3  1  0.15207000  0.29993000  0.68460000  1.0 -0.5319947477
O  O4  1  0.29993000  0.15207000  0.81540000  1.0 -0.5319947477
O  O5  1  0.92900000  0.62060000  0.34210000  1.0 -0.5319947477
O  O6  1  0.62060000  0.92900000  0.15790000  1.0 -0.5319947477
O  O7  1  0.07100000  0.37940000  0.65790000  1.0 -0.5319947477
O  O8  1  0.37940000  0.07100000  0.84210000  1.0 -0.5319947477
O  O9  1  0.71880000  0.45340000  0.33870000  1.0 -0.5418546673
O  O10  1  0.45340000  0.71880000  0.16130000  1.0 -0.5418546673
O  O11  1  0.28120000  0.54660000  0.66130000  1.0 -0.5418546673
O  O12  1  0.54660000  0.28120000  0.83870000  1.0 -0.5418546673
O  O13  1  0.80840000  0.43520000  0.46880000  1.0 -0.510708737
O  O14  1  0.43520000  0.80840000  0.03120000  1.0 -0.510708737
O  O15  1  0.19160000  0.56480000  0.53120000  1.0 -0.510708737
O  O16  1  0.56480000  0.19160000  0.96880000  1.0 -0.510708737
O  O17  1  0.37920000  0.41560000  0.42730000  1.0 -0.4381139751
O  O18  1  0.41560000  0.37920000  0.07270000  1.0 -0.4381139751
O  O19  1  0.62080000  0.58440000  0.57270000  1.0 -0.4381139751
O  O20  1  0.58440000  0.62080000  0.92730000  1.0 -0.4381139751
O  O21  1  0.14940000  0.75220000  0.14490000  1.0 -0.4617002781
O  O22  1  0.75220000  0.14940000  0.35510000  1.0 -0.4617002781
O  O23  1  0.85060000  0.24780000  0.85510000  1.0 -0.4617002781
O  O24  1  0.24780000  0.85060000  0.64490000  1.0 -0.4617002781
