# DDEC6 charges by PACMAN v1.1 (https://github.com/mtap-research/PACMAN-charge/)
data_GAGTEQ_FSR_pacman
_symmetry_space_group_name_H-M   'P 1'
_cell_length_a   20.23270000
_cell_length_b   10.07140000
_cell_length_c   21.67300000
_cell_angle_alpha   90.00000000
_cell_angle_beta   97.85600000
_cell_angle_gamma   90.00000000
_symmetry_Int_Tables_number   1
_chemical_formula_structural   Th2H10C33(NO10)2
_chemical_formula_sum   'Th8 H40 C132 N8 O80'
_cell_volume   4374.89360331
_cell_formula_units_Z   4
loop_
 _symmetry_equiv_pos_site_id
 _symmetry_equiv_pos_as_xyz
  1  'x, y, z'
loop_
 _atom_site_type_symbol
 _atom_site_label
 _atom_site_symmetry_multiplicity
 _atom_site_fract_x
 _atom_site_fract_y
 _atom_site_fract_z
 _atom_site_occupancy
 _atom_site_charge
Th  Th1  1  0.85104000  0.20943000  0.58694000  1.0 2.2405423577
Th  Th2  1  0.14896000  0.70943000  0.91306000  1.0 2.2405423577
Th  Th3  1  0.14896000  0.79057000  0.41306000  1.0 2.2405423577
Th  Th4  1  0.85104000  0.29057000  0.08694000  1.0 2.2405423577
Th  Th5  1  0.64352000  0.21444000  0.40696000  1.0 2.2268040831
Th  Th6  1  0.35648000  0.71444000  0.09304000  1.0 2.2268040831
Th  Th7  1  0.35648000  0.78556000  0.59304000  1.0 2.2268040831
Th  Th8  1  0.64352000  0.28556000  0.90696000  1.0 2.2268040831
H  H1  1  0.80310000  0.18500000  0.30370000  1.0 0.1481566173
H  H2  1  0.19690000  0.68500000  0.19630000  1.0 0.1481566173
H  H3  1  0.19690000  0.81500000  0.69630000  1.0 0.1481566173
H  H4  1  0.80310000  0.31500000  0.80370000  1.0 0.1481566173
H  H5  1  0.93930000  0.03430000  0.43890000  1.0 0.1481566173
H  H6  1  0.06070000  0.53430000  0.06110000  1.0 0.1481566173
H  H7  1  0.06070000  0.96570000  0.56110000  1.0 0.1481566173
H  H8  1  0.93930000  0.46570000  0.93890000  1.0 0.1481566173
H  H9  1  0.56960000  0.01610000  0.55820000  1.0 0.1481566173
H  H10  1  0.43040000  0.51610000  0.94180000  1.0 0.1481566173
H  H11  1  0.43040000  0.98390000  0.44180000  1.0 0.1481566173
H  H12  1  0.56960000  0.48390000  0.05820000  1.0 0.1481566173
H  H13  1  0.96980000  0.01590000  0.25980000  1.0 0.1481566173
H  H14  1  0.03020000  0.51590000  0.24020000  1.0 0.1481566173
H  H15  1  0.03020000  0.98410000  0.74020000  1.0 0.1481566173
H  H16  1  0.96980000  0.48410000  0.75980000  1.0 0.1481566173
H  H17  1  0.69600000  0.20090000  0.68980000  1.0 0.1481566173
H  H18  1  0.30400000  0.70090000  0.81020000  1.0 0.1481566173
H  H19  1  0.30400000  0.79910000  0.31020000  1.0 0.1481566173
H  H20  1  0.69600000  0.29910000  0.18980000  1.0 0.1481566173
H  H21  1  0.80260000  0.61870000  0.57920000  1.0 0.1409068895
H  H22  1  0.19740000  0.11870000  0.92080000  1.0 0.1409068895
H  H23  1  0.19740000  0.38130000  0.42080000  1.0 0.1409068895
H  H24  1  0.80260000  0.88130000  0.07920000  1.0 0.1409068895
H  H25  1  0.69710000  0.61470000  0.40800000  1.0 0.1409068895
H  H26  1  0.30290000  0.11470000  0.09200000  1.0 0.1409068895
H  H27  1  0.30290000  0.38530000  0.59200000  1.0 0.1409068895
H  H28  1  0.69710000  0.88530000  0.90800000  1.0 0.1409068895
H  H29  1  0.73510000  0.96090000  0.49760000  1.0 0.1257631535
H  H30  1  0.26490000  0.46090000  0.00240000  1.0 0.1257631535
H  H31  1  0.26490000  0.03910000  0.50240000  1.0 0.1257631535
H  H32  1  0.73510000  0.53910000  0.99760000  1.0 0.1257631535
H  H33  1  0.54460000  0.98450000  0.73860000  1.0 0.1481566173
H  H34  1  0.45540000  0.48450000  0.76140000  1.0 0.1481566173
H  H35  1  0.45540000  0.01550000  0.26140000  1.0 0.1481566173
H  H36  1  0.54460000  0.51550000  0.23860000  1.0 0.1481566173
H  H37  1  0.54330000  0.51700000  0.39480000  1.0 0.1409068895
H  H38  1  0.45670000  0.01700000  0.10520000  1.0 0.1409068895
H  H39  1  0.45670000  0.48300000  0.60520000  1.0 0.1409068895
H  H40  1  0.54330000  0.98300000  0.89480000  1.0 0.1409068895
C  C1  1  0.84360000  0.14240000  0.31570000  1.0 -0.0912600329
C  C2  1  0.15640000  0.64240000  0.18430000  1.0 -0.0912600329
C  C3  1  0.15640000  0.85760000  0.68430000  1.0 -0.0912600329
C  C4  1  0.84360000  0.35760000  0.81570000  1.0 -0.0912600329
C  C5  1  0.86290000  0.10920000  0.37820000  1.0 -0.0389361849
C  C6  1  0.13710000  0.60920000  0.12180000  1.0 -0.0389361849
C  C7  1  0.13710000  0.89080000  0.62180000  1.0 -0.0389361849
C  C8  1  0.86290000  0.39080000  0.87820000  1.0 -0.0389361849
C  C9  1  0.63930000  0.11390000  0.61650000  1.0 -0.0389361849
C  C10  1  0.36070000  0.61390000  0.88350000  1.0 -0.0389361849
C  C11  1  0.36070000  0.88610000  0.38350000  1.0 -0.0389361849
C  C12  1  0.63930000  0.38610000  0.11650000  1.0 -0.0389361849
C  C13  1  0.92490000  0.04980000  0.39690000  1.0 -0.1146586259
C  C14  1  0.07510000  0.54980000  0.10310000  1.0 -0.1146586259
C  C15  1  0.07510000  0.95020000  0.60310000  1.0 -0.1212660943
C  C16  1  0.92490000  0.45020000  0.89690000  1.0 -0.1146586259
C  C17  1  0.67860000  0.16610000  0.56810000  1.0 0.6324355209
C  C18  1  0.32140000  0.66610000  0.93190000  1.0 0.6324355209
C  C19  1  0.32140000  0.83390000  0.43190000  1.0 0.6324355209
C  C20  1  0.67860000  0.33390000  0.06810000  1.0 0.6324355209
C  C21  1  0.58360000  0.03560000  0.59990000  1.0 -0.0912600329
C  C22  1  0.41640000  0.53560000  0.90010000  1.0 -0.0912600329
C  C23  1  0.41640000  0.96440000  0.40010000  1.0 -0.0912600329
C  C24  1  0.58360000  0.46440000  0.09990000  1.0 -0.0912600329
C  C25  1  0.88500000  0.11160000  0.27170000  1.0 -0.009237863
C  C26  1  0.11500000  0.61160000  0.22830000  1.0 -0.009237863
C  C27  1  0.11500000  0.88840000  0.72830000  1.0 -0.009237863
C  C28  1  0.88500000  0.38840000  0.77170000  1.0 -0.009237863
C  C29  1  0.86610000  0.15450000  0.20560000  1.0 0.5628107461
C  C30  1  0.13390000  0.65450000  0.29440000  1.0 0.5628107461
C  C31  1  0.13390000  0.84550000  0.79440000  1.0 0.5628107461
C  C32  1  0.86610000  0.34550000  0.70560000  1.0 0.5628107461
C  C33  1  0.96450000  0.01420000  0.35240000  1.0 -0.009237863
C  C34  1  0.03550000  0.51420000  0.14760000  1.0 -0.009237863
C  C35  1  0.03550000  0.98580000  0.64760000  1.0 -0.009237863
C  C36  1  0.96450000  0.48580000  0.85240000  1.0 -0.009237863
C  C37  1  0.63730000  0.15240000  0.78960000  1.0 0.554547971
C  C38  1  0.36270000  0.65240000  0.71040000  1.0 0.554547971
C  C39  1  0.36270000  0.84760000  0.21040000  1.0 0.554547971
C  C40  1  0.63730000  0.34760000  0.28960000  1.0 0.554547971
C  C41  1  0.94390000  0.04300000  0.28980000  1.0 -0.0845734199
C  C42  1  0.05610000  0.54300000  0.21020000  1.0 -0.0845734199
C  C43  1  0.05610000  0.95700000  0.71020000  1.0 -0.0845734199
C  C44  1  0.94390000  0.45700000  0.78980000  1.0 -0.0845734199
C  C45  1  0.71090000  0.80080000  0.44400000  1.0 -0.0288121348
C  C46  1  0.28910000  0.30080000  0.05600000  1.0 -0.0288121348
C  C47  1  0.28910000  0.19920000  0.55600000  1.0 -0.0288121348
C  C48  1  0.71090000  0.69920000  0.94400000  1.0 -0.0288121348
C  C49  1  0.62170000  0.10290000  0.72400000  1.0 -0.0042292659
C  C50  1  0.37830000  0.60290000  0.77600000  1.0 -0.0042292659
C  C51  1  0.37830000  0.89710000  0.27600000  1.0 -0.0042292659
C  C52  1  0.62170000  0.39710000  0.22400000  1.0 -0.0042292659
C  C53  1  0.81680000  0.13660000  0.42480000  1.0 0.6324355209
C  C54  1  0.18320000  0.63660000  0.07520000  1.0 0.6324355209
C  C55  1  0.18320000  0.86340000  0.57520000  1.0 0.6324355209
C  C56  1  0.81680000  0.36340000  0.92480000  1.0 0.6324355209
C  C57  1  0.75200000  0.59480000  0.49310000  1.0 -0.0389361849
C  C58  1  0.24800000  0.09480000  0.00690000  1.0 -0.0389361849
C  C59  1  0.24800000  0.40520000  0.50690000  1.0 -0.0389361849
C  C60  1  0.75200000  0.90520000  0.99310000  1.0 -0.0389361849
C  C61  1  0.65860000  0.14800000  0.67870000  1.0 -0.0912600329
C  C62  1  0.34140000  0.64800000  0.82130000  1.0 -0.0912600329
C  C63  1  0.34140000  0.85200000  0.32130000  1.0 -0.0912600329
C  C64  1  0.65860000  0.35200000  0.17870000  1.0 -0.0912600329
C  C65  1  0.78020000  0.66420000  0.54530000  1.0 -0.1004229701
C  C66  1  0.21980000  0.16420000  0.95470000  1.0 -0.1004229701
C  C67  1  0.21980000  0.33580000  0.45470000  1.0 -0.1004229701
C  C68  1  0.78020000  0.83580000  0.04530000  1.0 -0.1004229701
C  C69  1  0.54830000  0.98610000  0.64580000  1.0 -0.009237863
C  C70  1  0.45170000  0.48610000  0.85420000  1.0 -0.009237863
C  C71  1  0.45170000  0.01390000  0.35420000  1.0 -0.009237863
C  C72  1  0.54830000  0.51390000  0.14580000  1.0 -0.009237863
C  C73  1  0.77500000  0.80340000  0.54720000  1.0 -0.0288121348
C  C74  1  0.22500000  0.30340000  0.95280000  1.0 -0.0288121348
C  C75  1  0.22500000  0.19660000  0.45280000  1.0 -0.0288121348
C  C76  1  0.77500000  0.69660000  0.04720000  1.0 -0.0288121348
C  C77  1  0.71680000  0.66200000  0.44260000  1.0 -0.1212660943
C  C78  1  0.28320000  0.16200000  0.05740000  1.0 -0.1212660943
C  C79  1  0.28320000  0.33800000  0.55740000  1.0 -0.1212660943
C  C80  1  0.71680000  0.83800000  0.94260000  1.0 -0.1212660943
C  C81  1  0.02960000  0.94640000  0.37230000  1.0 0.5628107461
C  C82  1  0.97040000  0.44640000  0.12770000  1.0 0.5628107461
C  C83  1  0.97040000  0.05360000  0.62770000  1.0 0.5655267293
C  C84  1  0.02960000  0.55360000  0.87230000  1.0 0.5628107461
C  C85  1  0.75860000  0.44790000  0.49110000  1.0 0.6452904398
C  C86  1  0.24140000  0.94790000  0.00890000  1.0 0.644846266
C  C87  1  0.24140000  0.55210000  0.50890000  1.0 0.644846266
C  C88  1  0.75860000  0.05210000  0.99110000  1.0 0.6452904398
C  C89  1  0.73950000  0.86910000  0.49630000  1.0 -0.1004229701
C  C90  1  0.26050000  0.36910000  0.00370000  1.0 -0.1004229701
C  C91  1  0.26050000  0.13090000  0.50370000  1.0 -0.1004229701
C  C92  1  0.73950000  0.63090000  0.99630000  1.0 -0.1004229701
C  C93  1  0.56770000  0.01880000  0.70790000  1.0 -0.0912600329
C  C94  1  0.43230000  0.51880000  0.79210000  1.0 -0.0912600329
C  C95  1  0.43230000  0.98120000  0.29210000  1.0 -0.0912600329
C  C96  1  0.56770000  0.48120000  0.20790000  1.0 -0.0912600329
C  C97  1  0.80670000  0.87540000  0.60390000  1.0 0.5907523761
C  C98  1  0.19330000  0.37540000  0.89610000  1.0 0.5907523761
C  C99  1  0.19330000  0.12460000  0.39610000  1.0 0.5907523761
C  C100  1  0.80670000  0.62460000  0.10390000  1.0 0.5907523761
C  C101  1  0.48770000  0.90170000  0.62790000  1.0 0.5628107461
C  C102  1  0.51230000  0.40170000  0.87210000  1.0 0.5628107461
C  C103  1  0.51230000  0.09830000  0.37210000  1.0 0.5628107461
C  C104  1  0.48770000  0.59830000  0.12790000  1.0 0.5628107461
C  C105  1  0.67340000  0.86950000  0.38860000  1.0 0.5907523761
C  C106  1  0.32660000  0.36950000  0.11140000  1.0 0.5907523761
C  C107  1  0.32660000  0.13050000  0.61140000  1.0 0.5907523761
C  C108  1  0.67340000  0.63050000  0.88860000  1.0 0.5907523761
C  C109  1  0.95410000  0.34300000  0.49090000  1.0 0.2904798666
C  C110  1  0.04590000  0.84300000  0.00910000  1.0 0.2904798666
C  C111  1  0.04590000  0.65700000  0.50910000  1.0 0.2904798666
C  C112  1  0.95410000  0.15700000  0.99090000  1.0 0.2904798666
C  C113  1  0.55890000  0.50580000  0.43690000  1.0 0.2988025302
C  C114  1  0.44110000  0.00580000  0.06310000  1.0 0.2988025302
C  C115  1  0.44110000  0.49420000  0.56310000  1.0 0.2988025302
C  C116  1  0.55890000  0.99420000  0.93690000  1.0 0.2988025302
C  C117  1  0.02680000  0.35660000  0.40970000  1.0 0.052525564
C  C118  1  0.97320000  0.85660000  0.09030000  1.0 0.052525564
C  C119  1  0.97320000  0.64340000  0.59030000  1.0 0.052525564
C  C120  1  0.02680000  0.14340000  0.90970000  1.0 0.052525564
C  C121  1  0.07380000  0.27860000  0.51730000  1.0 0.1004014181
C  C122  1  0.92620000  0.77860000  0.98270000  1.0 0.1004014181
C  C123  1  0.92620000  0.72140000  0.48270000  1.0 0.1004014181
C  C124  1  0.07380000  0.22140000  0.01730000  1.0 0.1004014181
C  C125  1  0.52770000  0.73700000  0.45360000  1.0 0.0157238511
C  C126  1  0.47230000  0.23700000  0.04640000  1.0 0.0157238511
C  C127  1  0.47230000  0.26300000  0.54640000  1.0 0.0157238511
C  C128  1  0.52770000  0.76300000  0.95360000  1.0 0.0157238511
C  C129  1  0.58990000  0.61500000  0.53810000  1.0 0.1113599184
C  C130  1  0.41010000  0.11500000  0.96190000  1.0 0.1113599184
C  C131  1  0.41010000  0.38500000  0.46190000  1.0 0.1113599184
C  C132  1  0.58990000  0.88500000  0.03810000  1.0 0.1113599184
N  N1  1  0.01520000  0.32400000  0.47270000  1.0 -0.0716650841
N  N2  1  0.98480000  0.82400000  0.02730000  1.0 -0.0716650841
N  N3  1  0.98480000  0.67600000  0.52730000  1.0 -0.0716650841
N  N4  1  0.01520000  0.17600000  0.97270000  1.0 -0.0716650841
N  N5  1  0.55860000  0.61240000  0.46970000  1.0 0.001504359
N  N6  1  0.44140000  0.11240000  0.03030000  1.0 0.001504359
N  N7  1  0.44140000  0.38760000  0.53030000  1.0 0.001504359
N  N8  1  0.55860000  0.88760000  0.96970000  1.0 0.001504359
O  O1  1  0.83850000  0.13490000  0.48173000  1.0 -0.5957950598
O  O2  1  0.16150000  0.63490000  0.01827000  1.0 -0.5957950598
O  O3  1  0.16150000  0.86510000  0.51827000  1.0 -0.5957950598
O  O4  1  0.83850000  0.36510000  0.98173000  1.0 -0.5957950598
O  O5  1  0.82390000  0.24750000  0.19477000  1.0 -0.5491575723
O  O6  1  0.17610000  0.74750000  0.30523000  1.0 -0.5491575723
O  O7  1  0.17610000  0.75250000  0.80523000  1.0 -0.5491575723
O  O8  1  0.82390000  0.25250000  0.69477000  1.0 -0.5491575723
O  O9  1  0.65590000  0.14780000  0.51258000  1.0 -0.5693185027
O  O10  1  0.34410000  0.64780000  0.98742000  1.0 -0.5693185027
O  O11  1  0.34410000  0.85220000  0.48742000  1.0 -0.5693185027
O  O12  1  0.65590000  0.35220000  0.01258000  1.0 -0.5693185027
O  O13  1  0.89330000  0.10500000  0.16218000  1.0 -0.5331062024
O  O14  1  0.10670000  0.60500000  0.33782000  1.0 -0.5331062024
O  O15  1  0.10670000  0.89500000  0.83782000  1.0 -0.5331062024
O  O16  1  0.89330000  0.39500000  0.66218000  1.0 -0.5331062024
O  O17  1  0.67240000  0.25780000  0.80000000  1.0 -0.5388802832
O  O18  1  0.32760000  0.75780000  0.70000000  1.0 -0.5388802832
O  O19  1  0.32760000  0.74220000  0.20000000  1.0 -0.5388802832
O  O20  1  0.67240000  0.24220000  0.30000000  1.0 -0.5388802832
O  O21  1  0.73180000  0.22810000  0.58510000  1.0 -0.5693185027
O  O22  1  0.26820000  0.72810000  0.91490000  1.0 -0.5693185027
O  O23  1  0.26820000  0.77190000  0.41490000  1.0 -0.5693185027
O  O24  1  0.73180000  0.27190000  0.08510000  1.0 -0.5693185027
O  O25  1  0.61610000  0.09550000  0.83257000  1.0 -0.5388802832
O  O26  1  0.38390000  0.59550000  0.66743000  1.0 -0.5388802832
O  O27  1  0.38390000  0.90450000  0.16743000  1.0 -0.5388802832
O  O28  1  0.61610000  0.40450000  0.33257000  1.0 -0.5388802832
O  O29  1  0.80750000  0.39860000  0.52600000  1.0 -0.5957950598
O  O30  1  0.19250000  0.89860000  0.97400000  1.0 -0.5957950598
O  O31  1  0.19250000  0.60140000  0.47400000  1.0 -0.5957950598
O  O32  1  0.80750000  0.10140000  0.02600000  1.0 -0.5957950598
O  O33  1  0.45920000  0.84760000  0.66930000  1.0 -0.5491575723
O  O34  1  0.54080000  0.34760000  0.83070000  1.0 -0.5491575723
O  O35  1  0.54080000  0.15240000  0.33070000  1.0 -0.5491575723
O  O36  1  0.45920000  0.65240000  0.16930000  1.0 -0.5491575723
O  O37  1  0.05570000  0.87770000  0.33309000  1.0 -0.5491575723
O  O38  1  0.94430000  0.37770000  0.16691000  1.0 -0.5491575723
O  O39  1  0.94430000  0.12230000  0.66691000  1.0 -0.5491575723
O  O40  1  0.05570000  0.62230000  0.83309000  1.0 -0.5491575723
O  O41  1  0.80750000  0.00110000  0.60160000  1.0 -0.6207675283
O  O42  1  0.19250000  0.50110000  0.89840000  1.0 -0.6207675283
O  O43  1  0.19250000  0.99890000  0.39840000  1.0 -0.6207675283
O  O44  1  0.80750000  0.49890000  0.10160000  1.0 -0.6207675283
O  O45  1  0.94350000  0.32070000  0.54690000  1.0 -0.5120483657
O  O46  1  0.05650000  0.82070000  0.95310000  1.0 -0.5120483657
O  O47  1  0.05650000  0.67930000  0.45310000  1.0 -0.5120483657
O  O48  1  0.94350000  0.17930000  0.04690000  1.0 -0.5120483657
O  O49  1  0.05690000  0.95620000  0.42770000  1.0 -0.5491575723
O  O50  1  0.94310000  0.45620000  0.07230000  1.0 -0.5491575723
O  O51  1  0.94310000  0.04380000  0.57230000  1.0 -0.5491575723
O  O52  1  0.05690000  0.54380000  0.92770000  1.0 -0.5491575723
O  O53  1  0.46460000  0.89070000  0.57140000  1.0 -0.5331062024
O  O54  1  0.53540000  0.39070000  0.92860000  1.0 -0.5331062024
O  O55  1  0.53540000  0.10930000  0.42860000  1.0 -0.5331062024
O  O56  1  0.46460000  0.60930000  0.07140000  1.0 -0.5331062024
O  O57  1  0.75740000  0.15690000  0.40380000  1.0 -0.5491575723
O  O58  1  0.24260000  0.65690000  0.09620000  1.0 -0.5491575723
O  O59  1  0.24260000  0.84310000  0.59620000  1.0 -0.5491575723
O  O60  1  0.75740000  0.34310000  0.90380000  1.0 -0.5491575723
O  O61  1  0.65360000  0.98720000  0.39580000  1.0 -0.6103478616
O  O62  1  0.34640000  0.48720000  0.10420000  1.0 -0.6103478616
O  O63  1  0.34640000  0.01280000  0.60420000  1.0 -0.6103478616
O  O64  1  0.65360000  0.51280000  0.89580000  1.0 -0.6103478616
O  O65  1  0.71660000  0.38370000  0.45580000  1.0 -0.5693185027
O  O66  1  0.28340000  0.88370000  0.04420000  1.0 -0.5693185027
O  O67  1  0.28340000  0.61630000  0.54420000  1.0 -0.5693185027
O  O68  1  0.71660000  0.11630000  0.95580000  1.0 -0.5693185027
O  O69  1  0.83260000  0.81230000  0.64810000  1.0 -0.4402908107
O  O70  1  0.16740000  0.31230000  0.85190000  1.0 -0.4402908107
O  O71  1  0.16740000  0.18770000  0.35190000  1.0 -0.4402908107
O  O72  1  0.83260000  0.68770000  0.14810000  1.0 -0.4402908107
O  O73  1  0.66050000  0.80910000  0.33990000  1.0 -0.4597845917
O  O74  1  0.33950000  0.30910000  0.16010000  1.0 -0.4597845917
O  O75  1  0.33950000  0.19090000  0.66010000  1.0 -0.4597845917
O  O76  1  0.66050000  0.69090000  0.83990000  1.0 -0.4597845917
O  O77  1  0.57730000  0.38390000  0.45260000  1.0 -0.5120483657
O  O78  1  0.42270000  0.88390000  0.04740000  1.0 -0.5120483657
O  O79  1  0.42270000  0.61610000  0.54740000  1.0 -0.5120483657
O  O80  1  0.57730000  0.11610000  0.95260000  1.0 -0.5120483657
