# DDEC6 charges by PACMAN v1.1 (https://github.com/mtap-research/PACMAN-charge/)
data_GAGXAP_FSR_pacman
_symmetry_space_group_name_H-M   'P 1'
_cell_length_a   8.80836000
_cell_length_b   8.80836000
_cell_length_c   40.07800000
_cell_angle_alpha   86.30710000
_cell_angle_beta   93.69290000
_cell_angle_gamma   97.06240000
_symmetry_Int_Tables_number   1
_chemical_formula_structural   Ni3H16C22N2O15
_chemical_formula_sum   'Ni12 H64 C88 N8 O60'
_cell_volume   3074.52601169
_cell_formula_units_Z   4
loop_
 _symmetry_equiv_pos_site_id
 _symmetry_equiv_pos_as_xyz
  1  'x, y, z'
loop_
 _atom_site_type_symbol
 _atom_site_label
 _atom_site_symmetry_multiplicity
 _atom_site_fract_x
 _atom_site_fract_y
 _atom_site_fract_z
 _atom_site_occupancy
 _atom_site_charge
Ni  Ni1  1  0.80464000  0.25220000  0.88173000  1.0 1.0003977267
Ni  Ni2  1  0.25220000  0.80464000  0.61827000  1.0 1.0003977267
Ni  Ni3  1  0.19536000  0.74780000  0.11827000  1.0 1.0003977267
Ni  Ni4  1  0.74780000  0.19536000  0.38173000  1.0 1.0003977267
Ni  Ni5  1  0.58942000  0.03142000  0.83585000  1.0 0.8597660361
Ni  Ni6  1  0.03142000  0.58942000  0.66415000  1.0 0.8597660361
Ni  Ni7  1  0.41058000  0.96858000  0.16415000  1.0 0.8597660361
Ni  Ni8  1  0.96858000  0.41058000  0.33585000  1.0 0.8597660361
Ni  Ni9  1  0.13885000  0.09495000  0.89538000  1.0 0.8597660361
Ni  Ni10  1  0.09495000  0.13885000  0.60462000  1.0 0.8597660361
Ni  Ni11  1  0.86115000  0.90505000  0.10462000  1.0 0.8597660361
Ni  Ni12  1  0.90505000  0.86115000  0.39538000  1.0 0.8597660361
H  H1  1  0.61750000  0.01110000  0.03280000  1.0 0.1296097691
H  H2  1  0.01110000  0.61750000  0.46720000  1.0 0.1296097691
H  H3  1  0.38250000  0.98890000  0.96720000  1.0 0.1296097691
H  H4  1  0.98890000  0.38250000  0.53280000  1.0 0.1296097691
H  H5  1  0.88070000  0.67730000  0.02530000  1.0 0.1241351067
H  H6  1  0.67730000  0.88070000  0.47470000  1.0 0.1241351067
H  H7  1  0.11930000  0.32270000  0.97470000  1.0 0.1241351067
H  H8  1  0.32270000  0.11930000  0.52530000  1.0 0.1241351067
H  H9  1  0.30840000  0.60940000  0.75250000  1.0 0.1296097691
H  H10  1  0.60940000  0.30840000  0.74750000  1.0 0.1296097691
H  H11  1  0.69160000  0.39060000  0.24750000  1.0 0.1296097691
H  H12  1  0.39060000  0.69160000  0.25250000  1.0 0.1296097691
H  H13  1  0.57100000  0.94320000  0.70460000  1.0 0.1296097691
H  H14  1  0.94320000  0.57100000  0.79540000  1.0 0.1296097691
H  H15  1  0.42900000  0.05680000  0.29540000  1.0 0.1296097691
H  H16  1  0.05680000  0.42900000  0.20460000  1.0 0.1296097691
H  H17  1  0.86260000  0.99620000  0.79220000  1.0 0.1518556409
H  H18  1  0.99620000  0.86260000  0.70780000  1.0 0.1518556409
H  H19  1  0.13740000  0.00380000  0.20780000  1.0 0.1518556409
H  H20  1  0.00380000  0.13740000  0.29220000  1.0 0.1518556409
H  H21  1  0.91670000  0.84230000  0.80790000  1.0 0.1518556409
H  H22  1  0.84230000  0.91670000  0.69210000  1.0 0.1518556409
H  H23  1  0.08330000  0.15770000  0.19210000  1.0 0.1518556409
H  H24  1  0.15770000  0.08330000  0.30790000  1.0 0.1518556409
H  H25  1  0.78240000  0.72620000  0.85120000  1.0 0.1518556409
H  H26  1  0.72620000  0.78240000  0.64880000  1.0 0.1518556409
H  H27  1  0.21760000  0.27380000  0.14880000  1.0 0.1518556409
H  H28  1  0.27380000  0.21760000  0.35120000  1.0 0.1518556409
H  H29  1  0.66020000  0.63080000  0.82840000  1.0 0.1398591771
H  H30  1  0.63080000  0.66020000  0.67160000  1.0 0.1398591771
H  H31  1  0.33980000  0.36920000  0.17160000  1.0 0.1398591771
H  H32  1  0.36920000  0.33980000  0.32840000  1.0 0.1398591771
H  H33  1  0.71890000  0.98770000  0.75310000  1.0 0.1296097691
H  H34  1  0.98770000  0.71890000  0.74690000  1.0 0.1296097691
H  H35  1  0.28110000  0.01230000  0.24690000  1.0 0.1296097691
H  H36  1  0.01230000  0.28110000  0.25310000  1.0 0.1296097691
H  H37  1  0.51810000  0.88550000  0.06740000  1.0 0.1398591771
H  H38  1  0.88550000  0.51810000  0.43260000  1.0 0.1398591771
H  H39  1  0.48190000  0.11450000  0.93260000  1.0 0.1398591771
H  H40  1  0.11450000  0.48190000  0.56740000  1.0 0.1398591771
H  H41  1  0.47930000  0.70670000  0.07180000  1.0 0.1518556409
H  H42  1  0.70670000  0.47930000  0.42820000  1.0 0.1518556409
H  H43  1  0.52070000  0.29330000  0.92820000  1.0 0.1518556409
H  H44  1  0.29330000  0.52070000  0.57180000  1.0 0.1518556409
H  H45  1  0.65510000  0.56410000  0.09080000  1.0 0.1596196045
H  H46  1  0.56410000  0.65510000  0.40920000  1.0 0.1596196045
H  H47  1  0.34490000  0.43590000  0.90920000  1.0 0.1596196045
H  H48  1  0.43590000  0.34490000  0.59080000  1.0 0.1596196045
H  H49  1  0.72140000  0.55860000  0.05560000  1.0 0.1296097691
H  H50  1  0.55860000  0.72140000  0.44440000  1.0 0.1296097691
H  H51  1  0.27860000  0.44140000  0.94440000  1.0 0.1296097691
H  H52  1  0.44140000  0.27860000  0.55560000  1.0 0.1296097691
H  H53  1  0.45740000  0.65020000  0.80090000  1.0 0.1296097691
H  H54  1  0.65020000  0.45740000  0.69910000  1.0 0.1296097691
H  H55  1  0.54260000  0.34980000  0.19910000  1.0 0.1296097691
H  H56  1  0.34980000  0.54260000  0.30090000  1.0 0.1296097691
H  H57  1  0.68350000  0.11350000  0.98100000  1.0 0.1296097691
H  H58  1  0.11350000  0.68350000  0.51900000  1.0 0.1296097691
H  H59  1  0.31650000  0.88650000  0.01900000  1.0 0.1296097691
H  H60  1  0.88650000  0.31650000  0.48100000  1.0 0.1296097691
H  H61  1  0.94760000  0.78340000  0.97310000  1.0 0.1296097691
H  H62  1  0.78340000  0.94760000  0.52690000  1.0 0.1296097691
H  H63  1  0.05240000  0.21660000  0.02690000  1.0 0.1296097691
H  H64  1  0.21660000  0.05240000  0.47310000  1.0 0.1296097691
C  C1  1  0.68390000  0.96390000  0.02084000  1.0 -0.182280517
C  C2  1  0.96390000  0.68390000  0.47916000  1.0 -0.182280517
C  C3  1  0.31610000  0.03610000  0.97916000  1.0 -0.182280517
C  C4  1  0.03610000  0.31610000  0.52084000  1.0 -0.182280517
C  C5  1  0.84040000  0.76520000  0.01659000  1.0 -0.182280517
C  C6  1  0.76520000  0.84040000  0.48341000  1.0 -0.182280517
C  C7  1  0.15960000  0.23480000  0.98341000  1.0 -0.182280517
C  C8  1  0.23480000  0.15960000  0.51659000  1.0 -0.182280517
C  C9  1  0.39140000  0.68560000  0.75250000  1.0 -0.0937062512
C  C10  1  0.68560000  0.39140000  0.74750000  1.0 -0.0937062512
C  C11  1  0.60860000  0.31440000  0.24750000  1.0 -0.0937062512
C  C12  1  0.31440000  0.60860000  0.25250000  1.0 -0.0937062512
C  C13  1  0.42300000  0.77320000  0.72329000  1.0 -0.0365357987
C  C14  1  0.77320000  0.42300000  0.77671000  1.0 -0.0365357987
C  C15  1  0.57700000  0.22680000  0.27671000  1.0 -0.0365357987
C  C16  1  0.22680000  0.57700000  0.22329000  1.0 -0.0365357987
C  C17  1  0.31930000  0.74770000  0.69253000  1.0 0.5670188217
C  C18  1  0.74770000  0.31930000  0.80747000  1.0 0.5670188217
C  C19  1  0.68070000  0.25230000  0.30747000  1.0 0.5670188217
C  C20  1  0.25230000  0.68070000  0.19253000  1.0 0.5670188217
C  C21  1  0.54720000  0.88420000  0.72404000  1.0 -0.0937062512
C  C22  1  0.88420000  0.54720000  0.77596000  1.0 -0.0937062512
C  C23  1  0.45280000  0.11580000  0.27596000  1.0 -0.0937062512
C  C24  1  0.11580000  0.45280000  0.22404000  1.0 -0.0937062512
C  C25  1  0.90760000  0.00000000  0.84298000  1.0 0.6269904821
C  C26  1  0.00000000  0.90760000  0.65702000  1.0 0.6269904821
C  C27  1  0.09240000  0.00000000  0.15702000  1.0 0.6269904821
C  C28  1  0.00000000  0.09240000  0.34298000  1.0 0.6269904821
C  C29  1  0.85350000  0.92230000  0.81117000  1.0 -0.2795801834
C  C30  1  0.92230000  0.85350000  0.68883000  1.0 -0.2795801834
C  C31  1  0.14650000  0.07770000  0.18883000  1.0 -0.2795801834
C  C32  1  0.07770000  0.14650000  0.31117000  1.0 -0.2795801834
C  C33  1  0.68270000  0.72650000  0.83943000  1.0 -0.2795801834
C  C34  1  0.72650000  0.68270000  0.66057000  1.0 -0.2795801834
C  C35  1  0.31730000  0.27350000  0.16057000  1.0 -0.2795801834
C  C36  1  0.27350000  0.31730000  0.33943000  1.0 -0.2795801834
C  C37  1  0.60560000  0.82080000  0.78209000  1.0 0.1596196045
C  C38  1  0.82080000  0.60560000  0.71791000  1.0 0.1596196045
C  C39  1  0.39440000  0.17920000  0.21791000  1.0 0.1596196045
C  C40  1  0.17920000  0.39440000  0.28209000  1.0 0.1596196045
C  C41  1  0.55380000  0.80420000  0.11603000  1.0 0.622625172
C  C42  1  0.80420000  0.55380000  0.38397000  1.0 0.622625172
C  C43  1  0.44620000  0.19580000  0.88397000  1.0 0.622625172
C  C44  1  0.19580000  0.44620000  0.61603000  1.0 0.622625172
C  C45  1  0.63710000  0.91010000  0.75303000  1.0 -0.182280517
C  C46  1  0.91010000  0.63710000  0.74697000  1.0 -0.182280517
C  C47  1  0.36290000  0.08990000  0.24697000  1.0 -0.182280517
C  C48  1  0.08990000  0.36290000  0.25303000  1.0 -0.182280517
C  C49  1  0.55140000  0.79320000  0.07850000  1.0 -0.2795801834
C  C50  1  0.79320000  0.55140000  0.42150000  1.0 -0.2795801834
C  C51  1  0.44860000  0.20680000  0.92150000  1.0 -0.2795801834
C  C52  1  0.20680000  0.44860000  0.57850000  1.0 -0.2795801834
C  C53  1  0.82430000  0.96010000  0.97163000  1.0 -0.0365357987
C  C54  1  0.96010000  0.82430000  0.52837000  1.0 -0.0365357987
C  C55  1  0.17570000  0.03990000  0.02837000  1.0 -0.0365357987
C  C56  1  0.03990000  0.17570000  0.47163000  1.0 -0.0365357987
C  C57  1  0.73340000  0.61200000  0.07623000  1.0 -0.2899261267
C  C58  1  0.61200000  0.73340000  0.42377000  1.0 -0.2899261267
C  C59  1  0.26660000  0.38800000  0.92377000  1.0 -0.2899261267
C  C60  1  0.38800000  0.26660000  0.57623000  1.0 -0.2899261267
C  C61  1  0.48110000  0.70970000  0.78151000  1.0 -0.1670151503
C  C62  1  0.70970000  0.48110000  0.71849000  1.0 -0.1670151503
C  C63  1  0.51890000  0.29030000  0.21849000  1.0 -0.1670151503
C  C64  1  0.29030000  0.51890000  0.28151000  1.0 -0.1670151503
C  C65  1  0.88830000  0.59130000  0.09290000  1.0 0.6097402125
C  C66  1  0.59130000  0.88830000  0.40710000  1.0 0.6097402125
C  C67  1  0.11170000  0.40870000  0.90710000  1.0 0.6097402125
C  C68  1  0.40870000  0.11170000  0.59290000  1.0 0.6097402125
C  C69  1  0.72420000  0.02600000  0.98984000  1.0 -0.0967149736
C  C70  1  0.02600000  0.72420000  0.51016000  1.0 -0.0967149736
C  C71  1  0.27580000  0.97400000  0.01016000  1.0 -0.0967149736
C  C72  1  0.97400000  0.27580000  0.48984000  1.0 -0.0967149736
C  C73  1  0.88090000  0.82970000  0.98516000  1.0 -0.0780921579
C  C74  1  0.82970000  0.88090000  0.51484000  1.0 -0.0780921579
C  C75  1  0.11910000  0.17030000  0.01484000  1.0 -0.0780921579
C  C76  1  0.17030000  0.11910000  0.48516000  1.0 -0.0780921579
C  C77  1  0.87220000  0.03600000  0.93868000  1.0 0.5670188217
C  C78  1  0.03600000  0.87220000  0.56132000  1.0 0.5670188217
C  C79  1  0.12780000  0.96400000  0.06132000  1.0 0.5670188217
C  C80  1  0.96400000  0.12780000  0.43868000  1.0 0.5670188217
C  C81  1  0.56320000  0.73240000  0.86508000  1.0 0.5784783809
C  C82  1  0.73240000  0.56320000  0.63492000  1.0 0.5784783809
C  C83  1  0.43680000  0.26760000  0.13492000  1.0 0.5784783809
C  C84  1  0.26760000  0.43680000  0.36508000  1.0 0.5784783809
C  C85  1  0.74050000  0.83190000  0.03470000  1.0 0.1596196045
C  C86  1  0.83190000  0.74050000  0.46530000  1.0 0.1596196045
C  C87  1  0.25950000  0.16810000  0.96530000  1.0 0.1596196045
C  C88  1  0.16810000  0.25950000  0.53470000  1.0 0.1596196045
N  N1  1  0.69180000  0.85500000  0.81333000  1.0 -0.1124227532
N  N2  1  0.85500000  0.69180000  0.68667000  1.0 -0.1124227532
N  N3  1  0.30820000  0.14500000  0.18667000  1.0 -0.1124227532
N  N4  1  0.14500000  0.30820000  0.31333000  1.0 -0.1124227532
N  N5  1  0.70630000  0.77390000  0.06825000  1.0 -0.1170815529
N  N6  1  0.77390000  0.70630000  0.43175000  1.0 -0.1170815529
N  N7  1  0.29370000  0.22610000  0.93175000  1.0 -0.1170815529
N  N8  1  0.22610000  0.29370000  0.56825000  1.0 -0.1170815529
O  O1  1  0.04670000  0.01710000  0.85076000  1.0 -0.4502050133
O  O2  1  0.01710000  0.04670000  0.64924000  1.0 -0.4502050133
O  O3  1  0.95330000  0.98290000  0.14924000  1.0 -0.4502050133
O  O4  1  0.98290000  0.95330000  0.35076000  1.0 -0.4502050133
O  O5  1  0.80540000  0.04760000  0.85908000  1.0 -0.6009425671
O  O6  1  0.04760000  0.80540000  0.64092000  1.0 -0.6009425671
O  O7  1  0.19460000  0.95240000  0.14092000  1.0 -0.6009425671
O  O8  1  0.95240000  0.19460000  0.35908000  1.0 -0.6009425671
O  O9  1  0.19750000  0.66050000  0.69701000  1.0 -0.530706376
O  O10  1  0.66050000  0.19750000  0.80299000  1.0 -0.530706376
O  O11  1  0.80250000  0.33950000  0.30299000  1.0 -0.530706376
O  O12  1  0.33950000  0.80250000  0.19701000  1.0 -0.530706376
O  O13  1  0.35910000  0.81670000  0.66531000  1.0 -0.5198953302
O  O14  1  0.81670000  0.35910000  0.83469000  1.0 -0.5198953302
O  O15  1  0.64090000  0.18330000  0.33469000  1.0 -0.5198953302
O  O16  1  0.18330000  0.64090000  0.16531000  1.0 -0.5198953302
O  O17  1  0.50460000  0.85540000  0.86640000  1.0 -0.492750764
O  O18  1  0.85540000  0.50460000  0.63360000  1.0 -0.492750764
O  O19  1  0.49540000  0.14460000  0.13360000  1.0 -0.492750764
O  O20  1  0.14460000  0.49540000  0.36640000  1.0 -0.492750764
O  O21  1  0.79740000  0.14140000  0.92700000  1.0 -0.530706376
O  O22  1  0.14140000  0.79740000  0.57300000  1.0 -0.530706376
O  O23  1  0.20260000  0.85860000  0.07300000  1.0 -0.530706376
O  O24  1  0.85860000  0.20260000  0.42700000  1.0 -0.530706376
O  O25  1  0.43020000  0.80700000  0.12935000  1.0 -0.5410568268
O  O26  1  0.80700000  0.43020000  0.37065000  1.0 -0.5410568268
O  O27  1  0.56980000  0.19300000  0.87065000  1.0 -0.5410568268
O  O28  1  0.19300000  0.56980000  0.62935000  1.0 -0.5410568268
O  O29  1  0.95880000  0.70560000  0.10853000  1.0 -0.6009425671
O  O30  1  0.70560000  0.95880000  0.39147000  1.0 -0.6009425671
O  O31  1  0.04120000  0.29440000  0.89147000  1.0 -0.6009425671
O  O32  1  0.29440000  0.04120000  0.60853000  1.0 -0.6009425671
O  O33  1  0.68040000  0.81700000  0.13256000  1.0 -0.4618294836
O  O34  1  0.81700000  0.68040000  0.36744000  1.0 -0.4618294836
O  O35  1  0.31960000  0.18300000  0.86744000  1.0 -0.4618294836
O  O36  1  0.18300000  0.31960000  0.63256000  1.0 -0.4618294836
O  O37  1  0.98400000  0.98880000  0.92607000  1.0 -0.5198953302
O  O38  1  0.98880000  0.98400000  0.57393000  1.0 -0.5198953302
O  O39  1  0.01600000  0.01120000  0.07393000  1.0 -0.5198953302
O  O40  1  0.01120000  0.01600000  0.42607000  1.0 -0.5148117692
O  O41  1  0.37070000  0.01610000  0.81249000  1.0 -0.1287366563
O  O42  1  0.01610000  0.37070000  0.68751000  1.0 -0.1287366563
O  O43  1  0.62930000  0.98390000  0.18751000  1.0 -0.1287366563
O  O44  1  0.98390000  0.62930000  0.31249000  1.0 -0.1287366563
O  O45  1  0.76400000  0.44920000  0.90251000  1.0 -0.0326294229
O  O46  1  0.44920000  0.76400000  0.59749000  1.0 -0.0326294229
O  O47  1  0.23600000  0.55080000  0.09749000  1.0 -0.0326294229
O  O48  1  0.55080000  0.23600000  0.40251000  1.0 -0.0326294229
O  O49  1  0.53380000  0.61580000  0.88346000  1.0 -0.4618294836
O  O50  1  0.61580000  0.53380000  0.61654000  1.0 -0.4618294836
O  O51  1  0.46620000  0.38420000  0.11654000  1.0 -0.4618294836
O  O52  1  0.38420000  0.46620000  0.38346000  1.0 -0.4618294836
O  O53  1  0.24830000  0.89450000  0.90325000  1.0 0.0095645544
O  O54  1  0.89450000  0.24830000  0.59675000  1.0 0.0095645544
O  O55  1  0.75170000  0.10550000  0.09675000  1.0 0.0095645544
O  O56  1  0.10550000  0.75170000  0.40325000  1.0 0.0095645544
O  O57  1  0.93540000  0.46460000  0.09174000  1.0 -0.4502050133
O  O58  1  0.46460000  0.93540000  0.40826000  1.0 -0.4502050133
O  O59  1  0.06460000  0.53540000  0.90826000  1.0 -0.4502050133
O  O60  1  0.53540000  0.06460000  0.59174000  1.0 -0.4502050133
