# DDEC6 charges by PACMAN v1.1 (https://github.com/mtap-research/PACMAN-charge/)
data_GAHSEQ_ASR_pacman
_symmetry_space_group_name_H-M   'P 1'
_cell_length_a   8.49651000
_cell_length_b   12.93610000
_cell_length_c   43.72470000
_cell_angle_alpha   90.00000000
_cell_angle_beta   94.33340000
_cell_angle_gamma   90.00000000
_symmetry_Int_Tables_number   1
_chemical_formula_structural   Pr2H62C72O19
_chemical_formula_sum   'Pr4 H124 C144 O38'
_cell_volume   4792.11752795
_cell_formula_units_Z   2
loop_
 _symmetry_equiv_pos_site_id
 _symmetry_equiv_pos_as_xyz
  1  'x, y, z'
loop_
 _atom_site_type_symbol
 _atom_site_label
 _atom_site_symmetry_multiplicity
 _atom_site_fract_x
 _atom_site_fract_y
 _atom_site_fract_z
 _atom_site_occupancy
 _atom_site_charge
Pr  Pr1  1  0.25000000  0.99470000  0.00000000  1.0 2.0569527771
Pr  Pr2  1  0.75000000  0.00530000  0.00000000  1.0 2.0569527771
Pr  Pr3  1  0.25000000  0.46778000  0.50000000  1.0 1.8120406296
Pr  Pr4  1  0.75000000  0.53222000  0.50000000  1.0 1.8120406296
H  H1  1  0.65220000  0.87310000  0.79230000  1.0 0.1097367189
H  H2  1  0.84780000  0.87310000  0.20770000  1.0 0.1024537195
H  H3  1  0.34780000  0.12690000  0.20770000  1.0 0.1097367189
H  H4  1  0.15220000  0.12690000  0.79230000  1.0 0.1024537195
H  H5  1  0.56190000  0.77770000  0.77560000  1.0 0.1183565311
H  H6  1  0.93810000  0.77770000  0.22440000  1.0 0.1183565311
H  H7  1  0.43810000  0.22230000  0.22440000  1.0 0.1183565311
H  H8  1  0.06190000  0.22230000  0.77560000  1.0 0.1183565311
H  H9  1  0.47760000  0.88820000  0.77650000  1.0 0.1024537195
H  H10  1  0.02240000  0.88820000  0.22350000  1.0 0.1024537195
H  H11  1  0.52240000  0.11180000  0.22350000  1.0 0.1024537195
H  H12  1  0.97760000  0.11180000  0.77650000  1.0 0.1024537195
H  H13  1  0.65340000  0.54710000  0.84380000  1.0 0.1097367189
H  H14  1  0.84660000  0.54710000  0.15620000  1.0 0.1097367189
H  H15  1  0.34660000  0.45290000  0.15620000  1.0 0.1097367189
H  H16  1  0.15340000  0.45290000  0.84380000  1.0 0.1097367189
H  H17  1  0.48390000  0.55480000  0.82530000  1.0 0.1097367189
H  H18  1  0.01610000  0.55480000  0.17470000  1.0 0.1097367189
H  H19  1  0.51610000  0.44520000  0.17470000  1.0 0.1097367189
H  H20  1  0.98390000  0.44520000  0.82530000  1.0 0.1097367189
H  H21  1  0.56410000  0.65600000  0.84070000  1.0 0.1183565311
H  H22  1  0.93590000  0.65600000  0.15930000  1.0 0.1183565311
H  H23  1  0.43590000  0.34400000  0.15930000  1.0 0.1183565311
H  H24  1  0.06410000  0.34400000  0.84070000  1.0 0.1183565311
H  H25  1  0.96430000  0.65300000  0.72650000  1.0 0.1024537195
H  H26  1  0.53570000  0.65300000  0.27350000  1.0 0.1024537195
H  H27  1  0.03570000  0.34700000  0.27350000  1.0 0.1024537195
H  H28  1  0.46430000  0.34700000  0.72650000  1.0 0.1024537195
H  H29  1  0.86640000  0.75870000  0.72440000  1.0 0.1183565311
H  H30  1  0.63360000  0.75870000  0.27560000  1.0 0.1183565311
H  H31  1  0.13360000  0.24130000  0.27560000  1.0 0.1183565311
H  H32  1  0.36640000  0.24130000  0.72440000  1.0 0.1183565311
H  H33  1  0.79530000  0.65700000  0.70770000  1.0 0.1024537195
H  H34  1  0.70470000  0.65700000  0.29230000  1.0 0.1024537195
H  H35  1  0.20470000  0.34300000  0.29230000  1.0 0.1024537195
H  H36  1  0.29530000  0.34300000  0.70770000  1.0 0.1024537195
H  H37  1  0.05510000  0.23610000  0.69960000  1.0 0.1097367189
H  H38  1  0.44490000  0.23610000  0.30040000  1.0 0.1097367189
H  H39  1  0.94490000  0.76390000  0.30040000  1.0 0.1097367189
H  H40  1  0.55510000  0.76390000  0.69960000  1.0 0.1097367189
H  H41  1  0.37970000  0.24690000  0.79810000  1.0 0.1097367189
H  H42  1  0.12030000  0.24690000  0.20190000  1.0 0.1097367189
H  H43  1  0.62030000  0.75310000  0.20190000  1.0 0.1097367189
H  H44  1  0.87970000  0.75310000  0.79810000  1.0 0.1097367189
H  H45  1  0.31590000  0.11380000  0.89250000  1.0 0.1097367189
H  H46  1  0.18410000  0.11380000  0.10750000  1.0 0.1097367189
H  H47  1  0.68410000  0.88620000  0.10750000  1.0 0.1097367189
H  H48  1  0.81590000  0.88620000  0.89250000  1.0 0.1097367189
H  H49  1  0.28550000  0.19340000  0.84370000  1.0 0.1097367189
H  H50  1  0.21450000  0.19340000  0.15630000  1.0 0.1097367189
H  H51  1  0.71450000  0.80660000  0.15630000  1.0 0.1097367189
H  H52  1  0.78550000  0.80660000  0.84370000  1.0 0.1097367189
H  H53  1  0.15690000  0.27480000  0.65300000  1.0 0.1097367189
H  H54  1  0.34310000  0.27480000  0.34700000  1.0 0.1097367189
H  H55  1  0.84310000  0.72520000  0.34700000  1.0 0.1097367189
H  H56  1  0.65690000  0.72520000  0.65300000  1.0 0.1097367189
H  H57  1  0.14920000  0.35910000  0.60500000  1.0 0.1024537195
H  H58  1  0.35080000  0.35910000  0.39500000  1.0 0.1024537195
H  H59  1  0.85080000  0.64090000  0.39500000  1.0 0.1024537195
H  H60  1  0.64920000  0.64090000  0.60500000  1.0 0.1024537195
H  H61  1  0.93720000  0.97560000  0.67420000  1.0 0.1097367189
H  H62  1  0.56280000  0.97560000  0.32580000  1.0 0.1097367189
H  H63  1  0.06280000  0.02440000  0.32580000  1.0 0.1097367189
H  H64  1  0.43720000  0.02440000  0.67420000  1.0 0.1097367189
H  H65  1  0.77080000  0.99060000  0.65500000  1.0 0.1097367189
H  H66  1  0.72920000  0.99060000  0.34500000  1.0 0.1097367189
H  H67  1  0.22920000  0.00940000  0.34500000  1.0 0.1097367189
H  H68  1  0.27080000  0.00940000  0.65500000  1.0 0.1097367189
H  H69  1  0.84970000  0.87840000  0.65790000  1.0 0.1097367189
H  H70  1  0.65030000  0.87840000  0.34210000  1.0 0.1097367189
H  H71  1  0.15030000  0.12160000  0.34210000  1.0 0.1097367189
H  H72  1  0.34970000  0.12160000  0.65790000  1.0 0.1097367189
H  H73  1  0.61420000  0.10250000  0.92240000  1.0 0.1338491987
H  H74  1  0.88580000  0.10250000  0.07760000  1.0 0.1338491987
H  H75  1  0.38580000  0.89750000  0.07760000  1.0 0.1338491987
H  H76  1  0.11420000  0.89750000  0.92240000  1.0 0.1338491987
H  H77  1  0.61120000  0.04130000  0.78250000  1.0 0.1183565311
H  H78  1  0.88880000  0.04130000  0.21750000  1.0 0.1097367189
H  H79  1  0.38880000  0.95870000  0.21750000  1.0 0.1183565311
H  H80  1  0.11120000  0.95870000  0.78250000  1.0 0.1183565311
H  H81  1  0.87690000  0.46030000  0.58280000  1.0 0.1183565311
H  H82  1  0.62310000  0.46030000  0.41720000  1.0 0.1183565311
H  H83  1  0.12310000  0.53970000  0.41720000  1.0 0.1183565311
H  H84  1  0.37690000  0.53970000  0.58280000  1.0 0.1183565311
H  H85  1  0.84550000  0.49470000  0.71940000  1.0 0.1183565311
H  H86  1  0.65450000  0.49470000  0.28060000  1.0 0.1183565311
H  H87  1  0.15450000  0.50530000  0.28060000  1.0 0.1183565311
H  H88  1  0.34550000  0.50530000  0.71940000  1.0 0.1183565311
H  H89  1  0.80190000  0.12360000  0.68760000  1.0 0.1097367189
H  H90  1  0.69810000  0.12360000  0.31240000  1.0 0.1097367189
H  H91  1  0.19810000  0.87640000  0.31240000  1.0 0.1097367189
H  H92  1  0.30190000  0.87640000  0.68760000  1.0 0.1097367189
H  H93  1  0.72760000  0.12530000  0.87730000  1.0 0.1097367189
H  H94  1  0.77240000  0.12530000  0.12270000  1.0 0.1097367189
H  H95  1  0.27240000  0.87470000  0.12270000  1.0 0.1097367189
H  H96  1  0.22760000  0.87470000  0.87730000  1.0 0.1097367189
H  H97  1  0.67140000  0.41170000  0.67500000  1.0 0.1097367189
H  H98  1  0.82860000  0.41170000  0.32500000  1.0 0.1097367189
H  H99  1  0.32860000  0.58830000  0.32500000  1.0 0.1097367189
H  H100  1  0.17140000  0.58830000  0.67500000  1.0 0.1097367189
H  H101  1  0.77370000  0.44930000  0.62890000  1.0 0.1024537195
H  H102  1  0.72630000  0.44930000  0.37110000  1.0 0.1024537195
H  H103  1  0.22630000  0.55070000  0.37110000  1.0 0.1024537195
H  H104  1  0.27370000  0.55070000  0.62890000  1.0 0.1024537195
H  H105  1  0.62980000  0.41200000  0.81220000  1.0 0.1097367189
H  H106  1  0.87020000  0.41200000  0.18780000  1.0 0.1097367189
H  H107  1  0.37020000  0.58800000  0.18780000  1.0 0.1097367189
H  H108  1  0.12980000  0.58800000  0.81220000  1.0 0.1097367189
H  H109  1  0.81940000  0.17470000  0.83090000  1.0 0.1097367189
H  H110  1  0.68060000  0.17470000  0.16910000  1.0 0.1097367189
H  H111  1  0.18060000  0.82530000  0.16910000  1.0 0.1097367189
H  H112  1  0.31940000  0.82530000  0.83090000  1.0 0.1097367189
H  H113  1  0.16860000  0.68540000  0.51080000  1.0 0.2046895202
H  H114  1  0.33140000  0.68540000  0.48920000  1.0 0.2054323729
H  H115  1  0.83140000  0.31460000  0.48920000  1.0 0.2054323729
H  H116  1  0.66860000  0.31460000  0.51080000  1.0 0.2054323729
H  H117  1  0.26150000  0.65560000  0.45450000  1.0 0.222523744
H  H118  1  0.23850000  0.65560000  0.54550000  1.0 0.222523744
H  H119  1  0.73850000  0.34440000  0.54550000  1.0 0.222523744
H  H120  1  0.76150000  0.34440000  0.45450000  1.0 0.222523744
H  H121  1  0.38480000  0.68220000  0.48120000  1.0 0.1593879735
H  H122  1  0.11520000  0.68220000  0.51880000  1.0 0.1593879735
H  H123  1  0.61520000  0.31780000  0.51880000  1.0 0.1593879735
H  H124  1  0.88480000  0.31780000  0.48120000  1.0 0.1593879735
C  C1  1  0.57860000  0.85260000  0.77499000  1.0 -0.2582303558
C  C2  1  0.92140000  0.85260000  0.22501000  1.0 -0.2582303558
C  C3  1  0.42140000  0.14740000  0.22501000  1.0 -0.2582303558
C  C4  1  0.07860000  0.14740000  0.77499000  1.0 -0.2582303558
C  C5  1  0.58410000  0.59070000  0.83033000  1.0 -0.2582303558
C  C6  1  0.91590000  0.59070000  0.16967000  1.0 -0.2582303558
C  C7  1  0.41590000  0.40930000  0.16967000  1.0 -0.2582303558
C  C8  1  0.08410000  0.40930000  0.83033000  1.0 -0.2582303558
C  C9  1  0.85840000  0.68330000  0.72575000  1.0 -0.2518809536
C  C10  1  0.64160000  0.68330000  0.27425000  1.0 -0.2518809536
C  C11  1  0.14160000  0.31670000  0.27425000  1.0 -0.2518809536
C  C12  1  0.35840000  0.31670000  0.72575000  1.0 -0.2518809536
C  C13  1  0.49480000  0.15050000  0.86510000  1.0 0.1024537195
C  C14  1  0.00520000  0.15050000  0.13490000  1.0 0.1024537195
C  C15  1  0.50520000  0.84950000  0.13490000  1.0 0.1024537195
C  C16  1  0.99480000  0.84950000  0.86510000  1.0 0.1024537195
C  C17  1  0.41770000  0.06370000  0.94636000  1.0 0.6603623654
C  C18  1  0.08230000  0.06370000  0.05364000  1.0 0.6603623654
C  C19  1  0.58230000  0.93630000  0.05364000  1.0 0.6603623654
C  C20  1  0.91770000  0.93630000  0.94636000  1.0 0.6603623654
C  C21  1  0.99650000  0.27910000  0.68524000  1.0 -0.1499161523
C  C22  1  0.50350000  0.27910000  0.31476000  1.0 -0.1499161523
C  C23  1  0.00350000  0.72090000  0.31476000  1.0 -0.1499161523
C  C24  1  0.49650000  0.72090000  0.68524000  1.0 -0.1499161523
C  C25  1  0.45130000  0.22020000  0.81391000  1.0 -0.1422519658
C  C26  1  0.04870000  0.22020000  0.18609000  1.0 -0.1422519658
C  C27  1  0.54870000  0.77980000  0.18609000  1.0 -0.1422519658
C  C28  1  0.95130000  0.77980000  0.81391000  1.0 -0.1422519658
C  C29  1  0.42770000  0.11900000  0.89341000  1.0 -0.0848371584
C  C30  1  0.07230000  0.11900000  0.10659000  1.0 -0.0852120418
C  C31  1  0.57230000  0.88100000  0.10659000  1.0 -0.0848371584
C  C32  1  0.92770000  0.88100000  0.89341000  1.0 -0.0852120418
C  C33  1  0.39540000  0.18870000  0.84119000  1.0 -0.158405962
C  C34  1  0.10460000  0.18870000  0.15881000  1.0 -0.158405962
C  C35  1  0.60460000  0.81130000  0.15881000  1.0 -0.158405962
C  C36  1  0.89540000  0.81130000  0.84119000  1.0 -0.158405962
C  C37  1  0.05730000  0.30230000  0.65738000  1.0 -0.1661304209
C  C38  1  0.44270000  0.30230000  0.34262000  1.0 -0.1661304209
C  C39  1  0.94270000  0.69770000  0.34262000  1.0 -0.1661304209
C  C40  1  0.55730000  0.69770000  0.65738000  1.0 -0.1661304209
C  C41  1  0.04500000  0.38410000  0.60654000  1.0 -0.0980555091
C  C42  1  0.45500000  0.38410000  0.39346000  1.0 -0.0980555091
C  C43  1  0.95500000  0.61590000  0.39346000  1.0 -0.0980555091
C  C44  1  0.54500000  0.61590000  0.60654000  1.0 -0.0980555091
C  C45  1  0.83430000  0.94380000  0.66854000  1.0 -0.2518809536
C  C46  1  0.66570000  0.94380000  0.33146000  1.0 -0.2518809536
C  C47  1  0.16570000  0.05620000  0.33146000  1.0 -0.2518809536
C  C48  1  0.33430000  0.05620000  0.66854000  1.0 -0.2518809536
C  C49  1  0.50240000  0.09680000  0.92009000  1.0 -0.2518809536
C  C50  1  0.99760000  0.09680000  0.07991000  1.0 -0.2518809536
C  C51  1  0.49760000  0.90320000  0.07991000  1.0 -0.2518809536
C  C52  1  0.00240000  0.90320000  0.92009000  1.0 -0.2518809536
C  C53  1  0.65090000  0.05880000  0.76343000  1.0 -0.3108635544
C  C54  1  0.84910000  0.05880000  0.23657000  1.0 -0.3108635544
C  C55  1  0.34910000  0.94120000  0.23657000  1.0 -0.3108635544
C  C56  1  0.15090000  0.94120000  0.76343000  1.0 -0.3108635544
C  C57  1  0.97970000  0.43180000  0.58242000  1.0 -0.2358778391
C  C58  1  0.52030000  0.43180000  0.41758000  1.0 -0.2358778391
C  C59  1  0.02030000  0.56820000  0.41758000  1.0 -0.2358778391
C  C60  1  0.47970000  0.56820000  0.58242000  1.0 -0.2358778391
C  C61  1  0.60780000  0.21370000  0.80922000  1.0 0.0710969835
C  C62  1  0.89220000  0.21370000  0.19078000  1.0 0.0710969835
C  C63  1  0.39220000  0.78630000  0.19078000  1.0 0.0710969835
C  C64  1  0.10780000  0.78630000  0.80922000  1.0 0.0710969835
C  C65  1  0.73610000  0.00820000  0.71401000  1.0 0.1496489707
C  C66  1  0.76390000  0.00820000  0.28599000  1.0 0.1496489707
C  C67  1  0.26390000  0.99180000  0.28599000  1.0 0.1496489707
C  C68  1  0.23610000  0.99180000  0.71401000  1.0 0.1496489707
C  C69  1  0.76360000  0.37110000  0.74361000  1.0 0.0297105648
C  C70  1  0.73640000  0.37110000  0.25639000  1.0 0.0297105648
C  C71  1  0.23640000  0.62890000  0.25639000  1.0 0.0297105648
C  C72  1  0.26360000  0.62890000  0.74361000  1.0 0.0297105648
C  C73  1  0.79720000  0.47700000  0.73758000  1.0 -0.3108635544
C  C74  1  0.70280000  0.47700000  0.26242000  1.0 -0.3108635544
C  C75  1  0.20280000  0.52300000  0.26242000  1.0 -0.3108635544
C  C76  1  0.29720000  0.52300000  0.73758000  1.0 -0.3108635544
C  C77  1  0.85120000  0.31810000  0.69241000  1.0 0.0782493379
C  C78  1  0.64880000  0.31810000  0.30759000  1.0 0.0782493379
C  C79  1  0.14880000  0.68190000  0.30759000  1.0 0.0782493379
C  C80  1  0.35120000  0.68190000  0.69241000  1.0 0.0782493379
C  C81  1  0.97550000  0.36460000  0.63586000  1.0 0.0942119013
C  C82  1  0.52450000  0.36460000  0.36414000  1.0 0.0942119013
C  C83  1  0.02450000  0.63540000  0.36414000  1.0 0.0942119013
C  C84  1  0.47550000  0.63540000  0.63586000  1.0 0.0942119013
C  C85  1  0.76710000  0.10750000  0.70724000  1.0 -0.2965299461
C  C86  1  0.73290000  0.10750000  0.29276000  1.0 -0.2965299461
C  C87  1  0.23290000  0.89250000  0.29276000  1.0 -0.2965299461
C  C88  1  0.26710000  0.89250000  0.70724000  1.0 -0.2965299461
C  C89  1  0.65510000  0.14790000  0.86103000  1.0 -0.1499161523
C  C90  1  0.84490000  0.14790000  0.13897000  1.0 -0.1499161523
C  C91  1  0.34490000  0.85210000  0.13897000  1.0 -0.1499161523
C  C92  1  0.15510000  0.85210000  0.86103000  1.0 -0.1499161523
C  C93  1  0.77010000  0.38290000  0.67062000  1.0 -0.158405962
C  C94  1  0.72990000  0.38290000  0.32938000  1.0 -0.158405962
C  C95  1  0.22990000  0.61710000  0.32938000  1.0 -0.158405962
C  C96  1  0.27010000  0.61710000  0.67062000  1.0 -0.158405962
C  C97  1  0.06840000  0.44120000  0.55409000  1.0 0.6092911388
C  C98  1  0.43160000  0.44120000  0.44591000  1.0 0.6092911388
C  C99  1  0.93160000  0.55880000  0.44591000  1.0 0.6092911388
C  C100  1  0.56840000  0.55880000  0.55409000  1.0 0.6092911388
C  C101  1  0.74910000  0.18890000  0.72866000  1.0 0.0297105648
C  C102  1  0.75090000  0.18890000  0.27134000  1.0 0.0297105648
C  C103  1  0.25090000  0.81110000  0.27134000  1.0 0.0297105648
C  C104  1  0.24910000  0.81110000  0.72866000  1.0 0.0297105648
C  C105  1  0.69020000  0.52790000  0.78551000  1.0 0.1593879735
C  C106  1  0.80980000  0.52790000  0.21449000  1.0 0.1593879735
C  C107  1  0.30980000  0.47210000  0.21449000  1.0 0.1593879735
C  C108  1  0.19020000  0.47210000  0.78551000  1.0 0.1593879735
C  C109  1  0.68570000  0.16410000  0.75741000  1.0 0.0297105648
C  C110  1  0.81430000  0.16410000  0.24259000  1.0 0.0297105648
C  C111  1  0.31430000  0.83590000  0.24259000  1.0 0.0297105648
C  C112  1  0.18570000  0.83590000  0.75741000  1.0 0.0297105648
C  C113  1  0.67230000  0.98230000  0.74289000  1.0 0.1667177703
C  C114  1  0.82770000  0.98230000  0.25711000  1.0 0.1667177703
C  C115  1  0.32770000  0.01770000  0.25711000  1.0 0.1667177703
C  C116  1  0.17230000  0.01770000  0.74289000  1.0 0.1667177703
C  C117  1  0.83090000  0.40540000  0.64313000  1.0 -0.1499161523
C  C118  1  0.66910000  0.40540000  0.35687000  1.0 -0.1499161523
C  C119  1  0.16910000  0.59460000  0.35687000  1.0 -0.1499161523
C  C120  1  0.33090000  0.59460000  0.64313000  1.0 -0.1499161523
C  C121  1  0.66790000  0.42810000  0.79286000  1.0 -0.3108635544
C  C122  1  0.83210000  0.42810000  0.20714000  1.0 -0.3108635544
C  C123  1  0.33210000  0.57190000  0.20714000  1.0 -0.3108635544
C  C124  1  0.16790000  0.57190000  0.79286000  1.0 -0.3108635544
C  C125  1  0.66780000  0.24190000  0.77904000  1.0 -0.0384202578
C  C126  1  0.83220000  0.24190000  0.22096000  1.0 -0.0384202578
C  C127  1  0.33220000  0.75810000  0.22096000  1.0 -0.0384202578
C  C128  1  0.16780000  0.75810000  0.77904000  1.0 -0.0384202578
C  C129  1  0.70020000  0.34540000  0.77240000  1.0 0.0297105648
C  C130  1  0.79980000  0.34540000  0.22760000  1.0 0.0297105648
C  C131  1  0.29980000  0.65460000  0.22760000  1.0 0.0297105648
C  C132  1  0.20020000  0.65460000  0.77240000  1.0 0.0297105648
C  C133  1  0.76160000  0.55300000  0.75736000  1.0 0.1593879735
C  C134  1  0.73840000  0.55300000  0.24264000  1.0 0.1593879735
C  C135  1  0.23840000  0.44700000  0.24264000  1.0 0.1593879735
C  C136  1  0.26160000  0.44700000  0.75736000  1.0 0.1593879735
C  C137  1  0.70950000  0.17820000  0.83346000  1.0 -0.158405962
C  C138  1  0.79050000  0.17820000  0.16654000  1.0 -0.158405962
C  C139  1  0.29050000  0.82180000  0.16654000  1.0 -0.158405962
C  C140  1  0.20950000  0.82180000  0.83346000  1.0 -0.158405962
C  C141  1  0.78580000  0.29210000  0.72196000  1.0 -0.0384202578
C  C142  1  0.71420000  0.29210000  0.27804000  1.0 -0.0384202578
C  C143  1  0.21420000  0.70790000  0.27804000  1.0 -0.0384202578
C  C144  1  0.28580000  0.70790000  0.72196000  1.0 -0.0384202578
O  O1  1  0.20530000  0.41150000  0.55360000  1.0 -0.5915105913
O  O2  1  0.29470000  0.41150000  0.44640000  1.0 -0.5915105913
O  O3  1  0.79470000  0.58850000  0.44640000  1.0 -0.5915105913
O  O4  1  0.70530000  0.58850000  0.55360000  1.0 -0.5915105913
O  O5  1  0.49760000  0.04340000  0.97206000  1.0 -0.831204233
O  O6  1  0.00240000  0.04340000  0.02794000  1.0 -0.831204233
O  O7  1  0.50240000  0.95660000  0.02794000  1.0 -0.831204233
O  O8  1  0.99760000  0.95660000  0.97206000  1.0 -0.831204233
O  O9  1  0.27120000  0.05610000  0.94522000  1.0 -0.6140359614
O  O10  1  0.22880000  0.05610000  0.05478000  1.0 -0.6140359614
O  O11  1  0.72880000  0.94390000  0.05478000  1.0 -0.6157695625
O  O12  1  0.77120000  0.94390000  0.94522000  1.0 -0.6157695625
O  O13  1  0.99460000  0.47990000  0.53046000  1.0 -0.749586222
O  O14  1  0.50540000  0.47990000  0.46954000  1.0 -0.749586222
O  O15  1  0.00540000  0.52010000  0.46954000  1.0 -0.749586222
O  O16  1  0.49460000  0.52010000  0.53046000  1.0 -0.749586222
O  O17  1  0.64320000  0.88020000  0.74670000  1.0 -0.1320717402
O  O18  1  0.85680000  0.88020000  0.25330000  1.0 -0.1320717402
O  O19  1  0.35680000  0.11980000  0.25330000  1.0 -0.1320717402
O  O20  1  0.14320000  0.11980000  0.74670000  1.0 -0.1320717402
O  O21  1  0.78450000  0.65600000  0.75282000  1.0 -0.1422519658
O  O22  1  0.71550000  0.65600000  0.24718000  1.0 -0.1422519658
O  O23  1  0.21550000  0.34400000  0.24718000  1.0 -0.1422519658
O  O24  1  0.28450000  0.34400000  0.75282000  1.0 -0.1422519658
O  O25  1  0.65860000  0.61160000  0.80263000  1.0 -0.1499161523
O  O26  1  0.84140000  0.61160000  0.19737000  1.0 -0.1499161523
O  O27  1  0.34140000  0.38840000  0.19737000  1.0 -0.1499161523
O  O28  1  0.15860000  0.38840000  0.80263000  1.0 -0.1499161523
O  O29  1  0.75540000  0.92490000  0.69539000  1.0 -0.1499161523
O  O30  1  0.74460000  0.92490000  0.30461000  1.0 -0.1499161523
O  O31  1  0.24460000  0.07510000  0.30461000  1.0 -0.1499161523
O  O32  1  0.25540000  0.07510000  0.69539000  1.0 -0.1499161523
O  O33  1  0.25000000  0.63170000  0.50000000  1.0 -0.1209777158
O  O34  1  0.75000000  0.36830000  0.50000000  1.0 -0.1209777158
O  O35  1  0.31000000  0.63240000  0.47350000  1.0 -0.3453334544
O  O36  1  0.19000000  0.63240000  0.52650000  1.0 -0.3453334544
O  O37  1  0.69000000  0.36760000  0.52650000  1.0 -0.3453334544
O  O38  1  0.81000000  0.36760000  0.47350000  1.0 -0.3453334544
