# DDEC6 charges by PACMAN v1.1 (https://github.com/mtap-research/PACMAN-charge/)
data_GAJVEU_FSR_pacman
_symmetry_space_group_name_H-M   'P 1'
_cell_length_a   17.25320000
_cell_length_b   17.25320000
_cell_length_c   18.49500000
_cell_angle_alpha   89.55140000
_cell_angle_beta   90.44860000
_cell_angle_gamma   147.70700000
_symmetry_Int_Tables_number   1
_chemical_formula_structural   Zn3(C16O9)2
_chemical_formula_sum   'Zn6 C64 O36'
_cell_volume   2941.18946895
_cell_formula_units_Z   2
loop_
 _symmetry_equiv_pos_site_id
 _symmetry_equiv_pos_as_xyz
  1  'x, y, z'
loop_
 _atom_site_type_symbol
 _atom_site_label
 _atom_site_symmetry_multiplicity
 _atom_site_fract_x
 _atom_site_fract_y
 _atom_site_fract_z
 _atom_site_occupancy
 _atom_site_charge
Zn  Zn1  1  0.13610000  0.44280000  0.99568000  1.0 0.9088207079
Zn  Zn2  1  0.44280000  0.13610000  0.50432000  1.0 0.9088207079
Zn  Zn3  1  0.86390000  0.55720000  0.00432000  1.0 0.9088207079
Zn  Zn4  1  0.55720000  0.86390000  0.49568000  1.0 0.9088207079
Zn  Zn5  1  0.00000000  0.50000000  0.00000000  1.0 1.0168698025
Zn  Zn6  1  0.50000000  0.00000000  0.50000000  1.0 1.0168698025
C  C1  1  0.31263000  0.71417000  0.96150000  1.0 0.6068602694
C  C2  1  0.71417000  0.31263000  0.53850000  1.0 0.6068602694
C  C3  1  0.68737000  0.28583000  0.03850000  1.0 0.6068602694
C  C4  1  0.28583000  0.68737000  0.46150000  1.0 0.6068602694
C  C5  1  0.40792000  0.86168000  0.98240000  1.0 -0.0239256858
C  C6  1  0.86168000  0.40792000  0.51760000  1.0 -0.0239256858
C  C7  1  0.59208000  0.13832000  0.01760000  1.0 -0.0239256858
C  C8  1  0.13832000  0.59208000  0.48240000  1.0 -0.0239256858
C  C9  1  0.05200000  0.66320000  0.11807000  1.0 0.6473888797
C  C10  1  0.66320000  0.05200000  0.38193000  1.0 0.6473888797
C  C11  1  0.94800000  0.33680000  0.88193000  1.0 0.6473888797
C  C12  1  0.33680000  0.94800000  0.61807000  1.0 0.6473888797
C  C13  1  0.51504000  0.97676000  0.93300000  1.0 0.0083792677
C  C14  1  0.97676000  0.51504000  0.56700000  1.0 0.0083792677
C  C15  1  0.48496000  0.02324000  0.06700000  1.0 0.0083792677
C  C16  1  0.02324000  0.48496000  0.43300000  1.0 0.0083792677
C  C17  1  0.39414000  0.88586000  0.04880000  1.0 0.0285165979
C  C18  1  0.88586000  0.39414000  0.45120000  1.0 0.0285165979
C  C19  1  0.60586000  0.11414000  0.95120000  1.0 0.0285165979
C  C20  1  0.11414000  0.60586000  0.54880000  1.0 0.0285165979
C  C21  1  0.12142000  0.73658000  0.19000000  1.0 -0.0502220988
C  C22  1  0.73658000  0.12142000  0.31000000  1.0 -0.0502220988
C  C23  1  0.87858000  0.26342000  0.81000000  1.0 -0.0502220988
C  C24  1  0.26342000  0.87858000  0.69000000  1.0 -0.0502220988
C  C25  1  0.13718000  0.82502000  0.21380000  1.0 0.035423386
C  C26  1  0.82502000  0.13718000  0.28620000  1.0 0.035423386
C  C27  1  0.86282000  0.17498000  0.78620000  1.0 0.035423386
C  C28  1  0.17498000  0.86282000  0.71380000  1.0 0.035423386
C  C29  1  0.16629000  0.71231000  0.23350000  1.0 0.0285165979
C  C30  1  0.71231000  0.16629000  0.26650000  1.0 0.0285165979
C  C31  1  0.83371000  0.28769000  0.76650000  1.0 0.0285165979
C  C32  1  0.28769000  0.83371000  0.73350000  1.0 0.0285165979
C  C33  1  0.65210000  0.48230000  0.98340000  1.0 0.4432327343
C  C34  1  0.48230000  0.65210000  0.51660000  1.0 0.4432327343
C  C35  1  0.34790000  0.51770000  0.01660000  1.0 0.4432327343
C  C36  1  0.51770000  0.34790000  0.48340000  1.0 0.4432327343
C  C37  1  0.19975000  0.89085000  0.28170000  1.0 0.0168715632
C  C38  1  0.89085000  0.19975000  0.21830000  1.0 0.0168715632
C  C39  1  0.80025000  0.10915000  0.71830000  1.0 0.0168715632
C  C40  1  0.10915000  0.80025000  0.78170000  1.0 0.0168715632
C  C41  1  0.22719000  0.77681000  0.30100000  1.0 0.0285165979
C  C42  1  0.77681000  0.22719000  0.19900000  1.0 0.0285165979
C  C43  1  0.77281000  0.22319000  0.69900000  1.0 0.0285165979
C  C44  1  0.22319000  0.77281000  0.80100000  1.0 0.0285165979
C  C45  1  0.57240000  0.49100000  0.99200000  1.0 -0.0638580355
C  C46  1  0.49100000  0.57240000  0.50800000  1.0 -0.0638580355
C  C47  1  0.42760000  0.50900000  0.00800000  1.0 -0.0638580355
C  C48  1  0.50900000  0.42760000  0.49200000  1.0 -0.0638580355
C  C49  1  0.24518000  0.86762000  0.32460000  1.0 -0.0502220988
C  C50  1  0.86762000  0.24518000  0.17540000  1.0 -0.0502220988
C  C51  1  0.75482000  0.13238000  0.67540000  1.0 -0.0502220988
C  C52  1  0.13238000  0.75482000  0.82460000  1.0 -0.0502220988
C  C53  1  0.62860000  0.59440000  0.03740000  1.0 0.0083792677
C  C54  1  0.59440000  0.62860000  0.46260000  1.0 0.0083792677
C  C55  1  0.37140000  0.40560000  0.96260000  1.0 0.0083792677
C  C56  1  0.40560000  0.37140000  0.53740000  1.0 0.0083792677
C  C57  1  0.44830000  0.40110000  0.95390000  1.0 -0.0013091801
C  C58  1  0.40110000  0.44830000  0.54610000  1.0 -0.0013091801
C  C59  1  0.55170000  0.59890000  0.04610000  1.0 -0.0013091801
C  C60  1  0.59890000  0.55170000  0.45390000  1.0 -0.0013091801
C  C61  1  0.31201000  0.93879000  0.39731000  1.0 0.6473888797
C  C62  1  0.93879000  0.31201000  0.10269000  1.0 0.6473888797
C  C63  1  0.68799000  0.06121000  0.60269000  1.0 0.6473888797
C  C64  1  0.06121000  0.68799000  0.89731000  1.0 0.6473888797
O  O1  1  0.20541000  0.60839000  0.00612000  1.0 -0.6061364221
O  O2  1  0.60839000  0.20541000  0.49388000  1.0 -0.6061364221
O  O3  1  0.79459000  0.39161000  0.99388000  1.0 -0.6061364221
O  O4  1  0.39161000  0.79459000  0.50612000  1.0 -0.6061364221
O  O5  1  0.95214000  0.40946000  0.90323000  1.0 -0.5433055418
O  O6  1  0.40946000  0.95214000  0.59677000  1.0 -0.5433055418
O  O7  1  0.04786000  0.59054000  0.09677000  1.0 -0.5433055418
O  O8  1  0.59054000  0.04786000  0.40323000  1.0 -0.5433055418
O  O9  1  0.10154000  0.66966000  0.93925000  1.0 -0.5433055418
O  O10  1  0.66966000  0.10154000  0.56075000  1.0 -0.5433055418
O  O11  1  0.89846000  0.33034000  0.06075000  1.0 -0.5433055418
O  O12  1  0.33034000  0.89846000  0.43925000  1.0 -0.5433055418
O  O13  1  0.33542000  0.69518000  0.90780000  1.0 -0.4751375872
O  O14  1  0.69518000  0.33542000  0.59220000  1.0 -0.4751375872
O  O15  1  0.66458000  0.30482000  0.09220000  1.0 -0.4751375872
O  O16  1  0.30482000  0.66458000  0.40780000  1.0 -0.4751375872
O  O17  1  0.99859000  0.67681000  0.08558000  1.0 -0.5179245579
O  O18  1  0.67681000  0.99859000  0.41442000  1.0 -0.5179245579
O  O19  1  0.00141000  0.32319000  0.91442000  1.0 -0.5179245579
O  O20  1  0.32319000  0.00141000  0.58558000  1.0 -0.5179245579
O  O21  1  0.96670000  0.65810000  0.91167000  1.0 -0.5179245579
O  O22  1  0.65810000  0.96670000  0.58833000  1.0 -0.5179245579
O  O23  1  0.03330000  0.34190000  0.08833000  1.0 -0.5179245579
O  O24  1  0.34190000  0.03330000  0.41167000  1.0 -0.5179245579
O  O25  1  0.75881000  0.56259000  0.02300000  1.0 -0.4230141448
O  O26  1  0.56259000  0.75881000  0.47700000  1.0 -0.4230141448
O  O27  1  0.24119000  0.43741000  0.97700000  1.0 -0.4230141448
O  O28  1  0.43741000  0.24119000  0.52300000  1.0 -0.4230141448
O  O29  1  0.62950000  0.42210000  0.92790000  1.0 -0.0502220988
O  O30  1  0.42210000  0.62950000  0.57210000  1.0 -0.0502220988
O  O31  1  0.37050000  0.57790000  0.07210000  1.0 -0.0502220988
O  O32  1  0.57790000  0.37050000  0.42790000  1.0 -0.0502220988
O  O33  1  0.59970000  0.38430000  0.94530000  1.0 -0.0502220988
O  O34  1  0.38430000  0.59970000  0.55470000  1.0 -0.0502220988
O  O35  1  0.40030000  0.61570000  0.05470000  1.0 -0.0502220988
O  O36  1  0.61570000  0.40030000  0.44530000  1.0 -0.0502220988
