# DDEC6 charges by PACMAN v1.1 (https://github.com/mtap-research/PACMAN-charge/)
data_GAKZOL_ASR_pacman
_symmetry_space_group_name_H-M   'P 1'
_cell_length_a   18.93910000
_cell_length_b   18.93910000
_cell_length_c   18.93910000
_cell_angle_alpha   60.00000000
_cell_angle_beta   60.00000000
_cell_angle_gamma   60.00000000
_symmetry_Int_Tables_number   1
_chemical_formula_structural   Zr3H52Au12(C33O10)2
_chemical_formula_sum   'Zr6 H104 Au24 C132 O40'
_cell_volume   4803.55772073
_cell_formula_units_Z   2
loop_
 _symmetry_equiv_pos_site_id
 _symmetry_equiv_pos_as_xyz
  1  'x, y, z'
loop_
 _atom_site_type_symbol
 _atom_site_label
 _atom_site_symmetry_multiplicity
 _atom_site_fract_x
 _atom_site_fract_y
 _atom_site_fract_z
 _atom_site_occupancy
 _atom_site_charge
Zr  Zr1  1  0.59240000  0.40760000  0.40760000  1.0 2.1162938401
Zr  Zr2  1  0.40760000  0.59240000  0.59240000  1.0 2.1141866967
Zr  Zr3  1  0.40760000  0.40760000  0.59240000  1.0 2.1162938401
Zr  Zr4  1  0.59240000  0.59240000  0.40760000  1.0 2.1141866967
Zr  Zr5  1  0.40760000  0.59240000  0.40760000  1.0 2.1141866967
Zr  Zr6  1  0.59240000  0.40760000  0.59240000  1.0 2.1162938401
H  H1  1  0.58255000  0.19461000  0.37685000  1.0 0.0715824559
H  H2  1  0.57988000  0.07380000  0.37664000  1.0 0.0915133922
H  H3  1  0.37685000  0.84599000  0.58255000  1.0 0.0715824559
H  H4  1  0.37664000  0.96968000  0.57988000  1.0 0.0915133922
H  H5  1  0.19461000  0.58255000  0.84599000  1.0 0.0715824559
H  H6  1  0.07380000  0.57988000  0.96968000  1.0 0.0915133922
H  H7  1  0.84599000  0.37685000  0.19461000  1.0 0.0715824559
H  H8  1  0.96968000  0.37664000  0.07380000  1.0 0.0915133922
H  H9  1  0.19461000  0.37685000  0.58255000  1.0 0.0715824559
H  H10  1  0.07380000  0.37664000  0.57988000  1.0 0.0915133922
H  H11  1  0.84599000  0.58255000  0.37685000  1.0 0.0715824559
H  H12  1  0.96968000  0.57988000  0.37664000  1.0 0.0915133922
H  H13  1  0.58255000  0.84599000  0.19461000  1.0 0.0715824559
H  H14  1  0.57988000  0.96968000  0.07380000  1.0 0.0915133922
H  H15  1  0.37685000  0.19461000  0.84599000  1.0 0.0715824559
H  H16  1  0.37664000  0.07380000  0.96968000  1.0 0.0915133922
H  H17  1  0.37685000  0.58255000  0.19461000  1.0 0.0715824559
H  H18  1  0.37664000  0.57988000  0.07380000  1.0 0.0915133922
H  H19  1  0.58255000  0.37685000  0.84599000  1.0 0.0715824559
H  H20  1  0.57988000  0.37664000  0.96968000  1.0 0.0915133922
H  H21  1  0.84599000  0.19461000  0.58255000  1.0 0.0715824559
H  H22  1  0.96968000  0.07380000  0.57988000  1.0 0.0915133922
H  H23  1  0.19461000  0.84599000  0.37685000  1.0 0.0715824559
H  H24  1  0.07380000  0.96968000  0.37664000  1.0 0.0915133922
H  H25  1  0.41745000  0.15401000  0.62315000  1.0 0.0715824559
H  H26  1  0.42012000  0.03032000  0.62336000  1.0 0.0915133922
H  H27  1  0.62315000  0.80539000  0.41745000  1.0 0.0715824559
H  H28  1  0.62336000  0.92620000  0.42012000  1.0 0.0915133922
H  H29  1  0.80539000  0.62315000  0.15401000  1.0 0.0715824559
H  H30  1  0.92620000  0.62336000  0.03032000  1.0 0.0915133922
H  H31  1  0.15401000  0.41745000  0.80539000  1.0 0.0715824559
H  H32  1  0.03032000  0.42012000  0.92620000  1.0 0.0915133922
H  H33  1  0.80539000  0.15401000  0.41745000  1.0 0.0715824559
H  H34  1  0.92620000  0.03032000  0.42012000  1.0 0.0915133922
H  H35  1  0.15401000  0.80539000  0.62315000  1.0 0.0715824559
H  H36  1  0.03032000  0.92620000  0.62336000  1.0 0.0915133922
H  H37  1  0.41745000  0.62315000  0.80539000  1.0 0.0715824559
H  H38  1  0.42012000  0.62336000  0.92620000  1.0 0.0915133922
H  H39  1  0.62315000  0.41745000  0.15401000  1.0 0.0715824559
H  H40  1  0.62336000  0.42012000  0.03032000  1.0 0.0915133922
H  H41  1  0.62315000  0.15401000  0.80539000  1.0 0.0715824559
H  H42  1  0.62336000  0.03032000  0.92620000  1.0 0.0915133922
H  H43  1  0.41745000  0.80539000  0.15401000  1.0 0.0715824559
H  H44  1  0.42012000  0.92620000  0.03032000  1.0 0.0915133922
H  H45  1  0.15401000  0.62315000  0.41745000  1.0 0.0715824559
H  H46  1  0.03032000  0.62336000  0.42012000  1.0 0.0915133922
H  H47  1  0.80539000  0.41745000  0.62315000  1.0 0.0715824559
H  H48  1  0.92620000  0.42012000  0.62336000  1.0 0.0915133922
H  H49  1  0.41745000  0.80539000  0.62315000  1.0 0.0715824559
H  H50  1  0.42012000  0.92620000  0.62336000  1.0 0.0915133922
H  H51  1  0.62315000  0.15401000  0.41745000  1.0 0.0715824559
H  H52  1  0.62336000  0.03032000  0.42012000  1.0 0.0915133922
H  H53  1  0.80539000  0.41745000  0.15401000  1.0 0.0715824559
H  H54  1  0.92620000  0.42012000  0.03032000  1.0 0.0915133922
H  H55  1  0.15401000  0.62315000  0.80539000  1.0 0.0715824559
H  H56  1  0.03032000  0.62336000  0.92620000  1.0 0.0915133922
H  H57  1  0.80539000  0.62315000  0.41745000  1.0 0.0715824559
H  H58  1  0.92620000  0.62336000  0.42012000  1.0 0.0915133922
H  H59  1  0.15401000  0.41745000  0.62315000  1.0 0.0715824559
H  H60  1  0.03032000  0.42012000  0.62336000  1.0 0.0915133922
H  H61  1  0.41745000  0.15401000  0.80539000  1.0 0.0715824559
H  H62  1  0.42012000  0.03032000  0.92620000  1.0 0.0915133922
H  H63  1  0.62315000  0.80539000  0.15401000  1.0 0.0715824559
H  H64  1  0.62336000  0.92620000  0.03032000  1.0 0.0915133922
H  H65  1  0.62315000  0.41745000  0.80539000  1.0 0.0715824559
H  H66  1  0.62336000  0.42012000  0.92620000  1.0 0.0915133922
H  H67  1  0.41745000  0.62315000  0.15401000  1.0 0.0715824559
H  H68  1  0.42012000  0.62336000  0.03032000  1.0 0.0915133922
H  H69  1  0.15401000  0.80539000  0.41745000  1.0 0.0715824559
H  H70  1  0.03032000  0.92620000  0.42012000  1.0 0.0915133922
H  H71  1  0.80539000  0.15401000  0.62315000  1.0 0.0715824559
H  H72  1  0.92620000  0.03032000  0.62336000  1.0 0.0915133922
H  H73  1  0.58255000  0.84599000  0.37685000  1.0 0.0715824559
H  H74  1  0.57988000  0.96968000  0.37664000  1.0 0.0915133922
H  H75  1  0.37685000  0.19461000  0.58255000  1.0 0.0715824559
H  H76  1  0.37664000  0.07380000  0.57988000  1.0 0.0915133922
H  H77  1  0.19461000  0.37685000  0.84599000  1.0 0.0715824559
H  H78  1  0.07380000  0.37664000  0.96968000  1.0 0.0915133922
H  H79  1  0.84599000  0.58255000  0.19461000  1.0 0.0715824559
H  H80  1  0.96968000  0.57988000  0.07380000  1.0 0.0915133922
H  H81  1  0.19461000  0.84599000  0.58255000  1.0 0.0715824559
H  H82  1  0.07380000  0.96968000  0.57988000  1.0 0.0915133922
H  H83  1  0.84599000  0.19461000  0.37685000  1.0 0.0715824559
H  H84  1  0.96968000  0.07380000  0.37664000  1.0 0.0915133922
H  H85  1  0.58255000  0.37685000  0.19461000  1.0 0.0715824559
H  H86  1  0.57988000  0.37664000  0.07380000  1.0 0.0915133922
H  H87  1  0.37685000  0.58255000  0.84599000  1.0 0.0715824559
H  H88  1  0.37664000  0.57988000  0.96968000  1.0 0.0915133922
H  H89  1  0.37685000  0.84599000  0.19461000  1.0 0.0715824559
H  H90  1  0.37664000  0.96968000  0.07380000  1.0 0.0915133922
H  H91  1  0.58255000  0.19461000  0.84599000  1.0 0.0715824559
H  H92  1  0.57988000  0.07380000  0.96968000  1.0 0.0915133922
H  H93  1  0.84599000  0.37685000  0.58255000  1.0 0.0715824559
H  H94  1  0.96968000  0.37664000  0.57988000  1.0 0.0915133922
H  H95  1  0.19461000  0.58255000  0.37685000  1.0 0.0715824559
H  H96  1  0.07380000  0.57988000  0.37664000  1.0 0.0915133922
H  H97  1  0.70670000  0.43110000  0.43110000  1.0 0.3529883772
H  H98  1  0.43110000  0.43110000  0.70670000  1.0 0.3529883772
H  H99  1  0.43110000  0.70670000  0.43110000  1.0 0.3529883772
H  H100  1  0.43110000  0.43110000  0.43110000  1.0 0.3529883772
H  H101  1  0.29330000  0.56890000  0.56890000  1.0 0.3529883772
H  H102  1  0.56890000  0.56890000  0.29330000  1.0 0.3529883772
H  H103  1  0.56890000  0.56890000  0.56890000  1.0 0.3529883772
H  H104  1  0.56890000  0.29330000  0.56890000  1.0 0.3529883772
Au  Au1  1  0.56600000  0.04200000  0.35000000  1.0 -0.103019537
Au  Au2  1  0.35000000  0.04200000  0.56600000  1.0 -0.106538392
Au  Au3  1  0.04200000  0.56600000  0.04200000  1.0 -0.103019537
Au  Au4  1  0.04200000  0.35000000  0.04200000  1.0 -0.103019537
Au  Au5  1  0.04200000  0.35000000  0.56600000  1.0 -0.103019537
Au  Au6  1  0.04200000  0.56600000  0.35000000  1.0 -0.106538392
Au  Au7  1  0.56600000  0.04200000  0.04200000  1.0 -0.106538392
Au  Au8  1  0.35000000  0.04200000  0.04200000  1.0 -0.106538392
Au  Au9  1  0.35000000  0.56600000  0.04200000  1.0 -0.103019537
Au  Au10  1  0.56600000  0.35000000  0.04200000  1.0 -0.103019537
Au  Au11  1  0.04200000  0.04200000  0.56600000  1.0 -0.106538392
Au  Au12  1  0.04200000  0.04200000  0.35000000  1.0 -0.103019537
Au  Au13  1  0.43400000  0.95800000  0.65000000  1.0 -0.106538392
Au  Au14  1  0.65000000  0.95800000  0.43400000  1.0 -0.103019537
Au  Au15  1  0.95800000  0.65000000  0.95800000  1.0 -0.106538392
Au  Au16  1  0.95800000  0.43400000  0.95800000  1.0 -0.106538392
Au  Au17  1  0.95800000  0.95800000  0.43400000  1.0 -0.106538392
Au  Au18  1  0.95800000  0.95800000  0.65000000  1.0 -0.103019537
Au  Au19  1  0.43400000  0.65000000  0.95800000  1.0 -0.106538392
Au  Au20  1  0.65000000  0.43400000  0.95800000  1.0 -0.103019537
Au  Au21  1  0.65000000  0.95800000  0.95800000  1.0 -0.106538392
Au  Au22  1  0.43400000  0.95800000  0.95800000  1.0 -0.106538392
Au  Au23  1  0.95800000  0.65000000  0.43400000  1.0 -0.106538392
Au  Au24  1  0.95800000  0.43400000  0.65000000  1.0 -0.106538392
C  C1  1  0.54853000  0.16179000  0.42707000  1.0 -0.0663938407
C  C2  1  0.54738000  0.08948000  0.42742000  1.0 -0.0663938407
C  C3  1  0.42707000  0.86261000  0.54853000  1.0 -0.0636943166
C  C4  1  0.42742000  0.93572000  0.54738000  1.0 -0.0636943166
C  C5  1  0.16179000  0.54853000  0.86261000  1.0 -0.0636943166
C  C6  1  0.08948000  0.54738000  0.93572000  1.0 -0.0663938407
C  C7  1  0.86261000  0.42707000  0.16179000  1.0 -0.0663938407
C  C8  1  0.93572000  0.42742000  0.08948000  1.0 -0.0636943166
C  C9  1  0.16179000  0.42707000  0.54853000  1.0 -0.0663938407
C  C10  1  0.08948000  0.42742000  0.54738000  1.0 -0.0636943166
C  C11  1  0.86261000  0.54853000  0.42707000  1.0 -0.0663938407
C  C12  1  0.93572000  0.54738000  0.42742000  1.0 -0.0636943166
C  C13  1  0.54853000  0.86261000  0.16179000  1.0 -0.0663938407
C  C14  1  0.54738000  0.93572000  0.08948000  1.0 -0.0663938407
C  C15  1  0.42707000  0.16179000  0.86261000  1.0 -0.0636943166
C  C16  1  0.42742000  0.08948000  0.93572000  1.0 -0.0636943166
C  C17  1  0.42707000  0.54853000  0.16179000  1.0 -0.0663938407
C  C18  1  0.42742000  0.54738000  0.08948000  1.0 -0.0663938407
C  C19  1  0.54853000  0.42707000  0.86261000  1.0 -0.0663938407
C  C20  1  0.54738000  0.42742000  0.93572000  1.0 -0.0636943166
C  C21  1  0.86261000  0.16179000  0.54853000  1.0 -0.0636943166
C  C22  1  0.93572000  0.08948000  0.54738000  1.0 -0.0636943166
C  C23  1  0.16179000  0.86261000  0.42707000  1.0 -0.0636943166
C  C24  1  0.08948000  0.93572000  0.42742000  1.0 -0.0663938407
C  C25  1  0.45147000  0.13739000  0.57293000  1.0 -0.0663938407
C  C26  1  0.45262000  0.06428000  0.57258000  1.0 -0.0636943166
C  C27  1  0.57293000  0.83821000  0.45147000  1.0 -0.0636943166
C  C28  1  0.57258000  0.91052000  0.45262000  1.0 -0.0663938407
C  C29  1  0.83821000  0.57293000  0.13739000  1.0 -0.0663938407
C  C30  1  0.91052000  0.57258000  0.06428000  1.0 -0.0636943166
C  C31  1  0.13739000  0.45147000  0.83821000  1.0 -0.0663938407
C  C32  1  0.06428000  0.45262000  0.91052000  1.0 -0.0663938407
C  C33  1  0.83821000  0.13739000  0.45147000  1.0 -0.0663938407
C  C34  1  0.91052000  0.06428000  0.45262000  1.0 -0.0663938407
C  C35  1  0.13739000  0.83821000  0.57293000  1.0 -0.0663938407
C  C36  1  0.06428000  0.91052000  0.57258000  1.0 -0.0663938407
C  C37  1  0.45147000  0.57293000  0.83821000  1.0 -0.0636943166
C  C38  1  0.45262000  0.57258000  0.91052000  1.0 -0.0663938407
C  C39  1  0.57293000  0.45147000  0.13739000  1.0 -0.0636943166
C  C40  1  0.57258000  0.45262000  0.06428000  1.0 -0.0663938407
C  C41  1  0.57293000  0.13739000  0.83821000  1.0 -0.0663938407
C  C42  1  0.57258000  0.06428000  0.91052000  1.0 -0.0636943166
C  C43  1  0.45147000  0.83821000  0.13739000  1.0 -0.0636943166
C  C44  1  0.45262000  0.91052000  0.06428000  1.0 -0.0636943166
C  C45  1  0.13739000  0.57293000  0.45147000  1.0 -0.0663938407
C  C46  1  0.06428000  0.57258000  0.45262000  1.0 -0.0663938407
C  C47  1  0.83821000  0.45147000  0.57293000  1.0 -0.0663938407
C  C48  1  0.91052000  0.45262000  0.57258000  1.0 -0.0636943166
C  C49  1  0.45147000  0.83821000  0.57293000  1.0 -0.0663938407
C  C50  1  0.45262000  0.91052000  0.57258000  1.0 -0.0636943166
C  C51  1  0.57293000  0.13739000  0.45147000  1.0 -0.0663938407
C  C52  1  0.57258000  0.06428000  0.45262000  1.0 -0.0663938407
C  C53  1  0.83821000  0.45147000  0.13739000  1.0 -0.0636943166
C  C54  1  0.91052000  0.45262000  0.06428000  1.0 -0.0636943166
C  C55  1  0.13739000  0.57293000  0.83821000  1.0 -0.0636943166
C  C56  1  0.06428000  0.57258000  0.91052000  1.0 -0.0663938407
C  C57  1  0.83821000  0.57293000  0.45147000  1.0 -0.0663938407
C  C58  1  0.91052000  0.57258000  0.45262000  1.0 -0.0636943166
C  C59  1  0.13739000  0.45147000  0.57293000  1.0 -0.0636943166
C  C60  1  0.06428000  0.45262000  0.57258000  1.0 -0.0636943166
C  C61  1  0.45147000  0.13739000  0.83821000  1.0 -0.0663938407
C  C62  1  0.45262000  0.06428000  0.91052000  1.0 -0.0636943166
C  C63  1  0.57293000  0.83821000  0.13739000  1.0 -0.0636943166
C  C64  1  0.57258000  0.91052000  0.06428000  1.0 -0.0663938407
C  C65  1  0.57293000  0.45147000  0.83821000  1.0 -0.0663938407
C  C66  1  0.57258000  0.45262000  0.91052000  1.0 -0.0663938407
C  C67  1  0.45147000  0.57293000  0.13739000  1.0 -0.0663938407
C  C68  1  0.45262000  0.57258000  0.06428000  1.0 -0.0663938407
C  C69  1  0.13739000  0.83821000  0.45147000  1.0 -0.0636943166
C  C70  1  0.06428000  0.91052000  0.45262000  1.0 -0.0663938407
C  C71  1  0.83821000  0.13739000  0.57293000  1.0 -0.0663938407
C  C72  1  0.91052000  0.06428000  0.57258000  1.0 -0.0636943166
C  C73  1  0.54853000  0.86261000  0.42707000  1.0 -0.0636943166
C  C74  1  0.54738000  0.93572000  0.42742000  1.0 -0.0663938407
C  C75  1  0.42707000  0.16179000  0.54853000  1.0 -0.0663938407
C  C76  1  0.42742000  0.08948000  0.54738000  1.0 -0.0663938407
C  C77  1  0.16179000  0.42707000  0.86261000  1.0 -0.0663938407
C  C78  1  0.08948000  0.42742000  0.93572000  1.0 -0.0636943166
C  C79  1  0.86261000  0.54853000  0.16179000  1.0 -0.0663938407
C  C80  1  0.93572000  0.54738000  0.08948000  1.0 -0.0636943166
C  C81  1  0.16179000  0.86261000  0.54853000  1.0 -0.0636943166
C  C82  1  0.08948000  0.93572000  0.54738000  1.0 -0.0663938407
C  C83  1  0.86261000  0.16179000  0.42707000  1.0 -0.0636943166
C  C84  1  0.93572000  0.08948000  0.42742000  1.0 -0.0663938407
C  C85  1  0.54853000  0.42707000  0.16179000  1.0 -0.0663938407
C  C86  1  0.54738000  0.42742000  0.08948000  1.0 -0.0663938407
C  C87  1  0.42707000  0.54853000  0.86261000  1.0 -0.0636943166
C  C88  1  0.42742000  0.54738000  0.93572000  1.0 -0.0663938407
C  C89  1  0.42707000  0.86261000  0.16179000  1.0 -0.0663938407
C  C90  1  0.42742000  0.93572000  0.08948000  1.0 -0.0663938407
C  C91  1  0.54853000  0.16179000  0.86261000  1.0 -0.0636943166
C  C92  1  0.54738000  0.08948000  0.93572000  1.0 -0.0636943166
C  C93  1  0.86261000  0.42707000  0.54853000  1.0 -0.0663938407
C  C94  1  0.93572000  0.42742000  0.54738000  1.0 -0.0636943166
C  C95  1  0.16179000  0.54853000  0.42707000  1.0 -0.0663938407
C  C96  1  0.08948000  0.54738000  0.42742000  1.0 -0.0663938407
C  C97  1  0.50000000  0.26526000  0.50000000  1.0 0.3975085194
C  C98  1  0.50000000  0.18678000  0.50000000  1.0 0.0086395366
C  C99  1  0.50000000  0.03908000  0.50000000  1.0 0.0772302226
C  C100  1  0.50000000  0.73474000  0.50000000  1.0 0.3975085194
C  C101  1  0.50000000  0.81322000  0.50000000  1.0 0.0086395366
C  C102  1  0.50000000  0.96092000  0.50000000  1.0 0.0715824559
C  C103  1  0.26526000  0.50000000  0.73474000  1.0 0.3975085194
C  C104  1  0.18678000  0.50000000  0.81322000  1.0 0.0086395366
C  C105  1  0.03908000  0.50000000  0.96092000  1.0 0.0715824559
C  C106  1  0.73474000  0.50000000  0.26526000  1.0 0.3975085194
C  C107  1  0.81322000  0.50000000  0.18678000  1.0 0.0086395366
C  C108  1  0.96092000  0.50000000  0.03908000  1.0 0.0715824559
C  C109  1  0.26526000  0.50000000  0.50000000  1.0 0.3975085194
C  C110  1  0.18678000  0.50000000  0.50000000  1.0 0.0086395366
C  C111  1  0.03908000  0.50000000  0.50000000  1.0 0.0715824559
C  C112  1  0.73474000  0.50000000  0.50000000  1.0 0.3975085194
C  C113  1  0.81322000  0.50000000  0.50000000  1.0 0.0086395366
C  C114  1  0.96092000  0.50000000  0.50000000  1.0 0.0715824559
C  C115  1  0.50000000  0.73474000  0.26526000  1.0 0.3975085194
C  C116  1  0.50000000  0.81322000  0.18678000  1.0 0.0086395366
C  C117  1  0.50000000  0.96092000  0.03908000  1.0 0.0715824559
C  C118  1  0.50000000  0.26526000  0.73474000  1.0 0.3975085194
C  C119  1  0.50000000  0.18678000  0.81322000  1.0 0.0086395366
C  C120  1  0.50000000  0.03908000  0.96092000  1.0 0.0715824559
C  C121  1  0.50000000  0.50000000  0.26526000  1.0 0.3975085194
C  C122  1  0.50000000  0.50000000  0.18678000  1.0 0.0086395366
C  C123  1  0.50000000  0.50000000  0.03908000  1.0 0.0715824559
C  C124  1  0.50000000  0.50000000  0.73474000  1.0 0.3975085194
C  C125  1  0.50000000  0.50000000  0.81322000  1.0 0.0086395366
C  C126  1  0.50000000  0.50000000  0.96092000  1.0 0.0715824559
C  C127  1  0.73474000  0.26526000  0.50000000  1.0 0.3975085194
C  C128  1  0.81322000  0.18678000  0.50000000  1.0 0.0086395366
C  C129  1  0.96092000  0.03908000  0.50000000  1.0 0.0772302226
C  C130  1  0.26526000  0.73474000  0.50000000  1.0 0.3975085194
C  C131  1  0.18678000  0.81322000  0.50000000  1.0 0.0086395366
C  C132  1  0.03908000  0.96092000  0.50000000  1.0 0.0715824559
O  O1  1  0.55989000  0.29547000  0.44011000  1.0 -0.6079115644
O  O2  1  0.44011000  0.70453000  0.55989000  1.0 -0.6079115644
O  O3  1  0.29547000  0.55989000  0.70453000  1.0 -0.6079115644
O  O4  1  0.70453000  0.44011000  0.29547000  1.0 -0.6079115644
O  O5  1  0.29547000  0.44011000  0.55989000  1.0 -0.6079115644
O  O6  1  0.70453000  0.55989000  0.44011000  1.0 -0.6079115644
O  O7  1  0.55989000  0.70453000  0.29547000  1.0 -0.6079115644
O  O8  1  0.44011000  0.29547000  0.70453000  1.0 -0.6079115644
O  O9  1  0.44011000  0.55989000  0.29547000  1.0 -0.6079115644
O  O10  1  0.55989000  0.44011000  0.70453000  1.0 -0.6079115644
O  O11  1  0.70453000  0.29547000  0.55989000  1.0 -0.6079115644
O  O12  1  0.29547000  0.70453000  0.44011000  1.0 -0.6079115644
O  O13  1  0.44011000  0.29547000  0.55989000  1.0 -0.6079115644
O  O14  1  0.55989000  0.70453000  0.44011000  1.0 -0.6079115644
O  O15  1  0.70453000  0.55989000  0.29547000  1.0 -0.6079115644
O  O16  1  0.29547000  0.44011000  0.70453000  1.0 -0.6079115644
O  O17  1  0.70453000  0.29547000  0.44011000  1.0 -0.6079115644
O  O18  1  0.29547000  0.70453000  0.55989000  1.0 -0.6079115644
O  O19  1  0.44011000  0.55989000  0.70453000  1.0 -0.6079115644
O  O20  1  0.55989000  0.44011000  0.29547000  1.0 -0.6079115644
O  O21  1  0.55989000  0.29547000  0.70453000  1.0 -0.6079115644
O  O22  1  0.44011000  0.70453000  0.29547000  1.0 -0.6079115644
O  O23  1  0.29547000  0.55989000  0.44011000  1.0 -0.6079115644
O  O24  1  0.70453000  0.44011000  0.55989000  1.0 -0.6079115644
O  O25  1  0.61574000  0.46142000  0.46142000  1.0 -0.3637610823
O  O26  1  0.65510000  0.44830000  0.44830000  1.0 -0.3503979667
O  O27  1  0.46142000  0.46142000  0.61574000  1.0 -0.3637610823
O  O28  1  0.44830000  0.44830000  0.65510000  1.0 -0.3503979667
O  O29  1  0.46142000  0.61574000  0.46142000  1.0 -0.3637610823
O  O30  1  0.44830000  0.65510000  0.44830000  1.0 -0.3503979667
O  O31  1  0.46142000  0.46142000  0.46142000  1.0 -0.3637610823
O  O32  1  0.44830000  0.44830000  0.44830000  1.0 -0.3503979667
O  O33  1  0.38426000  0.53858000  0.53858000  1.0 -0.3637610823
O  O34  1  0.34490000  0.55170000  0.55170000  1.0 -0.3503979667
O  O35  1  0.53858000  0.53858000  0.38426000  1.0 -0.3637610823
O  O36  1  0.55170000  0.55170000  0.34490000  1.0 -0.3503979667
O  O37  1  0.53858000  0.53858000  0.53858000  1.0 -0.3637610823
O  O38  1  0.55170000  0.55170000  0.55170000  1.0 -0.3503979667
O  O39  1  0.53858000  0.38426000  0.53858000  1.0 -0.3637610823
O  O40  1  0.55170000  0.34490000  0.55170000  1.0 -0.3503979667
