# DDEC6 charges by PACMAN v1.1 (https://github.com/mtap-research/PACMAN-charge/)
data_GALFAB_ASR_pacman
_symmetry_space_group_name_H-M   'P 1'
_cell_length_a   13.96440000
_cell_length_b   13.96440000
_cell_length_c   12.57000000
_cell_angle_alpha   67.15650000
_cell_angle_beta   112.84300000
_cell_angle_gamma   108.38600000
_symmetry_Int_Tables_number   1
_chemical_formula_structural   CoH20C31S6(N2O)3
_chemical_formula_sum   'Co2 H40 C62 S12 N12 O6'
_cell_volume   2042.26476843
_cell_formula_units_Z   2
loop_
 _symmetry_equiv_pos_site_id
 _symmetry_equiv_pos_as_xyz
  1  'x, y, z'
loop_
 _atom_site_type_symbol
 _atom_site_label
 _atom_site_symmetry_multiplicity
 _atom_site_fract_x
 _atom_site_fract_y
 _atom_site_fract_z
 _atom_site_occupancy
 _atom_site_charge
Co  Co1  1  0.50000000  0.00000000  0.00000000  1.0 0.6937142619
Co  Co2  1  0.00000000  0.50000000  0.50000000  1.0 0.6937142619
H  H1  1  0.60690000  0.91810000  0.88970000  1.0 0.1124123543
H  H2  1  0.91810000  0.60690000  0.61030000  1.0 0.1124123543
H  H3  1  0.39310000  0.08190000  0.11030000  1.0 0.1124123543
H  H4  1  0.08190000  0.39310000  0.38970000  1.0 0.1124123543
H  H5  1  0.75400000  0.94700000  0.83610000  1.0 0.138321278
H  H6  1  0.94700000  0.75400000  0.66390000  1.0 0.138321278
H  H7  1  0.24600000  0.05300000  0.16390000  1.0 0.138321278
H  H8  1  0.05300000  0.24600000  0.33610000  1.0 0.138321278
H  H9  1  0.73370000  0.13850000  0.04730000  1.0 0.1124123543
H  H10  1  0.13850000  0.73370000  0.45270000  1.0 0.1124123543
H  H11  1  0.26630000  0.86150000  0.95270000  1.0 0.1124123543
H  H12  1  0.86150000  0.26630000  0.54730000  1.0 0.1124123543
H  H13  1  0.88640000  0.17680000  0.99680000  1.0 0.138321278
H  H14  1  0.17680000  0.88640000  0.50320000  1.0 0.138321278
H  H15  1  0.11360000  0.82320000  0.00320000  1.0 0.138321278
H  H16  1  0.82320000  0.11360000  0.49680000  1.0 0.138321278
H  H17  1  0.86290000  0.99990000  0.73570000  1.0 0.1471282537
H  H18  1  0.99990000  0.86290000  0.76430000  1.0 0.1471282537
H  H19  1  0.13710000  0.00010000  0.26430000  1.0 0.1471282537
H  H20  1  0.00010000  0.13710000  0.23570000  1.0 0.1471282537
H  H21  1  0.92930000  0.93430000  0.86560000  1.0 0.1471282537
H  H22  1  0.93430000  0.92930000  0.63440000  1.0 0.1471282537
H  H23  1  0.07070000  0.06570000  0.13440000  1.0 0.1471282537
H  H24  1  0.06570000  0.07070000  0.36560000  1.0 0.1471282537
H  H25  1  0.69470000  0.94110000  0.21020000  1.0 0.0992988152
H  H26  1  0.94110000  0.69470000  0.28980000  1.0 0.0992988152
H  H27  1  0.30530000  0.05890000  0.78980000  1.0 0.0992988152
H  H28  1  0.05890000  0.30530000  0.71020000  1.0 0.0992988152
H  H29  1  0.75740000  0.80780000  0.37510000  1.0 0.1471282537
H  H30  1  0.80780000  0.75740000  0.12490000  1.0 0.1471282537
H  H31  1  0.24260000  0.19220000  0.62490000  1.0 0.138321278
H  H32  1  0.19220000  0.24260000  0.87510000  1.0 0.1471282537
H  H33  1  0.42470000  0.76970000  0.12450000  1.0 0.1159928301
H  H34  1  0.76970000  0.42470000  0.37550000  1.0 0.1159928301
H  H35  1  0.57530000  0.23030000  0.87550000  1.0 0.1159928301
H  H36  1  0.23030000  0.57530000  0.62450000  1.0 0.1159928301
H  H37  1  0.47320000  0.63260000  0.29370000  1.0 0.138321278
H  H38  1  0.63260000  0.47320000  0.20630000  1.0 0.138321278
H  H39  1  0.52680000  0.36740000  0.70630000  1.0 0.138321278
H  H40  1  0.36740000  0.52680000  0.79370000  1.0 0.138321278
C  C1  1  0.66340000  0.97420000  0.90850000  1.0 0.0992988152
C  C2  1  0.97420000  0.66340000  0.59150000  1.0 0.0992988152
C  C3  1  0.33660000  0.02580000  0.09150000  1.0 0.0992988152
C  C4  1  0.02580000  0.33660000  0.40850000  1.0 0.0992988152
C  C5  1  0.75080000  0.99080000  0.87610000  1.0 -0.1896491898
C  C6  1  0.99080000  0.75080000  0.62390000  1.0 -0.1896491898
C  C7  1  0.24920000  0.00920000  0.12390000  1.0 -0.1896491898
C  C8  1  0.00920000  0.24920000  0.37610000  1.0 -0.1896491898
C  C9  1  0.73660000  0.10180000  0.99930000  1.0 0.0817137966
C  C10  1  0.10180000  0.73660000  0.50070000  1.0 0.0817137966
C  C11  1  0.26340000  0.89820000  0.00070000  1.0 0.0817137966
C  C12  1  0.89820000  0.26340000  0.49930000  1.0 0.0817137966
C  C13  1  0.82840000  0.12480000  0.97000000  1.0 -0.1896491898
C  C14  1  0.12480000  0.82840000  0.53000000  1.0 -0.1896491898
C  C15  1  0.17160000  0.87520000  0.03000000  1.0 -0.1896491898
C  C16  1  0.87520000  0.17160000  0.47000000  1.0 -0.1896491898
C  C17  1  0.83560000  0.07200000  0.90160000  1.0 0.0992988152
C  C18  1  0.07200000  0.83560000  0.59840000  1.0 0.0992988152
C  C19  1  0.16440000  0.92800000  0.09840000  1.0 0.0992988152
C  C20  1  0.92800000  0.16440000  0.40160000  1.0 0.0992988152
C  C21  1  0.93160000  0.00280000  0.80040000  1.0 -0.3696036031
C  C22  1  0.00280000  0.93160000  0.69960000  1.0 -0.3696036031
C  C23  1  0.06840000  0.99720000  0.19960000  1.0 -0.3696036031
C  C24  1  0.99720000  0.06840000  0.30040000  1.0 -0.3696036031
C  C25  1  0.01880000  0.01880000  0.75000000  1.0 0.4667463014
C  C26  1  0.98120000  0.98120000  0.25000000  1.0 0.4667463014
C  C27  1  0.64680000  0.87600000  0.22860000  1.0 0.0992988152
C  C28  1  0.87600000  0.64680000  0.27140000  1.0 0.0992988152
C  C29  1  0.35320000  0.12400000  0.77140000  1.0 0.0992988152
C  C30  1  0.12400000  0.35320000  0.72860000  1.0 0.0992988152
C  C31  1  0.68510000  0.79650000  0.32800000  1.0 -0.1809113538
C  C32  1  0.79650000  0.68510000  0.17200000  1.0 -0.1809113538
C  C33  1  0.31490000  0.20350000  0.67200000  1.0 -0.1809113538
C  C34  1  0.20350000  0.31490000  0.82800000  1.0 -0.1809113538
C  C35  1  0.49340000  0.78000000  0.18030000  1.0 0.1124123543
C  C36  1  0.78000000  0.49340000  0.31970000  1.0 0.1124123543
C  C37  1  0.50660000  0.22000000  0.81970000  1.0 0.1124123543
C  C38  1  0.22000000  0.50660000  0.68030000  1.0 0.1124123543
C  C39  1  0.52210000  0.69750000  0.27830000  1.0 -0.2088243505
C  C40  1  0.69750000  0.52210000  0.22170000  1.0 -0.2088243505
C  C41  1  0.47790000  0.30250000  0.72170000  1.0 -0.2088243505
C  C42  1  0.30250000  0.47790000  0.77830000  1.0 -0.2088243505
C  C43  1  0.62630000  0.70930000  0.35790000  1.0 0.0914000096
C  C44  1  0.70930000  0.62630000  0.14210000  1.0 0.0914000096
C  C45  1  0.37370000  0.29070000  0.64210000  1.0 0.0914000096
C  C46  1  0.29070000  0.37370000  0.85790000  1.0 0.0914000096
C  C47  1  0.55150000  0.51370000  0.51260000  1.0 0.0030704661
C  C48  1  0.51370000  0.55150000  0.98740000  1.0 0.0030704661
C  C49  1  0.44850000  0.48630000  0.48740000  1.0 0.0030704661
C  C50  1  0.48630000  0.44850000  0.01260000  1.0 0.0030704661
C  C51  1  0.61080000  0.48320000  0.43980000  1.0 -0.0754264137
C  C52  1  0.48320000  0.61080000  0.06020000  1.0 -0.0754264137
C  C53  1  0.38920000  0.51680000  0.56020000  1.0 -0.0754264137
C  C54  1  0.51680000  0.38920000  0.93980000  1.0 -0.0754264137
C  C55  1  0.49790000  0.45290000  0.42930000  1.0 0.235225738
C  C56  1  0.45290000  0.49790000  0.07070000  1.0 0.235225738
C  C57  1  0.50210000  0.54710000  0.57070000  1.0 0.235225738
C  C58  1  0.54710000  0.50210000  0.92930000  1.0 0.235225738
C  C59  1  0.39840000  0.83580000  0.84430000  1.0 0.2612204636
C  C60  1  0.83580000  0.39840000  0.65570000  1.0 0.2612204636
C  C61  1  0.60160000  0.16420000  0.15570000  1.0 0.2612204636
C  C62  1  0.16420000  0.60160000  0.34430000  1.0 0.2612204636
S  S1  1  0.95106000  0.10788000  0.85988000  1.0 0.0461589356
S  S2  1  0.10788000  0.95106000  0.64012000  1.0 0.0461589356
S  S3  1  0.04894000  0.89212000  0.14012000  1.0 0.0448319064
S  S4  1  0.89212000  0.04894000  0.35988000  1.0 0.0461589356
S  S5  1  0.67588000  0.60472000  0.48580000  1.0 0.0592005253
S  S6  1  0.60472000  0.67588000  0.01420000  1.0 0.0592005253
S  S7  1  0.32412000  0.39528000  0.51420000  1.0 0.0592005253
S  S8  1  0.39528000  0.32412000  0.98580000  1.0 0.0592005253
S  S9  1  0.35137000  0.75333000  0.76690000  1.0 -0.3598518586
S  S10  1  0.75333000  0.35137000  0.73310000  1.0 -0.3598518586
S  S11  1  0.64863000  0.24667000  0.23310000  1.0 -0.3598518586
S  S12  1  0.24667000  0.64863000  0.26690000  1.0 -0.3598518586
N  N1  1  0.65150000  0.03070000  0.96410000  1.0 -0.2160317815
N  N2  1  0.03070000  0.65150000  0.53590000  1.0 -0.2160317815
N  N3  1  0.34850000  0.96930000  0.03590000  1.0 -0.2160317815
N  N4  1  0.96930000  0.34850000  0.46410000  1.0 -0.2160317815
N  N5  1  0.55160000  0.86980000  0.15820000  1.0 -0.2006396493
N  N6  1  0.86980000  0.55160000  0.34180000  1.0 -0.2006396493
N  N7  1  0.44840000  0.13020000  0.84180000  1.0 -0.2006396493
N  N8  1  0.13020000  0.44840000  0.65820000  1.0 -0.2006396493
N  N9  1  0.42820000  0.89580000  0.89640000  1.0 -0.4885212174
N  N10  1  0.89580000  0.42820000  0.60360000  1.0 -0.4885212174
N  N11  1  0.57180000  0.10420000  0.10360000  1.0 -0.4885212174
N  N12  1  0.10420000  0.57180000  0.39640000  1.0 -0.4885212174
O  O1  1  0.09230000  0.09230000  0.75000000  1.0 -0.3972271225
O  O2  1  0.90770000  0.90770000  0.25000000  1.0 -0.3972271225
O  O3  1  0.44090000  0.39070000  0.36480000  1.0 -0.3847382953
O  O4  1  0.39070000  0.44090000  0.13520000  1.0 -0.3847382953
O  O5  1  0.55910000  0.60930000  0.63520000  1.0 -0.3847382953
O  O6  1  0.60930000  0.55910000  0.86480000  1.0 -0.3847382953
