# DDEC6 charges by PACMAN v1.1 (https://github.com/mtap-research/PACMAN-charge/)
data_GANBAZ_FSR_pacman
_symmetry_space_group_name_H-M   'P 1'
_cell_length_a   16.29450000
_cell_length_b   16.29450000
_cell_length_c   17.43210000
_cell_angle_alpha   90.00000000
_cell_angle_beta   90.00000000
_cell_angle_gamma   90.00000000
_symmetry_Int_Tables_number   1
_chemical_formula_structural   Mn(C8N7)2
_chemical_formula_sum   'Mn8 C128 N112'
_cell_volume   4628.40960079
_cell_formula_units_Z   8
loop_
 _symmetry_equiv_pos_site_id
 _symmetry_equiv_pos_as_xyz
  1  'x, y, z'
loop_
 _atom_site_type_symbol
 _atom_site_label
 _atom_site_symmetry_multiplicity
 _atom_site_fract_x
 _atom_site_fract_y
 _atom_site_fract_z
 _atom_site_occupancy
 _atom_site_charge
Mn  Mn1  1  0.23920000  0.77370000  0.21873000  1.0 0.4644732842
Mn  Mn2  1  0.76080000  0.22630000  0.21873000  1.0 0.4644732842
Mn  Mn3  1  0.77370000  0.76080000  0.78127000  1.0 0.4666523853
Mn  Mn4  1  0.22630000  0.23920000  0.78127000  1.0 0.4666523853
Mn  Mn5  1  0.26080000  0.27370000  0.28127000  1.0 0.4666523853
Mn  Mn6  1  0.73920000  0.72630000  0.28127000  1.0 0.4666523853
Mn  Mn7  1  0.72630000  0.26080000  0.71873000  1.0 0.4644732842
Mn  Mn8  1  0.27370000  0.73920000  0.71873000  1.0 0.4644732842
C  C1  1  0.15368000  0.95822000  0.22246000  1.0 0.3953056255
C  C2  1  0.84632000  0.04178000  0.22246000  1.0 0.3953056255
C  C3  1  0.95822000  0.84632000  0.77754000  1.0 0.3953056255
C  C4  1  0.04178000  0.15368000  0.77754000  1.0 0.3953056255
C  C5  1  0.34632000  0.45822000  0.27754000  1.0 0.3953056255
C  C6  1  0.65368000  0.54178000  0.27754000  1.0 0.3953056255
C  C7  1  0.54178000  0.34632000  0.72246000  1.0 0.3953056255
C  C8  1  0.45822000  0.65368000  0.72246000  1.0 0.3953056255
C  C9  1  0.16362000  0.09362000  0.25158000  1.0 0.3299373606
C  C10  1  0.83638000  0.90638000  0.25158000  1.0 0.3299373606
C  C11  1  0.09362000  0.83638000  0.74842000  1.0 0.3299373606
C  C12  1  0.90638000  0.16362000  0.74842000  1.0 0.3299373606
C  C13  1  0.33638000  0.59362000  0.24842000  1.0 0.3299373606
C  C14  1  0.66362000  0.40638000  0.24842000  1.0 0.3299373606
C  C15  1  0.40638000  0.33638000  0.75158000  1.0 0.3299373606
C  C16  1  0.59362000  0.66362000  0.75158000  1.0 0.3299373606
C  C17  1  0.20370000  0.77520000  0.40900000  1.0 0.1098850267
C  C18  1  0.79630000  0.22480000  0.40900000  1.0 0.1098850267
C  C19  1  0.77520000  0.79630000  0.59100000  1.0 0.1098850267
C  C20  1  0.22480000  0.20370000  0.59100000  1.0 0.1098850267
C  C21  1  0.29630000  0.27520000  0.09100000  1.0 0.1098850267
C  C22  1  0.70370000  0.72480000  0.09100000  1.0 0.1098850267
C  C23  1  0.72480000  0.29630000  0.90900000  1.0 0.1098850267
C  C24  1  0.27520000  0.70370000  0.90900000  1.0 0.1098850267
C  C25  1  0.22250000  0.76160000  0.53750000  1.0 0.1098850267
C  C26  1  0.77750000  0.23840000  0.53750000  1.0 0.1098850267
C  C27  1  0.76160000  0.77750000  0.46250000  1.0 0.1098850267
C  C28  1  0.23840000  0.22250000  0.46250000  1.0 0.1009013662
C  C29  1  0.27750000  0.26160000  0.96250000  1.0 0.1098850267
C  C30  1  0.72250000  0.73840000  0.96250000  1.0 0.1098850267
C  C31  1  0.73840000  0.27750000  0.03750000  1.0 0.1098850267
C  C32  1  0.26160000  0.72250000  0.03750000  1.0 0.1098850267
C  C33  1  0.05910000  0.66920000  0.21970000  1.0 0.0352268138
C  C34  1  0.94090000  0.33080000  0.21970000  1.0 0.0302709496
C  C35  1  0.66920000  0.94090000  0.78030000  1.0 0.0352268138
C  C36  1  0.33080000  0.05910000  0.78030000  1.0 0.0302709496
C  C37  1  0.44090000  0.16920000  0.28030000  1.0 0.0302709496
C  C38  1  0.55910000  0.83080000  0.28030000  1.0 0.0302709496
C  C39  1  0.83080000  0.44090000  0.71970000  1.0 0.0352268138
C  C40  1  0.16920000  0.55910000  0.71970000  1.0 0.0352268138
C  C41  1  0.92520000  0.64790000  0.24850000  1.0 0.0209681732
C  C42  1  0.07480000  0.35210000  0.24850000  1.0 0.0302709496
C  C43  1  0.64790000  0.07480000  0.75150000  1.0 0.0209681732
C  C44  1  0.35210000  0.92520000  0.75150000  1.0 0.0209681732
C  C45  1  0.57480000  0.14790000  0.25150000  1.0 0.0209681732
C  C46  1  0.42520000  0.85210000  0.25150000  1.0 0.0209681732
C  C47  1  0.85210000  0.57480000  0.74850000  1.0 0.0209681732
C  C48  1  0.14790000  0.42520000  0.74850000  1.0 0.0209681732
C  C49  1  0.21530000  0.79480000  0.40920000  1.0 0.1206297168
C  C50  1  0.78470000  0.20520000  0.40920000  1.0 0.1206297168
C  C51  1  0.79480000  0.78470000  0.59080000  1.0 0.1206297168
C  C52  1  0.20520000  0.21530000  0.59080000  1.0 0.1206297168
C  C53  1  0.28470000  0.29480000  0.09080000  1.0 0.1206297168
C  C54  1  0.71530000  0.70520000  0.09080000  1.0 0.1206297168
C  C55  1  0.70520000  0.28470000  0.90920000  1.0 0.1206297168
C  C56  1  0.29480000  0.71530000  0.90920000  1.0 0.1206297168
C  C57  1  0.28110000  0.73340000  0.03820000  1.0 0.1098850267
C  C58  1  0.71890000  0.26660000  0.03820000  1.0 0.1098850267
C  C59  1  0.73340000  0.71890000  0.96180000  1.0 0.1098850267
C  C60  1  0.26660000  0.28110000  0.96180000  1.0 0.1098850267
C  C61  1  0.21890000  0.23340000  0.46180000  1.0 0.1098850267
C  C62  1  0.78110000  0.76660000  0.46180000  1.0 0.1098850267
C  C63  1  0.76660000  0.21890000  0.53820000  1.0 0.1098850267
C  C64  1  0.23340000  0.78110000  0.53820000  1.0 0.1098850267
C  C65  1  0.21190000  0.75120000  0.40660000  1.0 0.0916023601
C  C66  1  0.78810000  0.24880000  0.40660000  1.0 0.0916023601
C  C67  1  0.75120000  0.78810000  0.59340000  1.0 0.1009013662
C  C68  1  0.24880000  0.21190000  0.59340000  1.0 0.0916023601
C  C69  1  0.28810000  0.25120000  0.09340000  1.0 0.0916023601
C  C70  1  0.71190000  0.74880000  0.09340000  1.0 0.0916023601
C  C71  1  0.74880000  0.28810000  0.90660000  1.0 0.0916023601
C  C72  1  0.25120000  0.71190000  0.90660000  1.0 0.0916023601
C  C73  1  0.24060000  0.73660000  0.03290000  1.0 0.1098850267
C  C74  1  0.75940000  0.26340000  0.03290000  1.0 0.1098850267
C  C75  1  0.73660000  0.75940000  0.96710000  1.0 0.1098850267
C  C76  1  0.26340000  0.24060000  0.96710000  1.0 0.1098850267
C  C77  1  0.25940000  0.23660000  0.46710000  1.0 0.1098850267
C  C78  1  0.74060000  0.76340000  0.46710000  1.0 0.1098850267
C  C79  1  0.76340000  0.25940000  0.53290000  1.0 0.1098850267
C  C80  1  0.23660000  0.74060000  0.53290000  1.0 0.1098850267
C  C81  1  0.23700000  0.80300000  0.40860000  1.0 0.1009013662
C  C82  1  0.76300000  0.19700000  0.40860000  1.0 0.1009013662
C  C83  1  0.80300000  0.76300000  0.59140000  1.0 0.1009013662
C  C84  1  0.19700000  0.23700000  0.59140000  1.0 0.1009013662
C  C85  1  0.26300000  0.30300000  0.09140000  1.0 0.1098850267
C  C86  1  0.73700000  0.69700000  0.09140000  1.0 0.1098850267
C  C87  1  0.69700000  0.26300000  0.90860000  1.0 0.1009013662
C  C88  1  0.30300000  0.73700000  0.90860000  1.0 0.1009013662
C  C89  1  0.28710000  0.75800000  0.03570000  1.0 0.1206297168
C  C90  1  0.71290000  0.24200000  0.03570000  1.0 0.1206297168
C  C91  1  0.75800000  0.71290000  0.96430000  1.0 0.1206297168
C  C92  1  0.24200000  0.28710000  0.96430000  1.0 0.1206297168
C  C93  1  0.21290000  0.25800000  0.46430000  1.0 0.1098850267
C  C94  1  0.78710000  0.74200000  0.46430000  1.0 0.1206297168
C  C95  1  0.74200000  0.21290000  0.53570000  1.0 0.1206297168
C  C96  1  0.25800000  0.78710000  0.53570000  1.0 0.1206297168
C  C97  1  0.05550000  0.67990000  0.20320000  1.0 0.0209681732
C  C98  1  0.94450000  0.32010000  0.20320000  1.0 0.0302709496
C  C99  1  0.67990000  0.94450000  0.79680000  1.0 0.0209681732
C  C100  1  0.32010000  0.05550000  0.79680000  1.0 0.0209681732
C  C101  1  0.44450000  0.17990000  0.29680000  1.0 0.0209681732
C  C102  1  0.55550000  0.82010000  0.29680000  1.0 0.0209681732
C  C103  1  0.82010000  0.44450000  0.70320000  1.0 0.0302709496
C  C104  1  0.17990000  0.55550000  0.70320000  1.0 0.0209681732
C  C105  1  0.42300000  0.84630000  0.26370000  1.0 0.001898197
C  C106  1  0.57700000  0.15370000  0.26370000  1.0 0.001898197
C  C107  1  0.84630000  0.57700000  0.73630000  1.0 0.001898197
C  C108  1  0.15370000  0.42300000  0.73630000  1.0 0.001898197
C  C109  1  0.07700000  0.34630000  0.23630000  1.0 0.001898197
C  C110  1  0.92300000  0.65370000  0.23630000  1.0 0.001898197
C  C111  1  0.65370000  0.07700000  0.76370000  1.0 0.001898197
C  C112  1  0.34630000  0.92300000  0.76370000  1.0 0.001898197
C  C113  1  0.06310000  0.66740000  0.23550000  1.0 0.0093687526
C  C114  1  0.93690000  0.33260000  0.23550000  1.0 0.0093687526
C  C115  1  0.66740000  0.93690000  0.76450000  1.0 0.0093687526
C  C116  1  0.33260000  0.06310000  0.76450000  1.0 0.0093687526
C  C117  1  0.43690000  0.16740000  0.26450000  1.0 0.0093687526
C  C118  1  0.56310000  0.83260000  0.26450000  1.0 0.0093687526
C  C119  1  0.83260000  0.43690000  0.73550000  1.0 0.0093687526
C  C120  1  0.16740000  0.56310000  0.73550000  1.0 0.0093687526
C  C121  1  0.42880000  0.85390000  0.23560000  1.0 0.0093687526
C  C122  1  0.57120000  0.14610000  0.23560000  1.0 0.0093687526
C  C123  1  0.85390000  0.57120000  0.76440000  1.0 0.0093687526
C  C124  1  0.14610000  0.42880000  0.76440000  1.0 0.0093687526
C  C125  1  0.07120000  0.35390000  0.26440000  1.0 0.0093687526
C  C126  1  0.92880000  0.64610000  0.26440000  1.0 0.0093687526
C  C127  1  0.64610000  0.07120000  0.73560000  1.0 0.0093687526
C  C128  1  0.35390000  0.92880000  0.73560000  1.0 0.0093687526
N  N1  1  0.22510000  0.78080000  0.34515000  1.0 -0.1288401885
N  N2  1  0.77490000  0.21920000  0.34515000  1.0 -0.1288401885
N  N3  1  0.78080000  0.77490000  0.65485000  1.0 -0.1288401885
N  N4  1  0.21920000  0.22510000  0.65485000  1.0 -0.1288401885
N  N5  1  0.27490000  0.28080000  0.15485000  1.0 -0.1217677972
N  N6  1  0.72510000  0.71920000  0.15485000  1.0 -0.1217677972
N  N7  1  0.71920000  0.27490000  0.84515000  1.0 -0.1288401885
N  N8  1  0.28080000  0.72510000  0.84515000  1.0 -0.1288401885
N  N9  1  0.12006000  0.70549000  0.21184000  1.0 -0.3321575119
N  N10  1  0.87994000  0.29451000  0.21184000  1.0 -0.3321575119
N  N11  1  0.70549000  0.87994000  0.78816000  1.0 -0.3321575119
N  N12  1  0.29451000  0.12006000  0.78816000  1.0 -0.3321575119
N  N13  1  0.37994000  0.20549000  0.28816000  1.0 -0.3321575119
N  N14  1  0.62006000  0.79451000  0.28816000  1.0 -0.3321575119
N  N15  1  0.79451000  0.37994000  0.71184000  1.0 -0.3321575119
N  N16  1  0.20549000  0.62006000  0.71184000  1.0 -0.3321575119
N  N17  1  0.17497000  0.89328000  0.20958000  1.0 -0.5319540234
N  N18  1  0.82503000  0.10672000  0.20958000  1.0 -0.5319540234
N  N19  1  0.89328000  0.82503000  0.79042000  1.0 -0.5319540234
N  N20  1  0.10672000  0.17497000  0.79042000  1.0 -0.5319540234
N  N21  1  0.32503000  0.39328000  0.29042000  1.0 -0.539330729
N  N22  1  0.67497000  0.60672000  0.29042000  1.0 -0.539330729
N  N23  1  0.60672000  0.32503000  0.70958000  1.0 -0.5319540234
N  N24  1  0.39328000  0.67497000  0.70958000  1.0 -0.5319540234
N  N25  1  0.86072000  0.66258000  0.27065000  1.0 -0.3135756275
N  N26  1  0.13928000  0.33742000  0.27065000  1.0 -0.3135756275
N  N27  1  0.66258000  0.13928000  0.72935000  1.0 -0.3135756275
N  N28  1  0.33742000  0.86072000  0.72935000  1.0 -0.3135756275
N  N29  1  0.63928000  0.16258000  0.22935000  1.0 -0.3163414579
N  N30  1  0.36072000  0.83742000  0.22935000  1.0 -0.3135756275
N  N31  1  0.83742000  0.63928000  0.77065000  1.0 -0.3163414579
N  N32  1  0.16258000  0.36072000  0.77065000  1.0 -0.3163414579
N  N33  1  0.19433000  0.15468000  0.26681000  1.0 -0.4787993027
N  N34  1  0.80567000  0.84532000  0.26681000  1.0 -0.4787993027
N  N35  1  0.15468000  0.80567000  0.73319000  1.0 -0.4787993027
N  N36  1  0.84532000  0.19433000  0.73319000  1.0 -0.4787993027
N  N37  1  0.30567000  0.65468000  0.23319000  1.0 -0.4787993027
N  N38  1  0.69433000  0.34532000  0.23319000  1.0 -0.4787993027
N  N39  1  0.34532000  0.30567000  0.76681000  1.0 -0.4787993027
N  N40  1  0.65468000  0.69433000  0.76681000  1.0 -0.4787993027
N  N41  1  0.26210000  0.75430000  0.59381000  1.0 -0.1288401885
N  N42  1  0.73790000  0.24570000  0.59381000  1.0 -0.1288401885
N  N43  1  0.75430000  0.73790000  0.40619000  1.0 -0.1288401885
N  N44  1  0.24570000  0.26210000  0.40619000  1.0 -0.1288401885
N  N45  1  0.23790000  0.25430000  0.90619000  1.0 -0.1288401885
N  N46  1  0.76210000  0.74570000  0.90619000  1.0 -0.1288401885
N  N47  1  0.74570000  0.23790000  0.09381000  1.0 -0.1288401885
N  N48  1  0.25430000  0.76210000  0.09381000  1.0 -0.1288401885
N  N49  1  0.17610000  0.77550000  0.47880000  1.0 0.0916023601
N  N50  1  0.82390000  0.22450000  0.47880000  1.0 0.0916023601
N  N51  1  0.77550000  0.82390000  0.52120000  1.0 0.0916023601
N  N52  1  0.22450000  0.17610000  0.52120000  1.0 0.0916023601
N  N53  1  0.32390000  0.27550000  0.02120000  1.0 0.1009013662
N  N54  1  0.67610000  0.72450000  0.02120000  1.0 0.1009013662
N  N55  1  0.72450000  0.32390000  0.97880000  1.0 0.0916023601
N  N56  1  0.27550000  0.67610000  0.97880000  1.0 0.0916023601
N  N57  1  0.99480000  0.62210000  0.22180000  1.0 0.0209681732
N  N58  1  0.00520000  0.37790000  0.22180000  1.0 0.0209681732
N  N59  1  0.62210000  0.00520000  0.77820000  1.0 0.0302709496
N  N60  1  0.37790000  0.99480000  0.77820000  1.0 0.0302709496
N  N61  1  0.50520000  0.12210000  0.27820000  1.0 0.0209681732
N  N62  1  0.49480000  0.87790000  0.27820000  1.0 0.0209681732
N  N63  1  0.87790000  0.50520000  0.72180000  1.0 0.0209681732
N  N64  1  0.12210000  0.49480000  0.72180000  1.0 0.0209681732
N  N65  1  0.12090000  0.02915000  0.23470000  1.0 -0.4425160717
N  N66  1  0.87910000  0.97085000  0.23470000  1.0 -0.4425160717
N  N67  1  0.02915000  0.87910000  0.76530000  1.0 -0.4425160717
N  N68  1  0.97085000  0.12090000  0.76530000  1.0 -0.4454581222
N  N69  1  0.37910000  0.52915000  0.26530000  1.0 -0.4425160717
N  N70  1  0.62090000  0.47085000  0.26530000  1.0 -0.4425160717
N  N71  1  0.47085000  0.37910000  0.73470000  1.0 -0.4454581222
N  N72  1  0.52915000  0.62090000  0.73470000  1.0 -0.4425160717
N  N73  1  0.19620000  0.81160000  0.47970000  1.0 0.0916023601
N  N74  1  0.80380000  0.18840000  0.47970000  1.0 0.0916023601
N  N75  1  0.81160000  0.80380000  0.52030000  1.0 0.0737351931
N  N76  1  0.18840000  0.19620000  0.52030000  1.0 0.0737351931
N  N77  1  0.30380000  0.31160000  0.02030000  1.0 0.0737351931
N  N78  1  0.69620000  0.68840000  0.02030000  1.0 0.0737351931
N  N79  1  0.68840000  0.30380000  0.97970000  1.0 0.0737351931
N  N80  1  0.31160000  0.69620000  0.97970000  1.0 0.0737351931
N  N81  1  0.18600000  0.73340000  0.47550000  1.0 0.0209681732
N  N82  1  0.81400000  0.26660000  0.47550000  1.0 0.0093687526
N  N83  1  0.73340000  0.81400000  0.52450000  1.0 0.0093687526
N  N84  1  0.26660000  0.18600000  0.52450000  1.0 0.0093687526
N  N85  1  0.31400000  0.23340000  0.02450000  1.0 0.0093687526
N  N86  1  0.68600000  0.76660000  0.02450000  1.0 0.0093687526
N  N87  1  0.76660000  0.31400000  0.97550000  1.0 0.0093687526
N  N88  1  0.23340000  0.68600000  0.97550000  1.0 0.0093687526
N  N89  1  0.23460000  0.83270000  0.47800000  1.0 0.001898197
N  N90  1  0.76540000  0.16730000  0.47800000  1.0 0.001898197
N  N91  1  0.83270000  0.76540000  0.52200000  1.0 -0.0098993434
N  N92  1  0.16730000  0.23460000  0.52200000  1.0 -0.0098993434
N  N93  1  0.26540000  0.33270000  0.02200000  1.0 -0.0098993434
N  N94  1  0.73460000  0.66730000  0.02200000  1.0 -0.0098993434
N  N95  1  0.66730000  0.26540000  0.97800000  1.0 -0.0098993434
N  N96  1  0.33270000  0.73460000  0.97800000  1.0 -0.0098993434
N  N97  1  0.48750000  0.86080000  0.30410000  1.0 0.0093687526
N  N98  1  0.51250000  0.13920000  0.30410000  1.0 0.0093687526
N  N99  1  0.86080000  0.51250000  0.69590000  1.0 0.001898197
N  N100  1  0.13920000  0.48750000  0.69590000  1.0 0.001898197
N  N101  1  0.01250000  0.36080000  0.19590000  1.0 -0.0028427966
N  N102  1  0.98750000  0.63920000  0.19590000  1.0 -0.0028427966
N  N103  1  0.63920000  0.01250000  0.80410000  1.0 0.0093687526
N  N104  1  0.36080000  0.98750000  0.80410000  1.0 0.001898197
N  N105  1  0.50320000  0.88100000  0.24490000  1.0 -0.0028427966
N  N106  1  0.49680000  0.11900000  0.24490000  1.0 -0.0028427966
N  N107  1  0.88100000  0.49680000  0.75510000  1.0 -0.0098993434
N  N108  1  0.11900000  0.50320000  0.75510000  1.0 -0.0098993434
N  N109  1  0.99680000  0.38100000  0.25510000  1.0 -0.0098993434
N  N110  1  0.00320000  0.61900000  0.25510000  1.0 -0.0098993434
N  N111  1  0.61900000  0.99680000  0.74490000  1.0 -0.0098993434
N  N112  1  0.38100000  0.00320000  0.74490000  1.0 -0.0098993434
