# DDEC6 charges by PACMAN v1.1 (https://github.com/mtap-research/PACMAN-charge/)
data_GANBAZ02_ASR_pacman
_symmetry_space_group_name_H-M   'P 1'
_cell_length_a   16.27520000
_cell_length_b   16.27520000
_cell_length_c   17.42310000
_cell_angle_alpha   90.00000000
_cell_angle_beta   90.00000000
_cell_angle_gamma   90.00000000
_symmetry_Int_Tables_number   1
_chemical_formula_structural   Mn(C5N7)2
_chemical_formula_sum   'Mn8 C80 N112'
_cell_volume   4615.06792702
_cell_formula_units_Z   8
loop_
 _symmetry_equiv_pos_site_id
 _symmetry_equiv_pos_as_xyz
  1  'x, y, z'
loop_
 _atom_site_type_symbol
 _atom_site_label
 _atom_site_symmetry_multiplicity
 _atom_site_fract_x
 _atom_site_fract_y
 _atom_site_fract_z
 _atom_site_occupancy
 _atom_site_charge
Mn  Mn1  1  0.76086000  0.22660000  0.71896000  1.0 0.5166670675
Mn  Mn2  1  0.23914000  0.77340000  0.71896000  1.0 0.5166670675
Mn  Mn3  1  0.22660000  0.23914000  0.28104000  1.0 0.5166670675
Mn  Mn4  1  0.77340000  0.76086000  0.28104000  1.0 0.5142239774
Mn  Mn5  1  0.73914000  0.72660000  0.78104000  1.0 0.5166670675
Mn  Mn6  1  0.26086000  0.27340000  0.78104000  1.0 0.5142239774
Mn  Mn7  1  0.27340000  0.73914000  0.21896000  1.0 0.5142239774
Mn  Mn8  1  0.72660000  0.26086000  0.21896000  1.0 0.5142239774
C  C1  1  0.79060000  0.21400000  0.90920000  1.0 0.1284530813
C  C2  1  0.20940000  0.78600000  0.90920000  1.0 0.1197978113
C  C3  1  0.21400000  0.20940000  0.09080000  1.0 0.1284530813
C  C4  1  0.78600000  0.79060000  0.09080000  1.0 0.1284530813
C  C5  1  0.70940000  0.71400000  0.59080000  1.0 0.1284530813
C  C6  1  0.29060000  0.28600000  0.59080000  1.0 0.1284530813
C  C7  1  0.28600000  0.70940000  0.40920000  1.0 0.1284530813
C  C8  1  0.71400000  0.29060000  0.40920000  1.0 0.1284530813
C  C9  1  0.84639000  0.04160000  0.72282000  1.0 0.391433801
C  C10  1  0.15361000  0.95840000  0.72282000  1.0 0.391433801
C  C11  1  0.04160000  0.15361000  0.27718000  1.0 0.391433801
C  C12  1  0.95840000  0.84639000  0.27718000  1.0 0.391433801
C  C13  1  0.65361000  0.54160000  0.77718000  1.0 0.391433801
C  C14  1  0.34639000  0.45840000  0.77718000  1.0 0.391433801
C  C15  1  0.45840000  0.65361000  0.22282000  1.0 0.391433801
C  C16  1  0.54160000  0.34639000  0.22282000  1.0 0.391433801
C  C17  1  0.83618000  0.90650000  0.75153000  1.0 0.3535464443
C  C18  1  0.16382000  0.09350000  0.75153000  1.0 0.3535464443
C  C19  1  0.90650000  0.16382000  0.24847000  1.0 0.3535464443
C  C20  1  0.09350000  0.83618000  0.24847000  1.0 0.3535464443
C  C21  1  0.66382000  0.40650000  0.74847000  1.0 0.3535464443
C  C22  1  0.33618000  0.59350000  0.74847000  1.0 0.356506675
C  C23  1  0.59350000  0.66382000  0.25153000  1.0 0.3535464443
C  C24  1  0.40650000  0.33618000  0.25153000  1.0 0.3535464443
C  C25  1  0.94023000  0.32866000  0.71940000  1.0 0.210032688
C  C26  1  0.05977000  0.67134000  0.71940000  1.0 0.210032688
C  C27  1  0.32866000  0.05977000  0.28060000  1.0 0.210032688
C  C28  1  0.67134000  0.94023000  0.28060000  1.0 0.210032688
C  C29  1  0.55977000  0.82866000  0.78060000  1.0 0.210032688
C  C30  1  0.44023000  0.17134000  0.78060000  1.0 0.210032688
C  C31  1  0.17134000  0.55977000  0.21940000  1.0 0.210032688
C  C32  1  0.82866000  0.44023000  0.21940000  1.0 0.210032688
C  C33  1  0.07490000  0.35042000  0.74920000  1.0 0.2219958449
C  C34  1  0.92510000  0.64958000  0.74920000  1.0 0.2219958449
C  C35  1  0.35042000  0.92510000  0.25080000  1.0 0.2219958449
C  C36  1  0.64958000  0.07490000  0.25080000  1.0 0.2219958449
C  C37  1  0.42510000  0.85042000  0.75080000  1.0 0.2219958449
C  C38  1  0.57490000  0.14958000  0.75080000  1.0 0.2219958449
C  C39  1  0.14958000  0.42510000  0.24920000  1.0 0.2219958449
C  C40  1  0.85042000  0.57490000  0.24920000  1.0 0.2219958449
C  C41  1  0.77370000  0.22700000  0.03690000  1.0 0.1197978113
C  C42  1  0.22630000  0.77300000  0.03690000  1.0 0.1197978113
C  C43  1  0.22700000  0.22630000  0.96310000  1.0 0.1197978113
C  C44  1  0.77300000  0.77370000  0.96310000  1.0 0.1197978113
C  C45  1  0.72630000  0.72700000  0.46310000  1.0 0.1197978113
C  C46  1  0.27370000  0.27300000  0.46310000  1.0 0.1197978113
C  C47  1  0.27300000  0.72630000  0.53690000  1.0 0.1197978113
C  C48  1  0.72700000  0.27370000  0.53690000  1.0 0.1197978113
C  C49  1  0.79280000  0.24600000  0.90640000  1.0 0.1464505701
C  C50  1  0.20720000  0.75400000  0.90640000  1.0 0.1431030944
C  C51  1  0.24600000  0.20720000  0.09360000  1.0 0.1431030944
C  C52  1  0.75400000  0.79280000  0.09360000  1.0 0.1464505701
C  C53  1  0.70720000  0.74600000  0.59360000  1.0 0.1464505701
C  C54  1  0.29280000  0.25400000  0.59360000  1.0 0.1431030944
C  C55  1  0.25400000  0.70720000  0.40640000  1.0 0.1431030944
C  C56  1  0.74600000  0.29280000  0.40640000  1.0 0.1464505701
C  C57  1  0.76880000  0.25820000  0.03660000  1.0 0.1431030944
C  C58  1  0.23120000  0.74180000  0.03660000  1.0 0.1431030944
C  C59  1  0.25820000  0.23120000  0.96340000  1.0 0.1431030944
C  C60  1  0.74180000  0.76880000  0.96340000  1.0 0.1431030944
C  C61  1  0.73120000  0.75820000  0.46340000  1.0 0.1464505701
C  C62  1  0.26880000  0.24180000  0.46340000  1.0 0.1464505701
C  C63  1  0.24180000  0.73120000  0.53660000  1.0 0.1431030944
C  C64  1  0.75820000  0.26880000  0.53660000  1.0 0.1464505701
C  C65  1  0.76340000  0.19830000  0.90580000  1.0 0.1611248361
C  C66  1  0.23660000  0.80170000  0.90580000  1.0 0.1611248361
C  C67  1  0.19830000  0.23660000  0.09420000  1.0 0.1611248361
C  C68  1  0.80170000  0.76340000  0.09420000  1.0 0.1611248361
C  C69  1  0.73660000  0.69830000  0.59420000  1.0 0.1611248361
C  C70  1  0.26340000  0.30170000  0.59420000  1.0 0.1611248361
C  C71  1  0.30170000  0.73660000  0.40580000  1.0 0.1611248361
C  C72  1  0.69830000  0.26340000  0.40580000  1.0 0.1611248361
C  C73  1  0.74200000  0.21750000  0.04090000  1.0 0.1611248361
C  C74  1  0.25800000  0.78250000  0.04090000  1.0 0.1611248361
C  C75  1  0.21750000  0.25800000  0.95910000  1.0 0.1611248361
C  C76  1  0.78250000  0.74200000  0.95910000  1.0 0.1611248361
C  C77  1  0.75800000  0.71750000  0.45910000  1.0 0.1611248361
C  C78  1  0.24200000  0.28250000  0.45910000  1.0 0.1611248361
C  C79  1  0.28250000  0.75800000  0.54090000  1.0 0.1611248361
C  C80  1  0.71750000  0.24200000  0.54090000  1.0 0.1611248361
N  N1  1  0.87908000  0.97090000  0.73440000  1.0 -0.407734203
N  N2  1  0.12092000  0.02910000  0.73440000  1.0 -0.4037853485
N  N3  1  0.97090000  0.12092000  0.26560000  1.0 -0.407734203
N  N4  1  0.02910000  0.87908000  0.26560000  1.0 -0.407734203
N  N5  1  0.62092000  0.47090000  0.76560000  1.0 -0.407734203
N  N6  1  0.37908000  0.52910000  0.76560000  1.0 -0.407734203
N  N7  1  0.52910000  0.62092000  0.23440000  1.0 -0.407734203
N  N8  1  0.47090000  0.37908000  0.23440000  1.0 -0.407734203
N  N9  1  0.77446000  0.21930000  0.84520000  1.0 -0.1404981507
N  N10  1  0.22554000  0.78070000  0.84520000  1.0 -0.1477508401
N  N11  1  0.21930000  0.22554000  0.15480000  1.0 -0.1404981507
N  N12  1  0.78070000  0.77446000  0.15480000  1.0 -0.1477508401
N  N13  1  0.72554000  0.71930000  0.65480000  1.0 -0.1404981507
N  N14  1  0.27446000  0.28070000  0.65480000  1.0 -0.1404981507
N  N15  1  0.28070000  0.72554000  0.34520000  1.0 -0.1404981507
N  N16  1  0.71930000  0.27446000  0.34520000  1.0 -0.1404981507
N  N17  1  0.87976000  0.29493000  0.71222000  1.0 -0.4663222325
N  N18  1  0.12024000  0.70507000  0.71222000  1.0 -0.4609939589
N  N19  1  0.29493000  0.12024000  0.28778000  1.0 -0.4663222325
N  N20  1  0.70507000  0.87976000  0.28778000  1.0 -0.4663222325
N  N21  1  0.62024000  0.79493000  0.78778000  1.0 -0.4663222325
N  N22  1  0.37976000  0.20507000  0.78778000  1.0 -0.4545870726
N  N23  1  0.20507000  0.62024000  0.21222000  1.0 -0.4609939589
N  N24  1  0.79493000  0.37976000  0.21222000  1.0 -0.4609939589
N  N25  1  0.82526000  0.10668000  0.70949000  1.0 -0.5511425918
N  N26  1  0.17474000  0.89332000  0.70949000  1.0 -0.5511425918
N  N27  1  0.10668000  0.17474000  0.29051000  1.0 -0.5446681683
N  N28  1  0.89332000  0.82526000  0.29051000  1.0 -0.5550314491
N  N29  1  0.67474000  0.60668000  0.79051000  1.0 -0.5550314491
N  N30  1  0.32526000  0.39332000  0.79051000  1.0 -0.5511425918
N  N31  1  0.39332000  0.67474000  0.20949000  1.0 -0.5511425918
N  N32  1  0.60668000  0.32526000  0.20949000  1.0 -0.5511425918
N  N33  1  0.80559000  0.84539000  0.76649000  1.0 -0.5066823418
N  N34  1  0.19441000  0.15461000  0.76649000  1.0 -0.5038656001
N  N35  1  0.84539000  0.19441000  0.23351000  1.0 -0.5038656001
N  N36  1  0.15461000  0.80559000  0.23351000  1.0 -0.5066823418
N  N37  1  0.69441000  0.34539000  0.73351000  1.0 -0.5066823418
N  N38  1  0.30559000  0.65461000  0.73351000  1.0 -0.5066823418
N  N39  1  0.65461000  0.69441000  0.26649000  1.0 -0.5066823418
N  N40  1  0.34539000  0.30559000  0.26649000  1.0 -0.5066823418
N  N41  1  0.13945000  0.33669000  0.77060000  1.0 -0.4609939589
N  N42  1  0.86055000  0.66331000  0.77060000  1.0 -0.4663222325
N  N43  1  0.33669000  0.86055000  0.22940000  1.0 -0.4663222325
N  N44  1  0.66331000  0.13945000  0.22940000  1.0 -0.4663222325
N  N45  1  0.36055000  0.83669000  0.72940000  1.0 -0.4609939589
N  N46  1  0.63945000  0.16331000  0.72940000  1.0 -0.4609939589
N  N47  1  0.16331000  0.36055000  0.27060000  1.0 -0.4663222325
N  N48  1  0.83669000  0.63945000  0.27060000  1.0 -0.4609939589
N  N49  1  0.73810000  0.24540000  0.09379000  1.0 -0.1195138112
N  N50  1  0.26190000  0.75460000  0.09379000  1.0 -0.1195138112
N  N51  1  0.24540000  0.26190000  0.90621000  1.0 -0.1195138112
N  N52  1  0.75460000  0.73810000  0.90621000  1.0 -0.1269437229
N  N53  1  0.76190000  0.74540000  0.40621000  1.0 -0.1195138112
N  N54  1  0.23810000  0.25460000  0.40621000  1.0 -0.1195138112
N  N55  1  0.25460000  0.76190000  0.59379000  1.0 -0.1195138112
N  N56  1  0.74540000  0.23810000  0.59379000  1.0 -0.1195138112
N  N57  1  0.00510000  0.37780000  0.72180000  1.0 -0.0505727127
N  N58  1  0.99490000  0.62220000  0.72180000  1.0 -0.0505727127
N  N59  1  0.37780000  0.99490000  0.27820000  1.0 -0.0505727127
N  N60  1  0.62220000  0.00510000  0.27820000  1.0 -0.0505727127
N  N61  1  0.49490000  0.87780000  0.77820000  1.0 -0.0505727127
N  N62  1  0.50510000  0.12220000  0.77820000  1.0 -0.0505727127
N  N63  1  0.12220000  0.49490000  0.22180000  1.0 -0.0505727127
N  N64  1  0.87780000  0.50510000  0.22180000  1.0 -0.0505727127
N  N65  1  0.82400000  0.22690000  0.97840000  1.0 0.1197978113
N  N66  1  0.17600000  0.77310000  0.97840000  1.0 0.1284530813
N  N67  1  0.22690000  0.17600000  0.02160000  1.0 0.1197978113
N  N68  1  0.77310000  0.82400000  0.02160000  1.0 0.1197978113
N  N69  1  0.67600000  0.72690000  0.52160000  1.0 0.1197978113
N  N70  1  0.32400000  0.27310000  0.52160000  1.0 0.1197978113
N  N71  1  0.27310000  0.67600000  0.47840000  1.0 0.1197978113
N  N72  1  0.72690000  0.32400000  0.47840000  1.0 0.1197978113
N  N73  1  0.01170000  0.35980000  0.69430000  1.0 -0.0809210367
N  N74  1  0.98830000  0.64020000  0.69430000  1.0 -0.0809210367
N  N75  1  0.35980000  0.98830000  0.30570000  1.0 -0.0809210367
N  N76  1  0.64020000  0.01170000  0.30570000  1.0 -0.0809210367
N  N77  1  0.48830000  0.85980000  0.80570000  1.0 -0.0809210367
N  N78  1  0.51170000  0.14020000  0.80570000  1.0 -0.0809210367
N  N79  1  0.14020000  0.48830000  0.19430000  1.0 -0.0809210367
N  N80  1  0.85980000  0.51170000  0.19430000  1.0 -0.0809210367
N  N81  1  0.81210000  0.27480000  0.97710000  1.0 0.0181329178
N  N82  1  0.18790000  0.72520000  0.97710000  1.0 0.0181329178
N  N83  1  0.27480000  0.18790000  0.02290000  1.0 0.0181329178
N  N84  1  0.72520000  0.81210000  0.02290000  1.0 0.0093296881
N  N85  1  0.68790000  0.77480000  0.52290000  1.0 0.0181329178
N  N86  1  0.31210000  0.22520000  0.52290000  1.0 0.0093296881
N  N87  1  0.22520000  0.68790000  0.47710000  1.0 0.0181329178
N  N88  1  0.77480000  0.31210000  0.47710000  1.0 0.0093296881
N  N89  1  0.75870000  0.16480000  0.97860000  1.0 0.0093296881
N  N90  1  0.24130000  0.83520000  0.97860000  1.0 0.0093296881
N  N91  1  0.16480000  0.24130000  0.02140000  1.0 0.0093296881
N  N92  1  0.83520000  0.75870000  0.02140000  1.0 0.0093296881
N  N93  1  0.74130000  0.66480000  0.52140000  1.0 0.0093296881
N  N94  1  0.25870000  0.33520000  0.52140000  1.0 0.0093296881
N  N95  1  0.33520000  0.74130000  0.47860000  1.0 0.0093296881
N  N96  1  0.66480000  0.25870000  0.47860000  1.0 0.0093296881
N  N97  1  0.99750000  0.38240000  0.75710000  1.0 -0.0505727127
N  N98  1  0.00250000  0.61760000  0.75710000  1.0 -0.0505727127
N  N99  1  0.38240000  0.00250000  0.24290000  1.0 -0.0505727127
N  N100  1  0.61760000  0.99750000  0.24290000  1.0 -0.0505727127
N  N101  1  0.50250000  0.88240000  0.74290000  1.0 -0.0505727127
N  N102  1  0.49750000  0.11760000  0.74290000  1.0 -0.0505727127
N  N103  1  0.11760000  0.50250000  0.25710000  1.0 -0.0505727127
N  N104  1  0.88240000  0.49750000  0.25710000  1.0 -0.0505727127
N  N105  1  0.80140000  0.18790000  0.97960000  1.0 0.1431030944
N  N106  1  0.19860000  0.81210000  0.97960000  1.0 0.1284530813
N  N107  1  0.18790000  0.19860000  0.02040000  1.0 0.1431030944
N  N108  1  0.81210000  0.80140000  0.02040000  1.0 0.1284530813
N  N109  1  0.69860000  0.68790000  0.52040000  1.0 0.1431030944
N  N110  1  0.30140000  0.31210000  0.52040000  1.0 0.1431030944
N  N111  1  0.31210000  0.69860000  0.47960000  1.0 0.1431030944
N  N112  1  0.68790000  0.30140000  0.47960000  1.0 0.1431030944
