# DDEC6 charges by PACMAN v1.1 (https://github.com/mtap-research/PACMAN-charge/)
data_GANBED_ASR_pacman
_symmetry_space_group_name_H-M   'P 1'
_cell_length_a   17.17110000
_cell_length_b   22.75000000
_cell_length_c   22.99180000
_cell_angle_alpha   90.00000000
_cell_angle_beta   90.00000000
_cell_angle_gamma   90.00000000
_symmetry_Int_Tables_number   1
_chemical_formula_structural   Ni2(C6N7)3
_chemical_formula_sum   'Ni16 C144 N168'
_cell_volume   8981.57480630
_cell_formula_units_Z   8
loop_
 _symmetry_equiv_pos_site_id
 _symmetry_equiv_pos_as_xyz
  1  'x, y, z'
loop_
 _atom_site_type_symbol
 _atom_site_label
 _atom_site_symmetry_multiplicity
 _atom_site_fract_x
 _atom_site_fract_y
 _atom_site_fract_z
 _atom_site_occupancy
 _atom_site_charge
Ni  Ni1  1  0.47897000  0.00680000  0.25590000  1.0 0.4854237694
Ni  Ni2  1  0.02103000  0.00680000  0.74410000  1.0 0.4854237694
Ni  Ni3  1  0.02103000  0.49320000  0.75590000  1.0 0.4854237694
Ni  Ni4  1  0.47897000  0.49320000  0.24410000  1.0 0.4854237694
Ni  Ni5  1  0.52103000  0.99320000  0.74410000  1.0 0.4854237694
Ni  Ni6  1  0.97897000  0.99320000  0.25590000  1.0 0.4854237694
Ni  Ni7  1  0.97897000  0.50680000  0.24410000  1.0 0.4854237694
Ni  Ni8  1  0.52103000  0.50680000  0.75590000  1.0 0.4854237694
Ni  Ni9  1  0.49731000  0.25684000  0.50589000  1.0 0.7791190428
Ni  Ni10  1  0.00269000  0.25684000  0.49411000  1.0 0.7791190428
Ni  Ni11  1  0.00269000  0.24316000  0.00589000  1.0 0.7791190428
Ni  Ni12  1  0.49731000  0.24316000  0.99411000  1.0 0.7791190428
Ni  Ni13  1  0.50269000  0.74316000  0.49411000  1.0 0.7791190428
Ni  Ni14  1  0.99731000  0.74316000  0.50589000  1.0 0.7749968353
Ni  Ni15  1  0.99731000  0.75684000  0.99411000  1.0 0.7749968353
Ni  Ni16  1  0.50269000  0.75684000  0.00589000  1.0 0.7791190428
C  C1  1  0.29730000  0.97130000  0.25630000  1.0 0.2201784994
C  C2  1  0.20270000  0.97130000  0.74370000  1.0 0.2201784994
C  C3  1  0.20270000  0.52870000  0.75630000  1.0 0.2201784994
C  C4  1  0.29730000  0.52870000  0.24370000  1.0 0.2201784994
C  C5  1  0.70270000  0.02870000  0.74370000  1.0 0.2201784994
C  C6  1  0.79730000  0.02870000  0.25630000  1.0 0.2201784994
C  C7  1  0.79730000  0.47130000  0.24370000  1.0 0.2201784994
C  C8  1  0.70270000  0.47130000  0.75630000  1.0 0.2201784994
C  C9  1  0.66270000  0.03490000  0.25190000  1.0 0.2393002245
C  C10  1  0.83730000  0.03490000  0.74810000  1.0 0.2393002245
C  C11  1  0.83730000  0.46510000  0.75190000  1.0 0.2393002245
C  C12  1  0.66270000  0.46510000  0.24810000  1.0 0.2393002245
C  C13  1  0.33730000  0.96510000  0.74810000  1.0 0.2393002245
C  C14  1  0.16270000  0.96510000  0.25190000  1.0 0.2393002245
C  C15  1  0.16270000  0.53490000  0.24810000  1.0 0.2393002245
C  C16  1  0.33730000  0.53490000  0.75190000  1.0 0.2393002245
C  C17  1  0.68120000  0.25680000  0.48310000  1.0 0.2737417663
C  C18  1  0.81880000  0.25680000  0.51690000  1.0 0.2737417663
C  C19  1  0.81880000  0.24320000  0.98310000  1.0 0.2737417663
C  C20  1  0.68120000  0.24320000  0.01690000  1.0 0.2737417663
C  C21  1  0.31880000  0.74320000  0.51690000  1.0 0.2737417663
C  C22  1  0.18120000  0.74320000  0.48310000  1.0 0.2737417663
C  C23  1  0.18120000  0.75680000  0.01690000  1.0 0.2737417663
C  C24  1  0.31880000  0.75680000  0.98310000  1.0 0.2737417663
C  C25  1  0.46390000  0.04951000  0.12212000  1.0 0.2874402938
C  C26  1  0.03610000  0.04951000  0.87788000  1.0 0.2874402938
C  C27  1  0.03610000  0.45049000  0.62212000  1.0 0.2874402938
C  C28  1  0.46390000  0.45049000  0.37788000  1.0 0.2874402938
C  C29  1  0.53610000  0.95049000  0.87788000  1.0 0.2874402938
C  C30  1  0.96390000  0.95049000  0.12212000  1.0 0.2874402938
C  C31  1  0.96390000  0.54951000  0.37788000  1.0 0.2874402938
C  C32  1  0.53610000  0.54951000  0.62212000  1.0 0.2874402938
C  C33  1  0.50681000  0.87529000  0.20778000  1.0 0.2956833631
C  C34  1  0.99319000  0.87529000  0.79222000  1.0 0.2956833631
C  C35  1  0.99319000  0.62471000  0.70778000  1.0 0.2956833631
C  C36  1  0.50681000  0.62471000  0.29222000  1.0 0.2956833631
C  C37  1  0.49319000  0.12471000  0.79222000  1.0 0.2956833631
C  C38  1  0.00681000  0.12471000  0.20778000  1.0 0.2956833631
C  C39  1  0.00681000  0.37529000  0.29222000  1.0 0.2956833631
C  C40  1  0.49319000  0.37529000  0.70778000  1.0 0.2956833631
C  C41  1  0.49070000  0.95430000  0.38561000  1.0 0.2956833631
C  C42  1  0.00930000  0.95430000  0.61439000  1.0 0.2956833631
C  C43  1  0.00930000  0.54570000  0.88561000  1.0 0.2956833631
C  C44  1  0.49070000  0.54570000  0.11439000  1.0 0.2956833631
C  C45  1  0.50930000  0.04570000  0.61439000  1.0 0.2874402938
C  C46  1  0.99070000  0.04570000  0.38561000  1.0 0.2874402938
C  C47  1  0.99070000  0.45430000  0.11439000  1.0 0.2956833631
C  C48  1  0.50930000  0.45430000  0.88561000  1.0 0.2874402938
C  C49  1  0.46340000  0.13909000  0.30433000  1.0 0.3091136399
C  C50  1  0.03660000  0.13909000  0.69567000  1.0 0.3091136399
C  C51  1  0.03660000  0.36091000  0.80433000  1.0 0.3091136399
C  C52  1  0.46340000  0.36091000  0.19567000  1.0 0.3091136399
C  C53  1  0.53660000  0.86091000  0.69567000  1.0 0.3091136399
C  C54  1  0.96340000  0.86091000  0.30433000  1.0 0.3091136399
C  C55  1  0.96340000  0.63909000  0.19567000  1.0 0.3091136399
C  C56  1  0.53660000  0.63909000  0.80433000  1.0 0.3091136399
C  C57  1  0.47630000  0.20946000  0.37462000  1.0 0.4242987889
C  C58  1  0.02370000  0.20946000  0.62538000  1.0 0.4242987889
C  C59  1  0.02370000  0.29054000  0.87462000  1.0 0.4242987889
C  C60  1  0.47630000  0.29054000  0.12538000  1.0 0.4242987889
C  C61  1  0.52370000  0.79054000  0.62538000  1.0 0.4242987889
C  C62  1  0.97630000  0.79054000  0.37462000  1.0 0.4242987889
C  C63  1  0.97630000  0.70946000  0.12538000  1.0 0.4242987889
C  C64  1  0.52370000  0.70946000  0.87462000  1.0 0.4242987889
C  C65  1  0.51096000  0.80508000  0.13725000  1.0 0.4334697253
C  C66  1  0.98904000  0.80508000  0.86275000  1.0 0.4334697253
C  C67  1  0.98904000  0.69492000  0.63725000  1.0 0.4334697253
C  C68  1  0.51096000  0.69492000  0.36275000  1.0 0.4334697253
C  C69  1  0.48904000  0.19492000  0.86275000  1.0 0.4334697253
C  C70  1  0.01096000  0.19492000  0.13725000  1.0 0.4334697253
C  C71  1  0.01096000  0.30508000  0.36275000  1.0 0.4334697253
C  C72  1  0.48904000  0.30508000  0.63725000  1.0 0.4334697253
C  C73  1  0.47470000  0.11282000  0.04551000  1.0 0.4405784044
C  C74  1  0.02530000  0.11282000  0.95449000  1.0 0.4405784044
C  C75  1  0.02530000  0.38718000  0.54551000  1.0 0.4405784044
C  C76  1  0.47470000  0.38718000  0.45449000  1.0 0.4405784044
C  C77  1  0.52530000  0.88718000  0.95449000  1.0 0.4405784044
C  C78  1  0.97470000  0.88718000  0.04551000  1.0 0.4405784044
C  C79  1  0.97470000  0.61282000  0.45449000  1.0 0.4405784044
C  C80  1  0.52530000  0.61282000  0.54551000  1.0 0.4405784044
C  C81  1  0.49300000  0.87811000  0.45053000  1.0 0.4334697253
C  C82  1  0.00700000  0.87811000  0.54947000  1.0 0.4334697253
C  C83  1  0.00700000  0.62189000  0.95053000  1.0 0.4334697253
C  C84  1  0.49300000  0.62189000  0.04947000  1.0 0.4334697253
C  C85  1  0.50700000  0.12189000  0.54947000  1.0 0.4334697253
C  C86  1  0.99300000  0.12189000  0.45053000  1.0 0.4334697253
C  C87  1  0.99300000  0.37811000  0.04947000  1.0 0.4334697253
C  C88  1  0.50700000  0.37811000  0.95053000  1.0 0.4334697253
C  C89  1  0.31580000  0.22950000  0.50580000  1.0 0.2500765654
C  C90  1  0.18420000  0.22950000  0.49420000  1.0 0.2500765654
C  C91  1  0.18420000  0.27050000  0.00580000  1.0 0.2500765654
C  C92  1  0.31580000  0.27050000  0.99420000  1.0 0.2500765654
C  C93  1  0.68420000  0.77050000  0.49420000  1.0 0.2500765654
C  C94  1  0.81580000  0.77050000  0.50580000  1.0 0.2500765654
C  C95  1  0.81580000  0.72950000  0.99420000  1.0 0.2500765654
C  C96  1  0.68420000  0.72950000  0.00580000  1.0 0.2500765654
C  C97  1  0.29610000  0.98390000  0.24160000  1.0 0.2007027115
C  C98  1  0.20390000  0.98390000  0.75840000  1.0 0.2007027115
C  C99  1  0.20390000  0.51610000  0.74160000  1.0 0.2007027115
C  C100  1  0.29610000  0.51610000  0.25840000  1.0 0.2007027115
C  C101  1  0.70390000  0.01610000  0.75840000  1.0 0.2007027115
C  C102  1  0.79610000  0.01610000  0.24160000  1.0 0.2007027115
C  C103  1  0.79610000  0.48390000  0.25840000  1.0 0.2007027115
C  C104  1  0.70390000  0.48390000  0.74160000  1.0 0.2007027115
C  C105  1  0.66310000  0.02150000  0.23670000  1.0 0.1907776832
C  C106  1  0.83690000  0.02150000  0.76330000  1.0 0.1907776832
C  C107  1  0.83690000  0.47850000  0.73670000  1.0 0.1907776832
C  C108  1  0.66310000  0.47850000  0.26330000  1.0 0.1907776832
C  C109  1  0.33690000  0.97850000  0.76330000  1.0 0.1907776832
C  C110  1  0.16310000  0.97850000  0.23670000  1.0 0.1907776832
C  C111  1  0.16310000  0.52150000  0.26330000  1.0 0.1907776832
C  C112  1  0.33690000  0.52150000  0.73670000  1.0 0.1907776832
C  C113  1  0.29650000  0.98000000  0.27400000  1.0 0.2007027115
C  C114  1  0.20350000  0.98000000  0.72600000  1.0 0.2007027115
C  C115  1  0.20350000  0.52000000  0.77400000  1.0 0.2007027115
C  C116  1  0.29650000  0.52000000  0.22600000  1.0 0.2007027115
C  C117  1  0.70350000  0.02000000  0.72600000  1.0 0.2007027115
C  C118  1  0.79650000  0.02000000  0.27400000  1.0 0.2007027115
C  C119  1  0.79650000  0.48000000  0.22600000  1.0 0.2007027115
C  C120  1  0.70350000  0.48000000  0.77400000  1.0 0.2007027115
C  C121  1  0.66320000  0.02780000  0.26940000  1.0 0.2007027115
C  C122  1  0.83680000  0.02780000  0.73060000  1.0 0.2007027115
C  C123  1  0.83680000  0.47220000  0.76940000  1.0 0.2007027115
C  C124  1  0.66320000  0.47220000  0.23060000  1.0 0.2007027115
C  C125  1  0.33680000  0.97220000  0.73060000  1.0 0.2007027115
C  C126  1  0.16320000  0.97220000  0.26940000  1.0 0.2007027115
C  C127  1  0.16320000  0.52780000  0.23060000  1.0 0.2007027115
C  C128  1  0.33680000  0.52780000  0.76940000  1.0 0.2007027115
C  C129  1  0.18340000  0.75700000  0.98070000  1.0 0.2737417663
C  C130  1  0.31660000  0.75700000  0.01930000  1.0 0.2737417663
C  C131  1  0.31660000  0.74300000  0.48070000  1.0 0.2737417663
C  C132  1  0.18340000  0.74300000  0.51930000  1.0 0.2737417663
C  C133  1  0.81660000  0.24300000  0.01930000  1.0 0.2737417663
C  C134  1  0.68340000  0.24300000  0.98070000  1.0 0.2737417663
C  C135  1  0.68340000  0.25700000  0.51930000  1.0 0.2737417663
C  C136  1  0.81660000  0.25700000  0.48070000  1.0 0.2737417663
C  C137  1  0.68620000  0.77430000  0.00500000  1.0 0.2393002245
C  C138  1  0.81380000  0.77430000  0.99500000  1.0 0.2393002245
C  C139  1  0.81380000  0.72570000  0.50500000  1.0 0.2393002245
C  C140  1  0.68620000  0.72570000  0.49500000  1.0 0.2393002245
C  C141  1  0.31380000  0.22570000  0.99500000  1.0 0.2393002245
C  C142  1  0.18620000  0.22570000  0.00500000  1.0 0.2393002245
C  C143  1  0.18620000  0.27430000  0.49500000  1.0 0.2393002245
C  C144  1  0.31380000  0.27430000  0.50500000  1.0 0.2393002245
N  N1  1  0.46648000  0.03355000  0.16935000  1.0 -0.5126808924
N  N2  1  0.03352000  0.03355000  0.83065000  1.0 -0.5126808924
N  N3  1  0.03352000  0.46645000  0.66935000  1.0 -0.5126808924
N  N4  1  0.46648000  0.46645000  0.33065000  1.0 -0.5126808924
N  N5  1  0.53352000  0.96645000  0.83065000  1.0 -0.5126808924
N  N6  1  0.96648000  0.96645000  0.16935000  1.0 -0.5126808924
N  N7  1  0.96648000  0.53355000  0.33065000  1.0 -0.5126808924
N  N8  1  0.53352000  0.53355000  0.66935000  1.0 -0.5126808924
N  N9  1  0.49485000  0.92041000  0.22801000  1.0 -0.5210315552
N  N10  1  0.00515000  0.92041000  0.77199000  1.0 -0.5210315552
N  N11  1  0.00515000  0.57959000  0.72801000  1.0 -0.5210315552
N  N12  1  0.49485000  0.57959000  0.27199000  1.0 -0.5210315552
N  N13  1  0.50515000  0.07959000  0.77199000  1.0 -0.5210315552
N  N14  1  0.99485000  0.07959000  0.22801000  1.0 -0.5210315552
N  N15  1  0.99485000  0.42041000  0.27199000  1.0 -0.5210315552
N  N16  1  0.50515000  0.42041000  0.72801000  1.0 -0.5210315552
N  N17  1  0.49015000  0.97805000  0.34188000  1.0 -0.5210315552
N  N18  1  0.00985000  0.97805000  0.65812000  1.0 -0.5210315552
N  N19  1  0.00985000  0.52195000  0.84188000  1.0 -0.5210315552
N  N20  1  0.49015000  0.52195000  0.15812000  1.0 -0.5210315552
N  N21  1  0.50985000  0.02195000  0.65812000  1.0 -0.5210315552
N  N22  1  0.99015000  0.02195000  0.34188000  1.0 -0.5210315552
N  N23  1  0.99015000  0.47805000  0.15812000  1.0 -0.5210315552
N  N24  1  0.50985000  0.47805000  0.84188000  1.0 -0.5210315552
N  N25  1  0.46531000  0.09316000  0.28409000  1.0 -0.5210315552
N  N26  1  0.03469000  0.09316000  0.71591000  1.0 -0.5210315552
N  N27  1  0.03469000  0.40684000  0.78409000  1.0 -0.5210315552
N  N28  1  0.46531000  0.40684000  0.21591000  1.0 -0.5210315552
N  N29  1  0.53469000  0.90684000  0.71591000  1.0 -0.5210315552
N  N30  1  0.96531000  0.90684000  0.28409000  1.0 -0.5210315552
N  N31  1  0.96531000  0.59316000  0.21591000  1.0 -0.5210315552
N  N32  1  0.53469000  0.59316000  0.78409000  1.0 -0.5210315552
N  N33  1  0.35884000  0.99316000  0.26024000  1.0 -0.0914392606
N  N34  1  0.14116000  0.99316000  0.73976000  1.0 -0.0914392606
N  N35  1  0.14116000  0.50684000  0.76024000  1.0 -0.0914392606
N  N36  1  0.35884000  0.50684000  0.23976000  1.0 -0.0914392606
N  N37  1  0.64116000  0.00684000  0.73976000  1.0 -0.0914392606
N  N38  1  0.85884000  0.00684000  0.26024000  1.0 -0.0914392606
N  N39  1  0.85884000  0.49316000  0.23976000  1.0 -0.0914392606
N  N40  1  0.64116000  0.49316000  0.76024000  1.0 -0.0914392606
N  N41  1  0.59948000  0.01975000  0.25204000  1.0 -0.0914392606
N  N42  1  0.90052000  0.01975000  0.74796000  1.0 -0.0914392606
N  N43  1  0.90052000  0.48025000  0.75204000  1.0 -0.0914392606
N  N44  1  0.59948000  0.48025000  0.24796000  1.0 -0.0914392606
N  N45  1  0.40052000  0.98025000  0.74796000  1.0 -0.0914392606
N  N46  1  0.09948000  0.98025000  0.25204000  1.0 -0.0914392606
N  N47  1  0.09948000  0.51975000  0.24796000  1.0 -0.0914392606
N  N48  1  0.40052000  0.51975000  0.75204000  1.0 -0.0914392606
N  N49  1  0.49074000  0.22917000  0.41941000  1.0 -0.4619135936
N  N50  1  0.00926000  0.22917000  0.58059000  1.0 -0.4619135936
N  N51  1  0.00926000  0.27083000  0.91941000  1.0 -0.4619135936
N  N52  1  0.49074000  0.27083000  0.08059000  1.0 -0.4619135936
N  N53  1  0.50926000  0.77083000  0.58059000  1.0 -0.4619135936
N  N54  1  0.99074000  0.77083000  0.41941000  1.0 -0.4619135936
N  N55  1  0.99074000  0.72917000  0.08059000  1.0 -0.4619135936
N  N56  1  0.50926000  0.72917000  0.91941000  1.0 -0.4619135936
N  N57  1  0.49676000  0.28504000  0.59199000  1.0 -0.4619135936
N  N58  1  0.00324000  0.28504000  0.40801000  1.0 -0.4619135936
N  N59  1  0.00324000  0.21496000  0.09199000  1.0 -0.4619135936
N  N60  1  0.49676000  0.21496000  0.90801000  1.0 -0.4619135936
N  N61  1  0.50324000  0.71496000  0.40801000  1.0 -0.4619135936
N  N62  1  0.99676000  0.71496000  0.59199000  1.0 -0.4619135936
N  N63  1  0.99676000  0.78504000  0.90801000  1.0 -0.4619135936
N  N64  1  0.50324000  0.78504000  0.09199000  1.0 -0.4619135936
N  N65  1  0.48810000  0.34405000  0.47778000  1.0 -0.4619135936
N  N66  1  0.01190000  0.34405000  0.52222000  1.0 -0.4619135936
N  N67  1  0.01190000  0.15595000  0.97778000  1.0 -0.4619135936
N  N68  1  0.48810000  0.15595000  0.02222000  1.0 -0.4619135936
N  N69  1  0.51190000  0.65595000  0.52222000  1.0 -0.4619135936
N  N70  1  0.98810000  0.65595000  0.47778000  1.0 -0.4619135936
N  N71  1  0.98810000  0.84405000  0.02222000  1.0 -0.4619135936
N  N72  1  0.51190000  0.84405000  0.97778000  1.0 -0.4619135936
N  N73  1  0.50614000  0.16916000  0.53276000  1.0 -0.4619135936
N  N74  1  0.99386000  0.16916000  0.46724000  1.0 -0.4619135936
N  N75  1  0.99386000  0.33084000  0.03276000  1.0 -0.4619135936
N  N76  1  0.50614000  0.33084000  0.96724000  1.0 -0.4619135936
N  N77  1  0.49386000  0.83084000  0.46724000  1.0 -0.4619135936
N  N78  1  0.00614000  0.83084000  0.53276000  1.0 -0.4619135936
N  N79  1  0.00614000  0.66916000  0.96724000  1.0 -0.4619135936
N  N80  1  0.49386000  0.66916000  0.03276000  1.0 -0.4619135936
N  N81  1  0.37722000  0.24858000  0.51017000  1.0 -0.3001119487
N  N82  1  0.12278000  0.24858000  0.48983000  1.0 -0.3001119487
N  N83  1  0.12278000  0.25142000  0.01017000  1.0 -0.3001119487
N  N84  1  0.37722000  0.25142000  0.98983000  1.0 -0.3001119487
N  N85  1  0.62278000  0.75142000  0.48983000  1.0 -0.3001119487
N  N86  1  0.87722000  0.75142000  0.51017000  1.0 -0.3001119487
N  N87  1  0.87722000  0.74858000  0.98983000  1.0 -0.3001119487
N  N88  1  0.62278000  0.74858000  0.01017000  1.0 -0.3001119487
N  N89  1  0.61958000  0.26111000  0.50204000  1.0 -0.2809615649
N  N90  1  0.88042000  0.26111000  0.49796000  1.0 -0.2809615649
N  N91  1  0.88042000  0.23889000  0.00204000  1.0 -0.2809615649
N  N92  1  0.61958000  0.23889000  0.99796000  1.0 -0.2809615649
N  N93  1  0.38042000  0.73889000  0.49796000  1.0 -0.2809615649
N  N94  1  0.11958000  0.73889000  0.50204000  1.0 -0.2809615649
N  N95  1  0.11958000  0.76111000  0.99796000  1.0 -0.2809615649
N  N96  1  0.38042000  0.76111000  0.00204000  1.0 -0.2809615649
N  N97  1  0.23240000  0.94280000  0.25300000  1.0 0.1907776832
N  N98  1  0.26760000  0.94280000  0.74700000  1.0 0.1907776832
N  N99  1  0.26760000  0.55720000  0.75300000  1.0 0.1907776832
N  N100  1  0.23240000  0.55720000  0.24700000  1.0 0.1907776832
N  N101  1  0.76760000  0.05720000  0.74700000  1.0 0.1907776832
N  N102  1  0.73240000  0.05720000  0.25300000  1.0 0.1907776832
N  N103  1  0.73240000  0.44280000  0.24700000  1.0 0.1907776832
N  N104  1  0.76760000  0.44280000  0.75300000  1.0 0.1907776832
N  N105  1  0.74800000  0.25100000  0.45690000  1.0 -0.2224319135
N  N106  1  0.75200000  0.25100000  0.54310000  1.0 -0.2224319135
N  N107  1  0.75200000  0.24900000  0.95690000  1.0 -0.2224319135
N  N108  1  0.74800000  0.24900000  0.04310000  1.0 -0.2224319135
N  N109  1  0.25200000  0.74900000  0.54310000  1.0 -0.2224319135
N  N110  1  0.24800000  0.74900000  0.45690000  1.0 -0.2224319135
N  N111  1  0.24800000  0.75100000  0.04310000  1.0 -0.2224319135
N  N112  1  0.25200000  0.75100000  0.95690000  1.0 -0.2224319135
N  N113  1  0.52260000  0.82177000  0.19082000  1.0 -0.4394821194
N  N114  1  0.97740000  0.82177000  0.80918000  1.0 -0.4394821194
N  N115  1  0.97740000  0.67823000  0.69082000  1.0 -0.4394821194
N  N116  1  0.52260000  0.67823000  0.30918000  1.0 -0.4394821194
N  N117  1  0.47740000  0.17823000  0.80918000  1.0 -0.4394821194
N  N118  1  0.02260000  0.17823000  0.19082000  1.0 -0.4394821194
N  N119  1  0.02260000  0.32177000  0.30918000  1.0 -0.4394821194
N  N120  1  0.47740000  0.32177000  0.69082000  1.0 -0.4394821194
N  N121  1  0.45830000  0.19349000  0.32187000  1.0 -0.430644417
N  N122  1  0.04170000  0.19349000  0.67813000  1.0 -0.430644417
N  N123  1  0.04170000  0.30651000  0.82187000  1.0 -0.430644417
N  N124  1  0.45830000  0.30651000  0.17813000  1.0 -0.430644417
N  N125  1  0.54170000  0.80651000  0.67813000  1.0 -0.430644417
N  N126  1  0.95830000  0.80651000  0.32187000  1.0 -0.430644417
N  N127  1  0.95830000  0.69349000  0.17813000  1.0 -0.430644417
N  N128  1  0.54170000  0.69349000  0.82187000  1.0 -0.430644417
N  N129  1  0.45700000  0.06122000  0.06658000  1.0 -0.430644417
N  N130  1  0.04300000  0.06122000  0.93342000  1.0 -0.4246772048
N  N131  1  0.04300000  0.43878000  0.56658000  1.0 -0.4246772048
N  N132  1  0.45700000  0.43878000  0.43342000  1.0 -0.430644417
N  N133  1  0.54300000  0.93878000  0.93342000  1.0 -0.4246772048
N  N134  1  0.95700000  0.93878000  0.06658000  1.0 -0.430644417
N  N135  1  0.95700000  0.56122000  0.43342000  1.0 -0.430644417
N  N136  1  0.54300000  0.56122000  0.56658000  1.0 -0.4246772048
N  N137  1  0.48940000  0.93370000  0.43831000  1.0 -0.3947941181
N  N138  1  0.01060000  0.93370000  0.56169000  1.0 -0.3947941181
N  N139  1  0.01060000  0.56630000  0.93831000  1.0 -0.3947941181
N  N140  1  0.48940000  0.56630000  0.06169000  1.0 -0.3955230829
N  N141  1  0.51060000  0.06630000  0.56169000  1.0 -0.3947941181
N  N142  1  0.98940000  0.06630000  0.43831000  1.0 -0.3947941181
N  N143  1  0.98940000  0.43370000  0.06169000  1.0 -0.3955230829
N  N144  1  0.51060000  0.43370000  0.93831000  1.0 -0.3947941181
N  N145  1  0.25000000  0.20340000  0.50000000  1.0 -0.2809615649
N  N146  1  0.25000000  0.29660000  0.00000000  1.0 -0.2809615649
N  N147  1  0.75000000  0.79660000  0.50000000  1.0 -0.2809615649
N  N148  1  0.75000000  0.70340000  0.00000000  1.0 -0.2809615649
N  N149  1  0.23220000  0.95750000  0.22160000  1.0 0.1178103285
N  N150  1  0.26780000  0.95750000  0.77840000  1.0 0.1178103285
N  N151  1  0.26780000  0.54250000  0.72160000  1.0 0.1178103285
N  N152  1  0.23220000  0.54250000  0.27840000  1.0 0.1178103285
N  N153  1  0.76780000  0.04250000  0.77840000  1.0 0.1178103285
N  N154  1  0.73220000  0.04250000  0.22160000  1.0 0.1178103285
N  N155  1  0.73220000  0.45750000  0.27840000  1.0 0.1178103285
N  N156  1  0.76780000  0.45750000  0.72160000  1.0 0.1178103285
N  N157  1  0.23140000  0.95250000  0.28710000  1.0 0.1178103285
N  N158  1  0.26860000  0.95250000  0.71290000  1.0 0.1178103285
N  N159  1  0.26860000  0.54750000  0.78710000  1.0 0.1178103285
N  N160  1  0.23140000  0.54750000  0.21290000  1.0 0.1135426911
N  N161  1  0.76860000  0.04750000  0.71290000  1.0 0.1135426911
N  N162  1  0.73140000  0.04750000  0.28710000  1.0 0.1135426911
N  N163  1  0.73140000  0.45250000  0.21290000  1.0 0.1135426911
N  N164  1  0.76860000  0.45250000  0.78710000  1.0 0.1135426911
N  N165  1  0.75000000  0.80050000  0.00000000  1.0 -0.3001119487
N  N166  1  0.75000000  0.69950000  0.50000000  1.0 -0.3001119487
N  N167  1  0.25000000  0.19950000  0.00000000  1.0 -0.3001119487
N  N168  1  0.25000000  0.30050000  0.50000000  1.0 -0.3001119487
