# DDEC6 charges by PACMAN v1.1 (https://github.com/mtap-research/PACMAN-charge/)
data_GANBED02_FSR_pacman
_symmetry_space_group_name_H-M   'P 1'
_cell_length_a   17.11600000
_cell_length_b   22.64100000
_cell_length_c   22.80000000
_cell_angle_alpha   90.00000000
_cell_angle_beta   90.00000000
_cell_angle_gamma   90.00000000
_symmetry_Int_Tables_number   1
_chemical_formula_structural   Ni4C34N41
_chemical_formula_sum   'Ni16 C136 N164'
_cell_volume   8835.53251680
_cell_formula_units_Z   4
loop_
 _symmetry_equiv_pos_site_id
 _symmetry_equiv_pos_as_xyz
  1  'x, y, z'
loop_
 _atom_site_type_symbol
 _atom_site_label
 _atom_site_symmetry_multiplicity
 _atom_site_fract_x
 _atom_site_fract_y
 _atom_site_fract_z
 _atom_site_occupancy
 _atom_site_charge
Ni  Ni1  1  0.47401000  0.50924000  0.25790000  1.0 0.5003945345
Ni  Ni2  1  0.02599000  0.50924000  0.74210000  1.0 0.5003945345
Ni  Ni3  1  0.02599000  0.99076000  0.75790000  1.0 0.5003945345
Ni  Ni4  1  0.47401000  0.99076000  0.24210000  1.0 0.5003945345
Ni  Ni5  1  0.52599000  0.49075000  0.74210000  1.0 0.5003945345
Ni  Ni6  1  0.97401000  0.49075000  0.25790000  1.0 0.5003945345
Ni  Ni7  1  0.97401000  0.00924000  0.24210000  1.0 0.5003945345
Ni  Ni8  1  0.52599000  0.00924000  0.75790000  1.0 0.5003945345
Ni  Ni9  1  0.49687000  0.75911000  0.50790000  1.0 0.870405658
Ni  Ni10  1  0.00313000  0.75911000  0.49210000  1.0 0.870405658
Ni  Ni11  1  0.00313000  0.74089000  0.00790000  1.0 0.8769160548
Ni  Ni12  1  0.49687000  0.74089000  0.99210000  1.0 0.870405658
Ni  Ni13  1  0.50313000  0.24088000  0.49210000  1.0 0.870405658
Ni  Ni14  1  0.99687000  0.24088000  0.50790000  1.0 0.870405658
Ni  Ni15  1  0.99687000  0.25911000  0.99210000  1.0 0.870405658
Ni  Ni16  1  0.50313000  0.25911000  0.00790000  1.0 0.8769160548
C  C1  1  0.29240000  0.47520000  0.24610000  1.0 0.1778239647
C  C2  1  0.20760000  0.47520000  0.75390000  1.0 0.1778239647
C  C3  1  0.20760000  0.02480000  0.74610000  1.0 0.1778239647
C  C4  1  0.29240000  0.02480000  0.25390000  1.0 0.1778239647
C  C5  1  0.70760000  0.52480000  0.75390000  1.0 0.1778239647
C  C6  1  0.79240000  0.52480000  0.24610000  1.0 0.1778239647
C  C7  1  0.79240000  0.97521000  0.25390000  1.0 0.1778239647
C  C8  1  0.70760000  0.97521000  0.74610000  1.0 0.1778239647
C  C9  1  0.65780000  0.53211000  0.24240000  1.0 0.1778239647
C  C10  1  0.84220000  0.53211000  0.75760000  1.0 0.1778239647
C  C11  1  0.84220000  0.96789000  0.74240000  1.0 0.1778239647
C  C12  1  0.65780000  0.96789000  0.25760000  1.0 0.1778239647
C  C13  1  0.34220000  0.46790000  0.75760000  1.0 0.1737526545
C  C14  1  0.15780000  0.46790000  0.24240000  1.0 0.1737526545
C  C15  1  0.15780000  0.03211000  0.25760000  1.0 0.1737526545
C  C16  1  0.34220000  0.03211000  0.74240000  1.0 0.1737526545
C  C17  1  0.68160000  0.75751000  0.48100000  1.0 0.278428339
C  C18  1  0.81840000  0.75751000  0.51900000  1.0 0.278428339
C  C19  1  0.81840000  0.74250000  0.98100000  1.0 0.278428339
C  C20  1  0.68160000  0.74250000  0.01900000  1.0 0.278428339
C  C21  1  0.31840000  0.24249000  0.51900000  1.0 0.278428339
C  C22  1  0.18160000  0.24249000  0.48100000  1.0 0.278428339
C  C23  1  0.18160000  0.25750000  0.01900000  1.0 0.278428339
C  C24  1  0.31840000  0.25750000  0.98100000  1.0 0.278428339
C  C25  1  0.68260000  0.75840000  0.52150000  1.0 0.278428339
C  C26  1  0.81740000  0.75840000  0.47850000  1.0 0.278428339
C  C27  1  0.81740000  0.74160000  0.02150000  1.0 0.2850180903
C  C28  1  0.68260000  0.74160000  0.97850000  1.0 0.2850180903
C  C29  1  0.31740000  0.24160000  0.47850000  1.0 0.278428339
C  C30  1  0.18260000  0.24160000  0.52150000  1.0 0.278428339
C  C31  1  0.18260000  0.25840000  0.97850000  1.0 0.278428339
C  C32  1  0.31740000  0.25840000  0.02150000  1.0 0.278428339
C  C33  1  0.45843000  0.54843000  0.12154000  1.0 0.2704157757
C  C34  1  0.04157000  0.54843000  0.87846000  1.0 0.2704157757
C  C35  1  0.04157000  0.95157000  0.62154000  1.0 0.2704157757
C  C36  1  0.45843000  0.95157000  0.37846000  1.0 0.2704157757
C  C37  1  0.54157000  0.45158000  0.87846000  1.0 0.2704157757
C  C38  1  0.95843000  0.45158000  0.12154000  1.0 0.2704157757
C  C39  1  0.95843000  0.04843000  0.37846000  1.0 0.2704157757
C  C40  1  0.54157000  0.04843000  0.62154000  1.0 0.2704157757
C  C41  1  0.50465000  0.37655000  0.21137000  1.0 0.2704157757
C  C42  1  0.99535000  0.37655000  0.78863000  1.0 0.2704157757
C  C43  1  0.99535000  0.12345000  0.71137000  1.0 0.2704157757
C  C44  1  0.50465000  0.12345000  0.28863000  1.0 0.2704157757
C  C45  1  0.49535000  0.62345000  0.78863000  1.0 0.2704157757
C  C46  1  0.00465000  0.62345000  0.21137000  1.0 0.2704157757
C  C47  1  0.00465000  0.87655000  0.28863000  1.0 0.2704157757
C  C48  1  0.49535000  0.87655000  0.71137000  1.0 0.2704157757
C  C49  1  0.48447000  0.45659000  0.38886000  1.0 0.278428339
C  C50  1  0.01553000  0.45659000  0.61114000  1.0 0.278428339
C  C51  1  0.01553000  0.04342000  0.88886000  1.0 0.278428339
C  C52  1  0.48447000  0.04342000  0.11114000  1.0 0.278428339
C  C53  1  0.51553000  0.54341000  0.61114000  1.0 0.278428339
C  C54  1  0.98447000  0.54341000  0.38886000  1.0 0.278428339
C  C55  1  0.98447000  0.95659000  0.11114000  1.0 0.278428339
C  C56  1  0.51553000  0.95659000  0.88886000  1.0 0.278428339
C  C57  1  0.45681000  0.64258000  0.30498000  1.0 0.3025524528
C  C58  1  0.04319000  0.64258000  0.69502000  1.0 0.3025524528
C  C59  1  0.04319000  0.85742000  0.80498000  1.0 0.3025524528
C  C60  1  0.45681000  0.85742000  0.19502000  1.0 0.3025524528
C  C61  1  0.54319000  0.35742000  0.69502000  1.0 0.3025524528
C  C62  1  0.95681000  0.35742000  0.30498000  1.0 0.3025524528
C  C63  1  0.95681000  0.14258000  0.19502000  1.0 0.3052263299
C  C64  1  0.54319000  0.14258000  0.80498000  1.0 0.3025524528
C  C65  1  0.47214000  0.71347000  0.37553000  1.0 0.4490183467
C  C66  1  0.02786000  0.71347000  0.62447000  1.0 0.4490183467
C  C67  1  0.02786000  0.78653000  0.87553000  1.0 0.4490183467
C  C68  1  0.47214000  0.78653000  0.12447000  1.0 0.4490183467
C  C69  1  0.52786000  0.28652000  0.62447000  1.0 0.4436761552
C  C70  1  0.97214000  0.28652000  0.37553000  1.0 0.4436761552
C  C71  1  0.97214000  0.21347000  0.12447000  1.0 0.4436761552
C  C72  1  0.52786000  0.21347000  0.87553000  1.0 0.4436761552
C  C73  1  0.51022000  0.30575000  0.14055000  1.0 0.4577081541
C  C74  1  0.98978000  0.30575000  0.85945000  1.0 0.4577081541
C  C75  1  0.98978000  0.19425000  0.64055000  1.0 0.4577081541
C  C76  1  0.51022000  0.19425000  0.35945000  1.0 0.4577081541
C  C77  1  0.48978000  0.69425000  0.85945000  1.0 0.4577081541
C  C78  1  0.01022000  0.69425000  0.14055000  1.0 0.4577081541
C  C79  1  0.01022000  0.80575000  0.35945000  1.0 0.4577081541
C  C80  1  0.48978000  0.80575000  0.64055000  1.0 0.4577081541
C  C81  1  0.47024000  0.60977000  0.04261000  1.0 0.4577081541
C  C82  1  0.02976000  0.60977000  0.95739000  1.0 0.4577081541
C  C83  1  0.02976000  0.89023000  0.54261000  1.0 0.4577081541
C  C84  1  0.47024000  0.89023000  0.45739000  1.0 0.4577081541
C  C85  1  0.52976000  0.39022000  0.95739000  1.0 0.4577081541
C  C86  1  0.97024000  0.39022000  0.04261000  1.0 0.4577081541
C  C87  1  0.97024000  0.10978000  0.45739000  1.0 0.4577081541
C  C88  1  0.52976000  0.10978000  0.54261000  1.0 0.4577081541
C  C89  1  0.48744000  0.37803000  0.45213000  1.0 0.4490183467
C  C90  1  0.01256000  0.37803000  0.54787000  1.0 0.4490183467
C  C91  1  0.01256000  0.12198000  0.95213000  1.0 0.4490183467
C  C92  1  0.48744000  0.12198000  0.04787000  1.0 0.4490183467
C  C93  1  0.51256000  0.62197000  0.54787000  1.0 0.4490183467
C  C94  1  0.98744000  0.62197000  0.45213000  1.0 0.4490183467
C  C95  1  0.98744000  0.87803000  0.04787000  1.0 0.4490183467
C  C96  1  0.51256000  0.87803000  0.95213000  1.0 0.4490183467
C  C97  1  0.31582000  0.72915000  0.50702000  1.0 0.4490183467
C  C98  1  0.18418000  0.72915000  0.49298000  1.0 0.4490183467
C  C99  1  0.18418000  0.77085000  0.00702000  1.0 0.4490183467
C  C100  1  0.31582000  0.77085000  0.99298000  1.0 0.4490183467
C  C101  1  0.68418000  0.27085000  0.49298000  1.0 0.4490183467
C  C102  1  0.81582000  0.27085000  0.50702000  1.0 0.4490183467
C  C103  1  0.81582000  0.22915000  0.99298000  1.0 0.4490183467
C  C104  1  0.68418000  0.22915000  0.00702000  1.0 0.4490183467
C  C105  1  0.29330000  0.47180000  0.26030000  1.0 0.2493275205
C  C106  1  0.20670000  0.47180000  0.73970000  1.0 0.2493275205
C  C107  1  0.20670000  0.02819000  0.76030000  1.0 0.2493275205
C  C108  1  0.29330000  0.02819000  0.23970000  1.0 0.2493275205
C  C109  1  0.70670000  0.52819000  0.73970000  1.0 0.2493275205
C  C110  1  0.79330000  0.52819000  0.26030000  1.0 0.2493275205
C  C111  1  0.79330000  0.97181000  0.23970000  1.0 0.2493275205
C  C112  1  0.70670000  0.97181000  0.76030000  1.0 0.2493275205
C  C113  1  0.65940000  0.53670000  0.25490000  1.0 0.2493275205
C  C114  1  0.84060000  0.53670000  0.74510000  1.0 0.2493275205
C  C115  1  0.84060000  0.96330000  0.75490000  1.0 0.2427343914
C  C116  1  0.65940000  0.96330000  0.24510000  1.0 0.2427343914
C  C117  1  0.34060000  0.46329000  0.74510000  1.0 0.2427343914
C  C118  1  0.15940000  0.46329000  0.25490000  1.0 0.2427343914
C  C119  1  0.15940000  0.03671000  0.24510000  1.0 0.2427343914
C  C120  1  0.34060000  0.03671000  0.75490000  1.0 0.2427343914
C  C121  1  0.29320000  0.47601000  0.27380000  1.0 0.1778239647
C  C122  1  0.20680000  0.47601000  0.72620000  1.0 0.1778239647
C  C123  1  0.20680000  0.02400000  0.77380000  1.0 0.1778239647
C  C124  1  0.29320000  0.02400000  0.22620000  1.0 0.1778239647
C  C125  1  0.70680000  0.52399000  0.72620000  1.0 0.1778239647
C  C126  1  0.79320000  0.52399000  0.27380000  1.0 0.1778239647
C  C127  1  0.79320000  0.97601000  0.22620000  1.0 0.1778239647
C  C128  1  0.70680000  0.97601000  0.77380000  1.0 0.1778239647
C  C129  1  0.65860000  0.53400000  0.26910000  1.0 0.1778239647
C  C130  1  0.84140000  0.53400000  0.73090000  1.0 0.1778239647
C  C131  1  0.84140000  0.96600000  0.76910000  1.0 0.1778239647
C  C132  1  0.65860000  0.96600000  0.23090000  1.0 0.1778239647
C  C133  1  0.34140000  0.46599000  0.73090000  1.0 0.1778239647
C  C134  1  0.15860000  0.46599000  0.26910000  1.0 0.1778239647
C  C135  1  0.15860000  0.03401000  0.23090000  1.0 0.1778239647
C  C136  1  0.34140000  0.03401000  0.76910000  1.0 0.1778239647
N  N1  1  0.46120000  0.53431000  0.17021000  1.0 -0.5065124863
N  N2  1  0.03880000  0.53431000  0.82979000  1.0 -0.5065124863
N  N3  1  0.03880000  0.96569000  0.67021000  1.0 -0.5036848011
N  N4  1  0.46120000  0.96569000  0.32979000  1.0 -0.5065124863
N  N5  1  0.53880000  0.46570000  0.82979000  1.0 -0.5036848011
N  N6  1  0.96120000  0.46570000  0.17021000  1.0 -0.5036848011
N  N7  1  0.96120000  0.03431000  0.32979000  1.0 -0.5036848011
N  N8  1  0.53880000  0.03431000  0.67021000  1.0 -0.5036848011
N  N9  1  0.49155000  0.42240000  0.23124000  1.0 -0.5065124863
N  N10  1  0.00845000  0.42240000  0.76876000  1.0 -0.5065124863
N  N11  1  0.00845000  0.07760000  0.73124000  1.0 -0.5036848011
N  N12  1  0.49155000  0.07760000  0.26876000  1.0 -0.5036848011
N  N13  1  0.50845000  0.57761000  0.76876000  1.0 -0.5036848011
N  N14  1  0.99155000  0.57761000  0.23124000  1.0 -0.5036848011
N  N15  1  0.99155000  0.92240000  0.26876000  1.0 -0.5065124863
N  N16  1  0.50845000  0.92240000  0.73124000  1.0 -0.5036848011
N  N17  1  0.48589000  0.48137000  0.34500000  1.0 -0.5065124863
N  N18  1  0.01411000  0.48137000  0.65500000  1.0 -0.5065124863
N  N19  1  0.01411000  0.01863000  0.84500000  1.0 -0.5036848011
N  N20  1  0.48589000  0.01863000  0.15500000  1.0 -0.5065124863
N  N21  1  0.51411000  0.51863000  0.65500000  1.0 -0.5065124863
N  N22  1  0.98589000  0.51863000  0.34500000  1.0 -0.5065124863
N  N23  1  0.98589000  0.98137000  0.15500000  1.0 -0.5036848011
N  N24  1  0.51411000  0.98137000  0.84500000  1.0 -0.5036848011
N  N25  1  0.45850000  0.59600000  0.28468000  1.0 -0.5287076792
N  N26  1  0.04150000  0.59600000  0.71532000  1.0 -0.5287076792
N  N27  1  0.04150000  0.90400000  0.78468000  1.0 -0.5287076792
N  N28  1  0.45850000  0.90400000  0.21532000  1.0 -0.5287076792
N  N29  1  0.54150000  0.40401000  0.71532000  1.0 -0.5246665439
N  N30  1  0.95850000  0.40401000  0.28468000  1.0 -0.5287076792
N  N31  1  0.95850000  0.09599000  0.21532000  1.0 -0.5287076792
N  N32  1  0.54150000  0.09599000  0.78468000  1.0 -0.5287076792
N  N33  1  0.35422000  0.49311000  0.26240000  1.0 -0.1103752347
N  N34  1  0.14578000  0.49311000  0.73760000  1.0 -0.1103752347
N  N35  1  0.14578000  0.00690000  0.76240000  1.0 -0.1103752347
N  N36  1  0.35422000  0.00690000  0.23760000  1.0 -0.1103752347
N  N37  1  0.64578000  0.50689000  0.73760000  1.0 -0.1103752347
N  N38  1  0.85422000  0.50689000  0.26240000  1.0 -0.1103752347
N  N39  1  0.85422000  0.99310000  0.23760000  1.0 -0.1103752347
N  N40  1  0.64578000  0.99310000  0.76240000  1.0 -0.1103752347
N  N41  1  0.59402000  0.52351000  0.25377000  1.0 -0.1211845575
N  N42  1  0.90598000  0.52351000  0.74623000  1.0 -0.1211845575
N  N43  1  0.90598000  0.97649000  0.75377000  1.0 -0.1211845575
N  N44  1  0.59402000  0.97649000  0.24623000  1.0 -0.1211845575
N  N45  1  0.40598000  0.47649000  0.74623000  1.0 -0.1211845575
N  N46  1  0.09402000  0.47649000  0.25377000  1.0 -0.1211845575
N  N47  1  0.09402000  0.02352000  0.24623000  1.0 -0.1211845575
N  N48  1  0.40598000  0.02352000  0.75377000  1.0 -0.1211845575
N  N49  1  0.48904000  0.73319000  0.42048000  1.0 -0.4685956946
N  N50  1  0.01096000  0.73319000  0.57952000  1.0 -0.4685956946
N  N51  1  0.01096000  0.76682000  0.92048000  1.0 -0.4685956946
N  N52  1  0.48904000  0.76682000  0.07952000  1.0 -0.4628808221
N  N53  1  0.51096000  0.26682000  0.57952000  1.0 -0.4628808221
N  N54  1  0.98904000  0.26682000  0.42048000  1.0 -0.4628808221
N  N55  1  0.98904000  0.23319000  0.07952000  1.0 -0.4628808221
N  N56  1  0.51096000  0.23319000  0.92048000  1.0 -0.4685956946
N  N57  1  0.49784000  0.78561000  0.59467000  1.0 -0.4685956946
N  N58  1  0.00216000  0.78561000  0.40533000  1.0 -0.4685956946
N  N59  1  0.00216000  0.71439000  0.09467000  1.0 -0.4685956946
N  N60  1  0.49784000  0.71439000  0.90533000  1.0 -0.4685956946
N  N61  1  0.50216000  0.21438000  0.40533000  1.0 -0.4685956946
N  N62  1  0.99784000  0.21438000  0.59467000  1.0 -0.4685956946
N  N63  1  0.99784000  0.28562000  0.90533000  1.0 -0.4685956946
N  N64  1  0.50216000  0.28562000  0.09467000  1.0 -0.4685956946
N  N65  1  0.48470000  0.84689000  0.48161000  1.0 -0.4822824111
N  N66  1  0.01530000  0.84689000  0.51839000  1.0 -0.4822824111
N  N67  1  0.01530000  0.65311000  0.98161000  1.0 -0.4822824111
N  N68  1  0.48470000  0.65311000  0.01839000  1.0 -0.4822824111
N  N69  1  0.51530000  0.15310000  0.51839000  1.0 -0.4822824111
N  N70  1  0.98470000  0.15310000  0.48161000  1.0 -0.4822824111
N  N71  1  0.98470000  0.34690000  0.01839000  1.0 -0.4822824111
N  N72  1  0.51530000  0.34690000  0.98161000  1.0 -0.4822824111
N  N73  1  0.50864000  0.67053000  0.53252000  1.0 -0.4628808221
N  N74  1  0.99136000  0.67053000  0.46748000  1.0 -0.4628808221
N  N75  1  0.99136000  0.82947000  0.03252000  1.0 -0.4685956946
N  N76  1  0.50864000  0.82947000  0.96748000  1.0 -0.4685956946
N  N77  1  0.49136000  0.32947000  0.46748000  1.0 -0.4628808221
N  N78  1  0.00864000  0.32947000  0.53252000  1.0 -0.4628808221
N  N79  1  0.00864000  0.17053000  0.96748000  1.0 -0.4628808221
N  N80  1  0.49136000  0.17053000  0.03252000  1.0 -0.4628808221
N  N81  1  0.37718000  0.74794000  0.51345000  1.0 -0.4427448174
N  N82  1  0.12282000  0.74794000  0.48655000  1.0 -0.4427448174
N  N83  1  0.12282000  0.75206000  0.01345000  1.0 -0.4464889626
N  N84  1  0.37718000  0.75206000  0.98655000  1.0 -0.4427448174
N  N85  1  0.62282000  0.25206000  0.48655000  1.0 -0.4427448174
N  N86  1  0.87718000  0.25206000  0.51345000  1.0 -0.4427448174
N  N87  1  0.87718000  0.24793000  0.98655000  1.0 -0.4464889626
N  N88  1  0.62282000  0.24793000  0.01345000  1.0 -0.4464889626
N  N89  1  0.61909000  0.76463000  0.50218000  1.0 -0.3316793179
N  N90  1  0.88091000  0.76463000  0.49782000  1.0 -0.3316793179
N  N91  1  0.88091000  0.73537000  0.00218000  1.0 -0.3316793179
N  N92  1  0.61909000  0.73537000  0.99782000  1.0 -0.3316793179
N  N93  1  0.38091000  0.23536000  0.49782000  1.0 -0.3316793179
N  N94  1  0.11909000  0.23536000  0.50218000  1.0 -0.3316793179
N  N95  1  0.11909000  0.26464000  0.99782000  1.0 -0.3316793179
N  N96  1  0.38091000  0.26464000  0.00218000  1.0 -0.3316793179
N  N97  1  0.22810000  0.44900000  0.22850000  1.0 0.1569504777
N  N98  1  0.27190000  0.44900000  0.77150000  1.0 0.1569504777
N  N99  1  0.27190000  0.05099000  0.72850000  1.0 0.1569504777
N  N100  1  0.22810000  0.05099000  0.27150000  1.0 0.1569504777
N  N101  1  0.77190000  0.55100000  0.77150000  1.0 0.1569504777
N  N102  1  0.72810000  0.55100000  0.22850000  1.0 0.1569504777
N  N103  1  0.72810000  0.94900000  0.27150000  1.0 0.1569504777
N  N104  1  0.77190000  0.94900000  0.72850000  1.0 0.1569504777
N  N105  1  0.74880000  0.74840000  0.45480000  1.0 -0.2695705255
N  N106  1  0.75120000  0.74840000  0.54520000  1.0 -0.2695705255
N  N107  1  0.75120000  0.75160000  0.95480000  1.0 -0.2695705255
N  N108  1  0.74880000  0.75160000  0.04520000  1.0 -0.2695705255
N  N109  1  0.25120000  0.25160000  0.54520000  1.0 -0.2597351631
N  N110  1  0.24880000  0.25160000  0.45480000  1.0 -0.2597351631
N  N111  1  0.24880000  0.24841000  0.04520000  1.0 -0.2597351631
N  N112  1  0.25120000  0.24841000  0.95480000  1.0 -0.2597351631
N  N113  1  0.52162000  0.32260000  0.19490000  1.0 -0.4202482878
N  N114  1  0.97838000  0.32260000  0.80510000  1.0 -0.4202482878
N  N115  1  0.97838000  0.17741000  0.69490000  1.0 -0.4202482878
N  N116  1  0.52162000  0.17741000  0.30510000  1.0 -0.4202482878
N  N117  1  0.47838000  0.67741000  0.80510000  1.0 -0.4202482878
N  N118  1  0.02162000  0.67741000  0.19490000  1.0 -0.4202482878
N  N119  1  0.02162000  0.82260000  0.30510000  1.0 -0.4202482878
N  N120  1  0.47838000  0.82260000  0.69490000  1.0 -0.4202482878
N  N121  1  0.45124000  0.69749000  0.32250000  1.0 -0.4202482878
N  N122  1  0.04876000  0.69749000  0.67750000  1.0 -0.4140512095
N  N123  1  0.04876000  0.80251000  0.82250000  1.0 -0.4140512095
N  N124  1  0.45124000  0.80251000  0.17750000  1.0 -0.4140512095
N  N125  1  0.54876000  0.30251000  0.67750000  1.0 -0.4140512095
N  N126  1  0.95124000  0.30251000  0.32250000  1.0 -0.4140512095
N  N127  1  0.95124000  0.19750000  0.17750000  1.0 -0.4140512095
N  N128  1  0.54876000  0.19750000  0.82250000  1.0 -0.4140512095
N  N129  1  0.45139000  0.55817000  0.06499000  1.0 -0.3823621755
N  N130  1  0.04861000  0.55817000  0.93501000  1.0 -0.3823621755
N  N131  1  0.04861000  0.94184000  0.56499000  1.0 -0.3823621755
N  N132  1  0.45139000  0.94184000  0.43501000  1.0 -0.3823621755
N  N133  1  0.54861000  0.44183000  0.93501000  1.0 -0.3823621755
N  N134  1  0.95139000  0.44183000  0.06499000  1.0 -0.3823621755
N  N135  1  0.95139000  0.05817000  0.43501000  1.0 -0.3823621755
N  N136  1  0.54861000  0.05817000  0.56499000  1.0 -0.3823621755
N  N137  1  0.47993000  0.43464000  0.44196000  1.0 -0.35126001
N  N138  1  0.02007000  0.43464000  0.55804000  1.0 -0.35126001
N  N139  1  0.02007000  0.06537000  0.94196000  1.0 -0.35126001
N  N140  1  0.47993000  0.06537000  0.05804000  1.0 -0.35126001
N  N141  1  0.52007000  0.56537000  0.55804000  1.0 -0.35126001
N  N142  1  0.97993000  0.56537000  0.44196000  1.0 -0.35126001
N  N143  1  0.97993000  0.93463000  0.05804000  1.0 -0.35126001
N  N144  1  0.52007000  0.93463000  0.94196000  1.0 -0.35126001
N  N145  1  0.25000000  0.70191000  0.50000000  1.0 -0.4288337489
N  N146  1  0.25000000  0.79809000  0.00000000  1.0 -0.4202482878
N  N147  1  0.75000000  0.29809000  0.50000000  1.0 -0.4202482878
N  N148  1  0.75000000  0.20191000  0.00000000  1.0 -0.4288337489
N  N149  1  0.22900000  0.44071000  0.25630000  1.0 0.1569504777
N  N150  1  0.27100000  0.44071000  0.74370000  1.0 0.1569504777
N  N151  1  0.27100000  0.05930000  0.75630000  1.0 0.1569504777
N  N152  1  0.22900000  0.05930000  0.24370000  1.0 0.1569504777
N  N153  1  0.77100000  0.55929000  0.74370000  1.0 0.1569504777
N  N154  1  0.72900000  0.55929000  0.25630000  1.0 0.1569504777
N  N155  1  0.72900000  0.94071000  0.24370000  1.0 0.1569504777
N  N156  1  0.77100000  0.94071000  0.75630000  1.0 0.1569504777
N  N157  1  0.22820000  0.44681000  0.28510000  1.0 0.1473284738
N  N158  1  0.27180000  0.44681000  0.71490000  1.0 0.1473284738
N  N159  1  0.27180000  0.05319000  0.78510000  1.0 0.1473284738
N  N160  1  0.22820000  0.05319000  0.21490000  1.0 0.1473284738
N  N161  1  0.77180000  0.55319000  0.71490000  1.0 0.1473284738
N  N162  1  0.72820000  0.55319000  0.28510000  1.0 0.1473284738
N  N163  1  0.72820000  0.94681000  0.21490000  1.0 0.1473284738
N  N164  1  0.77180000  0.94681000  0.78510000  1.0 0.1473284738
