# DDEC6 charges by PACMAN v1.1 (https://github.com/mtap-research/PACMAN-charge/)
data_GANBAZ01_FSR_pacman
_symmetry_space_group_name_H-M   'P 1'
_cell_length_a   16.14610000
_cell_length_b   16.14610000
_cell_length_c   17.41260000
_cell_angle_alpha   90.00000000
_cell_angle_beta   90.00000000
_cell_angle_gamma   90.00000000
_symmetry_Int_Tables_number   1
_chemical_formula_structural   Mn(C8N7)2
_chemical_formula_sum   'Mn8 C128 N112'
_cell_volume   4539.40466312
_cell_formula_units_Z   8
loop_
 _symmetry_equiv_pos_site_id
 _symmetry_equiv_pos_as_xyz
  1  'x, y, z'
loop_
 _atom_site_type_symbol
 _atom_site_label
 _atom_site_symmetry_multiplicity
 _atom_site_fract_x
 _atom_site_fract_y
 _atom_site_fract_z
 _atom_site_occupancy
 _atom_site_charge
Mn  Mn1  1  0.23852000  0.77729000  0.21396000  1.0 0.4795911556
Mn  Mn2  1  0.76148000  0.22271000  0.21396000  1.0 0.4795911556
Mn  Mn3  1  0.77729000  0.76148000  0.78604000  1.0 0.4687168842
Mn  Mn4  1  0.22271000  0.23852000  0.78604000  1.0 0.4687168842
Mn  Mn5  1  0.26148000  0.27729000  0.28604000  1.0 0.4795911556
Mn  Mn6  1  0.73852000  0.72271000  0.28604000  1.0 0.4795911556
Mn  Mn7  1  0.72271000  0.26148000  0.71396000  1.0 0.4795911556
Mn  Mn8  1  0.27729000  0.73852000  0.71396000  1.0 0.4795911556
C  C1  1  0.15010000  0.96170000  0.21980000  1.0 0.4031489289
C  C2  1  0.84990000  0.03830000  0.21980000  1.0 0.4031489289
C  C3  1  0.96170000  0.84990000  0.78020000  1.0 0.4031489289
C  C4  1  0.03830000  0.15010000  0.78020000  1.0 0.4031489289
C  C5  1  0.34990000  0.46170000  0.28020000  1.0 0.4031489289
C  C6  1  0.65010000  0.53830000  0.28020000  1.0 0.4031489289
C  C7  1  0.53830000  0.34990000  0.71980000  1.0 0.4031489289
C  C8  1  0.46170000  0.65010000  0.71980000  1.0 0.4031489289
C  C9  1  0.16210000  0.09750000  0.25350000  1.0 0.3174004103
C  C10  1  0.83790000  0.90250000  0.25350000  1.0 0.3174004103
C  C11  1  0.09750000  0.83790000  0.74650000  1.0 0.3174004103
C  C12  1  0.90250000  0.16210000  0.74650000  1.0 0.3174004103
C  C13  1  0.33790000  0.59750000  0.24650000  1.0 0.3174004103
C  C14  1  0.66210000  0.40250000  0.24650000  1.0 0.3174004103
C  C15  1  0.40250000  0.33790000  0.75350000  1.0 0.314524973
C  C16  1  0.59750000  0.66210000  0.75350000  1.0 0.314524973
C  C17  1  0.20450000  0.77710000  0.40480000  1.0 0.1123590015
C  C18  1  0.79550000  0.22290000  0.40480000  1.0 0.1123590015
C  C19  1  0.77710000  0.79550000  0.59520000  1.0 0.1123590015
C  C20  1  0.22290000  0.20450000  0.59520000  1.0 0.1123590015
C  C21  1  0.29550000  0.27710000  0.09520000  1.0 0.1123590015
C  C22  1  0.70450000  0.72290000  0.09520000  1.0 0.1123590015
C  C23  1  0.72290000  0.29550000  0.90480000  1.0 0.1123590015
C  C24  1  0.27710000  0.70450000  0.90480000  1.0 0.1123590015
C  C25  1  0.22420000  0.76340000  0.53350000  1.0 0.1013314926
C  C26  1  0.77580000  0.23660000  0.53350000  1.0 0.1013314926
C  C27  1  0.76340000  0.77580000  0.46650000  1.0 0.1013314926
C  C28  1  0.23660000  0.22420000  0.46650000  1.0 0.1013314926
C  C29  1  0.27580000  0.26340000  0.96650000  1.0 0.1013314926
C  C30  1  0.72420000  0.73660000  0.96650000  1.0 0.1013314926
C  C31  1  0.73660000  0.27580000  0.03350000  1.0 0.1123590015
C  C32  1  0.26340000  0.72420000  0.03350000  1.0 0.1013314926
C  C33  1  0.05750000  0.66860000  0.21510000  1.0 0.0162860052
C  C34  1  0.94250000  0.33140000  0.21510000  1.0 0.0105686342
C  C35  1  0.66860000  0.94250000  0.78490000  1.0 0.0162860052
C  C36  1  0.33140000  0.05750000  0.78490000  1.0 0.0105686342
C  C37  1  0.44250000  0.16860000  0.28490000  1.0 0.0162860052
C  C38  1  0.55750000  0.83140000  0.28490000  1.0 0.0105686342
C  C39  1  0.83140000  0.44250000  0.71510000  1.0 0.0105686342
C  C40  1  0.16860000  0.55750000  0.71510000  1.0 0.0105686342
C  C41  1  0.92480000  0.64340000  0.25030000  1.0 0.0280711999
C  C42  1  0.07520000  0.35660000  0.25030000  1.0 0.0280711999
C  C43  1  0.64340000  0.07520000  0.74970000  1.0 0.0280711999
C  C44  1  0.35660000  0.92480000  0.74970000  1.0 0.0280711999
C  C45  1  0.57520000  0.14340000  0.24970000  1.0 0.0280711999
C  C46  1  0.42480000  0.85660000  0.24970000  1.0 0.0280711999
C  C47  1  0.85660000  0.57520000  0.75030000  1.0 0.0280711999
C  C48  1  0.14340000  0.42480000  0.75030000  1.0 0.0280711999
C  C49  1  0.21490000  0.79540000  0.40550000  1.0 0.1210787036
C  C50  1  0.78510000  0.20460000  0.40550000  1.0 0.1210787036
C  C51  1  0.79540000  0.78510000  0.59450000  1.0 0.1210787036
C  C52  1  0.20460000  0.21490000  0.59450000  1.0 0.1210787036
C  C53  1  0.28510000  0.29540000  0.09450000  1.0 0.1210787036
C  C54  1  0.71490000  0.70460000  0.09450000  1.0 0.1210787036
C  C55  1  0.70460000  0.28510000  0.90550000  1.0 0.1210787036
C  C56  1  0.29540000  0.71490000  0.90550000  1.0 0.1210787036
C  C57  1  0.28090000  0.73560000  0.03340000  1.0 0.1210787036
C  C58  1  0.71910000  0.26440000  0.03340000  1.0 0.1273379458
C  C59  1  0.73560000  0.71910000  0.96660000  1.0 0.1210787036
C  C60  1  0.26440000  0.28090000  0.96660000  1.0 0.1210787036
C  C61  1  0.21910000  0.23560000  0.46660000  1.0 0.1273379458
C  C62  1  0.78090000  0.76440000  0.46660000  1.0 0.1273379458
C  C63  1  0.76440000  0.21910000  0.53340000  1.0 0.1273379458
C  C64  1  0.23560000  0.78090000  0.53340000  1.0 0.1210787036
C  C65  1  0.20700000  0.75480000  0.40080000  1.0 0.0826099781
C  C66  1  0.79300000  0.24520000  0.40080000  1.0 0.0879123168
C  C67  1  0.75480000  0.79300000  0.59920000  1.0 0.0879123168
C  C68  1  0.24520000  0.20700000  0.59920000  1.0 0.0879123168
C  C69  1  0.29300000  0.25480000  0.09920000  1.0 0.0826099781
C  C70  1  0.70700000  0.74520000  0.09920000  1.0 0.0826099781
C  C71  1  0.74520000  0.29300000  0.90080000  1.0 0.0879123168
C  C72  1  0.25480000  0.70700000  0.90080000  1.0 0.0826099781
C  C73  1  0.24670000  0.72960000  0.02970000  1.0 0.0826099781
C  C74  1  0.75330000  0.27040000  0.02970000  1.0 0.0879123168
C  C75  1  0.72960000  0.75330000  0.97030000  1.0 0.0826099781
C  C76  1  0.27040000  0.24670000  0.97030000  1.0 0.0826099781
C  C77  1  0.25330000  0.22960000  0.47030000  1.0 0.0826099781
C  C78  1  0.74670000  0.77040000  0.47030000  1.0 0.0826099781
C  C79  1  0.77040000  0.25330000  0.52970000  1.0 0.0879123168
C  C80  1  0.22960000  0.74670000  0.52970000  1.0 0.0826099781
C  C81  1  0.23100000  0.80790000  0.40420000  1.0 0.0879123168
C  C82  1  0.76900000  0.19210000  0.40420000  1.0 0.0879123168
C  C83  1  0.80790000  0.76900000  0.59580000  1.0 0.0879123168
C  C84  1  0.19210000  0.23100000  0.59580000  1.0 0.0879123168
C  C85  1  0.26900000  0.30790000  0.09580000  1.0 0.0879123168
C  C86  1  0.73100000  0.69210000  0.09580000  1.0 0.0879123168
C  C87  1  0.69210000  0.26900000  0.90420000  1.0 0.0879123168
C  C88  1  0.30790000  0.73100000  0.90420000  1.0 0.0879123168
C  C89  1  0.28820000  0.75600000  0.03010000  1.0 0.1123590015
C  C90  1  0.71180000  0.24400000  0.03010000  1.0 0.1123590015
C  C91  1  0.75600000  0.71180000  0.96990000  1.0 0.1123590015
C  C92  1  0.24400000  0.28820000  0.96990000  1.0 0.1123590015
C  C93  1  0.21180000  0.25600000  0.46990000  1.0 0.1123590015
C  C94  1  0.78820000  0.74400000  0.46990000  1.0 0.1123590015
C  C95  1  0.74400000  0.21180000  0.53010000  1.0 0.1210787036
C  C96  1  0.25600000  0.78820000  0.53010000  1.0 0.1123590015
C  C97  1  0.05390000  0.67410000  0.20230000  1.0 0.0105686342
C  C98  1  0.94610000  0.32590000  0.20230000  1.0 0.0105686342
C  C99  1  0.67410000  0.94610000  0.79770000  1.0 0.0105686342
C  C100  1  0.32590000  0.05390000  0.79770000  1.0 0.0105686342
C  C101  1  0.44610000  0.17410000  0.29770000  1.0 0.0105686342
C  C102  1  0.55390000  0.82590000  0.29770000  1.0 0.0105686342
C  C103  1  0.82590000  0.44610000  0.70230000  1.0 0.0105686342
C  C104  1  0.17410000  0.55390000  0.70230000  1.0 0.0105686342
C  C105  1  0.42250000  0.85310000  0.25980000  1.0 0.0395450157
C  C106  1  0.57750000  0.14690000  0.25980000  1.0 0.0395450157
C  C107  1  0.85310000  0.57750000  0.74020000  1.0 0.0395450157
C  C108  1  0.14690000  0.42250000  0.74020000  1.0 0.0395450157
C  C109  1  0.07750000  0.35310000  0.24020000  1.0 0.0395450157
C  C110  1  0.92250000  0.64690000  0.24020000  1.0 0.0395450157
C  C111  1  0.64690000  0.07750000  0.75980000  1.0 0.0395450157
C  C112  1  0.35310000  0.92250000  0.75980000  1.0 0.0395450157
C  C113  1  0.06380000  0.66740000  0.23180000  1.0 0.0162860052
C  C114  1  0.93620000  0.33260000  0.23180000  1.0 0.0105686342
C  C115  1  0.66740000  0.93620000  0.76820000  1.0 0.0162860052
C  C116  1  0.33260000  0.06380000  0.76820000  1.0 0.0162860052
C  C117  1  0.43620000  0.16740000  0.26820000  1.0 0.0162860052
C  C118  1  0.56380000  0.83260000  0.26820000  1.0 0.0162860052
C  C119  1  0.83260000  0.43620000  0.73180000  1.0 0.0162860052
C  C120  1  0.16740000  0.56380000  0.73180000  1.0 0.0162860052
C  C121  1  0.42980000  0.85590000  0.23840000  1.0 0.0280711999
C  C122  1  0.57020000  0.14410000  0.23840000  1.0 0.0280711999
C  C123  1  0.85590000  0.57020000  0.76160000  1.0 0.0280711999
C  C124  1  0.14410000  0.42980000  0.76160000  1.0 0.0280711999
C  C125  1  0.07020000  0.35590000  0.26160000  1.0 0.0280711999
C  C126  1  0.92980000  0.64410000  0.26160000  1.0 0.0280711999
C  C127  1  0.64410000  0.07020000  0.73840000  1.0 0.0280711999
C  C128  1  0.35590000  0.92980000  0.73840000  1.0 0.0280711999
N  N1  1  0.22380000  0.78490000  0.33995000  1.0 -0.1421498758
N  N2  1  0.77620000  0.21510000  0.33995000  1.0 -0.1421498758
N  N3  1  0.78490000  0.77620000  0.66005000  1.0 -0.1421498758
N  N4  1  0.21510000  0.22380000  0.66005000  1.0 -0.1421498758
N  N5  1  0.27620000  0.28490000  0.16005000  1.0 -0.1421498758
N  N6  1  0.72380000  0.71510000  0.16005000  1.0 -0.1421498758
N  N7  1  0.71510000  0.27620000  0.83995000  1.0 -0.1460771152
N  N8  1  0.28490000  0.72380000  0.83995000  1.0 -0.1460771152
N  N9  1  0.11870000  0.70639000  0.20680000  1.0 -0.3085856417
N  N10  1  0.88130000  0.29361000  0.20680000  1.0 -0.3085856417
N  N11  1  0.70639000  0.88130000  0.79320000  1.0 -0.3085856417
N  N12  1  0.29361000  0.11870000  0.79320000  1.0 -0.3085856417
N  N13  1  0.38130000  0.20639000  0.29320000  1.0 -0.3085856417
N  N14  1  0.61870000  0.79361000  0.29320000  1.0 -0.3085856417
N  N15  1  0.79361000  0.38130000  0.70680000  1.0 -0.3085856417
N  N16  1  0.20639000  0.61870000  0.70680000  1.0 -0.3085856417
N  N17  1  0.17070000  0.89584000  0.20470000  1.0 -0.5507851118
N  N18  1  0.82930000  0.10416000  0.20470000  1.0 -0.5507851118
N  N19  1  0.89584000  0.82930000  0.79530000  1.0 -0.5507851118
N  N20  1  0.10416000  0.17070000  0.79530000  1.0 -0.5507851118
N  N21  1  0.32930000  0.39584000  0.29530000  1.0 -0.561143354
N  N22  1  0.67070000  0.60416000  0.29530000  1.0 -0.561143354
N  N23  1  0.60416000  0.32930000  0.70470000  1.0 -0.5507851118
N  N24  1  0.39584000  0.67070000  0.70470000  1.0 -0.561143354
N  N25  1  0.86046000  0.65640000  0.27530000  1.0 -0.3220404105
N  N26  1  0.13954000  0.34360000  0.27530000  1.0 -0.3220404105
N  N27  1  0.65640000  0.13954000  0.72470000  1.0 -0.3220404105
N  N28  1  0.34360000  0.86046000  0.72470000  1.0 -0.3220404105
N  N29  1  0.63954000  0.15640000  0.22470000  1.0 -0.3220404105
N  N30  1  0.36046000  0.84360000  0.22470000  1.0 -0.3220404105
N  N31  1  0.84360000  0.63954000  0.77530000  1.0 -0.3220404105
N  N32  1  0.15640000  0.36046000  0.77530000  1.0 -0.3220404105
N  N33  1  0.19397000  0.15797000  0.27015000  1.0 -0.4899853948
N  N34  1  0.80603000  0.84203000  0.27015000  1.0 -0.4899853948
N  N35  1  0.15797000  0.80603000  0.72985000  1.0 -0.4899853948
N  N36  1  0.84203000  0.19397000  0.72985000  1.0 -0.4899853948
N  N37  1  0.30603000  0.65797000  0.22985000  1.0 -0.4899853948
N  N38  1  0.69397000  0.34203000  0.22985000  1.0 -0.4899853948
N  N39  1  0.34203000  0.30603000  0.77015000  1.0 -0.4834560806
N  N40  1  0.65797000  0.69397000  0.77015000  1.0 -0.4899853948
N  N41  1  0.26450000  0.75440000  0.58899000  1.0 -0.1421498758
N  N42  1  0.73550000  0.24560000  0.58899000  1.0 -0.1421498758
N  N43  1  0.75440000  0.73550000  0.41101000  1.0 -0.1421498758
N  N44  1  0.24560000  0.26450000  0.41101000  1.0 -0.1421498758
N  N45  1  0.23550000  0.25440000  0.91101000  1.0 -0.1460771152
N  N46  1  0.76450000  0.74560000  0.91101000  1.0 -0.1460771152
N  N47  1  0.74560000  0.23550000  0.08899000  1.0 -0.1421498758
N  N48  1  0.25440000  0.76450000  0.08899000  1.0 -0.1460771152
N  N49  1  0.17630000  0.77460000  0.47460000  1.0 0.0826099781
N  N50  1  0.82370000  0.22540000  0.47460000  1.0 0.0826099781
N  N51  1  0.77460000  0.82370000  0.52540000  1.0 0.0826099781
N  N52  1  0.22540000  0.17630000  0.52540000  1.0 0.0826099781
N  N53  1  0.32370000  0.27460000  0.02540000  1.0 0.0694723572
N  N54  1  0.67630000  0.72540000  0.02540000  1.0 0.0826099781
N  N55  1  0.72540000  0.32370000  0.97460000  1.0 0.0826099781
N  N56  1  0.27460000  0.67630000  0.97460000  1.0 0.0826099781
N  N57  1  0.99320000  0.62000000  0.21740000  1.0 0.0105686342
N  N58  1  0.00680000  0.38000000  0.21740000  1.0 0.0105686342
N  N59  1  0.62000000  0.00680000  0.78260000  1.0 0.0162860052
N  N60  1  0.38000000  0.99320000  0.78260000  1.0 0.0162860052
N  N61  1  0.50680000  0.12000000  0.28260000  1.0 0.0105686342
N  N62  1  0.49320000  0.88000000  0.28260000  1.0 0.0105686342
N  N63  1  0.88000000  0.50680000  0.71740000  1.0 0.0105686342
N  N64  1  0.12000000  0.49320000  0.71740000  1.0 0.0105686342
N  N65  1  0.11730000  0.03300000  0.23390000  1.0 -0.423273241
N  N66  1  0.88270000  0.96700000  0.23390000  1.0 -0.4252509231
N  N67  1  0.03300000  0.88270000  0.76610000  1.0 -0.423273241
N  N68  1  0.96700000  0.11730000  0.76610000  1.0 -0.423273241
N  N69  1  0.38270000  0.53300000  0.26610000  1.0 -0.423273241
N  N70  1  0.61730000  0.46700000  0.26610000  1.0 -0.423273241
N  N71  1  0.46700000  0.38270000  0.73390000  1.0 -0.423273241
N  N72  1  0.53300000  0.61730000  0.73390000  1.0 -0.423273241
N  N73  1  0.19170000  0.80790000  0.47600000  1.0 0.0694723572
N  N74  1  0.80830000  0.19210000  0.47600000  1.0 0.0694723572
N  N75  1  0.80790000  0.80830000  0.52400000  1.0 0.0694723572
N  N76  1  0.19210000  0.19170000  0.52400000  1.0 0.0694723572
N  N77  1  0.30830000  0.30790000  0.02400000  1.0 0.0694723572
N  N78  1  0.69170000  0.69210000  0.02400000  1.0 0.0694723572
N  N79  1  0.69210000  0.30830000  0.97600000  1.0 0.0694723572
N  N80  1  0.30790000  0.69170000  0.97600000  1.0 0.0694723572
N  N81  1  0.18310000  0.73520000  0.46970000  1.0 0.0455012864
N  N82  1  0.81690000  0.26480000  0.46970000  1.0 0.0455012864
N  N83  1  0.73520000  0.81690000  0.53030000  1.0 0.0395450157
N  N84  1  0.26480000  0.18310000  0.53030000  1.0 0.0395450157
N  N85  1  0.31690000  0.23520000  0.03030000  1.0 0.0395450157
N  N86  1  0.68310000  0.76480000  0.03030000  1.0 0.0395450157
N  N87  1  0.76480000  0.31690000  0.96970000  1.0 0.0395450157
N  N88  1  0.23520000  0.68310000  0.96970000  1.0 0.0395450157
N  N89  1  0.22620000  0.83330000  0.47480000  1.0 0.0162860052
N  N90  1  0.77380000  0.16670000  0.47480000  1.0 0.0105686342
N  N91  1  0.83330000  0.77380000  0.52520000  1.0 0.003296802
N  N92  1  0.16670000  0.22620000  0.52520000  1.0 0.003296802
N  N93  1  0.27380000  0.33333333  0.02520000  1.0 0.0105686342
N  N94  1  0.72620000  0.66666667  0.02520000  1.0 0.0105686342
N  N95  1  0.66666667  0.27380000  0.97480000  1.0 0.0105686342
N  N96  1  0.33333333  0.72620000  0.97480000  1.0 0.0105686342
N  N97  1  0.48460000  0.86590000  0.30570000  1.0 -0.029206922
N  N98  1  0.51540000  0.13410000  0.30570000  1.0 -0.029206922
N  N99  1  0.86590000  0.51540000  0.69430000  1.0 -0.0211370269
N  N100  1  0.13410000  0.48460000  0.69430000  1.0 -0.029206922
N  N101  1  0.01540000  0.36590000  0.19430000  1.0 -0.0211370269
N  N102  1  0.98460000  0.63410000  0.19430000  1.0 -0.0211370269
N  N103  1  0.63410000  0.01540000  0.80570000  1.0 -0.0211370269
N  N104  1  0.36590000  0.98460000  0.80570000  1.0 -0.0211370269
N  N105  1  0.50430000  0.88340000  0.25060000  1.0 0.0395450157
N  N106  1  0.49570000  0.11660000  0.25060000  1.0 0.0395450157
N  N107  1  0.88340000  0.49570000  0.74940000  1.0 0.0395450157
N  N108  1  0.11660000  0.50430000  0.74940000  1.0 0.0395450157
N  N109  1  0.99570000  0.38340000  0.24940000  1.0 0.0280711999
N  N110  1  0.00430000  0.61660000  0.24940000  1.0 0.0280711999
N  N111  1  0.61660000  0.99570000  0.75060000  1.0 0.0280711999
N  N112  1  0.38340000  0.00430000  0.75060000  1.0 0.0280711999
