# DDEC6 charges by PACMAN v1.1 (https://github.com/mtap-research/PACMAN-charge/)
data_GANTOH_FSR_pacman
_symmetry_space_group_name_H-M   'P 1'
_cell_length_a   10.09900000
_cell_length_b   11.88100000
_cell_length_c   16.86800000
_cell_angle_alpha   76.62000000
_cell_angle_beta   78.22000000
_cell_angle_gamma   86.49000000
_symmetry_Int_Tables_number   1
_chemical_formula_structural   Co2H29C39S2(N2O5)2
_chemical_formula_sum   'Co4 H58 C78 S4 N8 O20'
_cell_volume   1927.31432713
_cell_formula_units_Z   2
loop_
 _symmetry_equiv_pos_site_id
 _symmetry_equiv_pos_as_xyz
  1  'x, y, z'
loop_
 _atom_site_type_symbol
 _atom_site_label
 _atom_site_symmetry_multiplicity
 _atom_site_fract_x
 _atom_site_fract_y
 _atom_site_fract_z
 _atom_site_occupancy
 _atom_site_charge
Co  Co1  1  0.24184000  0.02050000  0.48790000  1.0 0.9185784402
Co  Co2  1  0.26401000  0.52726000  0.98815000  1.0 0.9075396898
Co  Co3  1  0.75816000  0.97950000  0.51210000  1.0 0.9185784402
Co  Co4  1  0.73599000  0.47274000  0.01185000  1.0 0.9075396898
H  H1  1  0.03000000  0.61100000  0.94200000  1.0 0.390417585
H  H2  1  0.12300000  0.72400000  0.94000000  1.0 0.4006496164
H  H3  1  0.41800000  0.17600000  0.36700000  1.0 0.4006496164
H  H4  1  0.50100000  0.10200000  0.43900000  1.0 0.390417585
H  H5  1  0.38040000  0.59950000  0.52310000  1.0 0.1008036816
H  H6  1  0.97590000  0.71100000  0.44180000  1.0 0.1189588894
H  H7  1  0.48710000  0.47170000  0.23500000  1.0 0.1189588894
H  H8  1  0.13300000  0.37230000  0.39580000  1.0 0.1084925706
H  H9  1  0.04850000  0.33860000  0.28500000  1.0 0.1084925706
H  H10  1  0.08160000  0.02550000  0.34380000  1.0 0.1189588894
H  H11  1  0.08770000  0.93350000  0.23710000  1.0 0.1358890178
H  H12  1  0.43720000  0.78320000  0.27960000  1.0 0.1301442153
H  H13  1  0.42350000  0.87470000  0.38620000  1.0 0.1084925706
H  H14  1  0.45790000  0.67590000  0.04330000  1.0 0.1189588894
H  H15  1  0.45850000  0.78810000  0.13490000  1.0 0.1301442153
H  H16  1  0.06070000  0.74420000  0.20990000  1.0 0.1301442153
H  H17  1  0.07090000  0.62820000  0.11700000  1.0 0.1008036816
H  H18  1  0.32540000  0.24910000  0.51470000  1.0 0.1008036816
H  H19  1  0.32130000  0.35430000  0.61130000  1.0 0.1301442153
H  H20  1  0.19000000  0.07630000  0.78610000  1.0 0.1301442153
H  H21  1  0.20180000  0.97660000  0.68420000  1.0 0.1189588894
H  H22  1  0.23310000  0.55510000  0.80620000  1.0 0.1189588894
H  H23  1  0.23100000  0.45790000  0.70590000  1.0 0.1301442153
H  H24  1  0.25160000  0.16500000  0.87500000  1.0 0.1189588894
H  H25  1  0.25020000  0.27280000  0.96990000  1.0 0.1189588894
H  H26  1  0.31400000  0.52250000  0.42340000  1.0 0.1008036816
H  H27  1  0.10690000  0.57190000  0.38690000  1.0 0.1084925706
H  H28  1  0.34340000  0.53870000  0.33970000  1.0 0.0836308616
H  H29  1  0.03170000  0.42280000  0.26110000  1.0 0.1008036816
H  H30  1  0.97000000  0.38900000  0.05800000  1.0 0.390417585
H  H31  1  0.87700000  0.27600000  0.06000000  1.0 0.4006496164
H  H32  1  0.58200000  0.82400000  0.63300000  1.0 0.4006496164
H  H33  1  0.49900000  0.89800000  0.56100000  1.0 0.390417585
H  H34  1  0.61960000  0.40050000  0.47690000  1.0 0.1008036816
H  H35  1  0.02410000  0.28900000  0.55820000  1.0 0.1189588894
H  H36  1  0.51290000  0.52830000  0.76500000  1.0 0.1189588894
H  H37  1  0.86700000  0.62770000  0.60420000  1.0 0.1084925706
H  H38  1  0.95150000  0.66140000  0.71500000  1.0 0.1084925706
H  H39  1  0.91840000  0.97450000  0.65620000  1.0 0.1189588894
H  H40  1  0.91230000  0.06650000  0.76290000  1.0 0.1358890178
H  H41  1  0.56280000  0.21680000  0.72040000  1.0 0.1301442153
H  H42  1  0.57650000  0.12530000  0.61380000  1.0 0.1084925706
H  H43  1  0.54210000  0.32410000  0.95670000  1.0 0.1189588894
H  H44  1  0.54150000  0.21190000  0.86510000  1.0 0.1301442153
H  H45  1  0.93930000  0.25580000  0.79010000  1.0 0.1301442153
H  H46  1  0.92910000  0.37180000  0.88300000  1.0 0.1008036816
H  H47  1  0.67460000  0.75090000  0.48530000  1.0 0.1008036816
H  H48  1  0.67870000  0.64570000  0.38870000  1.0 0.1301442153
H  H49  1  0.81000000  0.92370000  0.21390000  1.0 0.1301442153
H  H50  1  0.79820000  0.02340000  0.31580000  1.0 0.1189588894
H  H51  1  0.76690000  0.44490000  0.19380000  1.0 0.1189588894
H  H52  1  0.76900000  0.54210000  0.29410000  1.0 0.1301442153
H  H53  1  0.74840000  0.83500000  0.12500000  1.0 0.1189588894
H  H54  1  0.74980000  0.72720000  0.03010000  1.0 0.1189588894
H  H55  1  0.68600000  0.47750000  0.57660000  1.0 0.1008036816
H  H56  1  0.89310000  0.42810000  0.61310000  1.0 0.1084925706
H  H57  1  0.65660000  0.46130000  0.66030000  1.0 0.0836308616
H  H58  1  0.96830000  0.57720000  0.73890000  1.0 0.1008036816
C  C1  1  0.01700000  0.84730000  0.53620000  1.0 0.55072158
C  C2  1  0.29210000  0.77670000  0.58350000  1.0 0.5589150729
C  C3  1  0.15420000  0.33850000  0.13320000  1.0 0.55072158
C  C4  1  0.45030000  0.40530000  0.10260000  1.0 0.5830521526
C  C5  1  0.10300000  0.74720000  0.50910000  1.0 -0.0504939912
C  C6  1  0.22710000  0.71590000  0.53220000  1.0 -0.0315380405
C  C7  1  0.30180000  0.62640000  0.50390000  1.0 -0.2113381235
C  C8  1  0.25900000  0.57700000  0.44650000  1.0 -0.1200144153
C  C9  1  0.13690000  0.60730000  0.42360000  1.0 -0.1200144153
C  C10  1  0.05990000  0.69120000  0.45610000  1.0 -0.2113381235
C  C11  1  0.22020000  0.37370000  0.19760000  1.0 -0.0102331051
C  C12  1  0.35430000  0.40800000  0.18290000  1.0 -0.1200144153
C  C13  1  0.40000000  0.44340000  0.24480000  1.0 -0.1200144153
C  C14  1  0.31330000  0.43640000  0.32350000  1.0 -0.0180186002
C  C15  1  0.18400000  0.38740000  0.34210000  1.0 -0.0315380405
C  C16  1  0.13710000  0.36280000  0.27660000  1.0 -0.0387047605
C  C17  1  0.15240000  0.97440000  0.33200000  1.0 0.1084925706
C  C18  1  0.15620000  0.91950000  0.26780000  1.0 -0.1663292108
C  C19  1  0.26010000  0.84450000  0.24890000  1.0 0.1008036816
C  C20  1  0.36270000  0.83020000  0.29290000  1.0 -0.1786161607
C  C21  1  0.35410000  0.88560000  0.35640000  1.0 0.0902120851
C  C22  1  0.37660000  0.68960000  0.07740000  1.0 0.1008036816
C  C23  1  0.37820000  0.75570000  0.13260000  1.0 -0.1786161607
C  C24  1  0.26030000  0.77480000  0.18550000  1.0 0.1008036816
C  C25  1  0.14320000  0.72950000  0.17730000  1.0 -0.1927065534
C  C26  1  0.14970000  0.66210000  0.12030000  1.0 0.0542494672
C  C27  1  0.29730000  0.21330000  0.57040000  1.0 0.072988957
C  C28  1  0.29500000  0.27740000  0.62830000  1.0 -0.2284416986
C  C29  1  0.25340000  0.22810000  0.71260000  1.0 0.1008036816
C  C30  1  0.21840000  0.11420000  0.73090000  1.0 -0.1927065534
C  C31  1  0.22460000  0.05440000  0.66910000  1.0 0.0902120851
C  C32  1  0.23770000  0.47470000  0.82030000  1.0 0.072988957
C  C33  1  0.23740000  0.41680000  0.75910000  1.0 -0.2113381235
C  C34  1  0.24660000  0.29750000  0.77600000  1.0 0.0902120851
C  C35  1  0.24910000  0.24520000  0.85840000  1.0 -0.2113381235
C  C36  1  0.24800000  0.31120000  0.91540000  1.0 0.0902120851
C  C37  1  0.31600000  0.48900000  0.31060000  1.0 -0.0102331051
C  C38  1  0.18500000  0.44500000  0.32200000  1.0 0.0045560196
C  C39  1  0.12400000  0.41600000  0.26100000  1.0 -0.0387047605
C  C40  1  0.98300000  0.15270000  0.46380000  1.0 0.55072158
C  C41  1  0.70790000  0.22330000  0.41650000  1.0 0.5589150729
C  C42  1  0.84580000  0.66150000  0.86680000  1.0 0.55072158
C  C43  1  0.54970000  0.59470000  0.89740000  1.0 0.5830521526
C  C44  1  0.89700000  0.25280000  0.49090000  1.0 -0.0504939912
C  C45  1  0.77290000  0.28410000  0.46780000  1.0 -0.0315380405
C  C46  1  0.69820000  0.37360000  0.49610000  1.0 -0.2113381235
C  C47  1  0.74100000  0.42300000  0.55350000  1.0 -0.1200144153
C  C48  1  0.86310000  0.39270000  0.57640000  1.0 -0.1200144153
C  C49  1  0.94010000  0.30880000  0.54390000  1.0 -0.2113381235
C  C50  1  0.77980000  0.62630000  0.80240000  1.0 -0.0102331051
C  C51  1  0.64570000  0.59200000  0.81710000  1.0 -0.1200144153
C  C52  1  0.60000000  0.55660000  0.75520000  1.0 -0.1200144153
C  C53  1  0.68670000  0.56360000  0.67650000  1.0 -0.0180186002
C  C54  1  0.81600000  0.61260000  0.65790000  1.0 -0.0315380405
C  C55  1  0.86290000  0.63720000  0.72340000  1.0 -0.0387047605
C  C56  1  0.84760000  0.02560000  0.66800000  1.0 0.1084925706
C  C57  1  0.84380000  0.08050000  0.73220000  1.0 -0.1663292108
C  C58  1  0.73990000  0.15550000  0.75110000  1.0 0.1008036816
C  C59  1  0.63730000  0.16980000  0.70710000  1.0 -0.1786161607
C  C60  1  0.64590000  0.11440000  0.64360000  1.0 0.0902120851
C  C61  1  0.62340000  0.31040000  0.92260000  1.0 0.1008036816
C  C62  1  0.62180000  0.24430000  0.86740000  1.0 -0.1786161607
C  C63  1  0.73970000  0.22520000  0.81450000  1.0 0.1008036816
C  C64  1  0.85680000  0.27050000  0.82270000  1.0 -0.1927065534
C  C65  1  0.85030000  0.33790000  0.87970000  1.0 0.0561027656
C  C66  1  0.70270000  0.78670000  0.42960000  1.0 0.072988957
C  C67  1  0.70500000  0.72260000  0.37170000  1.0 -0.2284416986
C  C68  1  0.74660000  0.77190000  0.28740000  1.0 0.1008036816
C  C69  1  0.78160000  0.88580000  0.26910000  1.0 -0.1927065534
C  C70  1  0.77540000  0.94560000  0.33090000  1.0 0.0902120851
C  C71  1  0.76230000  0.52530000  0.17970000  1.0 0.072988957
C  C72  1  0.76260000  0.58320000  0.24090000  1.0 -0.2113381235
C  C73  1  0.75340000  0.70250000  0.22400000  1.0 0.0902120851
C  C74  1  0.75090000  0.75480000  0.14160000  1.0 -0.2113381235
C  C75  1  0.75200000  0.68880000  0.08460000  1.0 0.0902120851
C  C76  1  0.68400000  0.51100000  0.68940000  1.0 -0.0102331051
C  C77  1  0.81500000  0.55500000  0.67800000  1.0 0.005371888
C  C78  1  0.87600000  0.58400000  0.73900000  1.0 -0.0387047605
S  S1  1  0.38302000  0.48122000  0.39983000  1.0 -0.0180186002
S  S2  1  0.04570000  0.51140000  0.39060000  1.0 -0.0387047605
S  S3  1  0.61698000  0.51878000  0.60017000  1.0 -0.0180186002
S  S4  1  0.95430000  0.48860000  0.60940000  1.0 -0.0387047605
N  N1  1  0.24910000  0.95530000  0.37740000  1.0 -0.2425229458
N  N2  1  0.26520000  0.64330000  0.06940000  1.0 -0.2474042831
N  N3  1  0.26210000  0.10400000  0.58840000  1.0 -0.2113381235
N  N4  1  0.24410000  0.42420000  0.89850000  1.0 -0.2246909124
N  N5  1  0.75090000  0.04470000  0.62260000  1.0 -0.2425229458
N  N6  1  0.73480000  0.35670000  0.93060000  1.0 -0.2474042831
N  N7  1  0.73790000  0.89600000  0.41160000  1.0 -0.2113381235
N  N8  1  0.75590000  0.57580000  0.10150000  1.0 -0.2246909124
O  O1  1  0.07670000  0.92240000  0.55708000  1.0 -0.5646059123
O  O2  1  0.89450000  0.84340000  0.53840000  1.0 -0.5388493595
O  O3  1  0.34960000  0.87370000  0.54540000  1.0 -0.5945698676
O  O4  1  0.29150000  0.73140000  0.65470000  1.0 -0.50315029
O  O5  1  0.11900000  0.41930000  0.07630000  1.0 -0.5821203647
O  O6  1  0.13310000  0.23730000  0.14330000  1.0 -0.4873268662
O  O7  1  0.40030000  0.41210000  0.03926000  1.0 -0.5646059123
O  O8  1  0.57340000  0.39590000  0.10440000  1.0 -0.5334615169
O  O9  1  0.12010000  0.63920000  0.94260000  1.0 -0.7829562483
O  O10  1  0.41170000  0.10950000  0.41870000  1.0 -0.7937646566
O  O11  1  0.92330000  0.07760000  0.44292000  1.0 -0.5646059123
O  O12  1  0.10550000  0.15660000  0.46160000  1.0 -0.5388493595
O  O13  1  0.65040000  0.12630000  0.45460000  1.0 -0.5945698676
O  O14  1  0.70850000  0.26860000  0.34530000  1.0 -0.50315029
O  O15  1  0.88100000  0.58070000  0.92370000  1.0 -0.5821203647
O  O16  1  0.86690000  0.76270000  0.85670000  1.0 -0.4873268662
O  O17  1  0.59970000  0.58790000  0.96074000  1.0 -0.5646059123
O  O18  1  0.42660000  0.60410000  0.89560000  1.0 -0.5334615169
O  O19  1  0.87990000  0.36080000  0.05740000  1.0 -0.7829562483
O  O20  1  0.58830000  0.89050000  0.58130000  1.0 -0.7937646566
