# DDEC6 charges by PACMAN v1.1 (https://github.com/mtap-research/PACMAN-charge/)
data_GAPDEH_ASR_pacman
_symmetry_space_group_name_H-M   'P 1'
_cell_length_a   10.18600000
_cell_length_b   10.18600000
_cell_length_c   24.36700000
_cell_angle_alpha   90.00000000
_cell_angle_beta   90.00000000
_cell_angle_gamma   90.00000000
_symmetry_Int_Tables_number   1
_chemical_formula_structural   K2CdH6C16(NO6)2
_chemical_formula_sum   'K8 Cd4 H24 C64 N8 O48'
_cell_volume   2528.18824073
_cell_formula_units_Z   4
loop_
 _symmetry_equiv_pos_site_id
 _symmetry_equiv_pos_as_xyz
  1  'x, y, z'
loop_
 _atom_site_type_symbol
 _atom_site_label
 _atom_site_symmetry_multiplicity
 _atom_site_fract_x
 _atom_site_fract_y
 _atom_site_fract_z
 _atom_site_occupancy
 _atom_site_charge
K  K1  1  0.53460000  0.82070000  0.91110000  1.0 0.7185930023
K  K2  1  0.46540000  0.17930000  0.41110000  1.0 0.7185930023
K  K3  1  0.17930000  0.53460000  0.16110000  1.0 0.7185930023
K  K4  1  0.82070000  0.46540000  0.66110000  1.0 0.7185930023
K  K5  1  0.79640000  0.88834000  0.91041000  1.0 0.8217983553
K  K6  1  0.20360000  0.11166000  0.41041000  1.0 0.8217983553
K  K7  1  0.11166000  0.79640000  0.16041000  1.0 0.8217983553
K  K8  1  0.88834000  0.20360000  0.66041000  1.0 0.8217983553
Cd  Cd1  1  0.09765000  0.76130000  0.00090000  1.0 0.9823607961
Cd  Cd2  1  0.90235000  0.23870000  0.50090000  1.0 0.9823607961
Cd  Cd3  1  0.23870000  0.09765000  0.25090000  1.0 0.9823607961
Cd  Cd4  1  0.76130000  0.90235000  0.75090000  1.0 0.9823607961
H  H1  1  0.07330000  0.46220000  0.84720000  1.0 0.1409521857
H  H2  1  0.92670000  0.53780000  0.34720000  1.0 0.1409521857
H  H3  1  0.53780000  0.07330000  0.09720000  1.0 0.1409521857
H  H4  1  0.46220000  0.92670000  0.59720000  1.0 0.1409521857
H  H5  1  0.07760000  0.06170000  0.84760000  1.0 0.1409521857
H  H6  1  0.92240000  0.93830000  0.34760000  1.0 0.1409521857
H  H7  1  0.93830000  0.07760000  0.09760000  1.0 0.1409521857
H  H8  1  0.06170000  0.92240000  0.59760000  1.0 0.1409521857
H  H9  1  0.09350000  0.26450000  0.99190000  1.0 0.1267788941
H  H10  1  0.90650000  0.73550000  0.49190000  1.0 0.1267788941
H  H11  1  0.73550000  0.09350000  0.24190000  1.0 0.1267788941
H  H12  1  0.26450000  0.90650000  0.74190000  1.0 0.1267788941
H  H13  1  0.79670000  0.74960000  0.15700000  1.0 0.1267788941
H  H14  1  0.20330000  0.25040000  0.65700000  1.0 0.1267788941
H  H15  1  0.25040000  0.79670000  0.40700000  1.0 0.1267788941
H  H16  1  0.74960000  0.20330000  0.90700000  1.0 0.1267788941
H  H17  1  0.39520000  0.74460000  0.15190000  1.0 0.106603154
H  H18  1  0.60480000  0.25540000  0.65190000  1.0 0.106603154
H  H19  1  0.25540000  0.39520000  0.40190000  1.0 0.106603154
H  H20  1  0.74460000  0.60480000  0.90190000  1.0 0.106603154
H  H21  1  0.60430000  0.75430000  0.01170000  1.0 0.0864941189
H  H22  1  0.39570000  0.24570000  0.51170000  1.0 0.0864941189
H  H23  1  0.24570000  0.60430000  0.26170000  1.0 0.0864941189
H  H24  1  0.75430000  0.39570000  0.76170000  1.0 0.0864941189
C  C1  1  0.09070000  0.50880000  0.95610000  1.0 0.5425068447
C  C2  1  0.90930000  0.49120000  0.45610000  1.0 0.5425068447
C  C3  1  0.49120000  0.09070000  0.20610000  1.0 0.5425068447
C  C4  1  0.50880000  0.90930000  0.70610000  1.0 0.5425068447
C  C5  1  0.08560000  0.38050000  0.92370000  1.0 -0.0116216237
C  C6  1  0.91440000  0.61950000  0.42370000  1.0 -0.0116216237
C  C7  1  0.61950000  0.08560000  0.17370000  1.0 -0.0116216237
C  C8  1  0.38050000  0.91440000  0.67370000  1.0 -0.0116216237
C  C9  1  0.07580000  0.38090000  0.86710000  1.0 -0.1465299269
C  C10  1  0.92420000  0.61910000  0.36710000  1.0 -0.1465299269
C  C11  1  0.61910000  0.07580000  0.11710000  1.0 -0.1465299269
C  C12  1  0.38090000  0.92420000  0.61710000  1.0 -0.1465299269
C  C13  1  0.07350000  0.26350000  0.84080000  1.0 0.0588555196
C  C14  1  0.92650000  0.73650000  0.34080000  1.0 0.0588555196
C  C15  1  0.73650000  0.07350000  0.09080000  1.0 0.0588555196
C  C16  1  0.26350000  0.92650000  0.59080000  1.0 0.0588555196
C  C17  1  0.08110000  0.14200000  0.86820000  1.0 -0.1578911534
C  C18  1  0.91890000  0.85800000  0.36820000  1.0 -0.1578911534
C  C19  1  0.85800000  0.08110000  0.11820000  1.0 -0.1578911534
C  C20  1  0.14200000  0.91890000  0.61820000  1.0 -0.1578911534
C  C21  1  0.08960000  0.14200000  0.92350000  1.0 0.0008863436
C  C22  1  0.91040000  0.85800000  0.42350000  1.0 0.0008863436
C  C23  1  0.85800000  0.08960000  0.17350000  1.0 0.0008863436
C  C24  1  0.14200000  0.91040000  0.67350000  1.0 0.0008863436
C  C25  1  0.09160000  0.26310000  0.95250000  1.0 -0.1049775546
C  C26  1  0.90840000  0.73690000  0.45250000  1.0 -0.1049775546
C  C27  1  0.73690000  0.09160000  0.20250000  1.0 -0.1049775546
C  C28  1  0.26310000  0.90840000  0.70250000  1.0 -0.1060547894
C  C29  1  0.09960000  0.01320000  0.95390000  1.0 0.5425068447
C  C30  1  0.90040000  0.98680000  0.45390000  1.0 0.5425068447
C  C31  1  0.98680000  0.09960000  0.20390000  1.0 0.5425068447
C  C32  1  0.01320000  0.90040000  0.70390000  1.0 0.5425068447
C  C33  1  0.85120000  0.75430000  0.04960000  1.0 0.5650893757
C  C34  1  0.14880000  0.24570000  0.54960000  1.0 0.5650893757
C  C35  1  0.24570000  0.85120000  0.29960000  1.0 0.5650893757
C  C36  1  0.75430000  0.14880000  0.79960000  1.0 0.5650893757
C  C37  1  0.72090000  0.74850000  0.07890000  1.0 0.0008863436
C  C38  1  0.27910000  0.25150000  0.57890000  1.0 0.0008863436
C  C39  1  0.25150000  0.72090000  0.32890000  1.0 0.0008863436
C  C40  1  0.74850000  0.27910000  0.82890000  1.0 0.0008863436
C  C41  1  0.71660000  0.74570000  0.13630000  1.0 -0.1655514827
C  C42  1  0.28340000  0.25430000  0.63630000  1.0 -0.1655514827
C  C43  1  0.25430000  0.71660000  0.38630000  1.0 -0.1655514827
C  C44  1  0.74570000  0.28340000  0.88630000  1.0 -0.1655514827
C  C45  1  0.59640000  0.74210000  0.16300000  1.0 0.0392348962
C  C46  1  0.40360000  0.25790000  0.66300000  1.0 0.0392348962
C  C47  1  0.25790000  0.59640000  0.41300000  1.0 0.0392348962
C  C48  1  0.74210000  0.40360000  0.91300000  1.0 0.0392348962
C  C49  1  0.47810000  0.74450000  0.13310000  1.0 -0.179925709
C  C50  1  0.52190000  0.25550000  0.63310000  1.0 -0.179925709
C  C51  1  0.25550000  0.47810000  0.38310000  1.0 -0.179925709
C  C52  1  0.74450000  0.52190000  0.88310000  1.0 -0.179925709
C  C53  1  0.48100000  0.74580000  0.07550000  1.0 0.0008863436
C  C54  1  0.51900000  0.25420000  0.57550000  1.0 0.0008863436
C  C55  1  0.25420000  0.48100000  0.32550000  1.0 0.0008863436
C  C56  1  0.74580000  0.51900000  0.82550000  1.0 0.0008863436
C  C57  1  0.60210000  0.74900000  0.04900000  1.0 -0.130413021
C  C58  1  0.39790000  0.25100000  0.54900000  1.0 -0.130413021
C  C59  1  0.25100000  0.60210000  0.29900000  1.0 -0.130413021
C  C60  1  0.74900000  0.39790000  0.79900000  1.0 -0.130413021
C  C61  1  0.35500000  0.75310000  0.04310000  1.0 0.5866422961
C  C62  1  0.64500000  0.24690000  0.54310000  1.0 0.5866422961
C  C63  1  0.24690000  0.35500000  0.29310000  1.0 0.5866422961
C  C64  1  0.75310000  0.64500000  0.79310000  1.0 0.5866422961
N  N1  1  0.05980000  0.25890000  0.78090000  1.0 0.5022077868
N  N2  1  0.94020000  0.74110000  0.28090000  1.0 0.5022077868
N  N3  1  0.74110000  0.05980000  0.03090000  1.0 0.5022077868
N  N4  1  0.25890000  0.94020000  0.53090000  1.0 0.5022077868
N  N5  1  0.59020000  0.73620000  0.22070000  1.0 0.4787881682
N  N6  1  0.40980000  0.26380000  0.72070000  1.0 0.4787881682
N  N7  1  0.26380000  0.59020000  0.47070000  1.0 0.4787881682
N  N8  1  0.73620000  0.40980000  0.97070000  1.0 0.4787881682
O  O1  1  0.09850000  0.50990000  0.00570000  1.0 -0.5308730891
O  O2  1  0.90150000  0.49010000  0.50570000  1.0 -0.5308730891
O  O3  1  0.49010000  0.09850000  0.25570000  1.0 -0.5308730891
O  O4  1  0.50990000  0.90150000  0.75570000  1.0 -0.5308730891
O  O5  1  0.08740000  0.61580000  0.92840000  1.0 -0.5597124587
O  O6  1  0.91260000  0.38420000  0.42840000  1.0 -0.5597124587
O  O7  1  0.38420000  0.08740000  0.17840000  1.0 -0.5597124587
O  O8  1  0.61580000  0.91260000  0.67840000  1.0 -0.5597124587
O  O9  1  0.13770000  0.01240000  0.00180000  1.0 -0.5170636615
O  O10  1  0.86230000  0.98760000  0.50180000  1.0 -0.5170636615
O  O11  1  0.98760000  0.13770000  0.25180000  1.0 -0.5170636615
O  O12  1  0.01240000  0.86230000  0.75180000  1.0 -0.5170636615
O  O13  1  0.06600000  0.91210000  0.92970000  1.0 -0.5597124587
O  O14  1  0.93400000  0.08790000  0.42970000  1.0 -0.5597124587
O  O15  1  0.08790000  0.06600000  0.17970000  1.0 -0.5597124587
O  O16  1  0.91210000  0.93400000  0.67970000  1.0 -0.5597124587
O  O17  1  0.04580000  0.36400000  0.75560000  1.0 -0.3752780845
O  O18  1  0.95420000  0.63600000  0.25560000  1.0 -0.3752780845
O  O19  1  0.63600000  0.04580000  0.00560000  1.0 -0.3745209267
O  O20  1  0.36400000  0.95420000  0.50560000  1.0 -0.3752780845
O  O21  1  0.05880000  0.15700000  0.75780000  1.0 -0.290112163
O  O22  1  0.94120000  0.84300000  0.25780000  1.0 -0.290112163
O  O23  1  0.84300000  0.05880000  0.00780000  1.0 -0.290112163
O  O24  1  0.15700000  0.94120000  0.50780000  1.0 -0.290112163
O  O25  1  0.85280000  0.75830000  0.00050000  1.0 -0.5597124587
O  O26  1  0.14720000  0.24170000  0.50050000  1.0 -0.5597124587
O  O27  1  0.24170000  0.85280000  0.25050000  1.0 -0.5597124587
O  O28  1  0.75830000  0.14720000  0.75050000  1.0 -0.5597124587
O  O29  1  0.95420000  0.75520000  0.07830000  1.0 -0.6067085853
O  O30  1  0.04580000  0.24480000  0.57830000  1.0 -0.6067085853
O  O31  1  0.24480000  0.95420000  0.32830000  1.0 -0.6067085853
O  O32  1  0.75520000  0.04580000  0.82830000  1.0 -0.6067085853
O  O33  1  0.35770000  0.74310000  0.99330000  1.0 -0.5397194317
O  O34  1  0.64230000  0.25690000  0.49330000  1.0 -0.5397194317
O  O35  1  0.25690000  0.35770000  0.24330000  1.0 -0.5397194317
O  O36  1  0.74310000  0.64230000  0.74330000  1.0 -0.5397194317
O  O37  1  0.25060000  0.76180000  0.06980000  1.0 -0.6067085853
O  O38  1  0.74940000  0.23820000  0.56980000  1.0 -0.6067085853
O  O39  1  0.23820000  0.25060000  0.31980000  1.0 -0.6067085853
O  O40  1  0.76180000  0.74940000  0.81980000  1.0 -0.6067085853
O  O41  1  0.49350000  0.68930000  0.24430000  1.0 -0.290112163
O  O42  1  0.50650000  0.31070000  0.74430000  1.0 -0.290112163
O  O43  1  0.31070000  0.49350000  0.49430000  1.0 -0.290112163
O  O44  1  0.68930000  0.50650000  0.99430000  1.0 -0.290112163
O  O45  1  0.68310000  0.75300000  0.24650000  1.0 -0.237098719
O  O46  1  0.31690000  0.24700000  0.74650000  1.0 -0.237098719
O  O47  1  0.24700000  0.68310000  0.49650000  1.0 -0.237098719
O  O48  1  0.75300000  0.31690000  0.99650000  1.0 -0.237098719
