# DDEC6 charges by PACMAN v1.1 (https://github.com/mtap-research/PACMAN-charge/)
data_GAPPOG_FSR_pacman
_symmetry_space_group_name_H-M   'P 1'
_cell_length_a   19.48540000
_cell_length_b   19.48540000
_cell_length_c   20.28040000
_cell_angle_alpha   59.30910000
_cell_angle_beta   120.69100000
_cell_angle_gamma   162.08500000
_symmetry_Int_Tables_number   1
_chemical_formula_structural   EuH12C15NO8
_chemical_formula_sum   'Eu4 H48 C60 N4 O32'
_cell_volume   2027.89346078
_cell_formula_units_Z   4
loop_
 _symmetry_equiv_pos_site_id
 _symmetry_equiv_pos_as_xyz
  1  'x, y, z'
loop_
 _atom_site_type_symbol
 _atom_site_label
 _atom_site_symmetry_multiplicity
 _atom_site_fract_x
 _atom_site_fract_y
 _atom_site_fract_z
 _atom_site_occupancy
 _atom_site_charge
Eu  Eu1  1  0.47134000  0.84846000  0.55371000  1.0 2.0074137447
Eu  Eu2  1  0.52866000  0.15154000  0.44629000  1.0 2.0074137447
Eu  Eu3  1  0.84846000  0.47134000  0.94629000  1.0 2.0074137447
Eu  Eu4  1  0.15154000  0.52866000  0.05371000  1.0 2.0074137447
H  H1  1  0.82694000  0.27108000  0.46733000  1.0 0.3508645033
H  H2  1  0.91388000  0.27858000  0.51403000  1.0 0.3508645033
H  H3  1  0.90121000  0.20323000  0.63805000  1.0 0.3585316536
H  H4  1  0.75346000  0.02554000  0.69266000  1.0 0.3664876145
H  H5  1  0.51832000  0.99096000  0.72439000  1.0 0.1204992321
H  H6  1  0.62875000  0.02101000  0.85335000  1.0 0.1311576289
H  H7  1  0.22686000  0.54352000  0.80677000  1.0 0.1204992321
H  H8  1  0.98641000  0.30215000  0.89624000  1.0 0.1311576289
H  H9  1  0.96490000  0.14766000  0.57947000  1.0 0.1404640374
H  H10  1  0.51745000  0.69591000  0.47255000  1.0 0.1204992321
H  H11  1  0.86070000  0.94498000  0.55902000  1.0 0.1204992321
H  H12  1  0.41317000  0.49287000  0.45464000  1.0 0.1204992321
H  H13  1  0.17306000  0.72892000  0.53267000  1.0 0.3508645033
H  H14  1  0.08612000  0.72142000  0.48597000  1.0 0.3508645033
H  H15  1  0.09879000  0.79677000  0.36195000  1.0 0.3585316536
H  H16  1  0.24654000  0.97446000  0.30734000  1.0 0.3664876145
H  H17  1  0.48168000  0.00904000  0.27561000  1.0 0.1204992321
H  H18  1  0.37125000  0.97899000  0.14665000  1.0 0.1311576289
H  H19  1  0.77314000  0.45648000  0.19323000  1.0 0.1204992321
H  H20  1  0.01359000  0.69785000  0.10376000  1.0 0.1311576289
H  H21  1  0.03510000  0.85234000  0.42053000  1.0 0.1404640374
H  H22  1  0.48255000  0.30409000  0.52745000  1.0 0.1204992321
H  H23  1  0.13930000  0.05502000  0.44098000  1.0 0.1204992321
H  H24  1  0.58683000  0.50713000  0.54536000  1.0 0.1204992321
H  H25  1  0.27108000  0.82694000  0.03267000  1.0 0.3508645033
H  H26  1  0.27858000  0.91388000  0.98597000  1.0 0.3508645033
H  H27  1  0.20323000  0.90121000  0.86195000  1.0 0.3585316536
H  H28  1  0.02554000  0.75346000  0.80734000  1.0 0.3664876145
H  H29  1  0.99096000  0.51832000  0.77561000  1.0 0.1204992321
H  H30  1  0.02101000  0.62875000  0.64665000  1.0 0.1311576289
H  H31  1  0.54352000  0.22686000  0.69323000  1.0 0.1204992321
H  H32  1  0.30215000  0.98641000  0.60376000  1.0 0.1311576289
H  H33  1  0.14766000  0.96490000  0.92053000  1.0 0.1404640374
H  H34  1  0.69591000  0.51745000  0.02745000  1.0 0.1204992321
H  H35  1  0.94498000  0.86070000  0.94098000  1.0 0.1204992321
H  H36  1  0.49287000  0.41317000  0.04536000  1.0 0.1204992321
H  H37  1  0.72892000  0.17306000  0.96733000  1.0 0.3508645033
H  H38  1  0.72142000  0.08612000  0.01403000  1.0 0.3508645033
H  H39  1  0.79677000  0.09879000  0.13805000  1.0 0.3585316536
H  H40  1  0.97446000  0.24654000  0.19266000  1.0 0.3664876145
H  H41  1  0.00904000  0.48168000  0.22439000  1.0 0.1204992321
H  H42  1  0.97899000  0.37125000  0.35335000  1.0 0.1311576289
H  H43  1  0.45648000  0.77314000  0.30677000  1.0 0.1204992321
H  H44  1  0.69785000  0.01359000  0.39624000  1.0 0.1311576289
H  H45  1  0.85234000  0.03510000  0.07947000  1.0 0.1404640374
H  H46  1  0.30409000  0.48255000  0.97255000  1.0 0.1204992321
H  H47  1  0.05502000  0.13930000  0.05902000  1.0 0.1204992321
H  H48  1  0.50713000  0.58683000  0.95464000  1.0 0.1204992321
C  C1  1  0.72293000  0.22407000  0.60316000  1.0 0.642304897
C  C2  1  0.01891000  0.41409000  0.71172000  1.0 -0.0627567496
C  C3  1  0.80476000  0.24884000  0.68622000  1.0 -0.0336954559
C  C4  1  0.17591000  0.56789000  0.65572000  1.0 0.5689098236
C  C5  1  0.66159000  0.10301000  0.74068000  1.0 -0.1168055537
C  C6  1  0.72794000  0.12146000  0.81798000  1.0 -0.0627567496
C  C7  1  0.08410000  0.43230000  0.78990000  1.0 -0.0984295442
C  C8  1  0.33150000  0.58030000  0.54570000  1.0 0.5863233802
C  C9  1  0.94025000  0.28735000  0.84380000  1.0 -0.0802460166
C  C10  1  0.25417000  0.44243000  0.53064000  1.0 -0.0137893323
C  C11  1  0.05660000  0.21840000  0.55480000  1.0 -0.0670966919
C  C12  1  0.12970000  0.20310000  0.50520000  1.0 0.1404640374
C  C13  1  0.38670000  0.54550000  0.49120000  1.0 -0.0984295442
C  C14  1  0.99370000  0.09670000  0.54240000  1.0 -0.1585202853
C  C15  1  0.32310000  0.42370000  0.47970000  1.0 -0.1585202853
C  C16  1  0.27707000  0.77593000  0.39684000  1.0 0.642304897
C  C17  1  0.98109000  0.58591000  0.28828000  1.0 -0.0627567496
C  C18  1  0.19524000  0.75116000  0.31378000  1.0 -0.0336954559
C  C19  1  0.82409000  0.43211000  0.34428000  1.0 0.5689098236
C  C20  1  0.33841000  0.89699000  0.25932000  1.0 -0.1168055537
C  C21  1  0.27206000  0.87854000  0.18202000  1.0 -0.0627567496
C  C22  1  0.91590000  0.56770000  0.21010000  1.0 -0.0984295442
C  C23  1  0.66850000  0.41970000  0.45430000  1.0 0.5863233802
C  C24  1  0.05975000  0.71265000  0.15620000  1.0 -0.0802460166
C  C25  1  0.74583000  0.55757000  0.46936000  1.0 -0.0137893323
C  C26  1  0.94340000  0.78160000  0.44520000  1.0 -0.0670966919
C  C27  1  0.87030000  0.79690000  0.49480000  1.0 0.1404640374
C  C28  1  0.61330000  0.45450000  0.50880000  1.0 -0.0984295442
C  C29  1  0.00630000  0.90330000  0.45760000  1.0 -0.1585202853
C  C30  1  0.67690000  0.57630000  0.52030000  1.0 -0.1585202853
C  C31  1  0.22407000  0.72293000  0.89684000  1.0 0.642304897
C  C32  1  0.41409000  0.01891000  0.78828000  1.0 -0.0627567496
C  C33  1  0.24884000  0.80476000  0.81378000  1.0 -0.0336954559
C  C34  1  0.56789000  0.17591000  0.84428000  1.0 0.5689098236
C  C35  1  0.10301000  0.66159000  0.75932000  1.0 -0.1168055537
C  C36  1  0.12146000  0.72794000  0.68202000  1.0 -0.0627567496
C  C37  1  0.43230000  0.08410000  0.71010000  1.0 -0.0984295442
C  C38  1  0.58030000  0.33150000  0.95430000  1.0 0.5863233802
C  C39  1  0.28735000  0.94025000  0.65620000  1.0 -0.0802460166
C  C40  1  0.44243000  0.25417000  0.96936000  1.0 -0.0137893323
C  C41  1  0.21840000  0.05660000  0.94520000  1.0 -0.0670966919
C  C42  1  0.20310000  0.12970000  0.99480000  1.0 0.1404640374
C  C43  1  0.54550000  0.38670000  0.00880000  1.0 -0.0984295442
C  C44  1  0.09670000  0.99370000  0.95760000  1.0 -0.1585202853
C  C45  1  0.42370000  0.32310000  0.02030000  1.0 -0.1585202853
C  C46  1  0.77593000  0.27707000  0.10316000  1.0 0.642304897
C  C47  1  0.58591000  0.98109000  0.21172000  1.0 -0.0627567496
C  C48  1  0.75116000  0.19524000  0.18622000  1.0 -0.0336954559
C  C49  1  0.43211000  0.82409000  0.15572000  1.0 0.5689098236
C  C50  1  0.89699000  0.33841000  0.24068000  1.0 -0.1168055537
C  C51  1  0.87854000  0.27206000  0.31798000  1.0 -0.0627567496
C  C52  1  0.56770000  0.91590000  0.28990000  1.0 -0.0984295442
C  C53  1  0.41970000  0.66850000  0.04570000  1.0 0.5863233802
C  C54  1  0.71265000  0.05975000  0.34380000  1.0 -0.0802460166
C  C55  1  0.55757000  0.74583000  0.03064000  1.0 -0.0137893323
C  C56  1  0.78160000  0.94340000  0.05480000  1.0 -0.0670966919
C  C57  1  0.79690000  0.87030000  0.00520000  1.0 0.1404640374
C  C58  1  0.45450000  0.61330000  0.99120000  1.0 -0.0984295442
C  C59  1  0.90330000  0.00630000  0.04240000  1.0 -0.1585202853
C  C60  1  0.57630000  0.67690000  0.97970000  1.0 -0.1585202853
N  N1  1  0.08480000  0.09580000  0.48830000  1.0 -0.0984295442
N  N2  1  0.91520000  0.90420000  0.51170000  1.0 -0.0984295442
N  N3  1  0.09580000  0.08480000  0.01170000  1.0 -0.0984295442
N  N4  1  0.90420000  0.91520000  0.98830000  1.0 -0.0984295442
O  O1  1  0.74730000  0.32090000  0.57036000  1.0 -0.5816434028
O  O2  1  0.13399000  0.57621000  0.58445000  1.0 -0.587584019
O  O3  1  0.20113000  0.48567000  0.57214000  1.0 -0.6368077996
O  O4  1  0.79935000  0.19585000  0.48296000  1.0 -0.7655537727
O  O5  1  0.60926000  0.08694000  0.56772000  1.0 -0.7560997608
O  O6  1  0.34909000  0.68591000  0.68114000  1.0 -0.6368077996
O  O7  1  0.52583000  0.78937000  0.53120000  1.0 -0.6139024052
O  O8  1  0.77970000  0.06070000  0.64700000  1.0 -0.7495649013
O  O9  1  0.25270000  0.67910000  0.42964000  1.0 -0.5816434028
O  O10  1  0.86601000  0.42379000  0.41555000  1.0 -0.587584019
O  O11  1  0.79887000  0.51433000  0.42786000  1.0 -0.6368077996
O  O12  1  0.20065000  0.80415000  0.51704000  1.0 -0.7655537727
O  O13  1  0.39074000  0.91306000  0.43228000  1.0 -0.7560997608
O  O14  1  0.65091000  0.31409000  0.31886000  1.0 -0.6368077996
O  O15  1  0.47417000  0.21063000  0.46880000  1.0 -0.6139024052
O  O16  1  0.22030000  0.93930000  0.35300000  1.0 -0.7495649013
O  O17  1  0.32090000  0.74730000  0.92964000  1.0 -0.5816434028
O  O18  1  0.57621000  0.13399000  0.91555000  1.0 -0.587584019
O  O19  1  0.48567000  0.20113000  0.92786000  1.0 -0.6368077996
O  O20  1  0.19585000  0.79935000  0.01704000  1.0 -0.7655537727
O  O21  1  0.08694000  0.60926000  0.93228000  1.0 -0.7560997608
O  O22  1  0.68591000  0.34909000  0.81886000  1.0 -0.6368077996
O  O23  1  0.78937000  0.52583000  0.96880000  1.0 -0.6139024052
O  O24  1  0.06070000  0.77970000  0.85300000  1.0 -0.7495649013
O  O25  1  0.67910000  0.25270000  0.07036000  1.0 -0.5816434028
O  O26  1  0.42379000  0.86601000  0.08445000  1.0 -0.587584019
O  O27  1  0.51433000  0.79887000  0.07214000  1.0 -0.6368077996
O  O28  1  0.80415000  0.20065000  0.98296000  1.0 -0.7655537727
O  O29  1  0.91306000  0.39074000  0.06772000  1.0 -0.7560997608
O  O30  1  0.31409000  0.65091000  0.18114000  1.0 -0.6368077996
O  O31  1  0.21063000  0.47417000  0.03120000  1.0 -0.6139024052
O  O32  1  0.93930000  0.22030000  0.14700000  1.0 -0.7495649013
