# DDEC6 charges by PACMAN v1.1 (https://github.com/mtap-research/PACMAN-charge/)
data_GAWMUQ_FSR_pacman
_symmetry_space_group_name_H-M   'P 1'
_cell_length_a   21.53930000
_cell_length_b   18.37050000
_cell_length_c   15.15450000
_cell_angle_alpha   79.31950000
_cell_angle_beta   56.94080000
_cell_angle_gamma   43.73970000
_symmetry_Int_Tables_number   1
_chemical_formula_structural   Zn4C41(NO6)2
_chemical_formula_sum   'Zn8 C82 N4 O24'
_cell_volume   3241.26448704
_cell_formula_units_Z   2
loop_
 _symmetry_equiv_pos_site_id
 _symmetry_equiv_pos_as_xyz
  1  'x, y, z'
loop_
 _atom_site_type_symbol
 _atom_site_label
 _atom_site_symmetry_multiplicity
 _atom_site_fract_x
 _atom_site_fract_y
 _atom_site_fract_z
 _atom_site_occupancy
 _atom_site_charge
Zn  Zn1  1  0.40690000  0.63550000  0.31710000  1.0 0.6716816003
Zn  Zn2  1  0.63550000  0.40690000  0.64050000  1.0 0.6479852275
Zn  Zn3  1  0.31710000  0.64050000  0.40690000  1.0 0.6716816003
Zn  Zn4  1  0.64050000  0.31710000  0.63550000  1.0 0.6479852275
Zn  Zn5  1  0.84310000  0.61450000  0.93290000  1.0 0.6716816003
Zn  Zn6  1  0.61450000  0.84310000  0.60950000  1.0 0.6479852275
Zn  Zn7  1  0.93290000  0.60950000  0.84310000  1.0 0.6716816003
Zn  Zn8  1  0.60950000  0.93290000  0.61450000  1.0 0.6752837773
C  C1  1  0.19400000  0.00740000  0.36180000  1.0 -0.0181898952
C  C2  1  0.15480000  0.96320000  0.40820000  1.0 -0.1168296033
C  C3  1  0.10830000  0.21310000  0.52090000  1.0 -0.1110194589
C  C4  1  0.10110000  0.25890000  0.59430000  1.0 0.0399329517
C  C5  1  0.13980000  0.30220000  0.55760000  1.0 0.0399329517
C  C6  1  0.18590000  0.29990000  0.44730000  1.0 -0.0181898952
C  C7  1  0.19330000  0.25410000  0.37390000  1.0 -0.0583547175
C  C8  1  0.15450000  0.21070000  0.41070000  1.0 0.162564459
C  C9  1  0.22410000  0.84490000  0.39750000  1.0 0.6020487051
C  C10  1  0.00740000  0.19400000  0.43680000  1.0 -0.0181898952
C  C11  1  0.96320000  0.15480000  0.47380000  1.0 -0.1168296033
C  C12  1  0.21310000  0.10830000  0.15770000  1.0 -0.1110194589
C  C13  1  0.25890000  0.10110000  0.04570000  1.0 0.0399329517
C  C14  1  0.30220000  0.13980000  0.00040000  1.0 0.0345545809
C  C15  1  0.29990000  0.18590000  0.06690000  1.0 -0.0181898952
C  C16  1  0.25410000  0.19330000  0.17870000  1.0 -0.0583547175
C  C17  1  0.21070000  0.15450000  0.22410000  1.0 0.162564459
C  C18  1  0.84490000  0.22410000  0.53350000  1.0 0.6020487051
C  C19  1  0.36180000  0.43680000  0.19400000  1.0 -0.0181898952
C  C20  1  0.40820000  0.47380000  0.15480000  1.0 -0.1168296033
C  C21  1  0.52090000  0.15770000  0.10830000  1.0 -0.1110194589
C  C22  1  0.59430000  0.04570000  0.10110000  1.0 0.0399329517
C  C23  1  0.55760000  0.00040000  0.13980000  1.0 0.0399329517
C  C24  1  0.44730000  0.06690000  0.18590000  1.0 -0.0140413421
C  C25  1  0.37390000  0.17870000  0.19330000  1.0 -0.0583547175
C  C26  1  0.41070000  0.22410000  0.15450000  1.0 0.162564459
C  C27  1  0.39750000  0.53350000  0.22410000  1.0 0.6020487051
C  C28  1  0.43680000  0.36180000  0.00740000  1.0 -0.0181898952
C  C29  1  0.47380000  0.40820000  0.96320000  1.0 -0.1168296033
C  C30  1  0.15770000  0.52090000  0.21310000  1.0 -0.1110194589
C  C31  1  0.04570000  0.59430000  0.25890000  1.0 0.0399329517
C  C32  1  0.00040000  0.55760000  0.30220000  1.0 0.0399329517
C  C33  1  0.06690000  0.44730000  0.29990000  1.0 -0.0181898952
C  C34  1  0.17870000  0.37390000  0.25410000  1.0 -0.0583547175
C  C35  1  0.22410000  0.41070000  0.21070000  1.0 0.162564459
C  C36  1  0.53350000  0.39750000  0.84490000  1.0 0.6020487051
C  C37  1  0.12110000  0.12110000  0.37890000  1.0 0.1023561496
C  C38  1  0.03910000  0.03910000  0.46090000  1.0 0.1023561496
C  C39  1  0.37890000  0.37890000  0.12110000  1.0 0.1023561496
C  C40  1  0.46090000  0.46090000  0.03910000  1.0 0.1023561496
C  C41  1  0.25000000  0.25000000  0.25000000  1.0 0.2000111664
C  C42  1  0.05600000  0.24260000  0.88820000  1.0 -0.0181898952
C  C43  1  0.09520000  0.28680000  0.84180000  1.0 -0.1168296033
C  C44  1  0.14170000  0.03690000  0.72910000  1.0 -0.1110194589
C  C45  1  0.14890000  0.99110000  0.65570000  1.0 0.0461832534
C  C46  1  0.11020000  0.94780000  0.69240000  1.0 0.0399329517
C  C47  1  0.06410000  0.95010000  0.80270000  1.0 -0.0181898952
C  C48  1  0.05670000  0.99590000  0.87610000  1.0 -0.0583547175
C  C49  1  0.09550000  0.03930000  0.83930000  1.0 0.162564459
C  C50  1  0.02590000  0.40510000  0.85250000  1.0 0.6020487051
C  C51  1  0.24260000  0.05600000  0.81320000  1.0 -0.0181898952
C  C52  1  0.28680000  0.09520000  0.77620000  1.0 -0.1168296033
C  C53  1  0.03690000  0.14170000  0.09230000  1.0 -0.1110194589
C  C54  1  0.99110000  0.14890000  0.20430000  1.0 0.0399329517
C  C55  1  0.94780000  0.11020000  0.24960000  1.0 0.0399329517
C  C56  1  0.95010000  0.06410000  0.18310000  1.0 -0.0181898952
C  C57  1  0.99590000  0.05670000  0.07130000  1.0 -0.0583547175
C  C58  1  0.03930000  0.09550000  0.02590000  1.0 0.162564459
C  C59  1  0.40510000  0.02590000  0.71650000  1.0 0.6020487051
C  C60  1  0.88820000  0.81320000  0.05600000  1.0 -0.0181898952
C  C61  1  0.84180000  0.77620000  0.09520000  1.0 -0.1168296033
C  C62  1  0.72910000  0.09230000  0.14170000  1.0 -0.1110194589
C  C63  1  0.65570000  0.20430000  0.14890000  1.0 0.0399329517
C  C64  1  0.69240000  0.24960000  0.11020000  1.0 0.0399329517
C  C65  1  0.80270000  0.18310000  0.06410000  1.0 -0.0181898952
C  C66  1  0.87610000  0.07130000  0.05670000  1.0 -0.0583547175
C  C67  1  0.83930000  0.02590000  0.09550000  1.0 0.162564459
C  C68  1  0.85250000  0.71650000  0.02590000  1.0 0.6020487051
C  C69  1  0.81320000  0.88820000  0.24260000  1.0 -0.0181898952
C  C70  1  0.77620000  0.84180000  0.28680000  1.0 -0.1168296033
C  C71  1  0.09230000  0.72910000  0.03690000  1.0 -0.1110194589
C  C72  1  0.20430000  0.65570000  0.99110000  1.0 0.0399329517
C  C73  1  0.24960000  0.69240000  0.94780000  1.0 0.0399329517
C  C74  1  0.18310000  0.80270000  0.95010000  1.0 -0.0181898952
C  C75  1  0.07130000  0.87610000  0.99590000  1.0 -0.0583547175
C  C76  1  0.02590000  0.83930000  0.03930000  1.0 0.162564459
C  C77  1  0.71650000  0.85250000  0.40510000  1.0 0.6020487051
C  C78  1  0.12890000  0.12890000  0.87110000  1.0 0.1023561496
C  C79  1  0.21090000  0.21090000  0.78910000  1.0 0.1023561496
C  C80  1  0.87110000  0.87110000  0.12890000  1.0 0.1023561496
C  C81  1  0.78910000  0.78910000  0.21090000  1.0 0.1023561496
C  C82  1  0.00000000  0.00000000  0.00000000  1.0 0.2000111664
N  N1  1  0.16690000  0.16690000  0.33310000  1.0 -0.1168296033
N  N2  1  0.33310000  0.33310000  0.16690000  1.0 -0.1168296033
N  N3  1  0.08310000  0.08310000  0.91690000  1.0 -0.1168296033
N  N4  1  0.91690000  0.91690000  0.08310000  1.0 -0.1168296033
O  O1  1  0.32650000  0.78550000  0.34810000  1.0 -0.5008239997
O  O2  1  0.19790000  0.79790000  0.42410000  1.0 -0.5188885604
O  O3  1  0.34310000  0.62890000  0.49310000  1.0 -0.265816686
O  O4  1  0.78550000  0.32650000  0.53990000  1.0 -0.5050932889
O  O5  1  0.79790000  0.19790000  0.58010000  1.0 -0.5188885604
O  O6  1  0.62890000  0.34310000  0.53490000  1.0 -0.2528346901
O  O7  1  0.34810000  0.53990000  0.32650000  1.0 -0.5008239997
O  O8  1  0.42410000  0.58010000  0.19790000  1.0 -0.5188885604
O  O9  1  0.49310000  0.53490000  0.34310000  1.0 -0.2618654097
O  O10  1  0.53990000  0.34810000  0.78550000  1.0 -0.5008239997
O  O11  1  0.58010000  0.42410000  0.79790000  1.0 -0.5188885604
O  O12  1  0.53490000  0.49310000  0.62890000  1.0 -0.2528346901
O  O13  1  0.92350000  0.46450000  0.90190000  1.0 -0.5008239997
O  O14  1  0.05210000  0.45210000  0.82590000  1.0 -0.5188885604
O  O15  1  0.90690000  0.62110000  0.75690000  1.0 -0.2618654097
O  O16  1  0.46450000  0.92350000  0.71010000  1.0 -0.5008239997
O  O17  1  0.45210000  0.05210000  0.66990000  1.0 -0.5188885604
O  O18  1  0.62110000  0.90690000  0.71510000  1.0 -0.2618654097
O  O19  1  0.90190000  0.71010000  0.92350000  1.0 -0.5008239997
O  O20  1  0.82590000  0.66990000  0.05210000  1.0 -0.5188885604
O  O21  1  0.75690000  0.71510000  0.90690000  1.0 -0.265816686
O  O22  1  0.71010000  0.90190000  0.46450000  1.0 -0.5008239997
O  O23  1  0.66990000  0.82590000  0.45210000  1.0 -0.5188885604
O  O24  1  0.71510000  0.75690000  0.62110000  1.0 -0.2528346901
