# DDEC6 charges by PACMAN v1.1 (https://github.com/mtap-research/PACMAN-charge/)
data_GAWWOU_ASR_pacman
_symmetry_space_group_name_H-M   'P 1'
_cell_length_a   10.41890000
_cell_length_b   18.33020000
_cell_length_c   25.88800000
_cell_angle_alpha   106.85200000
_cell_angle_beta   90.71200000
_cell_angle_gamma   105.75000000
_symmetry_Int_Tables_number   1
_chemical_formula_structural   Cd2H52C75N9(OF)6
_chemical_formula_sum   'Cd4 H104 C150 N18 O12 F12'
_cell_volume   4531.79813121
_cell_formula_units_Z   2
loop_
 _symmetry_equiv_pos_site_id
 _symmetry_equiv_pos_as_xyz
  1  'x, y, z'
loop_
 _atom_site_type_symbol
 _atom_site_label
 _atom_site_symmetry_multiplicity
 _atom_site_fract_x
 _atom_site_fract_y
 _atom_site_fract_z
 _atom_site_occupancy
 _atom_site_charge
Cd  Cd1  1  0.40920000  0.70321000  0.73142000  1.0 0.8797242941
Cd  Cd2  1  0.43065000  0.58208000  0.55560000  1.0 0.9053947927
Cd  Cd3  1  0.59080000  0.29679000  0.26858000  1.0 0.8797242941
Cd  Cd4  1  0.56935000  0.41792000  0.44440000  1.0 0.9043340088
H  H1  1  0.13323000  0.72132000  0.68457000  1.0 0.2278622415
H  H2  1  0.04833000  0.82462000  0.72160000  1.0 0.1278023572
H  H3  1  0.25526000  0.94518000  0.62635000  1.0 0.1199932605
H  H4  1  0.97591000  0.92585000  0.75878000  1.0 0.1095947574
H  H5  1  0.90235000  0.03380000  0.79905000  1.0 0.1199932605
H  H6  1  0.11351000  0.15130000  0.70446000  1.0 0.1199932605
H  H7  1  0.19412000  0.04618000  0.66578000  1.0 0.1095947574
H  H8  1  0.08363000  0.18524000  0.87285000  1.0 0.1199932605
H  H9  1  0.02073000  0.20978000  0.96084000  1.0 0.1199932605
H  H10  1  0.65552000  0.19381000  0.90422000  1.0 0.1095947574
H  H11  1  0.72396000  0.17590000  0.81710000  1.0 0.1199932605
H  H12  1  0.94450000  0.31742000  0.81604000  1.0 0.1199932605
H  H13  1  0.87664000  0.39394000  0.76850000  1.0 0.1095947574
H  H14  1  0.80106000  0.21005000  0.63219000  1.0 0.0992559059
H  H15  1  0.87944000  0.13573000  0.67754000  1.0 0.1095947574
H  H16  1  0.57725000  0.33425000  0.56034000  1.0 0.2278622415
H  H17  1  0.66979000  0.26453000  0.60114000  1.0 0.1278023572
H  H18  1  0.87439000  0.46966000  0.71310000  1.0 0.1278023572
H  H19  1  0.53600000  0.21926000  0.06501000  1.0 0.2083869205
H  H20  1  0.59761000  0.20443000  0.98137000  1.0 0.1095947574
H  H21  1  0.95979000  0.22365000  0.03857000  1.0 0.1199932605
H  H22  1  0.55683000  0.77189000  0.54370000  1.0 0.1095947574
H  H23  1  0.77117000  0.65834000  0.59976000  1.0 0.1199932605
H  H24  1  0.91821000  0.79097000  0.60654000  1.0 0.1199932605
H  H25  1  0.61903000  0.91276000  0.57148000  1.0 0.1199932605
H  H26  1  0.69855000  0.04021000  0.56287000  1.0 0.1199932605
H  H27  1  0.07360000  0.02272000  0.56317000  1.0 0.1095947574
H  H28  1  0.99462000  0.89394000  0.56916000  1.0 0.1095947574
H  H29  1  0.29239000  0.38531000  0.54354000  1.0 0.1095947574
H  H30  1  0.08257000  0.53610000  0.55203000  1.0 0.1199932605
H  H31  1  0.92572000  0.41002000  0.55142000  1.0 0.1278023572
H  H32  1  0.86294000  0.25729000  0.50685000  1.0 0.1199932605
H  H33  1  0.78406000  0.12866000  0.51252000  1.0 0.1095947574
H  H34  1  0.13169000  0.15774000  0.59551000  1.0 0.1095947574
H  H35  1  0.21452000  0.28450000  0.58756000  1.0 0.1199932605
H  H36  1  0.37517000  0.89147000  0.76392000  1.0 0.1199932605
H  H37  1  0.66847000  0.82469000  0.69300000  1.0 0.1278023572
H  H38  1  0.70412000  0.96303000  0.69456000  1.0 0.1199932605
H  H39  1  0.57475000  0.04186000  0.66698000  1.0 0.1199932605
H  H40  1  0.53375000  0.16226000  0.67716000  1.0 0.1095947574
H  H41  1  0.37608000  0.16553000  0.81876000  1.0 0.1095947574
H  H42  1  0.42258000  0.04326000  0.81021000  1.0 0.1278023572
H  H43  1  0.47272000  0.54512000  0.75392000  1.0 0.1199932605
H  H44  1  0.12571000  0.53582000  0.68772000  1.0 0.1199932605
H  H45  1  0.11680000  0.39984000  0.69000000  1.0 0.1199932605
H  H46  1  0.45515000  0.38531000  0.68407000  1.0 0.1199932605
H  H47  1  0.49153000  0.26863000  0.68337000  1.0 0.1095947574
H  H48  1  0.29070000  0.25350000  0.80407000  1.0 0.1095947574
H  H49  1  0.23253000  0.36697000  0.80167000  1.0 0.1278023572
H  H50  1  0.33259000  0.83766000  0.58673000  1.0 0.2220017464
H  H51  1  0.77607000  0.53725000  0.67077000  1.0 0.2278622415
H  H52  1  0.88123000  0.23572000  0.11970000  1.0 0.2083869205
H  H53  1  0.86677000  0.27868000  0.31543000  1.0 0.2278622415
H  H54  1  0.95167000  0.17538000  0.27840000  1.0 0.1278023572
H  H55  1  0.74474000  0.05482000  0.37365000  1.0 0.1199932605
H  H56  1  0.02409000  0.07415000  0.24122000  1.0 0.1095947574
H  H57  1  0.09765000  0.96620000  0.20095000  1.0 0.1199932605
H  H58  1  0.88649000  0.84870000  0.29554000  1.0 0.1199932605
H  H59  1  0.80588000  0.95382000  0.33422000  1.0 0.1095947574
H  H60  1  0.91637000  0.81476000  0.12715000  1.0 0.1199932605
H  H61  1  0.97927000  0.79022000  0.03916000  1.0 0.1199932605
H  H62  1  0.34448000  0.80619000  0.09578000  1.0 0.1095947574
H  H63  1  0.27604000  0.82410000  0.18290000  1.0 0.1199932605
H  H64  1  0.05550000  0.68258000  0.18396000  1.0 0.1199932605
H  H65  1  0.12336000  0.60606000  0.23150000  1.0 0.1095947574
H  H66  1  0.19894000  0.78995000  0.36781000  1.0 0.0992559059
H  H67  1  0.12056000  0.86427000  0.32246000  1.0 0.1095947574
H  H68  1  0.42275000  0.66575000  0.43966000  1.0 0.2278622415
H  H69  1  0.33021000  0.73547000  0.39886000  1.0 0.1278023572
H  H70  1  0.12561000  0.53034000  0.28690000  1.0 0.1278023572
H  H71  1  0.46400000  0.78074000  0.93499000  1.0 0.2083869205
H  H72  1  0.40239000  0.79557000  0.01863000  1.0 0.1095947574
H  H73  1  0.04021000  0.77635000  0.96143000  1.0 0.1199932605
H  H74  1  0.44317000  0.22811000  0.45630000  1.0 0.1095947574
H  H75  1  0.22883000  0.34166000  0.40024000  1.0 0.1199932605
H  H76  1  0.08179000  0.20903000  0.39346000  1.0 0.1199932605
H  H77  1  0.38097000  0.08724000  0.42852000  1.0 0.1199932605
H  H78  1  0.30145000  0.95979000  0.43713000  1.0 0.1199932605
H  H79  1  0.92640000  0.97728000  0.43683000  1.0 0.1095947574
H  H80  1  0.00538000  0.10606000  0.43084000  1.0 0.1199932605
H  H81  1  0.70761000  0.61469000  0.45646000  1.0 0.1095947574
H  H82  1  0.91743000  0.46390000  0.44797000  1.0 0.1199932605
H  H83  1  0.07428000  0.58998000  0.44858000  1.0 0.1278023572
H  H84  1  0.13706000  0.74271000  0.49315000  1.0 0.1199932605
H  H85  1  0.21594000  0.87134000  0.48748000  1.0 0.1095947574
H  H86  1  0.86831000  0.84226000  0.40449000  1.0 0.1095947574
H  H87  1  0.78548000  0.71550000  0.41244000  1.0 0.1199932605
H  H88  1  0.62483000  0.10853000  0.23608000  1.0 0.1199932605
H  H89  1  0.33153000  0.17531000  0.30700000  1.0 0.1278023572
H  H90  1  0.29588000  0.03697000  0.30544000  1.0 0.1199932605
H  H91  1  0.42525000  0.95814000  0.33302000  1.0 0.1199932605
H  H92  1  0.46625000  0.83774000  0.32284000  1.0 0.1095947574
H  H93  1  0.62392000  0.83447000  0.18124000  1.0 0.1095947574
H  H94  1  0.57742000  0.95674000  0.18979000  1.0 0.1278023572
H  H95  1  0.52728000  0.45488000  0.24608000  1.0 0.1199932605
H  H96  1  0.87429000  0.46418000  0.31228000  1.0 0.1199932605
H  H97  1  0.88320000  0.60016000  0.31000000  1.0 0.1199932605
H  H98  1  0.54485000  0.61469000  0.31593000  1.0 0.1199932605
H  H99  1  0.50847000  0.73137000  0.31663000  1.0 0.1095947574
H  H100  1  0.70930000  0.74650000  0.19593000  1.0 0.1095947574
H  H101  1  0.76747000  0.63303000  0.19833000  1.0 0.1278023572
H  H102  1  0.66741000  0.16234000  0.41327000  1.0 0.2220017464
H  H103  1  0.22393000  0.46275000  0.32923000  1.0 0.2278622415
H  H104  1  0.11877000  0.76428000  0.88030000  1.0 0.2083869205
C  C1  1  0.29960000  0.69670000  0.60500000  1.0 0.558502555
C  C2  1  0.24080000  0.76520000  0.63090000  1.0 -0.2409778236
C  C3  1  0.15710000  0.76560000  0.67220000  1.0 0.0992559059
C  C4  1  0.10820000  0.82850000  0.69550000  1.0 -0.2770035445
C  C5  1  0.14770000  0.90010000  0.68040000  1.0 0.0928642006
C  C6  1  0.23060000  0.90070000  0.63840000  1.0 -0.2674483179
C  C7  1  0.27680000  0.83550000  0.61430000  1.0 0.0992559059
C  C8  1  0.09680000  0.97190000  0.70710000  1.0 0.0495511711
C  C9  1  0.00560000  0.97140000  0.74810000  1.0 -0.1373324706
C  C10  1  0.96050000  0.03590000  0.77220000  1.0 -0.1989865062
C  C11  1  0.00230000  0.10540000  0.75620000  1.0 0.1729527788
C  C12  1  0.08750000  0.10630000  0.71590000  1.0 -0.1804652362
C  C13  1  0.13520000  0.04260000  0.69220000  1.0 -0.1298162245
C  C14  1  0.91220000  0.17990000  0.83570000  1.0 0.1605437846
C  C15  1  0.99720000  0.18850000  0.87870000  1.0 -0.1894799271
C  C16  1  0.95820000  0.20230000  0.93240000  1.0 -0.1298162245
C  C17  1  0.83210000  0.20490000  0.94320000  1.0 0.0806255813
C  C18  1  0.74360000  0.19370000  0.89890000  1.0 -0.1373324706
C  C19  1  0.78500000  0.18210000  0.84570000  1.0 -0.1804652362
C  C20  1  0.91890000  0.21880000  0.75100000  1.0 0.1809452475
C  C21  1  0.91790000  0.29620000  0.77900000  1.0 -0.1989865062
C  C22  1  0.87530000  0.34210000  0.74970000  1.0 -0.1373324706
C  C23  1  0.83240000  0.31360000  0.69500000  1.0 0.0495511711
C  C24  1  0.83220000  0.23290000  0.66870000  1.0 -0.1298162245
C  C25  1  0.87750000  0.18700000  0.69620000  1.0 -0.1894799271
C  C26  1  0.58110000  0.48810000  0.58730000  1.0 0.5652468802
C  C27  1  0.66000000  0.44490000  0.61300000  1.0 -0.1989865062
C  C28  1  0.63430000  0.36130000  0.59200000  1.0 0.0704069118
C  C29  1  0.68920000  0.31940000  0.61610000  1.0 -0.2458592801
C  C30  1  0.77660000  0.35920000  0.66440000  1.0 0.0992559059
C  C31  1  0.81150000  0.44170000  0.68320000  1.0 -0.2323267608
C  C32  1  0.75220000  0.48200000  0.65740000  1.0 0.0928642006
C  C33  1  0.66170000  0.25030000  0.16080000  1.0 0.5475498141
C  C34  1  0.69900000  0.23660000  0.10720000  1.0 -0.2100441306
C  C35  1  0.62590000  0.22240000  0.06140000  1.0 0.0992559059
C  C36  1  0.66110000  0.21150000  0.00930000  1.0 -0.2674483179
C  C37  1  0.78840000  0.21100000  0.99840000  1.0 0.0806255813
C  C38  1  0.87040000  0.22230000  0.04190000  1.0 -0.2409778236
C  C39  1  0.82040000  0.23180000  0.09170000  1.0 0.0992559059
C  C40  1  0.62770000  0.75990000  0.55820000  1.0 0.0704069118
C  C41  1  0.74600000  0.69720000  0.58910000  1.0 -0.0255645661
C  C42  1  0.82820000  0.77100000  0.59310000  1.0 -0.1194507074
C  C43  1  0.79890000  0.89110000  0.56970000  1.0 0.1605437846
C  C44  1  0.70970000  0.93410000  0.56890000  1.0 -0.1989865062
C  C45  1  0.75890000  0.01140000  0.56410000  1.0 -0.1506559028
C  C46  1  0.89510000  0.04660000  0.56110000  1.0 0.0598888212
C  C47  1  0.98220000  0.00100000  0.56390000  1.0 -0.1373324706
C  C48  1  0.93520000  0.92330000  0.56780000  1.0 -0.1804652362
C  C49  1  0.22150000  0.40730000  0.54470000  1.0 0.0992559059
C  C50  1  0.10570000  0.48980000  0.54980000  1.0 -0.0387655644
C  C51  1  0.01760000  0.42000000  0.54930000  1.0 -0.1061552538
C  C52  1  0.04490000  0.28360000  0.54670000  1.0 0.1605437846
C  C53  1  0.91720000  0.23720000  0.52430000  1.0 -0.1894799271
C  C54  1  0.86970000  0.15980000  0.52800000  1.0 -0.1506559028
C  C55  1  0.94990000  0.12850000  0.55490000  1.0 0.0495511711
C  C56  1  0.07780000  0.17710000  0.57720000  1.0 -0.1298162245
C  C57  1  0.12790000  0.25380000  0.57310000  1.0 -0.1989865062
C  C58  1  0.45240000  0.89150000  0.74630000  1.0 0.0992559059
C  C59  1  0.61320000  0.85610000  0.70760000  1.0 -0.0387655644
C  C60  1  0.63420000  0.93250000  0.70810000  1.0 -0.0976733341
C  C61  1  0.50550000  0.03180000  0.73940000  1.0 0.1605437846
C  C62  1  0.53740000  0.06600000  0.69740000  1.0 -0.1989865062
C  C63  1  0.50980000  0.13820000  0.70410000  1.0 -0.1298162245
C  C64  1  0.44990000  0.17830000  0.74680000  1.0 0.0704069118
C  C65  1  0.41570000  0.14200000  0.78890000  1.0 -0.1373324706
C  C66  1  0.44490000  0.06790000  0.78350000  1.0 -0.1989865062
C  C67  1  0.38290000  0.52720000  0.74040000  1.0 0.0992559059
C  C68  1  0.19390000  0.52200000  0.70260000  1.0 -0.0111090693
C  C69  1  0.18660000  0.44620000  0.70470000  1.0 -0.1194507074
C  C70  1  0.34430000  0.38690000  0.74180000  1.0 0.1278023572
C  C71  1  0.41910000  0.36010000  0.70920000  1.0 -0.1600996254
C  C72  1  0.44680000  0.29150000  0.71160000  1.0 -0.1600996254
C  C73  1  0.41750000  0.25250000  0.74980000  1.0 0.0598888212
C  C74  1  0.32990000  0.28020000  0.78010000  1.0 -0.1673006215
C  C75  1  0.29200000  0.34860000  0.77840000  1.0 -0.1989865062
C  C76  1  0.70040000  0.30330000  0.39500000  1.0 0.558502555
C  C77  1  0.75920000  0.23480000  0.36910000  1.0 -0.2409778236
C  C78  1  0.84290000  0.23440000  0.32780000  1.0 0.0992559059
C  C79  1  0.89180000  0.17150000  0.30450000  1.0 -0.2770035445
C  C80  1  0.85230000  0.09990000  0.31960000  1.0 0.0928642006
C  C81  1  0.76940000  0.09930000  0.36160000  1.0 -0.2674483179
C  C82  1  0.72320000  0.16450000  0.38570000  1.0 0.0992559059
C  C83  1  0.90320000  0.02810000  0.29290000  1.0 0.0495511711
C  C84  1  0.99440000  0.02860000  0.25190000  1.0 -0.1373324706
C  C85  1  0.03950000  0.96410000  0.22780000  1.0 -0.1989865062
C  C86  1  0.99770000  0.89460000  0.24380000  1.0 0.1729527788
C  C87  1  0.91250000  0.89370000  0.28410000  1.0 -0.1804652362
C  C88  1  0.86480000  0.95740000  0.30780000  1.0 -0.1298162245
C  C89  1  0.08780000  0.82010000  0.16430000  1.0 0.1605437846
C  C90  1  0.00280000  0.81150000  0.12130000  1.0 -0.1894799271
C  C91  1  0.04180000  0.79770000  0.06760000  1.0 -0.1298162245
C  C92  1  0.16790000  0.79510000  0.05680000  1.0 0.0704069118
C  C93  1  0.25640000  0.80630000  0.10110000  1.0 -0.1373324706
C  C94  1  0.21500000  0.81790000  0.15430000  1.0 -0.1804652362
C  C95  1  0.08110000  0.78120000  0.24900000  1.0 0.1809452475
C  C96  1  0.08210000  0.70380000  0.22100000  1.0 -0.1989865062
C  C97  1  0.12470000  0.65790000  0.25030000  1.0 -0.1373324706
C  C98  1  0.16760000  0.68640000  0.30500000  1.0 0.0495511711
C  C99  1  0.16780000  0.76710000  0.33130000  1.0 -0.1298162245
C  C100  1  0.12250000  0.81300000  0.30380000  1.0 -0.1894799271
C  C101  1  0.41890000  0.51190000  0.41270000  1.0 0.5652468802
C  C102  1  0.34000000  0.55510000  0.38700000  1.0 -0.1989865062
C  C103  1  0.36570000  0.63870000  0.40800000  1.0 0.0704069118
C  C104  1  0.31080000  0.68060000  0.38390000  1.0 -0.2458592801
C  C105  1  0.22340000  0.64080000  0.33560000  1.0 0.0992559059
C  C106  1  0.18850000  0.55830000  0.31680000  1.0 -0.2323267608
C  C107  1  0.24780000  0.51800000  0.34260000  1.0 0.0928642006
C  C108  1  0.33830000  0.74970000  0.83920000  1.0 0.5475498141
C  C109  1  0.30100000  0.76340000  0.89280000  1.0 -0.2100441306
C  C110  1  0.37410000  0.77760000  0.93860000  1.0 0.0992559059
C  C111  1  0.33890000  0.78850000  0.99070000  1.0 -0.2770035445
C  C112  1  0.21160000  0.78900000  0.00160000  1.0 0.0806255813
C  C113  1  0.12960000  0.77770000  0.95810000  1.0 -0.2409778236
C  C114  1  0.17960000  0.76820000  0.90830000  1.0 0.0992559059
C  C115  1  0.37230000  0.24010000  0.44180000  1.0 0.0704069118
C  C116  1  0.25400000  0.30280000  0.41090000  1.0 -0.0255645661
C  C117  1  0.17180000  0.22900000  0.40690000  1.0 -0.1194507074
C  C118  1  0.20110000  0.10890000  0.43030000  1.0 0.1605437846
C  C119  1  0.29030000  0.06590000  0.43110000  1.0 -0.1989865062
C  C120  1  0.24110000  0.98860000  0.43590000  1.0 -0.1506559028
C  C121  1  0.10490000  0.95340000  0.43890000  1.0 0.0598888212
C  C122  1  0.01780000  0.99900000  0.43610000  1.0 -0.1373324706
C  C123  1  0.06480000  0.07670000  0.43220000  1.0 -0.1804652362
C  C124  1  0.77850000  0.59270000  0.45530000  1.0 0.0992559059
C  C125  1  0.89430000  0.51020000  0.45020000  1.0 -0.0387655644
C  C126  1  0.98240000  0.58000000  0.45070000  1.0 -0.1061552538
C  C127  1  0.95510000  0.71640000  0.45330000  1.0 0.1605437846
C  C128  1  0.08280000  0.76280000  0.47570000  1.0 -0.1894799271
C  C129  1  0.13030000  0.84020000  0.47200000  1.0 -0.1506559028
C  C130  1  0.05010000  0.87150000  0.44510000  1.0 0.0495511711
C  C131  1  0.92220000  0.82290000  0.42280000  1.0 -0.1194507074
C  C132  1  0.87210000  0.74620000  0.42690000  1.0 -0.1989865062
C  C133  1  0.54760000  0.10850000  0.25370000  1.0 0.0992559059
C  C134  1  0.38680000  0.14390000  0.29240000  1.0 -0.0387655644
C  C135  1  0.36580000  0.06750000  0.29190000  1.0 -0.0976733341
C  C136  1  0.49450000  0.96820000  0.26060000  1.0 0.1605437846
C  C137  1  0.46260000  0.93400000  0.30260000  1.0 -0.1989865062
C  C138  1  0.49020000  0.86180000  0.29590000  1.0 -0.1298162245
C  C139  1  0.55010000  0.82170000  0.25320000  1.0 0.0704069118
C  C140  1  0.58430000  0.85800000  0.21110000  1.0 -0.1373324706
C  C141  1  0.55510000  0.93210000  0.21650000  1.0 -0.1989865062
C  C142  1  0.61710000  0.47280000  0.25960000  1.0 0.0992559059
C  C143  1  0.80610000  0.47800000  0.29740000  1.0 -0.0111090693
C  C144  1  0.81340000  0.55380000  0.29530000  1.0 -0.1194507074
C  C145  1  0.65570000  0.61310000  0.25820000  1.0 0.1278023572
C  C146  1  0.58090000  0.63990000  0.29080000  1.0 -0.1600996254
C  C147  1  0.55320000  0.70850000  0.28840000  1.0 -0.1600996254
C  C148  1  0.58250000  0.74750000  0.25020000  1.0 0.0598888212
C  C149  1  0.67010000  0.71980000  0.21990000  1.0 -0.1673006215
C  C150  1  0.70800000  0.65140000  0.22160000  1.0 -0.1989865062
N  N1  1  0.50270000  0.83170000  0.73090000  1.0 -0.2674483179
N  N2  1  0.53180000  0.95430000  0.73230000  1.0 0.0064380179
N  N3  1  0.31420000  0.57250000  0.72510000  1.0 -0.2770035445
N  N4  1  0.30410000  0.45410000  0.73310000  1.0 0.0160544441
N  N5  1  0.23730000  0.48310000  0.54640000  1.0 -0.3083434104
N  N6  1  0.09220000  0.36600000  0.54490000  1.0 -0.0111090693
N  N7  1  0.61980000  0.68900000  0.56690000  1.0 -0.3026980757
N  N8  1  0.75310000  0.81050000  0.57360000  1.0 -0.0044187315
N  N9  1  0.95340000  0.17210000  0.78260000  1.0 -0.1989865062
N  N10  1  0.49730000  0.16830000  0.26910000  1.0 -0.2674483179
N  N11  1  0.46820000  0.04570000  0.26770000  1.0 0.0064380179
N  N12  1  0.68580000  0.42750000  0.27490000  1.0 -0.2770035445
N  N13  1  0.69590000  0.54590000  0.26690000  1.0 0.0160544441
N  N14  1  0.76270000  0.51690000  0.45360000  1.0 -0.3083434104
N  N15  1  0.90780000  0.63400000  0.45510000  1.0 -0.0111090693
N  N16  1  0.38020000  0.31100000  0.43310000  1.0 -0.3026980757
N  N17  1  0.24690000  0.18950000  0.42640000  1.0 -0.0044187315
N  N18  1  0.04660000  0.82790000  0.21740000  1.0 -0.1989865062
O  O1  1  0.34030000  0.66450000  0.63745000  1.0 -0.5724965929
O  O2  1  0.30520000  0.67450000  0.55510000  1.0 -0.5375213111
O  O3  1  0.55710000  0.54950000  0.61816000  1.0 -0.5375213111
O  O4  1  0.54260000  0.46200000  0.53758000  1.0 -0.5619181989
O  O5  1  0.73850000  0.25410000  0.20080000  1.0 -0.5375213111
O  O6  1  0.54970000  0.26490000  0.17100000  1.0 -0.5339848994
O  O7  1  0.65970000  0.33550000  0.36255000  1.0 -0.5724965929
O  O8  1  0.69480000  0.32550000  0.44490000  1.0 -0.5375213111
O  O9  1  0.44290000  0.45050000  0.38184000  1.0 -0.5375213111
O  O10  1  0.45740000  0.53800000  0.46242000  1.0 -0.5619181989
O  O11  1  0.26150000  0.74590000  0.79920000  1.0 -0.5375213111
O  O12  1  0.45030000  0.73510000  0.82900000  1.0 -0.5375213111
F  F1  1  0.36380000  0.84120000  0.57490000  1.0 -0.1673006215
F  F2  1  0.78710000  0.56550000  0.67980000  1.0 -0.1804652362
F  F3  1  0.91680000  0.24610000  0.13240000  1.0 -0.1298162245
F  F4  1  0.52600000  0.31790000  0.55220000  1.0 -0.1673006215
F  F5  1  0.49180000  0.21360000  0.06310000  1.0 -0.1194507074
F  F6  1  0.10950000  0.69670000  0.68530000  1.0 -0.1506559028
F  F7  1  0.63620000  0.15880000  0.42510000  1.0 -0.1673006215
F  F8  1  0.21290000  0.43450000  0.32020000  1.0 -0.1804652362
F  F9  1  0.08320000  0.75390000  0.86760000  1.0 -0.1298162245
F  F10  1  0.47400000  0.68210000  0.44780000  1.0 -0.1673006215
F  F11  1  0.50820000  0.78640000  0.93690000  1.0 -0.1194507074
F  F12  1  0.89050000  0.30330000  0.31470000  1.0 -0.1506559028
