# DDEC6 charges by PACMAN v1.1 (https://github.com/mtap-research/PACMAN-charge/)
data_GAXDIS10_ASR_pacman
_symmetry_space_group_name_H-M   'P 1'
_cell_length_a   8.72100000
_cell_length_b   11.02600000
_cell_length_c   13.54000000
_cell_angle_alpha   90.00000000
_cell_angle_beta   90.00000000
_cell_angle_gamma   90.00000000
_symmetry_Int_Tables_number   1
_chemical_formula_structural   Cd3(C4N3)2
_chemical_formula_sum   'Cd6 C16 N12'
_cell_volume   1301.97588084
_cell_formula_units_Z   2
loop_
 _symmetry_equiv_pos_site_id
 _symmetry_equiv_pos_as_xyz
  1  'x, y, z'
loop_
 _atom_site_type_symbol
 _atom_site_label
 _atom_site_symmetry_multiplicity
 _atom_site_fract_x
 _atom_site_fract_y
 _atom_site_fract_z
 _atom_site_occupancy
 _atom_site_charge
Cd  Cd1  1  0.00000000  0.23232000  0.00000000  1.0 0.9485394586
Cd  Cd2  1  0.50000000  0.76768000  0.50000000  1.0 0.9485394586
Cd  Cd3  1  0.50000000  0.93053000  0.89749000  1.0 0.4366700579
Cd  Cd4  1  0.00000000  0.06947000  0.39749000  1.0 0.4279309292
Cd  Cd5  1  0.50000000  0.51337000  0.13535000  1.0 0.4279309292
Cd  Cd6  1  0.00000000  0.48663000  0.63535000  1.0 0.4186678161
C  C1  1  0.29150000  0.04120000  0.93440000  1.0 0.131059431
C  C2  1  0.70850000  0.04120000  0.93440000  1.0 0.138514575
C  C3  1  0.79150000  0.95880000  0.43440000  1.0 0.138514575
C  C4  1  0.20850000  0.95880000  0.43440000  1.0 0.138514575
C  C5  1  0.29140000  0.41820000  0.08730000  1.0 0.0985204532
C  C6  1  0.70860000  0.41820000  0.08730000  1.0 0.0888246228
C  C7  1  0.79140000  0.58180000  0.58730000  1.0 0.0985204532
C  C8  1  0.20860000  0.58180000  0.58730000  1.0 0.0985204532
C  C9  1  0.00000000  0.11890000  0.24060000  1.0 0.082836185
C  C10  1  0.50000000  0.88110000  0.74060000  1.0 0.082836185
C  C11  1  0.00000000  0.38390000  0.77700000  1.0 0.138514575
C  C12  1  0.50000000  0.61610000  0.27700000  1.0 0.1234901179
C  C13  1  0.50000000  0.75600000  0.98210000  1.0 -0.1674846183
C  C14  1  0.00000000  0.24400000  0.48210000  1.0 -0.1750399391
C  C15  1  0.50000000  0.67410000  0.03180000  1.0 -0.1374759968
C  C16  1  0.00000000  0.32590000  0.53180000  1.0 -0.1330691721
N  N1  1  0.19070000  0.10020000  0.95400000  1.0 -0.3829342197
N  N2  1  0.80930000  0.10020000  0.95400000  1.0 -0.387412108
N  N3  1  0.69070000  0.89980000  0.45400000  1.0 -0.387412108
N  N4  1  0.30930000  0.89980000  0.45400000  1.0 -0.387412108
N  N5  1  0.19130000  0.36530000  0.05830000  1.0 -0.3492478798
N  N6  1  0.80870000  0.36530000  0.05830000  1.0 -0.3431284895
N  N7  1  0.69130000  0.63470000  0.55830000  1.0 -0.3431284895
N  N8  1  0.30870000  0.63470000  0.55830000  1.0 -0.3431284895
N  N9  1  0.00000000  0.14930000  0.16150000  1.0 -0.3298624526
N  N10  1  0.50000000  0.85070000  0.66150000  1.0 -0.3298624526
N  N11  1  0.00000000  0.33370000  0.85080000  1.0 -0.387412108
N  N12  1  0.50000000  0.66630000  0.35080000  1.0 -0.3829342197
