# DDEC6 charges by PACMAN v1.1 (https://github.com/mtap-research/PACMAN-charge/)
data_GAYGAQ_ASR_pacman
_symmetry_space_group_name_H-M   'P 1'
_cell_length_a   7.13280000
_cell_length_b   8.72070000
_cell_length_c   9.69840000
_cell_angle_alpha   116.71800000
_cell_angle_beta   111.57600000
_cell_angle_gamma   90.00000000
_symmetry_Int_Tables_number   1
_chemical_formula_structural   CuH4(C3N2)2
_chemical_formula_sum   'Cu2 H8 C12 N8'
_cell_volume   491.07450928
_cell_formula_units_Z   2
loop_
 _symmetry_equiv_pos_site_id
 _symmetry_equiv_pos_as_xyz
  1  'x, y, z'
loop_
 _atom_site_type_symbol
 _atom_site_label
 _atom_site_symmetry_multiplicity
 _atom_site_fract_x
 _atom_site_fract_y
 _atom_site_fract_z
 _atom_site_occupancy
 _atom_site_charge
Cu  Cu1  1  0.00000000  0.00000000  0.00000000  1.0 0.418247556
Cu  Cu2  1  0.50000000  0.00000000  0.00000000  1.0 0.418247556
H  H1  1  0.75775000  0.62164000  0.61603000  1.0 0.0858248208
H  H2  1  0.74225000  0.00561000  0.38397000  1.0 0.0858248208
H  H3  1  0.64172000  0.37836000  0.38397000  1.0 0.0858248208
H  H4  1  0.85828000  0.99439000  0.61603000  1.0 0.0858248208
H  H5  1  0.24225000  0.37836000  0.38397000  1.0 0.0858248208
H  H6  1  0.25775000  0.99439000  0.61603000  1.0 0.0858248208
H  H7  1  0.35828000  0.62164000  0.61603000  1.0 0.0858248208
H  H8  1  0.14172000  0.00561000  0.38397000  1.0 0.0858248208
C  C1  1  0.92988000  0.67207000  0.66828000  1.0 -0.0225307629
C  C2  1  0.57012000  0.00379000  0.33172000  1.0 -0.0225307629
C  C3  1  0.76160000  0.32793000  0.33172000  1.0 -0.0225307629
C  C4  1  0.73840000  0.99621000  0.66828000  1.0 -0.0225307629
C  C5  1  0.07012000  0.32793000  0.33172000  1.0 -0.0225307629
C  C6  1  0.42988000  0.99621000  0.66828000  1.0 -0.0225307629
C  C7  1  0.23840000  0.67207000  0.66828000  1.0 -0.0225307629
C  C8  1  0.26160000  0.00379000  0.33172000  1.0 -0.0225307629
C  C9  1  0.03911000  0.58516000  0.57822000  1.0 -0.0330851529
C  C10  1  0.46089000  0.00694000  0.42178000  1.0 -0.0330851529
C  C11  1  0.96089000  0.41484000  0.42178000  1.0 -0.0330851529
C  C12  1  0.53911000  0.99306000  0.57822000  1.0 -0.0330851529
N  N1  1  0.06168000  0.81272000  0.81402000  1.0 -0.1513133705
N  N2  1  0.43832000  0.99870000  0.18598000  1.0 -0.1513133705
N  N3  1  0.74766000  0.18728000  0.18598000  1.0 -0.1513133705
N  N4  1  0.75234000  0.00130000  0.81402000  1.0 -0.1513133705
N  N5  1  0.93832000  0.18728000  0.18598000  1.0 -0.1513133705
N  N6  1  0.56168000  0.00130000  0.81402000  1.0 -0.1513133705
N  N7  1  0.25234000  0.81272000  0.81402000  1.0 -0.1513133705
N  N8  1  0.24766000  0.99870000  0.18598000  1.0 -0.1513133705
