# DDEC6 charges by PACMAN v1.1 (https://github.com/mtap-research/PACMAN-charge/)
data_GAZCUI_ASR_pacman
_symmetry_space_group_name_H-M   'P 1'
_cell_length_a   24.45000000
_cell_length_b   24.45000000
_cell_length_c   14.63000000
_cell_angle_alpha   90.00000000
_cell_angle_beta   90.00000000
_cell_angle_gamma   90.00000000
_symmetry_Int_Tables_number   1
_chemical_formula_structural   Zr3H10C21NO8
_chemical_formula_sum   'Zr24 H80 C168 N8 O64'
_cell_volume   8745.85057500
_cell_formula_units_Z   8
loop_
 _symmetry_equiv_pos_site_id
 _symmetry_equiv_pos_as_xyz
  1  'x, y, z'
loop_
 _atom_site_type_symbol
 _atom_site_label
 _atom_site_symmetry_multiplicity
 _atom_site_fract_x
 _atom_site_fract_y
 _atom_site_fract_z
 _atom_site_occupancy
 _atom_site_charge
Zr  Zr1  1  0.41919000  0.93711000  0.28736000  1.0 1.711896222
Zr  Zr2  1  0.41922000  0.93663000  0.13850000  1.0 0.5089766593
Zr  Zr3  1  0.58081000  0.06289000  0.28736000  1.0 1.715749404
Zr  Zr4  1  0.58078000  0.06337000  0.13850000  1.0 0.5089766593
Zr  Zr5  1  0.43711000  0.08081000  0.28736000  1.0 1.711896222
Zr  Zr6  1  0.43663000  0.08078000  0.13850000  1.0 0.5089766593
Zr  Zr7  1  0.56289000  0.91919000  0.28736000  1.0 1.715749404
Zr  Zr8  1  0.56337000  0.91922000  0.13850000  1.0 0.5089766593
Zr  Zr9  1  0.08081000  0.56289000  0.71264000  1.0 1.711896222
Zr  Zr10  1  0.08078000  0.56337000  0.86150000  1.0 0.5089766593
Zr  Zr11  1  0.91919000  0.43711000  0.71264000  1.0 1.711896222
Zr  Zr12  1  0.91922000  0.43663000  0.86150000  1.0 0.5089766593
Zr  Zr13  1  0.06289000  0.41919000  0.71264000  1.0 1.711896222
Zr  Zr14  1  0.06337000  0.41922000  0.86150000  1.0 0.5089766593
Zr  Zr15  1  0.93711000  0.58081000  0.71264000  1.0 1.711896222
Zr  Zr16  1  0.93663000  0.58078000  0.86150000  1.0 0.5089766593
Zr  Zr17  1  0.50000000  0.00000000  0.11821000  1.0 0.8569551321
Zr  Zr18  1  0.50000000  0.00000000  0.45691000  1.0 1.9499454709
Zr  Zr19  1  0.50000000  0.00000000  0.30720000  1.0 0.6763343425
Zr  Zr20  1  0.50000000  0.00000000  0.97090000  1.0 1.082841179
Zr  Zr21  1  0.00000000  0.50000000  0.88179000  1.0 0.8534187885
Zr  Zr22  1  0.00000000  0.50000000  0.54309000  1.0 1.9499454709
Zr  Zr23  1  0.00000000  0.50000000  0.69280000  1.0 0.6749155732
Zr  Zr24  1  0.00000000  0.50000000  0.02910000  1.0 1.0914762231
H  H1  1  0.31460000  0.85730000  0.08180000  1.0 0.1006983282
H  H2  1  0.25880000  0.81450000  0.96620000  1.0 0.1284989888
H  H3  1  0.40440000  0.92930000  0.88620000  1.0 0.1204600268
H  H4  1  0.31630000  0.85600000  0.49860000  1.0 0.1204600268
H  H5  1  0.25300000  0.82090000  0.60340000  1.0 0.1204600268
H  H6  1  0.40380000  0.92920000  0.68340000  1.0 0.1391072139
H  H7  1  0.17830000  0.84080000  0.85610000  1.0 0.1204600268
H  H8  1  0.10090000  0.78630000  0.84640000  1.0 0.1083526226
H  H9  1  0.18540000  0.67540000  0.70090000  1.0 0.1204600268
H  H10  1  0.26280000  0.72990000  0.71060000  1.0 0.1204600268
H  H11  1  0.68540000  0.14270000  0.08180000  1.0 0.1006983282
H  H12  1  0.74120000  0.18550000  0.96620000  1.0 0.1284989888
H  H13  1  0.59560000  0.07070000  0.88620000  1.0 0.1204600268
H  H14  1  0.68370000  0.14400000  0.49860000  1.0 0.1204600268
H  H15  1  0.74700000  0.17910000  0.60340000  1.0 0.1204600268
H  H16  1  0.59620000  0.07080000  0.68340000  1.0 0.1391072139
H  H17  1  0.82170000  0.15920000  0.85610000  1.0 0.1204600268
H  H18  1  0.89910000  0.21370000  0.84640000  1.0 0.1083526226
H  H19  1  0.81460000  0.32460000  0.70090000  1.0 0.1204600268
H  H20  1  0.73720000  0.27010000  0.71060000  1.0 0.1204600268
H  H21  1  0.35730000  0.18540000  0.08180000  1.0 0.1006983282
H  H22  1  0.31450000  0.24120000  0.96620000  1.0 0.1284989888
H  H23  1  0.42930000  0.09560000  0.88620000  1.0 0.1204600268
H  H24  1  0.35600000  0.18370000  0.49860000  1.0 0.1204600268
H  H25  1  0.32090000  0.24700000  0.60340000  1.0 0.1204600268
H  H26  1  0.42920000  0.09620000  0.68340000  1.0 0.1391072139
H  H27  1  0.34080000  0.32170000  0.85610000  1.0 0.1204600268
H  H28  1  0.28630000  0.39910000  0.84640000  1.0 0.1083526226
H  H29  1  0.17540000  0.31460000  0.70090000  1.0 0.1204600268
H  H30  1  0.22990000  0.23720000  0.71060000  1.0 0.1204600268
H  H31  1  0.64270000  0.81460000  0.08180000  1.0 0.1006983282
H  H32  1  0.68550000  0.75880000  0.96620000  1.0 0.1284989888
H  H33  1  0.57070000  0.90440000  0.88620000  1.0 0.1204600268
H  H34  1  0.64400000  0.81630000  0.49860000  1.0 0.1204600268
H  H35  1  0.67910000  0.75300000  0.60340000  1.0 0.1204600268
H  H36  1  0.57080000  0.90380000  0.68340000  1.0 0.1391072139
H  H37  1  0.65920000  0.67830000  0.85610000  1.0 0.1204600268
H  H38  1  0.71370000  0.60090000  0.84640000  1.0 0.1083526226
H  H39  1  0.82460000  0.68540000  0.70090000  1.0 0.1204600268
H  H40  1  0.77010000  0.76280000  0.71060000  1.0 0.1204600268
H  H41  1  0.18540000  0.64270000  0.91820000  1.0 0.1006983282
H  H42  1  0.24120000  0.68550000  0.03380000  1.0 0.1284989888
H  H43  1  0.09560000  0.57070000  0.11380000  1.0 0.1204600268
H  H44  1  0.18370000  0.64400000  0.50140000  1.0 0.1204600268
H  H45  1  0.24700000  0.67910000  0.39660000  1.0 0.1204600268
H  H46  1  0.09620000  0.57080000  0.31660000  1.0 0.1391072139
H  H47  1  0.32170000  0.65920000  0.14390000  1.0 0.1204600268
H  H48  1  0.39910000  0.71370000  0.15360000  1.0 0.1083526226
H  H49  1  0.31460000  0.82460000  0.29910000  1.0 0.1204600268
H  H50  1  0.23720000  0.77010000  0.28940000  1.0 0.1204600268
H  H51  1  0.81460000  0.35730000  0.91820000  1.0 0.1006983282
H  H52  1  0.75880000  0.31450000  0.03380000  1.0 0.1284989888
H  H53  1  0.90440000  0.42930000  0.11380000  1.0 0.1204600268
H  H54  1  0.81630000  0.35600000  0.50140000  1.0 0.1204600268
H  H55  1  0.75300000  0.32090000  0.39660000  1.0 0.1204600268
H  H56  1  0.90380000  0.42920000  0.31660000  1.0 0.1391072139
H  H57  1  0.67830000  0.34080000  0.14390000  1.0 0.1204600268
H  H58  1  0.60090000  0.28630000  0.15360000  1.0 0.1083526226
H  H59  1  0.68540000  0.17540000  0.29910000  1.0 0.1204600268
H  H60  1  0.76280000  0.22990000  0.28940000  1.0 0.1204600268
H  H61  1  0.14270000  0.31460000  0.91820000  1.0 0.1006983282
H  H62  1  0.18550000  0.25880000  0.03380000  1.0 0.1284989888
H  H63  1  0.07070000  0.40440000  0.11380000  1.0 0.1204600268
H  H64  1  0.14400000  0.31630000  0.50140000  1.0 0.1204600268
H  H65  1  0.17910000  0.25300000  0.39660000  1.0 0.1204600268
H  H66  1  0.07080000  0.40380000  0.31660000  1.0 0.1391072139
H  H67  1  0.15920000  0.17830000  0.14390000  1.0 0.1204600268
H  H68  1  0.21370000  0.10090000  0.15360000  1.0 0.1083526226
H  H69  1  0.32460000  0.18540000  0.29910000  1.0 0.1204600268
H  H70  1  0.27010000  0.26280000  0.28940000  1.0 0.1204600268
H  H71  1  0.85730000  0.68540000  0.91820000  1.0 0.1006983282
H  H72  1  0.81450000  0.74120000  0.03380000  1.0 0.1284989888
H  H73  1  0.92930000  0.59560000  0.11380000  1.0 0.1204600268
H  H74  1  0.85600000  0.68370000  0.50140000  1.0 0.1204600268
H  H75  1  0.82090000  0.74700000  0.39660000  1.0 0.1204600268
H  H76  1  0.92920000  0.59620000  0.31660000  1.0 0.1391072139
H  H77  1  0.84080000  0.82170000  0.14390000  1.0 0.1204600268
H  H78  1  0.78630000  0.89910000  0.15360000  1.0 0.1083526226
H  H79  1  0.67540000  0.81460000  0.29910000  1.0 0.1204600268
H  H80  1  0.72990000  0.73720000  0.28940000  1.0 0.1204600268
C  C1  1  0.39940000  0.92360000  0.06750000  1.0 0.2496565045
C  C2  1  0.37250000  0.90060000  0.99150000  1.0 -0.101937986
C  C3  1  0.32220000  0.86290000  0.02030000  1.0 0.0127679255
C  C4  1  0.28800000  0.83710000  0.95060000  1.0 -0.2283308222
C  C5  1  0.30090000  0.84750000  0.86330000  1.0 0.1391072139
C  C6  1  0.34360000  0.88120000  0.83780000  1.0 -0.0095732732
C  C7  1  0.37670000  0.90620000  0.90670000  1.0 -0.0744196041
C  C8  1  0.39750000  0.92290000  0.50540000  1.0 0.6327946992
C  C9  1  0.36210000  0.89480000  0.57860000  1.0 -0.0373590938
C  C10  1  0.32170000  0.86360000  0.56020000  1.0 -0.101937986
C  C11  1  0.28450000  0.83940000  0.62080000  1.0 -0.2021507494
C  C12  1  0.30110000  0.84680000  0.70890000  1.0 0.1006983282
C  C13  1  0.34580000  0.88150000  0.72860000  1.0 0.0127679255
C  C14  1  0.37530000  0.90570000  0.66780000  1.0 -0.1396175412
C  C15  1  0.22830000  0.79080000  0.78430000  1.0 0.164713523
C  C16  1  0.17970000  0.80760000  0.82500000  1.0 -0.2021507494
C  C17  1  0.13330000  0.77500000  0.81920000  1.0 -0.0902317459
C  C18  1  0.13540000  0.72550000  0.77270000  1.0 -0.0373590938
C  C19  1  0.18390000  0.70860000  0.73200000  1.0 -0.0902317459
C  C20  1  0.23040000  0.74120000  0.73780000  1.0 -0.2177537767
C  C21  1  0.08750000  0.68690000  0.77580000  1.0 0.5542428555
C  C22  1  0.60060000  0.07640000  0.06750000  1.0 0.2496565045
C  C23  1  0.62750000  0.09940000  0.99150000  1.0 -0.101937986
C  C24  1  0.67780000  0.13710000  0.02030000  1.0 0.0127679255
C  C25  1  0.71200000  0.16290000  0.95060000  1.0 -0.2283308222
C  C26  1  0.69910000  0.15250000  0.86330000  1.0 0.1391072139
C  C27  1  0.65640000  0.11880000  0.83780000  1.0 -0.0095732732
C  C28  1  0.62330000  0.09380000  0.90670000  1.0 -0.0744196041
C  C29  1  0.60250000  0.07710000  0.50540000  1.0 0.6327946992
C  C30  1  0.63790000  0.10520000  0.57860000  1.0 -0.0373590938
C  C31  1  0.67830000  0.13640000  0.56020000  1.0 -0.101937986
C  C32  1  0.71550000  0.16060000  0.62080000  1.0 -0.2021507494
C  C33  1  0.69890000  0.15320000  0.70890000  1.0 0.1006983282
C  C34  1  0.65420000  0.11850000  0.72860000  1.0 0.0127679255
C  C35  1  0.62470000  0.09430000  0.66780000  1.0 -0.1396175412
C  C36  1  0.77170000  0.20920000  0.78430000  1.0 0.1651450308
C  C37  1  0.82030000  0.19240000  0.82500000  1.0 -0.2021507494
C  C38  1  0.86670000  0.22500000  0.81920000  1.0 -0.0902317459
C  C39  1  0.86460000  0.27450000  0.77270000  1.0 -0.0373590938
C  C40  1  0.81610000  0.29140000  0.73200000  1.0 -0.0902317459
C  C41  1  0.76960000  0.25880000  0.73780000  1.0 -0.2177537767
C  C42  1  0.91250000  0.31310000  0.77580000  1.0 0.5542428555
C  C43  1  0.42360000  0.10060000  0.06750000  1.0 0.2496565045
C  C44  1  0.40060000  0.12750000  0.99150000  1.0 -0.101937986
C  C45  1  0.36290000  0.17780000  0.02030000  1.0 0.0127679255
C  C46  1  0.33710000  0.21200000  0.95060000  1.0 -0.2283308222
C  C47  1  0.34750000  0.19910000  0.86330000  1.0 0.1391072139
C  C48  1  0.38120000  0.15640000  0.83780000  1.0 -0.0095732732
C  C49  1  0.40620000  0.12330000  0.90670000  1.0 -0.0744196041
C  C50  1  0.42290000  0.10250000  0.50540000  1.0 0.6327946992
C  C51  1  0.39480000  0.13790000  0.57860000  1.0 -0.0373590938
C  C52  1  0.36360000  0.17830000  0.56020000  1.0 -0.101937986
C  C53  1  0.33940000  0.21550000  0.62080000  1.0 -0.2021507494
C  C54  1  0.34680000  0.19890000  0.70890000  1.0 0.1006983282
C  C55  1  0.38150000  0.15420000  0.72860000  1.0 0.0127679255
C  C56  1  0.40570000  0.12470000  0.66780000  1.0 -0.1396175412
C  C57  1  0.29080000  0.27170000  0.78430000  1.0 0.164713523
C  C58  1  0.30760000  0.32030000  0.82500000  1.0 -0.2021507494
C  C59  1  0.27500000  0.36670000  0.81920000  1.0 -0.0902317459
C  C60  1  0.22550000  0.36460000  0.77270000  1.0 -0.0373590938
C  C61  1  0.20860000  0.31610000  0.73200000  1.0 -0.0902317459
C  C62  1  0.24120000  0.26960000  0.73780000  1.0 -0.2177537767
C  C63  1  0.18690000  0.41250000  0.77580000  1.0 0.5542428555
C  C64  1  0.57640000  0.89940000  0.06750000  1.0 0.2496565045
C  C65  1  0.59940000  0.87250000  0.99150000  1.0 -0.101937986
C  C66  1  0.63710000  0.82220000  0.02030000  1.0 0.0127679255
C  C67  1  0.66290000  0.78800000  0.95060000  1.0 -0.2283308222
C  C68  1  0.65250000  0.80090000  0.86330000  1.0 0.1391072139
C  C69  1  0.61880000  0.84360000  0.83780000  1.0 -0.0095732732
C  C70  1  0.59380000  0.87670000  0.90670000  1.0 -0.0744196041
C  C71  1  0.57710000  0.89750000  0.50540000  1.0 0.6327946992
C  C72  1  0.60520000  0.86210000  0.57860000  1.0 -0.0373590938
C  C73  1  0.63640000  0.82170000  0.56020000  1.0 -0.101937986
C  C74  1  0.66060000  0.78450000  0.62080000  1.0 -0.2021507494
C  C75  1  0.65320000  0.80110000  0.70890000  1.0 0.1006983282
C  C76  1  0.61850000  0.84580000  0.72860000  1.0 0.0127679255
C  C77  1  0.59430000  0.87530000  0.66780000  1.0 -0.1396175412
C  C78  1  0.70920000  0.72830000  0.78430000  1.0 0.1651450308
C  C79  1  0.69240000  0.67970000  0.82500000  1.0 -0.2021507494
C  C80  1  0.72500000  0.63330000  0.81920000  1.0 -0.0902317459
C  C81  1  0.77450000  0.63540000  0.77270000  1.0 -0.0373590938
C  C82  1  0.79140000  0.68390000  0.73200000  1.0 -0.0902317459
C  C83  1  0.75880000  0.73040000  0.73780000  1.0 -0.2177537767
C  C84  1  0.81310000  0.58750000  0.77580000  1.0 0.5542428555
C  C85  1  0.10060000  0.57640000  0.93250000  1.0 0.2496565045
C  C86  1  0.12750000  0.59940000  0.00850000  1.0 -0.101937986
C  C87  1  0.17780000  0.63710000  0.97970000  1.0 0.0127679255
C  C88  1  0.21200000  0.66290000  0.04940000  1.0 -0.2283308222
C  C89  1  0.19910000  0.65250000  0.13670000  1.0 0.1391072139
C  C90  1  0.15640000  0.61880000  0.16220000  1.0 -0.0095732732
C  C91  1  0.12330000  0.59380000  0.09330000  1.0 -0.0744196041
C  C92  1  0.10250000  0.57710000  0.49460000  1.0 0.6327946992
C  C93  1  0.13790000  0.60520000  0.42140000  1.0 -0.0373590938
C  C94  1  0.17830000  0.63640000  0.43980000  1.0 -0.101937986
C  C95  1  0.21550000  0.66060000  0.37920000  1.0 -0.2021507494
C  C96  1  0.19890000  0.65320000  0.29110000  1.0 0.1006983282
C  C97  1  0.15420000  0.61850000  0.27140000  1.0 0.0127679255
C  C98  1  0.12470000  0.59430000  0.33220000  1.0 -0.1396175412
C  C99  1  0.27170000  0.70920000  0.21570000  1.0 0.1651450308
C  C100  1  0.32030000  0.69240000  0.17500000  1.0 -0.2021507494
C  C101  1  0.36670000  0.72500000  0.18080000  1.0 -0.0902317459
C  C102  1  0.36460000  0.77450000  0.22730000  1.0 -0.0373590938
C  C103  1  0.31610000  0.79140000  0.26800000  1.0 -0.0902317459
C  C104  1  0.26960000  0.75880000  0.26220000  1.0 -0.2177537767
C  C105  1  0.41250000  0.81310000  0.22420000  1.0 0.5542428555
C  C106  1  0.89940000  0.42360000  0.93250000  1.0 0.2496565045
C  C107  1  0.87250000  0.40060000  0.00850000  1.0 -0.101937986
C  C108  1  0.82220000  0.36290000  0.97970000  1.0 0.0127679255
C  C109  1  0.78800000  0.33710000  0.04940000  1.0 -0.2283308222
C  C110  1  0.80090000  0.34750000  0.13670000  1.0 0.1391072139
C  C111  1  0.84360000  0.38120000  0.16220000  1.0 -0.0095732732
C  C112  1  0.87670000  0.40620000  0.09330000  1.0 -0.0744196041
C  C113  1  0.89750000  0.42290000  0.49460000  1.0 0.6327946992
C  C114  1  0.86210000  0.39480000  0.42140000  1.0 -0.0373590938
C  C115  1  0.82170000  0.36360000  0.43980000  1.0 -0.101937986
C  C116  1  0.78450000  0.33940000  0.37920000  1.0 -0.2021507494
C  C117  1  0.80110000  0.34680000  0.29110000  1.0 0.1006983282
C  C118  1  0.84580000  0.38150000  0.27140000  1.0 0.0127679255
C  C119  1  0.87530000  0.40570000  0.33220000  1.0 -0.1396175412
C  C120  1  0.72830000  0.29080000  0.21570000  1.0 0.1651450308
C  C121  1  0.67970000  0.30760000  0.17500000  1.0 -0.2021507494
C  C122  1  0.63330000  0.27500000  0.18080000  1.0 -0.0902317459
C  C123  1  0.63540000  0.22550000  0.22730000  1.0 -0.0373590938
C  C124  1  0.68390000  0.20860000  0.26800000  1.0 -0.0902317459
C  C125  1  0.73040000  0.24120000  0.26220000  1.0 -0.2177537767
C  C126  1  0.58750000  0.18690000  0.22420000  1.0 0.5542428555
C  C127  1  0.07640000  0.39940000  0.93250000  1.0 0.2496565045
C  C128  1  0.09940000  0.37250000  0.00850000  1.0 -0.101937986
C  C129  1  0.13710000  0.32220000  0.97970000  1.0 0.0127679255
C  C130  1  0.16290000  0.28800000  0.04940000  1.0 -0.2283308222
C  C131  1  0.15250000  0.30090000  0.13670000  1.0 0.1391072139
C  C132  1  0.11880000  0.34360000  0.16220000  1.0 -0.0095732732
C  C133  1  0.09380000  0.37670000  0.09330000  1.0 -0.0744196041
C  C134  1  0.07710000  0.39750000  0.49460000  1.0 0.6327946992
C  C135  1  0.10520000  0.36210000  0.42140000  1.0 -0.0373590938
C  C136  1  0.13640000  0.32170000  0.43980000  1.0 -0.101937986
C  C137  1  0.16060000  0.28450000  0.37920000  1.0 -0.2021507494
C  C138  1  0.15320000  0.30110000  0.29110000  1.0 0.1006983282
C  C139  1  0.11850000  0.34580000  0.27140000  1.0 0.0127679255
C  C140  1  0.09430000  0.37530000  0.33220000  1.0 -0.1396175412
C  C141  1  0.20920000  0.22830000  0.21570000  1.0 0.1651450308
C  C142  1  0.19240000  0.17970000  0.17500000  1.0 -0.2021507494
C  C143  1  0.22500000  0.13330000  0.18080000  1.0 -0.0902317459
C  C144  1  0.27450000  0.13540000  0.22730000  1.0 -0.0373590938
C  C145  1  0.29140000  0.18390000  0.26800000  1.0 -0.0902317459
C  C146  1  0.25880000  0.23040000  0.26220000  1.0 -0.2177537767
C  C147  1  0.31310000  0.08750000  0.22420000  1.0 0.5542428555
C  C148  1  0.92360000  0.60060000  0.93250000  1.0 0.2496565045
C  C149  1  0.90060000  0.62750000  0.00850000  1.0 -0.101937986
C  C150  1  0.86290000  0.67780000  0.97970000  1.0 0.0127679255
C  C151  1  0.83710000  0.71200000  0.04940000  1.0 -0.2283308222
C  C152  1  0.84750000  0.69910000  0.13670000  1.0 0.1391072139
C  C153  1  0.88120000  0.65640000  0.16220000  1.0 -0.0095732732
C  C154  1  0.90620000  0.62330000  0.09330000  1.0 -0.0744196041
C  C155  1  0.92290000  0.60250000  0.49460000  1.0 0.6327946992
C  C156  1  0.89480000  0.63790000  0.42140000  1.0 -0.0373590938
C  C157  1  0.86360000  0.67830000  0.43980000  1.0 -0.101937986
C  C158  1  0.83940000  0.71550000  0.37920000  1.0 -0.2021507494
C  C159  1  0.84680000  0.69890000  0.29110000  1.0 0.1006983282
C  C160  1  0.88150000  0.65420000  0.27140000  1.0 0.0127679255
C  C161  1  0.90570000  0.62470000  0.33220000  1.0 -0.1396175412
C  C162  1  0.79080000  0.77170000  0.21570000  1.0 0.1651450308
C  C163  1  0.80760000  0.82030000  0.17500000  1.0 -0.2021507494
C  C164  1  0.77500000  0.86670000  0.18080000  1.0 -0.0902317459
C  C165  1  0.72550000  0.86460000  0.22730000  1.0 -0.0373590938
C  C166  1  0.70860000  0.81610000  0.26800000  1.0 -0.0902317459
C  C167  1  0.74120000  0.76960000  0.26220000  1.0 -0.2177537767
C  C168  1  0.68690000  0.91250000  0.22420000  1.0 0.5542428555
N  N1  1  0.27500000  0.82770000  0.78860000  1.0 -0.101937986
N  N2  1  0.72500000  0.17230000  0.78860000  1.0 -0.101937986
N  N3  1  0.32770000  0.22500000  0.78860000  1.0 -0.101937986
N  N4  1  0.67230000  0.77500000  0.78860000  1.0 -0.101937986
N  N5  1  0.22500000  0.67230000  0.21140000  1.0 -0.101937986
N  N6  1  0.77500000  0.32770000  0.21140000  1.0 -0.101937986
N  N7  1  0.17230000  0.27500000  0.21140000  1.0 -0.101937986
N  N8  1  0.82770000  0.72500000  0.21140000  1.0 -0.101937986
O  O1  1  0.42840000  0.00940000  0.20720000  1.0 -0.843559557
O  O2  1  0.50850000  0.07210000  0.36980000  1.0 -0.9196726023
O  O3  1  0.43970000  0.95200000  0.03980000  1.0 -0.5104876844
O  O4  1  0.38610000  0.91450000  0.14770000  1.0 -0.4155915169
O  O5  1  0.38480000  0.91400000  0.42620000  1.0 -0.519553454
O  O6  1  0.43850000  0.95330000  0.53210000  1.0 -0.5746795548
O  O7  1  0.08800000  0.65050000  0.71320000  1.0 -0.578505495
O  O8  1  0.04280000  0.70490000  0.80030000  1.0 -0.433263102
O  O9  1  0.57160000  0.99060000  0.20720000  1.0 -0.843559557
O  O10  1  0.49150000  0.92790000  0.36980000  1.0 -0.9196726023
O  O11  1  0.56030000  0.04800000  0.03980000  1.0 -0.5104876844
O  O12  1  0.61390000  0.08550000  0.14770000  1.0 -0.4155915169
O  O13  1  0.61520000  0.08600000  0.42620000  1.0 -0.519553454
O  O14  1  0.56150000  0.04670000  0.53210000  1.0 -0.5746795548
O  O15  1  0.91200000  0.34950000  0.71320000  1.0 -0.578505495
O  O16  1  0.95720000  0.29510000  0.80030000  1.0 -0.433263102
O  O17  1  0.50940000  0.07160000  0.20720000  1.0 -0.843559557
O  O18  1  0.57210000  0.99150000  0.36980000  1.0 -0.9196726023
O  O19  1  0.45200000  0.06030000  0.03980000  1.0 -0.5104876844
O  O20  1  0.41450000  0.11390000  0.14770000  1.0 -0.4155915169
O  O21  1  0.41400000  0.11520000  0.42620000  1.0 -0.519553454
O  O22  1  0.45330000  0.06150000  0.53210000  1.0 -0.5746795548
O  O23  1  0.15050000  0.41200000  0.71320000  1.0 -0.578505495
O  O24  1  0.20490000  0.45720000  0.80030000  1.0 -0.433263102
O  O25  1  0.49060000  0.92840000  0.20720000  1.0 -0.843559557
O  O26  1  0.42790000  0.00850000  0.36980000  1.0 -0.9196726023
O  O27  1  0.54800000  0.93970000  0.03980000  1.0 -0.5104876844
O  O28  1  0.58550000  0.88610000  0.14770000  1.0 -0.4155915169
O  O29  1  0.58600000  0.88480000  0.42620000  1.0 -0.519553454
O  O30  1  0.54670000  0.93850000  0.53210000  1.0 -0.5746795548
O  O31  1  0.84950000  0.58800000  0.71320000  1.0 -0.578505495
O  O32  1  0.79510000  0.54280000  0.80030000  1.0 -0.433263102
O  O33  1  0.07160000  0.49060000  0.79280000  1.0 -0.843559557
O  O34  1  0.99150000  0.42790000  0.63020000  1.0 -0.9196726023
O  O35  1  0.06030000  0.54800000  0.96020000  1.0 -0.5104876844
O  O36  1  0.11390000  0.58550000  0.85230000  1.0 -0.4155915169
O  O37  1  0.11520000  0.58600000  0.57380000  1.0 -0.519553454
O  O38  1  0.06150000  0.54670000  0.46790000  1.0 -0.5746795548
O  O39  1  0.41200000  0.84950000  0.28680000  1.0 -0.578505495
O  O40  1  0.45720000  0.79510000  0.19970000  1.0 -0.433263102
O  O41  1  0.92840000  0.50940000  0.79280000  1.0 -0.843559557
O  O42  1  0.00850000  0.57210000  0.63020000  1.0 -0.9196726023
O  O43  1  0.93970000  0.45200000  0.96020000  1.0 -0.5104876844
O  O44  1  0.88610000  0.41450000  0.85230000  1.0 -0.4155915169
O  O45  1  0.88480000  0.41400000  0.57380000  1.0 -0.519553454
O  O46  1  0.93850000  0.45330000  0.46790000  1.0 -0.5746795548
O  O47  1  0.58800000  0.15050000  0.28680000  1.0 -0.578505495
O  O48  1  0.54280000  0.20490000  0.19970000  1.0 -0.433263102
O  O49  1  0.99060000  0.42840000  0.79280000  1.0 -0.843559557
O  O50  1  0.92790000  0.50850000  0.63020000  1.0 -0.9196726023
O  O51  1  0.04800000  0.43970000  0.96020000  1.0 -0.5104876844
O  O52  1  0.08550000  0.38610000  0.85230000  1.0 -0.4155915169
O  O53  1  0.08600000  0.38480000  0.57380000  1.0 -0.519553454
O  O54  1  0.04670000  0.43850000  0.46790000  1.0 -0.5746795548
O  O55  1  0.34950000  0.08800000  0.28680000  1.0 -0.578505495
O  O56  1  0.29510000  0.04280000  0.19970000  1.0 -0.433263102
O  O57  1  0.00940000  0.57160000  0.79280000  1.0 -0.843559557
O  O58  1  0.07210000  0.49150000  0.63020000  1.0 -0.9196726023
O  O59  1  0.95200000  0.56030000  0.96020000  1.0 -0.5104876844
O  O60  1  0.91450000  0.61390000  0.85230000  1.0 -0.4155915169
O  O61  1  0.91400000  0.61520000  0.57380000  1.0 -0.519553454
O  O62  1  0.95330000  0.56150000  0.46790000  1.0 -0.5746795548
O  O63  1  0.65050000  0.91200000  0.28680000  1.0 -0.578505495
O  O64  1  0.70490000  0.95720000  0.19970000  1.0 -0.433263102
