# DDEC6 charges by PACMAN v1.1 (https://github.com/mtap-research/PACMAN-charge/)
data_GEBCAT_ASR_pacman
_symmetry_space_group_name_H-M   'P 1'
_cell_length_a   17.69220000
_cell_length_b   17.69220000
_cell_length_c   17.69220000
_cell_angle_alpha   136.21800000
_cell_angle_beta   136.21800000
_cell_angle_gamma   63.64290000
_symmetry_Int_Tables_number   1
_chemical_formula_structural   KCo3H10(C6O7)2
_chemical_formula_sum   'K4 Co12 H40 C48 O56'
_cell_volume   2616.48646622
_cell_formula_units_Z   4
loop_
 _symmetry_equiv_pos_site_id
 _symmetry_equiv_pos_as_xyz
  1  'x, y, z'
loop_
 _atom_site_type_symbol
 _atom_site_label
 _atom_site_symmetry_multiplicity
 _atom_site_fract_x
 _atom_site_fract_y
 _atom_site_fract_z
 _atom_site_occupancy
 _atom_site_charge
K  K1  1  0.87500000  0.96041000  0.58541000  1.0 0.8792400653
K  K2  1  0.03959000  0.62500000  0.91459000  1.0 0.8792400653
K  K3  1  0.37500000  0.28959000  0.41459000  1.0 0.8792400653
K  K4  1  0.71041000  0.12500000  0.08541000  1.0 0.8792400653
Co  Co1  1  0.74085000  0.18567000  0.34586000  1.0 0.9637196357
Co  Co2  1  0.81433000  0.16019000  0.55518000  1.0 0.9637196357
Co  Co3  1  0.83981000  0.39499000  0.65414000  1.0 0.9637196357
Co  Co4  1  0.60501000  0.25915000  0.44482000  1.0 0.9637196357
Co  Co5  1  0.91019000  0.06433000  0.05518000  1.0 0.9637196357
Co  Co6  1  0.93567000  0.99085000  0.84586000  1.0 0.9637196357
Co  Co7  1  0.00915000  0.85501000  0.94482000  1.0 0.9637196357
Co  Co8  1  0.14499000  0.08981000  0.15414000  1.0 0.9637196357
Co  Co9  1  0.80787000  0.80787000  0.00000000  1.0 1.010156184
Co  Co10  1  0.19213000  0.19213000  0.00000000  1.0 1.010156184
Co  Co11  1  0.94213000  0.44213000  0.50000000  1.0 1.010156184
Co  Co12  1  0.55787000  0.05787000  0.50000000  1.0 1.010156184
H  H1  1  0.53670000  0.88490000  0.00580000  1.0 0.1504612328
H  H2  1  0.11510000  0.12090000  0.65180000  1.0 0.1504612328
H  H3  1  0.87910000  0.53090000  0.99420000  1.0 0.1504612328
H  H4  1  0.46910000  0.46330000  0.34820000  1.0 0.1504612328
H  H5  1  0.87090000  0.36510000  0.15180000  1.0 0.1504612328
H  H6  1  0.63490000  0.78670000  0.50580000  1.0 0.1504612328
H  H7  1  0.21330000  0.71910000  0.84820000  1.0 0.1504612328
H  H8  1  0.28090000  0.12910000  0.49420000  1.0 0.1504612328
H  H9  1  0.53720000  0.00750000  0.06570000  1.0 0.1553412969
H  H10  1  0.99250000  0.05820000  0.52970000  1.0 0.1553412969
H  H11  1  0.94180000  0.47150000  0.93430000  1.0 0.1553412969
H  H12  1  0.52850000  0.46280000  0.47030000  1.0 0.1553412969
H  H13  1  0.80820000  0.24250000  0.02970000  1.0 0.1553412969
H  H14  1  0.75750000  0.78720000  0.56570000  1.0 0.1553412969
H  H15  1  0.21280000  0.77850000  0.97030000  1.0 0.1553412969
H  H16  1  0.22150000  0.19180000  0.43430000  1.0 0.1553412969
H  H17  1  0.45150000  0.02420000  0.13830000  1.0 0.1504612328
H  H18  1  0.97580000  0.11410000  0.42730000  1.0 0.1504612328
H  H19  1  0.88590000  0.31320000  0.86170000  1.0 0.1504612328
H  H20  1  0.68680000  0.54850000  0.57270000  1.0 0.1504612328
H  H21  1  0.86410000  0.22580000  0.92730000  1.0 0.1504612328
H  H22  1  0.77420000  0.70150000  0.63830000  1.0 0.1504612328
H  H23  1  0.29850000  0.93680000  0.07270000  1.0 0.1504612328
H  H24  1  0.06320000  0.13590000  0.36170000  1.0 0.1504612328
H  H25  1  0.48060000  0.91160000  0.11080000  1.0 0.1342684473
H  H26  1  0.08840000  0.19920000  0.56900000  1.0 0.1342684473
H  H27  1  0.80080000  0.36980000  0.88920000  1.0 0.1342684473
H  H28  1  0.63020000  0.51940000  0.43100000  1.0 0.1342684473
H  H29  1  0.94920000  0.33840000  0.06900000  1.0 0.1342684473
H  H30  1  0.66160000  0.73060000  0.61080000  1.0 0.1342684473
H  H31  1  0.26940000  0.88020000  0.93100000  1.0 0.1342684473
H  H32  1  0.11980000  0.05080000  0.38920000  1.0 0.1342684473
H  H33  1  0.71453000  0.79571000  0.20300000  1.0 0.3684742148
H  H34  1  0.20429000  0.40729000  0.91882000  1.0 0.3684742148
H  H35  1  0.59271000  0.51153000  0.79700000  1.0 0.3684742148
H  H36  1  0.48847000  0.28547000  0.08118000  1.0 0.3684742148
H  H37  1  0.15729000  0.45429000  0.41882000  1.0 0.3684742148
H  H38  1  0.54571000  0.96453000  0.70300000  1.0 0.3684742148
H  H39  1  0.03547000  0.73847000  0.58118000  1.0 0.3684742148
H  H40  1  0.26153000  0.84271000  0.29700000  1.0 0.3684742148
C  C1  1  0.68046000  0.94584000  0.09960000  1.0 0.6694390471
C  C2  1  0.05416000  0.15376000  0.73462000  1.0 0.6694390471
C  C3  1  0.84624000  0.58086000  0.90040000  1.0 0.6694390471
C  C4  1  0.41914000  0.31954000  0.26538000  1.0 0.6694390471
C  C5  1  0.90376000  0.30416000  0.23462000  1.0 0.6694390471
C  C6  1  0.69584000  0.93046000  0.59960000  1.0 0.6694390471
C  C7  1  0.06954000  0.66914000  0.76538000  1.0 0.6694390471
C  C8  1  0.33086000  0.09624000  0.40040000  1.0 0.6694390471
C  C9  1  0.58290000  0.95803000  0.08741000  1.0 -0.4358275873
C  C10  1  0.04197000  0.12938000  0.62487000  1.0 -0.4358275873
C  C11  1  0.87062000  0.49549000  0.91259000  1.0 -0.4358275873
C  C12  1  0.50451000  0.41710000  0.37513000  1.0 -0.4358275873
C  C13  1  0.87938000  0.29197000  0.12487000  1.0 -0.4358275873
C  C14  1  0.70803000  0.83290000  0.58741000  1.0 -0.4358275873
C  C15  1  0.16710000  0.75451000  0.87513000  1.0 -0.4358275873
C  C16  1  0.24549000  0.12062000  0.41259000  1.0 -0.4358275873
C  C17  1  0.61767000  0.00568000  0.22737000  1.0 0.2722469266
C  C18  1  0.99432000  0.22169000  0.61199000  1.0 0.2722469266
C  C19  1  0.77831000  0.39030000  0.77263000  1.0 0.2722469266
C  C20  1  0.60970000  0.38233000  0.38801000  1.0 0.2722469266
C  C21  1  0.97169000  0.24432000  0.11199000  1.0 0.2722469266
C  C22  1  0.75568000  0.86767000  0.72737000  1.0 0.2722469266
C  C23  1  0.13233000  0.85970000  0.88801000  1.0 0.2722469266
C  C24  1  0.14030000  0.02831000  0.27263000  1.0 0.2722469266
C  C25  1  0.50800000  0.99143000  0.18363000  1.0 -0.4340176736
C  C26  1  0.00857000  0.19220000  0.51657000  1.0 -0.4340176736
C  C27  1  0.80780000  0.32437000  0.81637000  1.0 -0.4340176736
C  C28  1  0.67563000  0.49200000  0.48343000  1.0 -0.4340176736
C  C29  1  0.94220000  0.25857000  0.01657000  1.0 -0.4340176736
C  C30  1  0.74143000  0.75800000  0.68363000  1.0 -0.4340176736
C  C31  1  0.24200000  0.92563000  0.98343000  1.0 -0.4340176736
C  C32  1  0.07437000  0.05780000  0.31637000  1.0 -0.4340176736
C  C33  1  0.52049000  0.04440000  0.30873000  1.0 0.6806004937
C  C34  1  0.95560000  0.26433000  0.47609000  1.0 0.6806004937
C  C35  1  0.73567000  0.21176000  0.69127000  1.0 0.6806004937
C  C36  1  0.78824000  0.47951000  0.52391000  1.0 0.6806004937
C  C37  1  0.01433000  0.20560000  0.97609000  1.0 0.6806004937
C  C38  1  0.79440000  0.77049000  0.80873000  1.0 0.6806004937
C  C39  1  0.22951000  0.03824000  0.02391000  1.0 0.6806004937
C  C40  1  0.96176000  0.98567000  0.19127000  1.0 0.6806004937
C  C41  1  0.70107000  0.93724000  0.27425000  1.0 0.5294823344
C  C42  1  0.06276000  0.33701000  0.76383000  1.0 0.5294823344
C  C43  1  0.66299000  0.42682000  0.72575000  1.0 0.5294823344
C  C44  1  0.57318000  0.29893000  0.23617000  1.0 0.5294823344
C  C45  1  0.08701000  0.31276000  0.26383000  1.0 0.5294823344
C  C46  1  0.68724000  0.95107000  0.77425000  1.0 0.5294823344
C  C47  1  0.04893000  0.82318000  0.73617000  1.0 0.5294823344
C  C48  1  0.17682000  0.91299000  0.22575000  1.0 0.5294823344
O  O1  1  0.75331000  0.02907000  0.19762000  1.0 -0.6153979008
O  O2  1  0.97093000  0.16855000  0.72424000  1.0 -0.6153979008
O  O3  1  0.83145000  0.55569000  0.80238000  1.0 -0.6153979008
O  O4  1  0.44431000  0.24669000  0.27576000  1.0 -0.6153979008
O  O5  1  0.91855000  0.22093000  0.22424000  1.0 -0.6153979008
O  O6  1  0.77907000  0.00331000  0.69762000  1.0 -0.6153979008
O  O7  1  0.99669000  0.69431000  0.77576000  1.0 -0.6149261896
O  O8  1  0.30569000  0.08145000  0.30238000  1.0 -0.6153979008
O  O9  1  0.68407000  0.84780000  0.00267000  1.0 -0.6021348988
O  O10  1  0.15220000  0.15487000  0.83627000  1.0 -0.6021348988
O  O11  1  0.84513000  0.68140000  0.99733000  1.0 -0.6021348988
O  O12  1  0.31860000  0.31593000  0.16373000  1.0 -0.6021348988
O  O13  1  0.90487000  0.40220000  0.33627000  1.0 -0.6021348988
O  O14  1  0.59780000  0.93407000  0.50267000  1.0 -0.6021348988
O  O15  1  0.06593000  0.56860000  0.66373000  1.0 -0.6021348988
O  O16  1  0.43140000  0.09513000  0.49733000  1.0 -0.6021348988
O  O17  1  0.53135000  0.15026000  0.39965000  1.0 -0.6565420334
O  O18  1  0.84974000  0.24939000  0.38109000  1.0 -0.6565420334
O  O19  1  0.75061000  0.13170000  0.60035000  1.0 -0.6565420334
O  O20  1  0.86830000  0.46865000  0.61891000  1.0 -0.6565420334
O  O21  1  0.99939000  0.09974000  0.88109000  1.0 -0.6565420334
O  O22  1  0.90026000  0.78135000  0.89965000  1.0 -0.6565420334
O  O23  1  0.21865000  0.11830000  0.11891000  1.0 -0.6565420334
O  O24  1  0.88170000  0.00061000  0.10035000  1.0 -0.6565420334
O  O25  1  0.52007000  0.98058000  0.31843000  1.0 -0.5699068238
O  O26  1  0.01942000  0.33785000  0.53949000  1.0 -0.5699068238
O  O27  1  0.66215000  0.20164000  0.68157000  1.0 -0.5699068238
O  O28  1  0.79836000  0.47993000  0.46051000  1.0 -0.5699068238
O  O29  1  0.08785000  0.26942000  0.03949000  1.0 -0.5699068238
O  O30  1  0.73058000  0.77007000  0.81843000  1.0 -0.5699068238
O  O31  1  0.22993000  0.04836000  0.96051000  1.0 -0.5699068238
O  O32  1  0.95164000  0.91215000  0.18157000  1.0 -0.5699068238
O  O33  1  0.79371000  0.98892000  0.40595000  1.0 -0.6260009711
O  O34  1  0.01108000  0.41703000  0.80479000  1.0 -0.6260009711
O  O35  1  0.58297000  0.38776000  0.59405000  1.0 -0.6260009711
O  O36  1  0.61224000  0.20629000  0.19521000  1.0 -0.6260009711
O  O37  1  0.16703000  0.26108000  0.30479000  1.0 -0.6260009711
O  O38  1  0.73892000  0.04371000  0.90595000  1.0 -0.6260009711
O  O39  1  0.95629000  0.86224000  0.69521000  1.0 -0.6260009711
O  O40  1  0.13776000  0.83297000  0.09405000  1.0 -0.6260009711
O  O41  1  0.67611000  0.83131000  0.17764000  1.0 -0.4038775717
O  O42  1  0.16869000  0.34633000  0.84480000  1.0 -0.4038775717
O  O43  1  0.65367000  0.49847000  0.82236000  1.0 -0.4038775717
O  O44  1  0.50153000  0.32389000  0.15520000  1.0 -0.4038775717
O  O45  1  0.09633000  0.41869000  0.34480000  1.0 -0.4038775717
O  O46  1  0.58131000  0.92611000  0.67764000  1.0 -0.4038775717
O  O47  1  0.07389000  0.75153000  0.65520000  1.0 -0.4038775717
O  O48  1  0.24847000  0.90367000  0.32236000  1.0 -0.4038775717
O  O49  1  0.66653000  0.12160000  0.34547000  1.0 -0.6756377608
O  O50  1  0.87840000  0.22387000  0.54493000  1.0 -0.6756377608
O  O51  1  0.77613000  0.32106000  0.65453000  1.0 -0.6756377608
O  O52  1  0.67894000  0.33347000  0.45507000  1.0 -0.6756377608
O  O53  1  0.97387000  0.12840000  0.04493000  1.0 -0.6756377608
O  O54  1  0.87160000  0.91653000  0.84547000  1.0 -0.6756377608
O  O55  1  0.08347000  0.92894000  0.95507000  1.0 -0.6756377608
O  O56  1  0.07106000  0.02613000  0.15453000  1.0 -0.6749075954
