# DDEC6 charges by PACMAN v1.1 (https://github.com/mtap-research/PACMAN-charge/)
data_GEBSAJ_ASR_pacman
_symmetry_space_group_name_H-M   'P 1'
_cell_length_a   11.56050000
_cell_length_b   11.56050000
_cell_length_c   11.56050000
_cell_angle_alpha   143.30700000
_cell_angle_beta   112.13200000
_cell_angle_gamma   79.71230000
_symmetry_Int_Tables_number   1
_chemical_formula_structural   InH9C14N8O21
_chemical_formula_sum   'In2 H18 C28 N16 O42'
_cell_volume   833.60242765
_cell_formula_units_Z   2
loop_
 _symmetry_equiv_pos_site_id
 _symmetry_equiv_pos_as_xyz
  1  'x, y, z'
loop_
 _atom_site_type_symbol
 _atom_site_label
 _atom_site_symmetry_multiplicity
 _atom_site_fract_x
 _atom_site_fract_y
 _atom_site_fract_z
 _atom_site_occupancy
 _atom_site_charge
In  In1  1  0.00000000  0.50000000  0.00000000  1.0 0.8807432844
In  In2  1  0.00000000  0.00000000  0.50000000  1.0 0.8807432844
H  H1  1  0.85620000  0.75000000  0.10620000  1.0 0.3167878879
H  H2  1  0.14380000  0.25000000  0.89380000  1.0 0.3167878879
H  H3  1  0.96430000  0.26880000  0.15650000  1.0 0.1896971358
H  H4  1  0.38770000  0.23120000  0.69550000  1.0 0.1896971358
H  H5  1  0.61230000  0.30780000  0.84350000  1.0 0.1896971358
H  H6  1  0.03570000  0.19220000  0.30450000  1.0 0.1896971358
H  H7  1  0.03570000  0.73120000  0.84350000  1.0 0.1896971358
H  H8  1  0.61230000  0.76880000  0.30450000  1.0 0.1896971358
H  H9  1  0.38770000  0.69220000  0.15650000  1.0 0.1896971358
H  H10  1  0.96430000  0.80780000  0.69550000  1.0 0.1896971358
H  H11  1  0.01990000  0.27340000  0.17810000  1.0 0.2002960729
H  H12  1  0.40470000  0.22660000  0.74650000  1.0 0.2002960729
H  H13  1  0.59530000  0.34180000  0.82190000  1.0 0.2002960729
H  H14  1  0.98010000  0.15820000  0.25350000  1.0 0.2002960729
H  H15  1  0.98010000  0.72660000  0.82190000  1.0 0.2002960729
H  H16  1  0.59530000  0.77340000  0.25350000  1.0 0.2002960729
H  H17  1  0.40470000  0.65820000  0.17810000  1.0 0.2002960729
H  H18  1  0.01990000  0.84180000  0.74650000  1.0 0.2002960729
C  C1  1  0.01230000  0.63630000  0.37600000  1.0 0.2715011655
C  C2  1  0.23970000  0.86370000  0.37600000  1.0 0.2715011655
C  C3  1  0.76030000  0.13630000  0.62400000  1.0 0.2715011655
C  C4  1  0.98770000  0.36370000  0.62400000  1.0 0.2715011655
C  C5  1  0.99000000  0.56080000  0.42920000  1.0 -0.100027393
C  C6  1  0.36840000  0.93920000  0.42920000  1.0 -0.100027393
C  C7  1  0.63160000  0.06080000  0.57080000  1.0 -0.100027393
C  C8  1  0.01000000  0.43920000  0.57080000  1.0 -0.100027393
C  C9  1  0.97740000  0.36840000  0.29940000  1.0 -0.0276191395
C  C10  1  0.43100000  0.13160000  0.60900000  1.0 -0.0276191395
C  C11  1  0.56900000  0.17800000  0.70060000  1.0 -0.0276191395
C  C12  1  0.02260000  0.32200000  0.39100000  1.0 -0.0276191395
C  C13  1  0.02260000  0.63160000  0.70060000  1.0 -0.0276191395
C  C14  1  0.56900000  0.86840000  0.39100000  1.0 -0.0276191395
C  C15  1  0.43100000  0.82200000  0.29940000  1.0 -0.0276191395
C  C16  1  0.97740000  0.67800000  0.60900000  1.0 -0.0276191395
C  C17  1  0.02510000  0.57190000  0.45320000  1.0 -0.1116938771
C  C18  1  0.38130000  0.92810000  0.45320000  1.0 -0.1116938771
C  C19  1  0.61870000  0.07190000  0.54680000  1.0 -0.1116938771
C  C20  1  0.97490000  0.42810000  0.54680000  1.0 -0.1116938771
C  C21  1  0.02430000  0.37380000  0.31730000  1.0 -0.0091790722
C  C22  1  0.44350000  0.12620000  0.65050000  1.0 -0.0091790722
C  C23  1  0.55650000  0.20700000  0.68270000  1.0 -0.0091790722
C  C24  1  0.97570000  0.29300000  0.34950000  1.0 -0.0091790722
C  C25  1  0.97570000  0.62620000  0.68270000  1.0 -0.0091790722
C  C26  1  0.55650000  0.87380000  0.34950000  1.0 -0.0091790722
C  C27  1  0.44350000  0.79300000  0.31730000  1.0 -0.0091790722
C  C28  1  0.02430000  0.70700000  0.65050000  1.0 -0.0091790722
N  N1  1  0.95800000  0.21900000  0.08500000  1.0 0.0197318379
N  N2  1  0.36600000  0.28100000  0.73900000  1.0 0.0197318379
N  N3  1  0.63400000  0.37300000  0.91500000  1.0 0.0197318379
N  N4  1  0.04200000  0.12700000  0.26100000  1.0 0.0197318379
N  N5  1  0.04200000  0.78100000  0.91500000  1.0 0.0197318379
N  N6  1  0.63400000  0.71900000  0.26100000  1.0 0.0197318379
N  N7  1  0.36600000  0.62700000  0.08500000  1.0 0.0197318379
N  N8  1  0.95800000  0.87300000  0.73900000  1.0 0.0197318379
N  N9  1  0.01900000  0.22400000  0.10900000  1.0 0.0324354932
N  N10  1  0.38500000  0.27600000  0.79500000  1.0 0.0324354932
N  N11  1  0.61500000  0.41000000  0.89100000  1.0 0.0324354932
N  N12  1  0.98100000  0.09000000  0.20500000  1.0 0.0324354932
N  N13  1  0.98100000  0.77600000  0.89100000  1.0 0.0324354932
N  N14  1  0.61500000  0.72400000  0.20500000  1.0 0.0324354932
N  N15  1  0.38500000  0.59000000  0.10900000  1.0 0.0324354932
N  N16  1  0.01900000  0.91000000  0.79500000  1.0 0.0324354932
O  O1  1  0.92090000  0.75000000  0.17090000  1.0 -0.7100854622
O  O2  1  0.07910000  0.25000000  0.82910000  1.0 -0.7100854622
O  O3  1  0.01520000  0.50840000  0.19800000  1.0 -0.4828690992
O  O4  1  0.18960000  0.99160000  0.50680000  1.0 -0.4828690992
O  O5  1  0.81040000  0.31720000  0.80200000  1.0 -0.4828690992
O  O6  1  0.98480000  0.18280000  0.49320000  1.0 -0.4828690992
O  O7  1  0.98480000  0.49160000  0.80200000  1.0 -0.4828690992
O  O8  1  0.81040000  0.00840000  0.49320000  1.0 -0.4828690992
O  O9  1  0.18960000  0.68280000  0.19800000  1.0 -0.4828690992
O  O10  1  0.01520000  0.81720000  0.50680000  1.0 -0.4828690992
O  O11  1  0.84760000  0.14760000  0.95000000  1.0 -0.1910036871
O  O12  1  0.30240000  0.35240000  0.70000000  1.0 -0.1910036871
O  O13  1  0.69760000  0.39760000  0.05000000  1.0 -0.1910036871
O  O14  1  0.15240000  0.10240000  0.30000000  1.0 -0.1910036871
O  O15  1  0.15240000  0.85240000  0.05000000  1.0 -0.1910036871
O  O16  1  0.69760000  0.64760000  0.30000000  1.0 -0.1910036871
O  O17  1  0.30240000  0.60240000  0.95000000  1.0 -0.1910036871
O  O18  1  0.84760000  0.89760000  0.70000000  1.0 -0.1910036871
O  O19  1  0.05060000  0.16060000  0.03400000  1.0 0.2002960729
O  O20  1  0.37340000  0.33940000  0.89000000  1.0 0.2002960729
O  O21  1  0.62660000  0.51660000  0.96600000  1.0 0.2002960729
O  O22  1  0.94940000  0.98340000  0.11000000  1.0 0.2002960729
O  O23  1  0.94940000  0.83940000  0.96600000  1.0 0.2002960729
O  O24  1  0.62660000  0.66060000  0.11000000  1.0 0.2002960729
O  O25  1  0.37340000  0.48340000  0.03400000  1.0 0.2002960729
O  O26  1  0.05060000  0.01660000  0.89000000  1.0 0.2002960729
O  O27  1  0.91650000  0.13510000  0.95740000  1.0 -0.0276191395
O  O28  1  0.32230000  0.36490000  0.78140000  1.0 -0.0276191395
O  O29  1  0.67770000  0.45910000  0.04260000  1.0 -0.0276191395
O  O30  1  0.08350000  0.04090000  0.21860000  1.0 -0.0276191395
O  O31  1  0.08350000  0.86490000  0.04260000  1.0 -0.0276191395
O  O32  1  0.67770000  0.63510000  0.21860000  1.0 -0.0276191395
O  O33  1  0.32230000  0.54090000  0.95740000  1.0 -0.0276191395
O  O34  1  0.91650000  0.95910000  0.78140000  1.0 -0.0276191395
O  O35  1  0.12210000  0.18710000  0.08700000  1.0 -0.0559178501
O  O36  1  0.39990000  0.31290000  0.93500000  1.0 -0.0559178501
O  O37  1  0.60010000  0.53510000  0.91300000  1.0 -0.0559178501
O  O38  1  0.87790000  0.96490000  0.06500000  1.0 -0.0559178501
O  O39  1  0.87790000  0.81290000  0.91300000  1.0 -0.0559178501
O  O40  1  0.60010000  0.68710000  0.06500000  1.0 -0.0559178501
O  O41  1  0.39990000  0.46490000  0.08700000  1.0 -0.0559178501
O  O42  1  0.12210000  0.03510000  0.93500000  1.0 -0.0559178501
