# DDEC6 charges by PACMAN v1.1 (https://github.com/mtap-research/PACMAN-charge/)
data_GECRAK_ASR_pacman
_symmetry_space_group_name_H-M   'P 1'
_cell_length_a   13.28660000
_cell_length_b   14.95140000
_cell_length_c   22.80170000
_cell_angle_alpha   100.27400000
_cell_angle_beta   94.31300000
_cell_angle_gamma   94.53400000
_symmetry_Int_Tables_number   1
_chemical_formula_structural   Mn2Zn3Mo12H44C40(NO4)8
_chemical_formula_sum   'Mn2 Zn3 Mo12 H44 C40 N8 O32'
_cell_volume   4424.60406216
_cell_formula_units_Z   1
loop_
 _symmetry_equiv_pos_site_id
 _symmetry_equiv_pos_as_xyz
  1  'x, y, z'
loop_
 _atom_site_type_symbol
 _atom_site_label
 _atom_site_symmetry_multiplicity
 _atom_site_fract_x
 _atom_site_fract_y
 _atom_site_fract_z
 _atom_site_occupancy
 _atom_site_charge
Mn  Mn1  1  0.50000000  0.50000000  0.00000000  1.0 0.8997914778
Mn  Mn2  1  0.00000000  0.50000000  0.50000000  1.0 0.8997914778
Zn  Zn1  1  0.75887000  0.10584000  0.36002000  1.0 0.6313203858
Zn  Zn2  1  0.24113000  0.89416000  0.63998000  1.0 0.6313203858
Zn  Zn3  1  0.00000000  0.50000000  0.00000000  1.0 0.7153928266
Mo  Mo1  1  0.66195000  0.68239000  0.05929000  1.0 1.3085495816
Mo  Mo2  1  0.56751000  0.34063000  0.89080000  1.0 1.3948417889
Mo  Mo3  1  0.72717000  0.52371000  0.94905000  1.0 1.8597799526
Mo  Mo4  1  0.15635000  0.33268000  0.48532000  1.0 1.461352943
Mo  Mo5  1  0.90631000  0.28233000  0.48163000  1.0 1.9487019764
Mo  Mo6  1  0.25038000  0.55103000  0.50592000  1.0 1.3546304689
Mo  Mo7  1  0.33805000  0.31761000  0.94071000  1.0 1.3085495816
Mo  Mo8  1  0.43249000  0.65937000  0.10920000  1.0 1.3948417889
Mo  Mo9  1  0.27283000  0.47629000  0.05095000  1.0 1.8597799526
Mo  Mo10  1  0.84365000  0.66732000  0.51468000  1.0 1.4665491568
Mo  Mo11  1  0.09369000  0.71767000  0.51837000  1.0 1.9487019764
Mo  Mo12  1  0.74962000  0.44897000  0.49408000  1.0 1.3578422056
H  H1  1  0.96740000  0.54300000  0.29270000  1.0 0.2278973298
H  H2  1  0.58980000  0.35770000  0.16950000  1.0 0.2278973298
H  H3  1  0.05940000  0.36110000  0.07330000  1.0 0.0826568702
H  H4  1  0.05100000  0.32740000  0.16970000  1.0 0.1246163832
H  H5  1  0.87840000  0.53350000  0.20750000  1.0 0.1079778323
H  H6  1  0.88650000  0.56360000  0.11040000  1.0 0.0907058586
H  H7  1  0.83110000  0.43570000  0.36700000  1.0 0.0599865006
H  H8  1  0.90950000  0.35920000  0.36200000  1.0 0.0907058586
H  H9  1  0.09950000  0.40410000  0.36400000  1.0 0.1022552052
H  H10  1  0.14270000  0.50930000  0.37540000  1.0 0.0907058586
H  H11  1  0.02520000  0.62950000  0.38290000  1.0 0.0907058586
H  H12  1  0.90520000  0.60610000  0.38030000  1.0 0.0907058586
H  H13  1  0.71780000  0.29560000  0.33410000  1.0 0.0826568702
H  H14  1  0.68840000  0.36780000  0.25340000  1.0 0.1079778323
H  H15  1  0.77550000  0.14980000  0.14680000  1.0 0.1253522472
H  H16  1  0.79850000  0.07980000  0.22560000  1.0 0.0826568702
H  H17  1  0.44260000  0.40100000  0.12630000  1.0 0.0907058586
H  H18  1  0.51990000  0.48770000  0.15600000  1.0 0.0907058586
H  H19  1  0.68980000  0.50860000  0.11980000  1.0 0.0719263987
H  H20  1  0.72760000  0.43530000  0.06800000  1.0 0.0907058586
H  H21  1  0.60780000  0.29500000  0.01930000  1.0 0.1022552052
H  H22  1  0.49920000  0.28030000  0.04370000  1.0 0.0907058586
H  H23  1  0.03260000  0.45700000  0.70730000  1.0 0.2278973298
H  H24  1  0.41020000  0.64230000  0.83050000  1.0 0.2278973298
H  H25  1  0.94060000  0.63890000  0.92670000  1.0 0.0826568702
H  H26  1  0.94900000  0.67260000  0.83030000  1.0 0.1246163832
H  H27  1  0.12160000  0.46650000  0.79250000  1.0 0.1079778323
H  H28  1  0.11350000  0.43640000  0.88960000  1.0 0.0907058586
H  H29  1  0.16890000  0.56430000  0.63300000  1.0 0.0599865006
H  H30  1  0.09050000  0.64080000  0.63800000  1.0 0.0907058586
H  H31  1  0.90050000  0.59590000  0.63600000  1.0 0.1022552052
H  H32  1  0.85730000  0.49070000  0.62460000  1.0 0.0907058586
H  H33  1  0.97480000  0.37050000  0.61710000  1.0 0.0907058586
H  H34  1  0.09480000  0.39390000  0.61970000  1.0 0.0907058586
H  H35  1  0.28220000  0.70440000  0.66590000  1.0 0.0826568702
H  H36  1  0.31160000  0.63220000  0.74660000  1.0 0.1079778323
H  H37  1  0.22450000  0.85020000  0.85320000  1.0 0.1253522472
H  H38  1  0.20150000  0.92020000  0.77440000  1.0 0.0826568702
H  H39  1  0.55740000  0.59900000  0.87370000  1.0 0.0907058586
H  H40  1  0.48010000  0.51230000  0.84400000  1.0 0.0907058586
H  H41  1  0.31020000  0.49140000  0.88020000  1.0 0.0719263987
H  H42  1  0.27240000  0.56470000  0.93200000  1.0 0.0907058586
H  H43  1  0.39220000  0.70500000  0.98070000  1.0 0.1022552052
H  H44  1  0.50080000  0.71970000  0.95630000  1.0 0.0907058586
C  C1  1  0.02250000  0.39780000  0.10090000  1.0 0.0719263987
C  C2  1  0.01910000  0.37750000  0.15890000  1.0 -0.1847348078
C  C3  1  0.96940000  0.43130000  0.19840000  1.0 -0.0232109303
C  C4  1  0.91760000  0.49850000  0.18040000  1.0 -0.2123791589
C  C5  1  0.92190000  0.51620000  0.12250000  1.0 0.0256847837
C  C6  1  0.97650000  0.41030000  0.26130000  1.0 0.3782304214
C  C7  1  0.98300000  0.49230000  0.37000000  1.0 0.189996718
C  C8  1  0.89800000  0.42100000  0.38280000  1.0 -0.1141455895
C  C9  1  0.09160000  0.46540000  0.38710000  1.0 -0.0861560642
C  C10  1  0.97150000  0.58980000  0.39610000  1.0 -0.137622015
C  C11  1  0.72590000  0.26440000  0.29490000  1.0 0.0599865006
C  C12  1  0.70970000  0.30790000  0.24730000  1.0 -0.2404256452
C  C13  1  0.72490000  0.26260000  0.18920000  1.0 -0.0304173124
C  C14  1  0.76000000  0.17990000  0.18490000  1.0 -0.171913342
C  C15  1  0.77380000  0.13830000  0.23110000  1.0 -0.0100187654
C  C16  1  0.70440000  0.30360000  0.13480000  1.0 0.3890863196
C  C17  1  0.58360000  0.39840000  0.08920000  1.0 0.1983192252
C  C18  1  0.49400000  0.44740000  0.11760000  1.0 -0.1141455895
C  C19  1  0.66860000  0.46790000  0.08080000  1.0 -0.1264498397
C  C20  1  0.54860000  0.32650000  0.03300000  1.0 -0.1011581658
C  C21  1  0.97750000  0.60220000  0.89910000  1.0 0.0719263987
C  C22  1  0.98090000  0.62250000  0.84110000  1.0 -0.1851513697
C  C23  1  0.03060000  0.56870000  0.80160000  1.0 -0.0232109303
C  C24  1  0.08240000  0.50150000  0.81960000  1.0 -0.2123791589
C  C25  1  0.07810000  0.48380000  0.87750000  1.0 0.0256847837
C  C26  1  0.02350000  0.58970000  0.73870000  1.0 0.3782304214
C  C27  1  0.01700000  0.50770000  0.63000000  1.0 0.189996718
C  C28  1  0.10200000  0.57900000  0.61720000  1.0 -0.1141455895
C  C29  1  0.90840000  0.53460000  0.61290000  1.0 -0.0861560642
C  C30  1  0.02850000  0.41020000  0.60390000  1.0 -0.137622015
C  C31  1  0.27410000  0.73560000  0.70510000  1.0 0.0599865006
C  C32  1  0.29030000  0.69210000  0.75270000  1.0 -0.2404256452
C  C33  1  0.27510000  0.73740000  0.81080000  1.0 -0.0304173124
C  C34  1  0.24000000  0.82010000  0.81510000  1.0 -0.171913342
C  C35  1  0.22620000  0.86170000  0.76890000  1.0 -0.0100187654
C  C36  1  0.29560000  0.69640000  0.86520000  1.0 0.3890863196
C  C37  1  0.41640000  0.60160000  0.91080000  1.0 0.1983192252
C  C38  1  0.50600000  0.55260000  0.88240000  1.0 -0.1141455895
C  C39  1  0.33140000  0.53210000  0.91920000  1.0 -0.1264498397
C  C40  1  0.45140000  0.67350000  0.96700000  1.0 -0.1011581658
N  N1  1  0.97770000  0.46440000  0.08300000  1.0 -0.2404256452
N  N2  1  0.97430000  0.49120000  0.30520000  1.0 -0.5408802344
N  N3  1  0.75240000  0.18000000  0.28730000  1.0 -0.2404256452
N  N4  1  0.62220000  0.35290000  0.13700000  1.0 -0.5020738109
N  N5  1  0.02230000  0.53560000  0.91700000  1.0 -0.2404256452
N  N6  1  0.02570000  0.50880000  0.69480000  1.0 -0.5408802344
N  N7  1  0.24760000  0.82000000  0.71270000  1.0 -0.2404256452
N  N8  1  0.37780000  0.64710000  0.86300000  1.0 -0.5020738109
O  O1  1  0.69250000  0.64320000  0.97740000  1.0 -0.9294806732
O  O2  1  0.57730000  0.66030000  0.12140000  1.0 -0.9098816676
O  O3  1  0.68900000  0.39910000  0.93870000  1.0 -0.888251902
O  O4  1  0.84290000  0.52390000  0.98700000  1.0 -0.7545254244
O  O5  1  0.22800000  0.43730000  0.53350000  1.0 -0.9098816676
O  O6  1  0.18880000  0.64410000  0.47620000  1.0 -0.9294806732
O  O7  1  0.82730000  0.22300000  0.42090000  1.0 -0.7844313397
O  O8  1  0.02870000  0.28460000  0.44180000  1.0 -0.9501485242
O  O9  1  0.89800000  0.42180000  0.44560000  1.0 -0.618962334
O  O10  1  0.11080000  0.46450000  0.44860000  1.0 -0.618962334
O  O11  1  0.97750000  0.60750000  0.46060000  1.0 -0.6560629918
O  O12  1  0.98840000  0.33640000  0.27330000  1.0 -0.4601694359
O  O13  1  0.44730000  0.50070000  0.07830000  1.0 -0.6478153481
O  O14  1  0.63990000  0.52370000  0.03660000  1.0 -0.6270159199
O  O15  1  0.50330000  0.36280000  0.98480000  1.0 -0.6270159199
O  O16  1  0.75520000  0.29040000  0.09330000  1.0 -0.467687936
O  O17  1  0.30750000  0.35680000  0.02260000  1.0 -0.9294806732
O  O18  1  0.42270000  0.33970000  0.87860000  1.0 -0.9098816676
O  O19  1  0.31100000  0.60090000  0.06130000  1.0 -0.888251902
O  O20  1  0.15710000  0.47610000  0.01300000  1.0 -0.7545254244
O  O21  1  0.77200000  0.56270000  0.46650000  1.0 -0.9098816676
O  O22  1  0.81120000  0.35590000  0.52380000  1.0 -0.9294806732
O  O23  1  0.17270000  0.77700000  0.57910000  1.0 -0.7844313397
O  O24  1  0.97130000  0.71540000  0.55820000  1.0 -0.9501485242
O  O25  1  0.10200000  0.57820000  0.55440000  1.0 -0.618962334
O  O26  1  0.88920000  0.53550000  0.55140000  1.0 -0.618962334
O  O27  1  0.02250000  0.39250000  0.53940000  1.0 -0.6560629918
O  O28  1  0.01160000  0.66360000  0.72670000  1.0 -0.4601694359
O  O29  1  0.55270000  0.49930000  0.92170000  1.0 -0.6478153481
O  O30  1  0.36010000  0.47630000  0.96340000  1.0 -0.6270159199
O  O31  1  0.49670000  0.63720000  0.01520000  1.0 -0.6270159199
O  O32  1  0.24480000  0.70960000  0.90670000  1.0 -0.467687936
