# DDEC6 charges by PACMAN v1.1 (https://github.com/mtap-research/PACMAN-charge/)
data_GECREO_ASR_pacman
_symmetry_space_group_name_H-M   'P 1'
_cell_length_a   22.31290000
_cell_length_b   22.31290000
_cell_length_c   19.11200000
_cell_angle_alpha   70.85130000
_cell_angle_beta   109.14900000
_cell_angle_gamma   128.44200000
_symmetry_Int_Tables_number   1
_chemical_formula_structural   Mn2Zn3Mo12H40C36(NO7)4
_chemical_formula_sum   'Mn4 Zn6 Mo24 H80 C72 N8 O56'
_cell_volume   6940.60192842
_cell_formula_units_Z   2
loop_
 _symmetry_equiv_pos_site_id
 _symmetry_equiv_pos_as_xyz
  1  'x, y, z'
loop_
 _atom_site_type_symbol
 _atom_site_label
 _atom_site_symmetry_multiplicity
 _atom_site_fract_x
 _atom_site_fract_y
 _atom_site_fract_z
 _atom_site_occupancy
 _atom_site_charge
Mn  Mn1  1  0.00000000  0.50000000  0.00000000  1.0 0.8941400512
Mn  Mn2  1  0.50000000  0.00000000  0.50000000  1.0 0.8941400512
Mn  Mn3  1  0.50000000  0.50000000  0.00000000  1.0 0.8762951358
Mn  Mn4  1  0.50000000  0.50000000  0.50000000  1.0 0.8762951358
Zn  Zn1  1  0.63158000  0.22072000  0.88222000  1.0 0.5748359426
Zn  Zn2  1  0.22072000  0.63158000  0.61778000  1.0 0.5748359426
Zn  Zn3  1  0.36842000  0.77928000  0.11778000  1.0 0.5748359426
Zn  Zn4  1  0.77928000  0.36842000  0.38222000  1.0 0.5748359426
Zn  Zn5  1  0.74918000  0.74918000  0.75000000  1.0 0.6883056029
Zn  Zn6  1  0.25082000  0.25082000  0.25000000  1.0 0.6883056029
Mo  Mo1  1  0.59267000  0.64943000  0.86498000  1.0 1.8800004586
Mo  Mo2  1  0.59602000  0.48790000  0.17368000  1.0 1.0382049545
Mo  Mo3  1  0.68982000  0.63690000  0.03933000  1.0 1.2968519195
Mo  Mo4  1  0.15389000  0.67469000  0.03987000  1.0 1.9321093623
Mo  Mo5  1  0.12813000  0.61615000  0.88382000  1.0 1.2626829608
Mo  Mo6  1  0.97282000  0.44380000  0.84264000  1.0 1.4394689961
Mo  Mo7  1  0.64943000  0.59267000  0.63502000  1.0 1.8800004586
Mo  Mo8  1  0.48790000  0.59602000  0.32632000  1.0 1.0382049545
Mo  Mo9  1  0.63690000  0.68982000  0.46067000  1.0 1.2968519195
Mo  Mo10  1  0.67469000  0.15389000  0.46013000  1.0 1.9321093623
Mo  Mo11  1  0.61615000  0.12813000  0.61618000  1.0 1.2626829608
Mo  Mo12  1  0.44380000  0.97282000  0.65736000  1.0 1.4394689961
Mo  Mo13  1  0.40733000  0.35057000  0.13502000  1.0 1.8800004586
Mo  Mo14  1  0.40398000  0.51210000  0.82632000  1.0 1.0382049545
Mo  Mo15  1  0.31018000  0.36310000  0.96067000  1.0 1.2968519195
Mo  Mo16  1  0.84611000  0.32531000  0.96013000  1.0 1.9355655177
Mo  Mo17  1  0.87187000  0.38385000  0.11618000  1.0 1.2626829608
Mo  Mo18  1  0.02718000  0.55620000  0.15736000  1.0 1.4394689961
Mo  Mo19  1  0.35057000  0.40733000  0.36498000  1.0 1.8800004586
Mo  Mo20  1  0.51210000  0.40398000  0.67368000  1.0 1.0382049545
Mo  Mo21  1  0.36310000  0.31018000  0.53933000  1.0 1.2968519195
Mo  Mo22  1  0.32531000  0.84611000  0.53987000  1.0 1.9321093623
Mo  Mo23  1  0.38385000  0.87187000  0.38382000  1.0 1.2626829608
Mo  Mo24  1  0.55620000  0.02718000  0.34264000  1.0 1.4394689961
H  H1  1  0.60339000  0.50939000  0.88523000  1.0 0.0803524076
H  H2  1  0.65298000  0.50840000  0.96497000  1.0 0.0719874561
H  H3  1  0.81777000  0.46137000  0.90739000  1.0 0.0803524076
H  H4  1  0.83062000  0.48534000  0.98215000  1.0 0.0719874561
H  H5  1  0.99167000  0.63584000  0.84308000  1.0 0.0803524076
H  H6  1  0.91737000  0.55731000  0.81828000  1.0 0.0873927134
H  H7  1  0.58324000  0.39314000  0.07236000  1.0 0.0803524076
H  H8  1  0.49450000  0.32904000  0.05308000  1.0 0.0873927134
H  H9  1  0.76375000  0.52541000  0.89725000  1.0 0.0988138419
H  H10  1  0.94544000  0.61720000  0.01317000  1.0 0.0873927134
H  H11  1  0.00713000  0.67409000  0.95942000  1.0 0.0803524076
H  H12  1  0.41745000  0.33465000  0.92466000  1.0 0.0803524076
H  H13  1  0.45822000  0.40206000  0.85915000  1.0 0.0803524076
H  H14  1  0.69080000  0.33558000  0.98694000  1.0 0.0988138419
H  H15  1  0.50618000  0.24910000  0.83453000  1.0 0.0719874561
H  H16  1  0.46840000  0.30894000  0.86541000  1.0 0.1061298612
H  H17  1  0.70868000  0.58912000  0.82956000  1.0 0.1061298612
H  H18  1  0.65868000  0.39956000  0.01360000  1.0 0.1061298612
H  H19  1  0.90246000  0.77414000  0.77622000  1.0 0.0873927134
H  H20  1  0.96223000  0.70643000  0.83957000  1.0 0.0988138419
H  H21  1  0.50939000  0.60339000  0.61477000  1.0 0.0803524076
H  H22  1  0.50840000  0.65298000  0.53503000  1.0 0.0719874561
H  H23  1  0.46137000  0.81777000  0.59261000  1.0 0.0803524076
H  H24  1  0.48534000  0.83062000  0.51785000  1.0 0.0719874561
H  H25  1  0.63584000  0.99167000  0.65692000  1.0 0.0803524076
H  H26  1  0.55731000  0.91737000  0.68172000  1.0 0.0873927134
H  H27  1  0.39314000  0.58324000  0.42764000  1.0 0.0803524076
H  H28  1  0.32904000  0.49450000  0.44692000  1.0 0.0873927134
H  H29  1  0.52541000  0.76375000  0.60275000  1.0 0.0988138419
H  H30  1  0.61720000  0.94544000  0.48683000  1.0 0.0873927134
H  H31  1  0.67409000  0.00713000  0.54058000  1.0 0.0803524076
H  H32  1  0.33465000  0.41745000  0.57534000  1.0 0.0803524076
H  H33  1  0.40206000  0.45822000  0.64085000  1.0 0.0803524076
H  H34  1  0.33558000  0.69080000  0.51306000  1.0 0.0988138419
H  H35  1  0.24910000  0.50618000  0.66547000  1.0 0.0719874561
H  H36  1  0.30894000  0.46840000  0.63459000  1.0 0.1061298612
H  H37  1  0.58912000  0.70868000  0.67044000  1.0 0.1061298612
H  H38  1  0.39956000  0.65868000  0.48640000  1.0 0.1061298612
H  H39  1  0.77414000  0.90246000  0.72378000  1.0 0.0873927134
H  H40  1  0.70643000  0.96223000  0.66043000  1.0 0.0988138419
H  H41  1  0.39661000  0.49061000  0.11477000  1.0 0.0803524076
H  H42  1  0.34702000  0.49160000  0.03503000  1.0 0.0719874561
H  H43  1  0.18223000  0.53863000  0.09261000  1.0 0.0803524076
H  H44  1  0.16938000  0.51466000  0.01785000  1.0 0.0719874561
H  H45  1  0.00833000  0.36417000  0.15691000  1.0 0.0803524076
H  H46  1  0.08263000  0.44269000  0.18172000  1.0 0.0873927134
H  H47  1  0.41676000  0.60686000  0.92764000  1.0 0.0803524076
H  H48  1  0.50550000  0.67096000  0.94692000  1.0 0.0873927134
H  H49  1  0.23625000  0.47459000  0.10275000  1.0 0.0988138419
H  H50  1  0.05456000  0.38280000  0.98683000  1.0 0.0873927134
H  H51  1  0.99287000  0.32591000  0.04058000  1.0 0.0803524076
H  H52  1  0.58255000  0.66535000  0.07534000  1.0 0.0803524076
H  H53  1  0.54178000  0.59794000  0.14085000  1.0 0.0803524076
H  H54  1  0.30920000  0.66442000  0.01306000  1.0 0.0988138419
H  H55  1  0.49382000  0.75090000  0.16547000  1.0 0.0719874561
H  H56  1  0.53160000  0.69106000  0.13459000  1.0 0.1061298612
H  H57  1  0.29132000  0.41088000  0.17044000  1.0 0.1061298612
H  H58  1  0.34132000  0.60044000  0.98640000  1.0 0.1061298612
H  H59  1  0.09754000  0.22586000  0.22378000  1.0 0.0873927134
H  H60  1  0.03777000  0.29357000  0.16043000  1.0 0.0988138419
H  H61  1  0.49061000  0.39661000  0.38523000  1.0 0.0803524076
H  H62  1  0.49160000  0.34702000  0.46497000  1.0 0.0719874561
H  H63  1  0.53863000  0.18223000  0.40739000  1.0 0.0803524076
H  H64  1  0.51466000  0.16938000  0.48215000  1.0 0.0719874561
H  H65  1  0.36417000  0.00834000  0.34308000  1.0 0.0803524076
H  H66  1  0.44269000  0.08263000  0.31828000  1.0 0.0873927134
H  H67  1  0.60686000  0.41676000  0.57236000  1.0 0.0803524076
H  H68  1  0.67096000  0.50550000  0.55308000  1.0 0.0873927134
H  H69  1  0.47459000  0.23625000  0.39725000  1.0 0.0988138419
H  H70  1  0.38280000  0.05456000  0.51317000  1.0 0.0873927134
H  H71  1  0.32591000  0.99287000  0.45942000  1.0 0.0719874561
H  H72  1  0.66535000  0.58255000  0.42466000  1.0 0.0803524076
H  H73  1  0.59794000  0.54178000  0.35915000  1.0 0.0803524076
H  H74  1  0.66442000  0.30920000  0.48694000  1.0 0.0988138419
H  H75  1  0.75090000  0.49382000  0.33453000  1.0 0.0719874561
H  H76  1  0.69106000  0.53160000  0.36541000  1.0 0.1061298612
H  H77  1  0.41088000  0.29132000  0.32956000  1.0 0.1061298612
H  H78  1  0.60044000  0.34132000  0.51360000  1.0 0.1061298612
H  H79  1  0.22586000  0.09754000  0.27622000  1.0 0.0873927134
H  H80  1  0.29357000  0.03777000  0.33957000  1.0 0.0988138419
C  C1  1  0.60310000  0.49830000  0.93870000  1.0 -0.0705033844
C  C2  1  0.91570000  0.57150000  0.91850000  1.0 0.0279168398
C  C3  1  0.55950000  0.36650000  0.94080000  1.0 0.0385394725
C  C4  1  0.85670000  0.48690000  0.94910000  1.0 -0.0773805143
C  C5  1  0.87130000  0.61070000  0.87500000  1.0 0.0637217252
C  C6  1  0.95580000  0.58100000  0.86090000  1.0 -0.1001389124
C  C7  1  0.53920000  0.41140000  0.96020000  1.0 0.0385394725
C  C8  1  0.53410000  0.38450000  0.04460000  1.0 -0.0705033844
C  C9  1  0.79410000  0.57590000  0.87250000  1.0 -0.2709498094
C  C10  1  0.97390000  0.62010000  0.98170000  1.0 -0.0873604608
C  C11  1  0.45630000  0.38990000  0.91230000  1.0 -0.0773805143
C  C12  1  0.64560000  0.33140000  0.95980000  1.0 -0.0145886992
C  C13  1  0.53830000  0.28010000  0.87160000  1.0 0.0114508737
C  C14  1  0.51610000  0.31750000  0.88970000  1.0 -0.2625997649
C  C15  1  0.76200000  0.61600000  0.83330000  1.0 0.0537560745
C  C16  1  0.62600000  0.36920000  0.97610000  1.0 -0.2284214943
C  C17  1  0.87360000  0.72320000  0.80090000  1.0 0.015164671
C  C18  1  0.91030000  0.68170000  0.84000000  1.0 -0.2284214943
C  C19  1  0.49830000  0.60310000  0.56130000  1.0 -0.0705033844
C  C20  1  0.57150000  0.91570000  0.58150000  1.0 0.0279168398
C  C21  1  0.36650000  0.55950000  0.55920000  1.0 0.0385394725
C  C22  1  0.48690000  0.85670000  0.55090000  1.0 -0.0773805143
C  C23  1  0.61070000  0.87130000  0.62500000  1.0 0.0637217252
C  C24  1  0.58100000  0.95580000  0.63910000  1.0 -0.1001389124
C  C25  1  0.41140000  0.53920000  0.53980000  1.0 0.0385394725
C  C26  1  0.38450000  0.53410000  0.45540000  1.0 -0.0705033844
C  C27  1  0.57590000  0.79410000  0.62750000  1.0 -0.2709498094
C  C28  1  0.62010000  0.97390000  0.51830000  1.0 -0.0873604608
C  C29  1  0.38990000  0.45630000  0.58770000  1.0 -0.0773805143
C  C30  1  0.33140000  0.64560000  0.54020000  1.0 -0.0145886992
C  C31  1  0.28010000  0.53830000  0.62840000  1.0 0.0114508737
C  C32  1  0.31750000  0.51610000  0.61030000  1.0 -0.2625997649
C  C33  1  0.61600000  0.76200000  0.66666667  1.0 0.0537560745
C  C34  1  0.36920000  0.62600000  0.52390000  1.0 -0.2284214943
C  C35  1  0.72320000  0.87360000  0.69910000  1.0 0.0114508737
C  C36  1  0.68170000  0.91030000  0.66000000  1.0 -0.2284214943
C  C37  1  0.39690000  0.50170000  0.06130000  1.0 -0.0705033844
C  C38  1  0.08430000  0.42850000  0.08150000  1.0 0.0279168398
C  C39  1  0.44050000  0.63350000  0.05920000  1.0 0.0385394725
C  C40  1  0.14330000  0.51310000  0.05090000  1.0 -0.0773805143
C  C41  1  0.12870000  0.38930000  0.12500000  1.0 0.0637217252
C  C42  1  0.04420000  0.41900000  0.13910000  1.0 -0.1001389124
C  C43  1  0.46080000  0.58860000  0.03980000  1.0 0.0385394725
C  C44  1  0.46590000  0.61550000  0.95540000  1.0 -0.0705033844
C  C45  1  0.20590000  0.42410000  0.12750000  1.0 -0.2709498094
C  C46  1  0.02610000  0.37990000  0.01830000  1.0 -0.0873604608
C  C47  1  0.54370000  0.61010000  0.08770000  1.0 -0.0773805143
C  C48  1  0.35440000  0.66860000  0.04020000  1.0 -0.0150443791
C  C49  1  0.46170000  0.71990000  0.12840000  1.0 0.0114508737
C  C50  1  0.48390000  0.68250000  0.11030000  1.0 -0.2625997649
C  C51  1  0.23800000  0.38400000  0.16670000  1.0 0.0537560745
C  C52  1  0.37400000  0.63080000  0.02390000  1.0 -0.2284214943
C  C53  1  0.12640000  0.27680000  0.19910000  1.0 0.0114508737
C  C54  1  0.08970000  0.31830000  0.16000000  1.0 -0.2284214943
C  C55  1  0.50170000  0.39690000  0.43870000  1.0 -0.0705033844
C  C56  1  0.42850000  0.08430000  0.41850000  1.0 0.0279168398
C  C57  1  0.63350000  0.44050000  0.44080000  1.0 0.0385394725
C  C58  1  0.51310000  0.14330000  0.44910000  1.0 -0.0773805143
C  C59  1  0.38930000  0.12870000  0.37500000  1.0 0.0637217252
C  C60  1  0.41900000  0.04420000  0.36090000  1.0 -0.1001389124
C  C61  1  0.58860000  0.46080000  0.46020000  1.0 0.0385394725
C  C62  1  0.61550000  0.46590000  0.54460000  1.0 -0.0705033844
C  C63  1  0.42410000  0.20590000  0.37250000  1.0 -0.2709498094
C  C64  1  0.37990000  0.02610000  0.48170000  1.0 -0.0873604608
C  C65  1  0.61010000  0.54370000  0.41230000  1.0 -0.0773805143
C  C66  1  0.66860000  0.35440000  0.45980000  1.0 -0.0145886992
C  C67  1  0.71990000  0.46170000  0.37160000  1.0 0.0114508737
C  C68  1  0.68250000  0.48390000  0.38970000  1.0 -0.2625997649
C  C69  1  0.38400000  0.23800000  0.33333333  1.0 0.0537560745
C  C70  1  0.63080000  0.37400000  0.47610000  1.0 -0.2284214943
C  C71  1  0.27680000  0.12640000  0.30090000  1.0 0.0114508737
C  C72  1  0.31830000  0.08970000  0.34000000  1.0 -0.2284214943
N  N1  1  0.79860000  0.68660000  0.80150000  1.0 -0.2350144671
N  N2  1  0.60280000  0.28600000  0.90450000  1.0 -0.2284214943
N  N3  1  0.68660000  0.79860000  0.69850000  1.0 -0.2350144671
N  N4  1  0.28600000  0.60280000  0.59550000  1.0 -0.2284214943
N  N5  1  0.20140000  0.31340000  0.19850000  1.0 -0.2350144671
N  N6  1  0.39720000  0.71400000  0.09550000  1.0 -0.2247111188
N  N7  1  0.31340000  0.20140000  0.30150000  1.0 -0.2350144671
N  N8  1  0.71400000  0.39720000  0.40450000  1.0 -0.2284214943
O  O1  1  0.02110000  0.59330000  0.02740000  1.0 -0.6699139909
O  O2  1  0.43530000  0.43310000  0.92860000  1.0 -0.5853999392
O  O3  1  0.59450000  0.54950000  0.95480000  1.0 -0.6107983426
O  O4  1  0.88880000  0.44540000  0.98830000  1.0 -0.6016574041
O  O5  1  0.66960000  0.54260000  0.10240000  1.0 -0.8684113161
O  O6  1  0.51680000  0.42200000  0.07470000  1.0 -0.6232143627
O  O7  1  0.99900000  0.54500000  0.89280000  1.0 -0.632113366
O  O8  1  0.66710000  0.67590000  0.82670000  1.0 -0.7550377385
O  O9  1  0.48910000  0.43670000  0.18120000  1.0 -0.8422586457
O  O10  1  0.64620000  0.68620000  0.95800000  1.0 -0.9497091458
O  O11  1  0.08060000  0.51180000  0.87360000  1.0 -0.8930407451
O  O12  1  0.24950000  0.70750000  0.05860000  1.0 -0.7661228315
O  O13  1  0.87320000  0.39360000  0.86780000  1.0 -0.9497091458
O  O14  1  0.12950000  0.68010000  0.93240000  1.0 -0.9434286491
O  O15  1  0.59330000  0.02110000  0.47260000  1.0 -0.6699139909
O  O16  1  0.43310000  0.43530000  0.57140000  1.0 -0.5853999392
O  O17  1  0.54950000  0.59450000  0.54520000  1.0 -0.6107983426
O  O18  1  0.44540000  0.88880000  0.51170000  1.0 -0.6016574041
O  O19  1  0.54260000  0.66960000  0.39760000  1.0 -0.8684113161
O  O20  1  0.42200000  0.51680000  0.42530000  1.0 -0.6232143627
O  O21  1  0.54500000  0.99900000  0.60720000  1.0 -0.632113366
O  O22  1  0.67590000  0.66710000  0.67330000  1.0 -0.7550377385
O  O23  1  0.43670000  0.48910000  0.31880000  1.0 -0.8422586457
O  O24  1  0.68620000  0.64620000  0.54200000  1.0 -0.9497091458
O  O25  1  0.51180000  0.08060000  0.62640000  1.0 -0.8930407451
O  O26  1  0.70750000  0.24950000  0.44140000  1.0 -0.7661228315
O  O27  1  0.39360000  0.87320000  0.63220000  1.0 -0.9497091458
O  O28  1  0.68010000  0.12950000  0.56760000  1.0 -0.9434286491
O  O29  1  0.97890000  0.40670000  0.97260000  1.0 -0.6699139909
O  O30  1  0.56470000  0.56690000  0.07140000  1.0 -0.5853999392
O  O31  1  0.40550000  0.45050000  0.04520000  1.0 -0.6107983426
O  O32  1  0.11120000  0.55460000  0.01170000  1.0 -0.6016574041
O  O33  1  0.33040000  0.45740000  0.89760000  1.0 -0.8684113161
O  O34  1  0.48320000  0.57800000  0.92530000  1.0 -0.6232143627
O  O35  1  0.00100000  0.45500000  0.10720000  1.0 -0.632113366
O  O36  1  0.33290000  0.32410000  0.17330000  1.0 -0.7545305626
O  O37  1  0.51090000  0.56330000  0.81880000  1.0 -0.8422586457
O  O38  1  0.35380000  0.31380000  0.04200000  1.0 -0.9497091458
O  O39  1  0.91940000  0.48820000  0.12640000  1.0 -0.8930407451
O  O40  1  0.75050000  0.29250000  0.94140000  1.0 -0.7661228315
O  O41  1  0.12680000  0.60640000  0.13220000  1.0 -0.9497091458
O  O42  1  0.87050000  0.31990000  0.06760000  1.0 -0.9434286491
O  O43  1  0.40670000  0.97890000  0.52740000  1.0 -0.6699139909
O  O44  1  0.56690000  0.56470000  0.42860000  1.0 -0.5853999392
O  O45  1  0.45050000  0.40550000  0.45480000  1.0 -0.6107983426
O  O46  1  0.55460000  0.11120000  0.48830000  1.0 -0.6016574041
O  O47  1  0.45740000  0.33040000  0.60240000  1.0 -0.8684113161
O  O48  1  0.57800000  0.48320000  0.57470000  1.0 -0.6232143627
O  O49  1  0.45500000  0.00100000  0.39280000  1.0 -0.632113366
O  O50  1  0.32410000  0.33290000  0.32670000  1.0 -0.7545305626
O  O51  1  0.56330000  0.51090000  0.68120000  1.0 -0.8422586457
O  O52  1  0.31380000  0.35380000  0.45800000  1.0 -0.9497091458
O  O53  1  0.48820000  0.91940000  0.37360000  1.0 -0.8930407451
O  O54  1  0.29250000  0.75050000  0.55860000  1.0 -0.7661228315
O  O55  1  0.60640000  0.12680000  0.36780000  1.0 -0.9497091458
O  O56  1  0.31990000  0.87050000  0.43240000  1.0 -0.9434286491
