# DDEC6 charges by PACMAN v1.1 (https://github.com/mtap-research/PACMAN-charge/)
data_GECROY_ASR_pacman
_symmetry_space_group_name_H-M   'P 1'
_cell_length_a   11.76010000
_cell_length_b   14.83660000
_cell_length_c   20.95820000
_cell_angle_alpha   95.54100000
_cell_angle_beta   105.03700000
_cell_angle_gamma   90.98700000
_symmetry_Int_Tables_number   1
_chemical_formula_structural   Mn2Zn3Mo12H40C36(N2O13)2
_chemical_formula_sum   'Mn2 Zn3 Mo12 H40 C36 N4 O26'
_cell_volume   3511.66768860
_cell_formula_units_Z   1
loop_
 _symmetry_equiv_pos_site_id
 _symmetry_equiv_pos_as_xyz
  1  'x, y, z'
loop_
 _atom_site_type_symbol
 _atom_site_label
 _atom_site_symmetry_multiplicity
 _atom_site_fract_x
 _atom_site_fract_y
 _atom_site_fract_z
 _atom_site_occupancy
 _atom_site_charge
Mn  Mn1  1  0.00000000  0.50000000  0.50000000  1.0 0.8820227165
Mn  Mn2  1  0.00000000  0.00000000  0.00000000  1.0 0.8820227165
Zn  Zn1  1  0.58156000  0.41883000  0.20425000  1.0 0.519639321
Zn  Zn2  1  0.41844000  0.58117000  0.79575000  1.0 0.519639321
Zn  Zn3  1  0.50000000  0.00000000  0.50000000  1.0 0.2861192901
Mo  Mo1  1  0.22584000  0.65242000  0.52218000  1.0 1.2849338431
Mo  Mo2  1  0.08468000  0.55447000  0.36926000  1.0 1.3099967617
Mo  Mo3  1  0.86018000  0.40392000  0.34614000  1.0 1.8586540598
Mo  Mo4  1  0.93644000  0.85752000  0.10135000  1.0 1.3976518292
Mo  Mo5  1  0.18138000  0.99039000  0.15277000  1.0 1.3786828894
Mo  Mo6  1  0.24653000  0.13147000  0.05031000  1.0 1.2216579694
Mo  Mo7  1  0.77416000  0.34758000  0.47782000  1.0 1.2888759751
Mo  Mo8  1  0.91532000  0.44553000  0.63074000  1.0 1.3099967617
Mo  Mo9  1  0.13982000  0.59608000  0.65386000  1.0 1.8586540598
Mo  Mo10  1  0.06356000  0.14248000  0.89865000  1.0 1.392320909
Mo  Mo11  1  0.81862000  0.00961000  0.84723000  1.0 1.3786828894
Mo  Mo12  1  0.75347000  0.86853000  0.94969000  1.0 1.2216579694
H  H1  1  0.49563000  0.21302000  0.47786000  1.0 0.0738282207
H  H2  1  0.37567000  0.33446000  0.47922000  1.0 0.1050997604
H  H3  1  0.17787000  0.18709000  0.56635000  1.0 0.1013852262
H  H4  1  0.30050000  0.06847000  0.55971000  1.0 0.0803522754
H  H5  1  0.03389000  0.26632000  0.52009000  1.0 0.0803522754
H  H6  1  0.09986000  0.31635000  0.59149000  1.0 0.0803522754
H  H7  1  0.19823000  0.37900000  0.42541000  1.0 0.0803522754
H  H8  1  0.09203000  0.30678000  0.41796000  1.0 0.0890017615
H  H9  1  0.27313000  0.42367000  0.60510000  1.0 0.0890017615
H  H10  1  0.31101000  0.45113000  0.54146000  1.0 0.0803522754
H  H11  1  0.55041000  0.22919000  0.13351000  1.0 0.0738282207
H  H12  1  0.64937000  0.12687000  0.07983000  1.0 0.1013852262
H  H13  1  0.91865000  0.31339000  0.11428000  1.0 0.1013852262
H  H14  1  0.81536000  0.40862000  0.17028000  1.0 0.0890017615
H  H15  1  0.71338000  0.06057000  0.01041000  1.0 0.0738282207
H  H16  1  0.74727000  0.13185000  0.96509000  1.0 0.0803522754
H  H17  1  0.96237000  0.11583000  0.15406000  1.0 0.0803522754
H  H18  1  0.84768000  0.04975000  0.12734000  1.0 0.0803522754
H  H19  1  0.93191000  0.23177000  0.00735000  1.0 0.0803522754
H  H20  1  0.01886000  0.22120000  0.07856000  1.0 0.0803522754
H  H21  1  0.50437000  0.78698000  0.52214000  1.0 0.0738282207
H  H22  1  0.62433000  0.66554000  0.52078000  1.0 0.1050997604
H  H23  1  0.82213000  0.81291000  0.43365000  1.0 0.1013852262
H  H24  1  0.69950000  0.93153000  0.44029000  1.0 0.0803522754
H  H25  1  0.96611000  0.73368000  0.47991000  1.0 0.0803522754
H  H26  1  0.90014000  0.68365000  0.40851000  1.0 0.0803522754
H  H27  1  0.80177000  0.62100000  0.57459000  1.0 0.0803522754
H  H28  1  0.90797000  0.69322000  0.58204000  1.0 0.0890017615
H  H29  1  0.72687000  0.57633000  0.39490000  1.0 0.0890017615
H  H30  1  0.68899000  0.54887000  0.45854000  1.0 0.0803522754
H  H31  1  0.44959000  0.77081000  0.86649000  1.0 0.0738282207
H  H32  1  0.35063000  0.87313000  0.92017000  1.0 0.1013852262
H  H33  1  0.08135000  0.68661000  0.88572000  1.0 0.1013852262
H  H34  1  0.18464000  0.59138000  0.82972000  1.0 0.0890017615
H  H35  1  0.28662000  0.93943000  0.98959000  1.0 0.0738282207
H  H36  1  0.25273000  0.86815000  0.03491000  1.0 0.0803522754
H  H37  1  0.03763000  0.88417000  0.84594000  1.0 0.0803522754
H  H38  1  0.15232000  0.95025000  0.87266000  1.0 0.0803522754
H  H39  1  0.06809000  0.76823000  0.99265000  1.0 0.0803522754
H  H40  1  0.98114000  0.77880000  0.92144000  1.0 0.0803522754
C  C1  1  0.42874000  0.20679000  0.49482000  1.0 0.0396181186
C  C2  1  0.35716000  0.28014000  0.49568000  1.0 -0.2393727094
C  C3  1  0.25814000  0.27475000  0.52055000  1.0 0.0396181186
C  C4  1  0.24088000  0.19387000  0.54631000  1.0 -0.2393727094
C  C5  1  0.31581000  0.12318000  0.54270000  1.0 0.0504380729
C  C6  1  0.17294000  0.35278000  0.51678000  1.0 0.0396181186
C  C7  1  0.06928000  0.32514000  0.54394000  1.0 -0.0813039215
C  C8  1  0.12927000  0.36493000  0.44214000  1.0 -0.0813039215
C  C9  1  0.24240000  0.43793000  0.55872000  1.0 -0.06607338
C  C10  1  0.62684000  0.24603000  0.13024000  1.0 0.0396181186
C  C11  1  0.68523000  0.18494000  0.09755000  1.0 -0.2393727094
C  C12  1  0.79664000  0.20789000  0.09033000  1.0 0.0504380729
C  C13  1  0.84356000  0.29380000  0.11806000  1.0 -0.2393727094
C  C14  1  0.78085000  0.35064000  0.15112000  1.0 0.0317224808
C  C15  1  0.86580000  0.13847000  0.05856000  1.0 0.0215069711
C  C16  1  0.77986000  0.08767000  0.99685000  1.0 -0.0884435434
C  C17  1  0.91488000  0.07722000  0.11467000  1.0 -0.0813039215
C  C18  1  0.96629000  0.18727000  0.03846000  1.0 -0.0884435434
C  C19  1  0.57126000  0.79321000  0.50518000  1.0 0.0396181186
C  C20  1  0.64284000  0.71986000  0.50432000  1.0 -0.2393727094
C  C21  1  0.74186000  0.72525000  0.47945000  1.0 0.0396181186
C  C22  1  0.75912000  0.80613000  0.45369000  1.0 -0.2393727094
C  C23  1  0.68419000  0.87682000  0.45730000  1.0 0.0504380729
C  C24  1  0.82706000  0.64722000  0.48322000  1.0 0.0396181186
C  C25  1  0.93072000  0.67486000  0.45606000  1.0 -0.0813039215
C  C26  1  0.87073000  0.63507000  0.55786000  1.0 -0.0813039215
C  C27  1  0.75760000  0.56207000  0.44128000  1.0 -0.064963888
C  C28  1  0.37316000  0.75397000  0.86976000  1.0 0.0396181186
C  C29  1  0.31477000  0.81506000  0.90245000  1.0 -0.2393727094
C  C30  1  0.20336000  0.79211000  0.90967000  1.0 0.0504380729
C  C31  1  0.15644000  0.70620000  0.88194000  1.0 -0.2393727094
C  C32  1  0.21915000  0.64936000  0.84888000  1.0 0.0317224808
C  C33  1  0.13420000  0.86153000  0.94144000  1.0 0.0215069711
C  C34  1  0.22014000  0.91233000  0.00315000  1.0 -0.0884435434
C  C35  1  0.08512000  0.92278000  0.88533000  1.0 -0.0813039215
C  C36  1  0.03371000  0.81273000  0.96154000  1.0 -0.0884435434
N  N1  1  0.40831000  0.12752000  0.51670000  1.0 -0.2563925866
N  N2  1  0.67394000  0.32819000  0.15755000  1.0 -0.2563925866
N  N3  1  0.59169000  0.87248000  0.48330000  1.0 -0.2563925866
N  N4  1  0.32606000  0.67181000  0.84245000  1.0 -0.2563925866
O  O1  1  0.21923000  0.57085000  0.44547000  1.0 -0.8879731816
O  O2  1  0.91939000  0.52146000  0.33799000  1.0 -0.9246107957
O  O3  1  0.85109000  0.31947000  0.40836000  1.0 -0.9246107957
O  O4  1  0.71636000  0.40762000  0.30008000  1.0 -0.7674642425
O  O5  1  0.79156000  0.89302000  0.04428000  1.0 -0.9073107661
O  O6  1  0.10455000  0.87219000  0.12446000  1.0 -0.9305161259
O  O7  1  0.19708000  0.11005000  0.12830000  1.0 -0.9073107661
O  O8  1  0.97883000  0.39025000  0.53747000  1.0 -0.6087687235
O  O9  1  0.04637000  0.43491000  0.42711000  1.0 -0.6326263618
O  O10  1  0.17592000  0.51772000  0.55912000  1.0 -0.6429480236
O  O11  1  0.83261000  0.01734000  0.96368000  1.0 -0.6326263618
O  O12  1  0.98554000  0.00665000  0.09797000  1.0 -0.6616165262
O  O13  1  0.03524000  0.12681000  0.00761000  1.0 -0.6227496486
O  O14  1  0.78077000  0.42915000  0.55453000  1.0 -0.8879731816
O  O15  1  0.08061000  0.47854000  0.66201000  1.0 -0.9305161259
O  O16  1  0.14891000  0.68053000  0.59164000  1.0 -0.9246107957
O  O17  1  0.28364000  0.59238000  0.69992000  1.0 -0.7674642425
O  O18  1  0.20844000  0.10698000  0.95572000  1.0 -0.9073107661
O  O19  1  0.89545000  0.12781000  0.87554000  1.0 -0.9305161259
O  O20  1  0.80292000  0.88995000  0.87170000  1.0 -0.9048555117
O  O21  1  0.02117000  0.60975000  0.46253000  1.0 -0.6087687235
O  O22  1  0.95363000  0.56509000  0.57289000  1.0 -0.6326263618
O  O23  1  0.82408000  0.48228000  0.44088000  1.0 -0.6429480236
O  O24  1  0.16739000  0.98266000  0.03632000  1.0 -0.6326263618
O  O25  1  0.01446000  0.99335000  0.90203000  1.0 -0.6616165262
O  O26  1  0.96476000  0.87319000  0.99239000  1.0 -0.6227496486
