# DDEC6 charges by PACMAN v1.1 (https://github.com/mtap-research/PACMAN-charge/)
data_GEDDEC_ASR_pacman
_symmetry_space_group_name_H-M   'P 1'
_cell_length_a   12.07160000
_cell_length_b   12.07160000
_cell_length_c   17.38860000
_cell_angle_alpha   73.60770000
_cell_angle_beta   106.39200000
_cell_angle_gamma   121.03200000
_symmetry_Int_Tables_number   1
_chemical_formula_structural   CdH20C34(NO2)4
_chemical_formula_sum   'Cd2 H40 C68 N8 O16'
_cell_volume   2054.00092616
_cell_formula_units_Z   2
loop_
 _symmetry_equiv_pos_site_id
 _symmetry_equiv_pos_as_xyz
  1  'x, y, z'
loop_
 _atom_site_type_symbol
 _atom_site_label
 _atom_site_symmetry_multiplicity
 _atom_site_fract_x
 _atom_site_fract_y
 _atom_site_fract_z
 _atom_site_occupancy
 _atom_site_charge
Cd  Cd1  1  0.00000000  0.00000000  0.00000000  1.0 0.8588998731
Cd  Cd2  1  0.00000000  0.00000000  0.50000000  1.0 0.8588998731
H  H1  1  0.63800000  0.47780000  0.11920000  1.0 0.1164077406
H  H2  1  0.59800000  0.08460000  0.94860000  1.0 0.14206012
H  H3  1  0.57100000  0.69220000  0.90710000  1.0 0.1164077406
H  H4  1  0.71370000  0.98670000  0.94200000  1.0 0.1164077406
H  H5  1  0.80110000  0.70790000  0.80840000  1.0 0.1279861362
H  H6  1  0.25750000  0.16790000  0.81070000  1.0 0.1279861362
H  H7  1  0.73450000  0.36690000  0.04260000  1.0 0.1279861362
H  H8  1  0.60530000  0.23250000  0.04220000  1.0 0.1279861362
H  H9  1  0.92910000  0.35690000  0.05500000  1.0 0.147676092
H  H10  1  0.03470000  0.25010000  0.04620000  1.0 0.1107914712
H  H11  1  0.47780000  0.63800000  0.38080000  1.0 0.1164077406
H  H12  1  0.08460000  0.59800000  0.55140000  1.0 0.14206012
H  H13  1  0.69220000  0.57100000  0.59290000  1.0 0.1164077406
H  H14  1  0.98670000  0.71370000  0.55800000  1.0 0.1164077406
H  H15  1  0.70790000  0.80110000  0.69160000  1.0 0.1279861362
H  H16  1  0.16790000  0.25750000  0.68930000  1.0 0.1279861362
H  H17  1  0.36690000  0.73450000  0.45740000  1.0 0.1279861362
H  H18  1  0.23250000  0.60530000  0.45780000  1.0 0.1279861362
H  H19  1  0.35690000  0.92910000  0.44500000  1.0 0.147676092
H  H20  1  0.25010000  0.03470000  0.45380000  1.0 0.1107914712
H  H21  1  0.36200000  0.52220000  0.88080000  1.0 0.1164077406
H  H22  1  0.40200000  0.91540000  0.05140000  1.0 0.14206012
H  H23  1  0.42900000  0.30780000  0.09290000  1.0 0.1164077406
H  H24  1  0.28630000  0.01330000  0.05800000  1.0 0.1164077406
H  H25  1  0.19890000  0.29210000  0.19160000  1.0 0.1279861362
H  H26  1  0.74250000  0.83210000  0.18930000  1.0 0.1279861362
H  H27  1  0.26550000  0.63310000  0.95740000  1.0 0.1279861362
H  H28  1  0.39470000  0.76750000  0.95780000  1.0 0.1279861362
H  H29  1  0.07090000  0.64310000  0.94500000  1.0 0.147676092
H  H30  1  0.96530000  0.74990000  0.95380000  1.0 0.1107914712
H  H31  1  0.52220000  0.36200000  0.61920000  1.0 0.1164077406
H  H32  1  0.91540000  0.40200000  0.44860000  1.0 0.14206012
H  H33  1  0.30780000  0.42900000  0.40710000  1.0 0.1164077406
H  H34  1  0.01330000  0.28630000  0.44200000  1.0 0.1164077406
H  H35  1  0.29210000  0.19890000  0.30840000  1.0 0.1279861362
H  H36  1  0.83210000  0.74250000  0.31070000  1.0 0.1279861362
H  H37  1  0.63310000  0.26550000  0.54260000  1.0 0.1279861362
H  H38  1  0.76750000  0.39470000  0.54220000  1.0 0.1279861362
H  H39  1  0.64310000  0.07090000  0.55500000  1.0 0.147676092
H  H40  1  0.74990000  0.96530000  0.54620000  1.0 0.1107914712
C  C1  1  0.76376000  0.71584000  0.03462000  1.0 0.5543424304
C  C2  1  0.62685000  0.60365000  0.01585000  1.0 -0.0252576616
C  C3  1  0.48928000  0.26932000  0.90041000  1.0 0.418180507
C  C4  1  0.43404000  0.32576000  0.82231000  1.0 -0.0629612614
C  C5  1  0.51133000  0.45569000  0.78590000  1.0 0.0347482491
C  C6  1  0.64286000  0.53074000  0.82058000  1.0 -0.0629612614
C  C7  1  0.58271000  0.48715000  0.07117000  1.0 -0.1273988668
C  C8  1  0.68727000  0.12033000  0.96925000  1.0 -0.1792623882
C  C9  1  0.54292000  0.61508000  0.94471000  1.0 -0.1203047071
C  C10  1  0.75774000  0.06206000  0.96538000  1.0 0.0988803639
C  C11  1  0.70189000  0.47371000  0.89623000  1.0 0.4263023253
C  C12  1  0.71453000  0.65847000  0.78522000  1.0 -0.0837166418
C  C13  1  0.74963000  0.23137000  0.00388000  1.0 0.14206012
C  C14  1  0.30783000  0.25357000  0.78651000  1.0 -0.0461697985
C  C15  1  0.67572000  0.29588000  0.01191000  1.0 -0.140533093
C  C16  1  0.88255000  0.28085000  0.03220000  1.0 -0.1722897586
C  C17  1  0.94540000  0.21620000  0.02620000  1.0 0.0988803639
C  C18  1  0.71584000  0.76376000  0.46538000  1.0 0.5543424304
C  C19  1  0.60365000  0.62685000  0.48415000  1.0 -0.0252576616
C  C20  1  0.26932000  0.48928000  0.59959000  1.0 0.418180507
C  C21  1  0.32576000  0.43404000  0.67769000  1.0 -0.0629612614
C  C22  1  0.45569000  0.51133000  0.71410000  1.0 0.0347482491
C  C23  1  0.53074000  0.64286000  0.67942000  1.0 -0.0629612614
C  C24  1  0.48715000  0.58271000  0.42883000  1.0 -0.1273988668
C  C25  1  0.12033000  0.68727000  0.53075000  1.0 -0.1792623882
C  C26  1  0.61508000  0.54292000  0.55529000  1.0 -0.1203047071
C  C27  1  0.06206000  0.75774000  0.53462000  1.0 0.0988803639
C  C28  1  0.47371000  0.70189000  0.60377000  1.0 0.4263023253
C  C29  1  0.65847000  0.71453000  0.71478000  1.0 -0.0837166418
C  C30  1  0.23137000  0.74963000  0.49612000  1.0 0.14206012
C  C31  1  0.25357000  0.30783000  0.71349000  1.0 -0.0461697985
C  C32  1  0.29588000  0.67572000  0.48809000  1.0 -0.140533093
C  C33  1  0.28085000  0.88255000  0.46780000  1.0 -0.1722897586
C  C34  1  0.21620000  0.94540000  0.47380000  1.0 0.0988803639
C  C35  1  0.23624000  0.28416000  0.96538000  1.0 0.5543424304
C  C36  1  0.37315000  0.39635000  0.98415000  1.0 -0.0252576616
C  C37  1  0.51072000  0.73068000  0.09959000  1.0 0.418180507
C  C38  1  0.56596000  0.67424000  0.17769000  1.0 -0.0629612614
C  C39  1  0.48867000  0.54431000  0.21410000  1.0 0.0347482491
C  C40  1  0.35714000  0.46926000  0.17942000  1.0 -0.0629612614
C  C41  1  0.41729000  0.51285000  0.92883000  1.0 -0.1273988668
C  C42  1  0.31273000  0.87967000  0.03075000  1.0 -0.1792623882
C  C43  1  0.45708000  0.38492000  0.05529000  1.0 -0.1203047071
C  C44  1  0.24226000  0.93794000  0.03462000  1.0 0.0988803639
C  C45  1  0.29811000  0.52629000  0.10377000  1.0 0.4263023253
C  C46  1  0.28547000  0.34153000  0.21478000  1.0 -0.0837166418
C  C47  1  0.25037000  0.76863000  0.99612000  1.0 0.14206012
C  C48  1  0.69217000  0.74643000  0.21349000  1.0 -0.0461697985
C  C49  1  0.32428000  0.70412000  0.98809000  1.0 -0.140533093
C  C50  1  0.11745000  0.71915000  0.96780000  1.0 -0.1792623882
C  C51  1  0.05460000  0.78380000  0.97380000  1.0 0.0988803639
C  C52  1  0.28416000  0.23624000  0.53462000  1.0 0.5543424304
C  C53  1  0.39635000  0.37315000  0.51585000  1.0 -0.0252576616
C  C54  1  0.73068000  0.51072000  0.40041000  1.0 0.418180507
C  C55  1  0.67424000  0.56596000  0.32231000  1.0 -0.0629612614
C  C56  1  0.54431000  0.48867000  0.28590000  1.0 0.0347482491
C  C57  1  0.46926000  0.35714000  0.32058000  1.0 -0.0629612614
C  C58  1  0.51285000  0.41729000  0.57117000  1.0 -0.1273988668
C  C59  1  0.87967000  0.31273000  0.46925000  1.0 -0.1792623882
C  C60  1  0.38492000  0.45708000  0.44471000  1.0 -0.1203047071
C  C61  1  0.93794000  0.24226000  0.46538000  1.0 0.0988803639
C  C62  1  0.52629000  0.29811000  0.39623000  1.0 0.4263023253
C  C63  1  0.34153000  0.28547000  0.28522000  1.0 -0.0837166418
C  C64  1  0.76863000  0.25037000  0.50388000  1.0 0.14206012
C  C65  1  0.74643000  0.69217000  0.28651000  1.0 -0.0461697985
C  C66  1  0.70412000  0.32428000  0.51191000  1.0 -0.140533093
C  C67  1  0.71915000  0.11745000  0.53220000  1.0 -0.1722897586
C  C68  1  0.78380000  0.05460000  0.52620000  1.0 0.0988803639
N  N1  1  0.61994000  0.34834000  0.93252000  1.0 -0.1649043743
N  N2  1  0.88570000  0.10818000  0.99345000  1.0 -0.2323876355
N  N3  1  0.34834000  0.61994000  0.56748000  1.0 -0.1649043743
N  N4  1  0.10818000  0.88570000  0.50655000  1.0 -0.2323876355
N  N5  1  0.38006000  0.65166000  0.06748000  1.0 -0.1722897586
N  N6  1  0.11430000  0.89182000  0.00655000  1.0 -0.2323876355
N  N7  1  0.65166000  0.38006000  0.43252000  1.0 -0.1649043743
N  N8  1  0.89182000  0.11430000  0.49345000  1.0 -0.2323876355
O  O1  1  0.80128000  0.81476000  0.97858000  1.0 -0.5958113257
O  O2  1  0.82963000  0.70431000  0.10334000  1.0 -0.5644490604
O  O3  1  0.81619000  0.53161000  0.92749000  1.0 -0.4412712042
O  O4  1  0.42571000  0.16029000  0.93605000  1.0 -0.4412712042
O  O5  1  0.81476000  0.80128000  0.52142000  1.0 -0.5958113257
O  O6  1  0.70431000  0.82963000  0.39666000  1.0 -0.5644490604
O  O7  1  0.53161000  0.81619000  0.57251000  1.0 -0.4412712042
O  O8  1  0.16029000  0.42571000  0.56395000  1.0 -0.4412712042
O  O9  1  0.19872000  0.18524000  0.02142000  1.0 -0.5958113257
O  O10  1  0.17037000  0.29569000  0.89666000  1.0 -0.5644490604
O  O11  1  0.18381000  0.46839000  0.07251000  1.0 -0.4412712042
O  O12  1  0.57429000  0.83971000  0.06395000  1.0 -0.4412712042
O  O13  1  0.18524000  0.19872000  0.47858000  1.0 -0.5958113257
O  O14  1  0.29569000  0.17037000  0.60334000  1.0 -0.5644490604
O  O15  1  0.46839000  0.18381000  0.42749000  1.0 -0.4412712042
O  O16  1  0.83971000  0.57429000  0.43605000  1.0 -0.4412712042
