# DDEC6 charges by PACMAN v1.1 (https://github.com/mtap-research/PACMAN-charge/)
data_GEDLIM_ASR_pacman
_symmetry_space_group_name_H-M   'P 1'
_cell_length_a   14.59560000
_cell_length_b   14.59560000
_cell_length_c   12.88420000
_cell_angle_alpha   90.00000000
_cell_angle_beta   90.00000000
_cell_angle_gamma   90.00000000
_symmetry_Int_Tables_number   1
_chemical_formula_structural   ZnH16C20(N3O2)2
_chemical_formula_sum   'Zn4 H64 C80 N24 O16'
_cell_volume   2744.74095942
_cell_formula_units_Z   4
loop_
 _symmetry_equiv_pos_site_id
 _symmetry_equiv_pos_as_xyz
  1  'x, y, z'
loop_
 _atom_site_type_symbol
 _atom_site_label
 _atom_site_symmetry_multiplicity
 _atom_site_fract_x
 _atom_site_fract_y
 _atom_site_fract_z
 _atom_site_occupancy
 _atom_site_charge
Zn  Zn1  1  0.00000000  0.50000000  0.50000000  1.0 0.7896580229
Zn  Zn2  1  0.50000000  0.00000000  0.00000000  1.0 0.7896580229
Zn  Zn3  1  0.00000000  0.50000000  0.00000000  1.0 0.7896580229
Zn  Zn4  1  0.50000000  0.00000000  0.50000000  1.0 0.7896580229
H  H1  1  0.69170000  0.68860000  0.52160000  1.0 0.1228433455
H  H2  1  0.19170000  0.81140000  0.02160000  1.0 0.1228433455
H  H3  1  0.80830000  0.18860000  0.02160000  1.0 0.1228433455
H  H4  1  0.30830000  0.31140000  0.52160000  1.0 0.1228433455
H  H5  1  0.59850000  0.77030000  0.63800000  1.0 0.1367746125
H  H6  1  0.09850000  0.72970000  0.13800000  1.0 0.1367746125
H  H7  1  0.90150000  0.27030000  0.13800000  1.0 0.1367746125
H  H8  1  0.40150000  0.22970000  0.63800000  1.0 0.1367746125
H  H9  1  0.74370000  0.66880000  0.87690000  1.0 0.1298820251
H  H10  1  0.24370000  0.83120000  0.37690000  1.0 0.1298820251
H  H11  1  0.75630000  0.16880000  0.37690000  1.0 0.1298820251
H  H12  1  0.25630000  0.33120000  0.87690000  1.0 0.1298820251
H  H13  1  0.83800000  0.59040000  0.76350000  1.0 0.1298820251
H  H14  1  0.33800000  0.90960000  0.26350000  1.0 0.1298820251
H  H15  1  0.66200000  0.09040000  0.26350000  1.0 0.1298820251
H  H16  1  0.16200000  0.40960000  0.76350000  1.0 0.1298820251
H  H17  1  0.55780000  0.67880000  0.93640000  1.0 0.1298820251
H  H18  1  0.05780000  0.82120000  0.43640000  1.0 0.1298820251
H  H19  1  0.94220000  0.17880000  0.43640000  1.0 0.1298820251
H  H20  1  0.44220000  0.32120000  0.93640000  1.0 0.1298820251
H  H21  1  0.59570000  0.94300000  0.71270000  1.0 0.1728788595
H  H22  1  0.09570000  0.55700000  0.21270000  1.0 0.1728788595
H  H23  1  0.90430000  0.44300000  0.21270000  1.0 0.1728788595
H  H24  1  0.40430000  0.05700000  0.71270000  1.0 0.1728788595
H  H25  1  0.69510000  0.91680000  0.75220000  1.0 0.1623036097
H  H26  1  0.19510000  0.58320000  0.25220000  1.0 0.1623036097
H  H27  1  0.80490000  0.41680000  0.25220000  1.0 0.1623036097
H  H28  1  0.30490000  0.08320000  0.75220000  1.0 0.1623036097
H  H29  1  0.63940000  0.99580000  0.80810000  1.0 0.1804189513
H  H30  1  0.13940000  0.50420000  0.30810000  1.0 0.1804189513
H  H31  1  0.86060000  0.49580000  0.30810000  1.0 0.1804189513
H  H32  1  0.36060000  0.00420000  0.80810000  1.0 0.1804189513
H  H33  1  0.81140000  0.80830000  0.02160000  1.0 0.1228433455
H  H34  1  0.31140000  0.69170000  0.52160000  1.0 0.1228433455
H  H35  1  0.18860000  0.19170000  0.02160000  1.0 0.1228433455
H  H36  1  0.68860000  0.30830000  0.52160000  1.0 0.1228433455
H  H37  1  0.72970000  0.90150000  0.13800000  1.0 0.1367746125
H  H38  1  0.22970000  0.59850000  0.63800000  1.0 0.1367746125
H  H39  1  0.27030000  0.09850000  0.13800000  1.0 0.1367746125
H  H40  1  0.77030000  0.40150000  0.63800000  1.0 0.1367746125
H  H41  1  0.83120000  0.75630000  0.37690000  1.0 0.1298820251
H  H42  1  0.33120000  0.74370000  0.87690000  1.0 0.1298820251
H  H43  1  0.16880000  0.24370000  0.37690000  1.0 0.1298820251
H  H44  1  0.66880000  0.25630000  0.87690000  1.0 0.1298820251
H  H45  1  0.90960000  0.66200000  0.26350000  1.0 0.1298820251
H  H46  1  0.40960000  0.83800000  0.76350000  1.0 0.1298820251
H  H47  1  0.09040000  0.33800000  0.26350000  1.0 0.1298820251
H  H48  1  0.59040000  0.16200000  0.76350000  1.0 0.1298820251
H  H49  1  0.82120000  0.94220000  0.43640000  1.0 0.1298820251
H  H50  1  0.32120000  0.55780000  0.93640000  1.0 0.1298820251
H  H51  1  0.17880000  0.05780000  0.43640000  1.0 0.1298820251
H  H52  1  0.67880000  0.44220000  0.93640000  1.0 0.1298820251
H  H53  1  0.55700000  0.90430000  0.21270000  1.0 0.1728788595
H  H54  1  0.05700000  0.59570000  0.71270000  1.0 0.1728788595
H  H55  1  0.44300000  0.09570000  0.21270000  1.0 0.1728788595
H  H56  1  0.94300000  0.40430000  0.71270000  1.0 0.1728788595
H  H57  1  0.58320000  0.80490000  0.25220000  1.0 0.1623036097
H  H58  1  0.08320000  0.69510000  0.75220000  1.0 0.1623036097
H  H59  1  0.41680000  0.19510000  0.25220000  1.0 0.1623036097
H  H60  1  0.91680000  0.30490000  0.75220000  1.0 0.1623036097
H  H61  1  0.50420000  0.86060000  0.30810000  1.0 0.1804189513
H  H62  1  0.00420000  0.63940000  0.80810000  1.0 0.1804189513
H  H63  1  0.49580000  0.13940000  0.30810000  1.0 0.1804189513
H  H64  1  0.99580000  0.36060000  0.80810000  1.0 0.1804189513
C  C1  1  0.83530000  0.58020000  0.55550000  1.0 0.5479621719
C  C2  1  0.33530000  0.91980000  0.05550000  1.0 0.5479621719
C  C3  1  0.66470000  0.08020000  0.05550000  1.0 0.5479621719
C  C4  1  0.16470000  0.41980000  0.55550000  1.0 0.5479621719
C  C5  1  0.77340000  0.62890000  0.63010000  1.0 -0.0293250462
C  C6  1  0.27340000  0.87110000  0.13010000  1.0 -0.0293250462
C  C7  1  0.72660000  0.12890000  0.13010000  1.0 -0.0293250462
C  C8  1  0.22660000  0.37110000  0.63010000  1.0 -0.0293250462
C  C9  1  0.70230000  0.68420000  0.59340000  1.0 -0.0882811529
C  C10  1  0.20230000  0.81580000  0.09340000  1.0 -0.0882811529
C  C11  1  0.79770000  0.18420000  0.09340000  1.0 -0.0882811529
C  C12  1  0.29770000  0.31580000  0.59340000  1.0 -0.0882811529
C  C13  1  0.64650000  0.73330000  0.66240000  1.0 -0.1707333206
C  C14  1  0.14650000  0.76670000  0.16240000  1.0 -0.1707333206
C  C15  1  0.85350000  0.23330000  0.16240000  1.0 -0.1707333206
C  C16  1  0.35350000  0.26670000  0.66240000  1.0 -0.1707333206
C  C17  1  0.66420000  0.72560000  0.76770000  1.0 0.1623036097
C  C18  1  0.16420000  0.77440000  0.26770000  1.0 0.1623036097
C  C19  1  0.83580000  0.22560000  0.26770000  1.0 0.1623036097
C  C20  1  0.33580000  0.27440000  0.76770000  1.0 0.1623036097
C  C21  1  0.73370000  0.67280000  0.80500000  1.0 -0.1707333206
C  C22  1  0.23370000  0.82720000  0.30500000  1.0 -0.1707333206
C  C23  1  0.76630000  0.17280000  0.30500000  1.0 -0.1707333206
C  C24  1  0.26630000  0.32720000  0.80500000  1.0 -0.1707333206
C  C25  1  0.78910000  0.62540000  0.73750000  1.0 -0.0727069677
C  C26  1  0.28910000  0.87460000  0.23750000  1.0 -0.0727069677
C  C27  1  0.71090000  0.12540000  0.23750000  1.0 -0.0727069677
C  C28  1  0.21090000  0.37460000  0.73750000  1.0 -0.0727069677
C  C29  1  0.56070000  0.74170000  0.92120000  1.0 0.0774280484
C  C30  1  0.06070000  0.75830000  0.42120000  1.0 0.0774280484
C  C31  1  0.93930000  0.24170000  0.42120000  1.0 0.0774280484
C  C32  1  0.43930000  0.25830000  0.92120000  1.0 0.0774280484
C  C33  1  0.59470000  0.86950000  0.84470000  1.0 0.3541694711
C  C34  1  0.09470000  0.63050000  0.34470000  1.0 0.3541694711
C  C35  1  0.90530000  0.36950000  0.34470000  1.0 0.3541694711
C  C36  1  0.40530000  0.13050000  0.84470000  1.0 0.3541694711
C  C37  1  0.63460000  0.93700000  0.77340000  1.0 -0.5315498878
C  C38  1  0.13460000  0.56300000  0.27340000  1.0 -0.5315498878
C  C39  1  0.86540000  0.43700000  0.27340000  1.0 -0.5315498878
C  C40  1  0.36540000  0.06300000  0.77340000  1.0 -0.5315498878
C  C41  1  0.91980000  0.66470000  0.05550000  1.0 0.5479621719
C  C42  1  0.41980000  0.83530000  0.55550000  1.0 0.5479621719
C  C43  1  0.08020000  0.33530000  0.05550000  1.0 0.5479621719
C  C44  1  0.58020000  0.16470000  0.55550000  1.0 0.5479621719
C  C45  1  0.87110000  0.72660000  0.13010000  1.0 -0.0293250462
C  C46  1  0.37110000  0.77340000  0.63010000  1.0 -0.0293250462
C  C47  1  0.12890000  0.27340000  0.13010000  1.0 -0.0293250462
C  C48  1  0.62890000  0.22660000  0.63010000  1.0 -0.0293250462
C  C49  1  0.81580000  0.79770000  0.09340000  1.0 -0.0882811529
C  C50  1  0.31580000  0.70230000  0.59340000  1.0 -0.0882811529
C  C51  1  0.18420000  0.20230000  0.09340000  1.0 -0.0882811529
C  C52  1  0.68420000  0.29770000  0.59340000  1.0 -0.0882811529
C  C53  1  0.76670000  0.85350000  0.16240000  1.0 -0.1707333206
C  C54  1  0.26670000  0.64650000  0.66240000  1.0 -0.1707333206
C  C55  1  0.23330000  0.14650000  0.16240000  1.0 -0.1707333206
C  C56  1  0.73330000  0.35350000  0.66240000  1.0 -0.1707333206
C  C57  1  0.77440000  0.83580000  0.26770000  1.0 0.1623036097
C  C58  1  0.27440000  0.66420000  0.76770000  1.0 0.1623036097
C  C59  1  0.22560000  0.16420000  0.26770000  1.0 0.1623036097
C  C60  1  0.72560000  0.33580000  0.76770000  1.0 0.1623036097
C  C61  1  0.82720000  0.76630000  0.30500000  1.0 -0.1707333206
C  C62  1  0.32720000  0.73370000  0.80500000  1.0 -0.1707333206
C  C63  1  0.17280000  0.23370000  0.30500000  1.0 -0.1707333206
C  C64  1  0.67280000  0.26630000  0.80500000  1.0 -0.1707333206
C  C65  1  0.87460000  0.71090000  0.23750000  1.0 -0.0727069677
C  C66  1  0.37460000  0.78910000  0.73750000  1.0 -0.0727069677
C  C67  1  0.12540000  0.28910000  0.23750000  1.0 -0.0727069677
C  C68  1  0.62540000  0.21090000  0.73750000  1.0 -0.0727069677
C  C69  1  0.75830000  0.93930000  0.42120000  1.0 0.0774280484
C  C70  1  0.25830000  0.56070000  0.92120000  1.0 0.0774280484
C  C71  1  0.24170000  0.06070000  0.42120000  1.0 0.0774280484
C  C72  1  0.74170000  0.43930000  0.92120000  1.0 0.0774280484
C  C73  1  0.63050000  0.90530000  0.34470000  1.0 0.3541694711
C  C74  1  0.13050000  0.59470000  0.84470000  1.0 0.3541694711
C  C75  1  0.36950000  0.09470000  0.34470000  1.0 0.3541694711
C  C76  1  0.86950000  0.40530000  0.84470000  1.0 0.3541694711
C  C77  1  0.56300000  0.86540000  0.27340000  1.0 -0.5315498878
C  C78  1  0.06300000  0.63460000  0.77340000  1.0 -0.5315498878
C  C79  1  0.43700000  0.13460000  0.27340000  1.0 -0.5315498878
C  C80  1  0.93700000  0.36540000  0.77340000  1.0 -0.5315498878
N  N1  1  0.51980000  0.80480000  0.97600000  1.0 -0.2047987898
N  N2  1  0.01980000  0.69520000  0.47600000  1.0 -0.2047987898
N  N3  1  0.98020000  0.30480000  0.47600000  1.0 -0.2047987898
N  N4  1  0.48020000  0.19520000  0.97600000  1.0 -0.2047987898
N  N5  1  0.54170000  0.88620000  0.92600000  1.0 -0.2546243128
N  N6  1  0.04170000  0.61380000  0.42600000  1.0 -0.2546243128
N  N7  1  0.95830000  0.38620000  0.42600000  1.0 -0.2546243128
N  N8  1  0.45830000  0.11380000  0.92600000  1.0 -0.2546243128
N  N9  1  0.60830000  0.77750000  0.83950000  1.0 -0.0727069677
N  N10  1  0.10830000  0.72250000  0.33950000  1.0 -0.0727069677
N  N11  1  0.89170000  0.27750000  0.33950000  1.0 -0.0727069677
N  N12  1  0.39170000  0.22250000  0.83950000  1.0 -0.0727069677
N  N13  1  0.69520000  0.98020000  0.47600000  1.0 -0.2047987898
N  N14  1  0.19520000  0.51980000  0.97600000  1.0 -0.2047987898
N  N15  1  0.30480000  0.01980000  0.47600000  1.0 -0.2047987898
N  N16  1  0.80480000  0.48020000  0.97600000  1.0 -0.2047987898
N  N17  1  0.61380000  0.95830000  0.42600000  1.0 -0.2546243128
N  N18  1  0.11380000  0.54170000  0.92600000  1.0 -0.2546243128
N  N19  1  0.38620000  0.04170000  0.42600000  1.0 -0.2546243128
N  N20  1  0.88620000  0.45830000  0.92600000  1.0 -0.2546243128
N  N21  1  0.72250000  0.89170000  0.33950000  1.0 -0.0727069677
N  N22  1  0.22250000  0.60830000  0.83950000  1.0 -0.0727069677
N  N23  1  0.27750000  0.10830000  0.33950000  1.0 -0.0727069677
N  N24  1  0.77750000  0.39170000  0.83950000  1.0 -0.0727069677
O  O1  1  0.90430000  0.54010000  0.59730000  1.0 -0.5469336082
O  O2  1  0.40430000  0.95990000  0.09730000  1.0 -0.5469336082
O  O3  1  0.59570000  0.04010000  0.09730000  1.0 -0.5469336082
O  O4  1  0.09570000  0.45990000  0.59730000  1.0 -0.5469336082
O  O5  1  0.81810000  0.58000000  0.46080000  1.0 -0.559164392
O  O6  1  0.31810000  0.92000000  0.96080000  1.0 -0.559164392
O  O7  1  0.68190000  0.08000000  0.96080000  1.0 -0.559164392
O  O8  1  0.18190000  0.42000000  0.46080000  1.0 -0.559164392
O  O9  1  0.95990000  0.59570000  0.09730000  1.0 -0.5469336082
O  O10  1  0.45990000  0.90430000  0.59730000  1.0 -0.5469336082
O  O11  1  0.04010000  0.40430000  0.09730000  1.0 -0.5469336082
O  O12  1  0.54010000  0.09570000  0.59730000  1.0 -0.5469336082
O  O13  1  0.92000000  0.68190000  0.96080000  1.0 -0.559164392
O  O14  1  0.42000000  0.81810000  0.46080000  1.0 -0.559164392
O  O15  1  0.08000000  0.31810000  0.96080000  1.0 -0.559164392
O  O16  1  0.58000000  0.18190000  0.46080000  1.0 -0.559164392
