# DDEC6 charges by PACMAN v1.1 (https://github.com/mtap-research/PACMAN-charge/)
data_GEDQUD_ASR_pacman
_symmetry_space_group_name_H-M   'P 1'
_cell_length_a   16.06510000
_cell_length_b   16.06510000
_cell_length_c   13.69450000
_cell_angle_alpha   82.01710000
_cell_angle_beta   97.98290000
_cell_angle_gamma   125.26100000
_symmetry_Int_Tables_number   1
_chemical_formula_structural   NdH8C16NClO7
_chemical_formula_sum   'Nd4 H32 C64 N4 Cl4 O28'
_cell_volume   2850.42155051
_cell_formula_units_Z   4
loop_
 _symmetry_equiv_pos_site_id
 _symmetry_equiv_pos_as_xyz
  1  'x, y, z'
loop_
 _atom_site_type_symbol
 _atom_site_label
 _atom_site_symmetry_multiplicity
 _atom_site_fract_x
 _atom_site_fract_y
 _atom_site_fract_z
 _atom_site_occupancy
 _atom_site_charge
Nd  Nd1  1  0.97015000  0.60673000  0.96041000  1.0 1.9465091368
Nd  Nd2  1  0.60673000  0.97015000  0.53959000  1.0 1.9465091368
Nd  Nd3  1  0.02985000  0.39327000  0.03959000  1.0 1.9465091368
Nd  Nd4  1  0.39327000  0.02985000  0.46041000  1.0 1.9465091368
H  H1  1  0.86920000  0.80380000  0.10590000  1.0 0.1208061815
H  H2  1  0.80380000  0.86920000  0.39410000  1.0 0.1208061815
H  H3  1  0.13080000  0.19620000  0.89410000  1.0 0.1208061815
H  H4  1  0.19620000  0.13080000  0.60590000  1.0 0.1208061815
H  H5  1  0.75790000  0.83470000  0.15410000  1.0 0.1118458773
H  H6  1  0.83470000  0.75790000  0.34590000  1.0 0.1118458773
H  H7  1  0.24210000  0.16530000  0.84590000  1.0 0.1118458773
H  H8  1  0.16530000  0.24210000  0.65410000  1.0 0.1118458773
H  H9  1  0.52310000  0.55150000  0.09270000  1.0 0.1118458773
H  H10  1  0.55150000  0.52310000  0.40730000  1.0 0.1118458773
H  H11  1  0.47690000  0.44850000  0.90730000  1.0 0.1118458773
H  H12  1  0.44850000  0.47690000  0.59270000  1.0 0.1118458773
H  H13  1  0.63260000  0.52280000  0.03730000  1.0 0.1208061815
H  H14  1  0.52280000  0.63260000  0.46270000  1.0 0.1208061815
H  H15  1  0.36740000  0.47720000  0.96270000  1.0 0.1208061815
H  H16  1  0.47720000  0.36740000  0.53730000  1.0 0.1208061815
H  H17  1  0.60700000  0.79500000  0.17700000  1.0 0.0685324734
H  H18  1  0.79500000  0.60700000  0.32300000  1.0 0.0685324734
H  H19  1  0.39300000  0.20500000  0.82300000  1.0 0.0685324734
H  H20  1  0.20500000  0.39300000  0.67700000  1.0 0.0685324734
H  H21  1  0.28540000  0.60720000  0.08380000  1.0 0.1311245253
H  H22  1  0.60720000  0.28540000  0.41620000  1.0 0.1311245253
H  H23  1  0.71460000  0.39280000  0.91620000  1.0 0.1311245253
H  H24  1  0.39280000  0.71460000  0.58380000  1.0 0.1311245253
H  H25  1  0.50710000  0.79050000  0.28320000  1.0 0.1118458773
H  H26  1  0.79050000  0.50710000  0.21680000  1.0 0.1118458773
H  H27  1  0.49290000  0.20950000  0.71680000  1.0 0.1118458773
H  H28  1  0.20950000  0.49290000  0.78320000  1.0 0.1118458773
H  H29  1  0.25840000  0.79640000  0.21870000  1.0 0.1208061815
H  H30  1  0.79640000  0.25840000  0.28130000  1.0 0.1208061815
H  H31  1  0.74160000  0.20360000  0.78130000  1.0 0.1208061815
H  H32  1  0.20360000  0.74160000  0.71870000  1.0 0.1208061815
C  C1  1  0.83370000  0.64430000  0.02760000  1.0 0.5594587167
C  C2  1  0.64430000  0.83370000  0.47240000  1.0 0.5594587167
C  C3  1  0.16630000  0.35570000  0.97240000  1.0 0.5594587167
C  C4  1  0.35570000  0.16630000  0.52760000  1.0 0.5594587167
C  C5  1  0.76330000  0.66110000  0.06630000  1.0 -0.0439165617
C  C6  1  0.66110000  0.76330000  0.43370000  1.0 -0.0439165617
C  C7  1  0.23670000  0.33890000  0.93370000  1.0 -0.0439165617
C  C8  1  0.33890000  0.23670000  0.56630000  1.0 -0.0439165617
C  C9  1  0.79930000  0.75330000  0.10180000  1.0 -0.0961647043
C  C10  1  0.75330000  0.79930000  0.39820000  1.0 -0.0961647043
C  C11  1  0.20070000  0.24670000  0.89820000  1.0 -0.0961647043
C  C12  1  0.24670000  0.20070000  0.60180000  1.0 -0.0961647043
C  C13  1  0.73280000  0.77160000  0.13150000  1.0 -0.162601077
C  C14  1  0.77160000  0.73280000  0.36850000  1.0 -0.162601077
C  C15  1  0.26720000  0.22840000  0.86850000  1.0 -0.162601077
C  C16  1  0.22840000  0.26720000  0.63150000  1.0 -0.162601077
C  C17  1  0.62960000  0.69680000  0.12770000  1.0 0.0685324734
C  C18  1  0.69680000  0.62960000  0.37230000  1.0 0.0685324734
C  C19  1  0.37040000  0.30320000  0.87230000  1.0 0.0685324734
C  C20  1  0.30320000  0.37040000  0.62770000  1.0 0.0685324734
C  C21  1  0.59270000  0.60290000  0.09380000  1.0 -0.1368501962
C  C22  1  0.60290000  0.59270000  0.40620000  1.0 -0.1368501962
C  C23  1  0.40730000  0.39710000  0.90620000  1.0 -0.1368501962
C  C24  1  0.39710000  0.40730000  0.59380000  1.0 -0.1368501962
C  C25  1  0.65810000  0.58510000  0.06180000  1.0 -0.105475382
C  C26  1  0.58510000  0.65810000  0.43820000  1.0 -0.105475382
C  C27  1  0.34190000  0.41490000  0.93820000  1.0 -0.105475382
C  C28  1  0.41490000  0.34190000  0.56180000  1.0 -0.105475382
C  C29  1  0.56190000  0.72210000  0.15570000  1.0 0.0534484973
C  C30  1  0.72210000  0.56190000  0.34430000  1.0 0.0534484973
C  C31  1  0.43810000  0.27790000  0.84430000  1.0 0.0534484973
C  C32  1  0.27790000  0.43810000  0.65570000  1.0 0.0534484973
C  C33  1  0.15620000  0.65960000  0.08520000  1.0 0.6169214984
C  C34  1  0.65960000  0.15620000  0.41480000  1.0 0.6169214984
C  C35  1  0.84380000  0.34040000  0.91480000  1.0 0.6169214984
C  C36  1  0.34040000  0.84380000  0.58520000  1.0 0.6169214984
C  C37  1  0.25660000  0.69600000  0.14290000  1.0 -0.0186419187
C  C38  1  0.69600000  0.25660000  0.35710000  1.0 -0.0186419187
C  C39  1  0.74340000  0.30400000  0.85710000  1.0 -0.0186419187
C  C40  1  0.30400000  0.74340000  0.64290000  1.0 -0.0186419187
C  C41  1  0.31210000  0.65790000  0.12740000  1.0 -0.1770276288
C  C42  1  0.65790000  0.31210000  0.37260000  1.0 -0.1770276288
C  C43  1  0.68790000  0.34210000  0.87260000  1.0 -0.1770276288
C  C44  1  0.34210000  0.68790000  0.62740000  1.0 -0.1770276288
C  C45  1  0.40830000  0.69610000  0.17780000  1.0 0.1981740435
C  C46  1  0.69610000  0.40830000  0.32220000  1.0 0.1981740435
C  C47  1  0.59170000  0.30390000  0.82220000  1.0 0.1981740435
C  C48  1  0.30390000  0.59170000  0.67780000  1.0 0.1981740435
C  C49  1  0.44490000  0.76750000  0.24720000  1.0 -0.1924873674
C  C50  1  0.76750000  0.44490000  0.25280000  1.0 -0.1924873674
C  C51  1  0.55510000  0.23250000  0.75280000  1.0 -0.1924873674
C  C52  1  0.23250000  0.55510000  0.74720000  1.0 -0.1924873674
C  C53  1  0.38860000  0.80480000  0.26290000  1.0 -0.0186419187
C  C54  1  0.80480000  0.38860000  0.23710000  1.0 -0.0186419187
C  C55  1  0.61140000  0.19520000  0.73710000  1.0 -0.0186419187
C  C56  1  0.19520000  0.61140000  0.76290000  1.0 -0.0186419187
C  C57  1  0.29510000  0.77010000  0.20960000  1.0 -0.1274668763
C  C58  1  0.77010000  0.29510000  0.29040000  1.0 -0.1274668763
C  C59  1  0.70490000  0.22990000  0.79040000  1.0 -0.1274668763
C  C60  1  0.22990000  0.70490000  0.70960000  1.0 -0.1274668763
C  C61  1  0.42870000  0.88370000  0.33730000  1.0 0.638020291
C  C62  1  0.88370000  0.42870000  0.16270000  1.0 0.638020291
C  C63  1  0.57130000  0.11630000  0.66270000  1.0 0.638020291
C  C64  1  0.11630000  0.57130000  0.83730000  1.0 0.638020291
N  N1  1  0.46480000  0.65900000  0.15380000  1.0 -0.2884591008
N  N2  1  0.65900000  0.46480000  0.34620000  1.0 -0.2884591008
N  N3  1  0.53520000  0.34100000  0.84620000  1.0 -0.2884591008
N  N4  1  0.34100000  0.53520000  0.65380000  1.0 -0.2884591008
Cl  Cl1  1  0.03360000  0.79640000  0.86550000  1.0 0.3962205937
Cl  Cl2  1  0.79640000  0.03360000  0.63450000  1.0 0.3920655241
Cl  Cl3  1  0.96640000  0.20360000  0.13450000  1.0 0.3920655241
Cl  Cl4  1  0.20360000  0.96640000  0.36550000  1.0 0.3962205937
O  O1  1  0.92710000  0.70150000  0.05350000  1.0 -0.6282800595
O  O2  1  0.70150000  0.92710000  0.44650000  1.0 -0.6282800595
O  O3  1  0.07290000  0.29850000  0.94650000  1.0 -0.6282800595
O  O4  1  0.29850000  0.07290000  0.55350000  1.0 -0.6282800595
O  O5  1  0.79920000  0.57400000  0.97010000  1.0 -0.6377632777
O  O6  1  0.57400000  0.79920000  0.52990000  1.0 -0.6377632777
O  O7  1  0.20080000  0.42600000  0.02990000  1.0 -0.6377632777
O  O8  1  0.42600000  0.20080000  0.47010000  1.0 -0.6377632777
O  O9  1  0.12689000  0.71691000  0.06730000  1.0 -0.5913919071
O  O10  1  0.71691000  0.12689000  0.43270000  1.0 -0.5913919071
O  O11  1  0.87311000  0.28309000  0.93270000  1.0 -0.5913919071
O  O12  1  0.28309000  0.87311000  0.56730000  1.0 -0.5913919071
O  O13  1  0.10444000  0.57136000  0.05450000  1.0 -0.7237275848
O  O14  1  0.57136000  0.10444000  0.44550000  1.0 -0.7237275848
O  O15  1  0.89556000  0.42864000  0.94550000  1.0 -0.7237275848
O  O16  1  0.42864000  0.89556000  0.55450000  1.0 -0.7237275848
O  O17  1  0.51300000  0.91120000  0.38130000  1.0 -0.6282800595
O  O18  1  0.91120000  0.51300000  0.11870000  1.0 -0.6282800595
O  O19  1  0.48700000  0.08880000  0.61870000  1.0 -0.6282800595
O  O20  1  0.08880000  0.48700000  0.88130000  1.0 -0.6282800595
O  O21  1  0.37417000  0.91183000  0.35110000  1.0 -0.6611409048
O  O22  1  0.91183000  0.37417000  0.14890000  1.0 -0.6611409048
O  O23  1  0.62583000  0.08817000  0.64890000  1.0 -0.6611409048
O  O24  1  0.08817000  0.62583000  0.85110000  1.0 -0.6611409048
O  O25  1  0.05460000  0.77540000  0.87100000  1.0 -0.1368501962
O  O26  1  0.77540000  0.05460000  0.62900000  1.0 -0.1368501962
O  O27  1  0.94540000  0.22460000  0.12900000  1.0 -0.1274668763
O  O28  1  0.22460000  0.94540000  0.37100000  1.0 -0.1368501962
