# DDEC6 charges by PACMAN v1.1 (https://github.com/mtap-research/PACMAN-charge/)
data_GEDQIR_ASR_pacman
_symmetry_space_group_name_H-M   'P 1'
_cell_length_a   16.01840000
_cell_length_b   16.01840000
_cell_length_c   13.58680000
_cell_angle_alpha   81.18800000
_cell_angle_beta   98.81200000
_cell_angle_gamma   123.52200000
_symmetry_Int_Tables_number   1
_chemical_formula_structural   NdH8C16NO6
_chemical_formula_sum   'Nd4 H32 C64 N4 O24'
_cell_volume   2862.09706181
_cell_formula_units_Z   4
loop_
 _symmetry_equiv_pos_site_id
 _symmetry_equiv_pos_as_xyz
  1  'x, y, z'
loop_
 _atom_site_type_symbol
 _atom_site_label
 _atom_site_symmetry_multiplicity
 _atom_site_fract_x
 _atom_site_fract_y
 _atom_site_fract_z
 _atom_site_occupancy
 _atom_site_charge
Nd  Nd1  1  0.46729000  0.10627000  0.46126000  1.0 2.1050408596
Nd  Nd2  1  0.10627000  0.46729000  0.03874000  1.0 2.1033712143
Nd  Nd3  1  0.53271000  0.89373000  0.53874000  1.0 2.1050408596
Nd  Nd4  1  0.89373000  0.53271000  0.96126000  1.0 2.1050408596
H  H1  1  0.36290000  0.30990000  0.60310000  1.0 0.120339691
H  H2  1  0.30990000  0.36290000  0.89690000  1.0 0.120339691
H  H3  1  0.63710000  0.69010000  0.39690000  1.0 0.120339691
H  H4  1  0.69010000  0.63710000  0.10310000  1.0 0.120339691
H  H5  1  0.24800000  0.33860000  0.64810000  1.0 0.120339691
H  H6  1  0.33860000  0.24800000  0.85190000  1.0 0.120339691
H  H7  1  0.75200000  0.66140000  0.35190000  1.0 0.120339691
H  H8  1  0.66140000  0.75200000  0.14810000  1.0 0.120339691
H  H9  1  0.02630000  0.05370000  0.60110000  1.0 0.120339691
H  H10  1  0.05370000  0.02630000  0.89890000  1.0 0.120339691
H  H11  1  0.97370000  0.94630000  0.39890000  1.0 0.120339691
H  H12  1  0.94630000  0.97370000  0.10110000  1.0 0.120339691
H  H13  1  0.13890000  0.02970000  0.54320000  1.0 0.120339691
H  H14  1  0.02970000  0.13890000  0.95680000  1.0 0.120339691
H  H15  1  0.86110000  0.97030000  0.45680000  1.0 0.120339691
H  H16  1  0.97030000  0.86110000  0.04320000  1.0 0.120339691
H  H17  1  0.78120000  0.10400000  0.59100000  1.0 0.1376153046
H  H18  1  0.10400000  0.78120000  0.90900000  1.0 0.1376153046
H  H19  1  0.21880000  0.89600000  0.40900000  1.0 0.1376153046
H  H20  1  0.89600000  0.21880000  0.09100000  1.0 0.1376153046
H  H21  1  0.99810000  0.28350000  0.78850000  1.0 0.120339691
H  H22  1  0.28350000  0.99810000  0.71150000  1.0 0.120339691
H  H23  1  0.00190000  0.71650000  0.21150000  1.0 0.120339691
H  H24  1  0.71650000  0.00190000  0.28850000  1.0 0.120339691
H  H25  1  0.74680000  0.28820000  0.72690000  1.0 0.1323191935
H  H26  1  0.28820000  0.74680000  0.77310000  1.0 0.1323191935
H  H27  1  0.25320000  0.71180000  0.27310000  1.0 0.1323191935
H  H28  1  0.71180000  0.25320000  0.22690000  1.0 0.1323191935
H  H29  1  0.08700000  0.27100000  0.71000000  1.0 0.0796354861
H  H30  1  0.27100000  0.08700000  0.79000000  1.0 0.0796354861
H  H31  1  0.91300000  0.72900000  0.29000000  1.0 0.0796354861
H  H32  1  0.72900000  0.91300000  0.21000000  1.0 0.0796354861
C  C1  1  0.33510000  0.15130000  0.52790000  1.0 0.5635399733
C  C2  1  0.15130000  0.33510000  0.97210000  1.0 0.5650708192
C  C3  1  0.66490000  0.84870000  0.47210000  1.0 0.5635399733
C  C4  1  0.84870000  0.66490000  0.02790000  1.0 0.5635399733
C  C5  1  0.26210000  0.16670000  0.56770000  1.0 -0.0253534837
C  C6  1  0.16670000  0.26210000  0.93230000  1.0 -0.0253534837
C  C7  1  0.73790000  0.83330000  0.43230000  1.0 -0.0253534837
C  C8  1  0.83330000  0.73790000  0.06770000  1.0 -0.018588981
C  C9  1  0.29510000  0.25950000  0.60050000  1.0 -0.1028432602
C  C10  1  0.25950000  0.29510000  0.89950000  1.0 -0.1028432602
C  C11  1  0.70490000  0.74050000  0.39950000  1.0 -0.1028432602
C  C12  1  0.74050000  0.70490000  0.10050000  1.0 -0.1028432602
C  C13  1  0.22660000  0.27600000  0.62890000  1.0 -0.1529555431
C  C14  1  0.27600000  0.22660000  0.87110000  1.0 -0.1529555431
C  C15  1  0.77340000  0.72400000  0.37110000  1.0 -0.1529555431
C  C16  1  0.72400000  0.77340000  0.12890000  1.0 -0.1529555431
C  C17  1  0.12340000  0.19740000  0.62900000  1.0 0.0617894057
C  C18  1  0.19740000  0.12340000  0.87100000  1.0 0.0617894057
C  C19  1  0.87660000  0.80260000  0.37100000  1.0 0.0617894057
C  C20  1  0.80260000  0.87660000  0.12900000  1.0 0.0617894057
C  C21  1  0.09320000  0.10620000  0.59920000  1.0 -0.1302255205
C  C22  1  0.10620000  0.09320000  0.90080000  1.0 -0.1302255205
C  C23  1  0.90680000  0.89380000  0.40080000  1.0 -0.1302255205
C  C24  1  0.89380000  0.90680000  0.09920000  1.0 -0.1302255205
C  C25  1  0.16110000  0.09090000  0.56630000  1.0 -0.1028432602
C  C26  1  0.09090000  0.16110000  0.93370000  1.0 -0.1028432602
C  C27  1  0.83890000  0.90910000  0.43370000  1.0 -0.1028432602
C  C28  1  0.90910000  0.83890000  0.06630000  1.0 -0.1028432602
C  C29  1  0.05510000  0.22210000  0.65650000  1.0 0.0617894057
C  C30  1  0.22210000  0.05510000  0.84350000  1.0 0.0617894057
C  C31  1  0.94490000  0.77790000  0.34350000  1.0 0.0617894057
C  C32  1  0.77790000  0.94490000  0.15650000  1.0 0.0617894057
C  C33  1  0.64780000  0.15280000  0.59430000  1.0 0.6167852395
C  C34  1  0.15280000  0.64780000  0.90570000  1.0 0.6167852395
C  C35  1  0.35220000  0.84720000  0.40570000  1.0 0.6167852395
C  C36  1  0.84720000  0.35220000  0.09430000  1.0 0.6167852395
C  C37  1  0.74851000  0.19089000  0.64980000  1.0 -0.018588981
C  C38  1  0.19089000  0.74851000  0.85020000  1.0 -0.018588981
C  C39  1  0.25149000  0.80911000  0.35020000  1.0 -0.018588981
C  C40  1  0.80911000  0.25149000  0.14980000  1.0 -0.018588981
C  C41  1  0.80641000  0.15399000  0.63410000  1.0 -0.1691854576
C  C42  1  0.15399000  0.80641000  0.86590000  1.0 -0.1691854576
C  C43  1  0.19359000  0.84601000  0.36590000  1.0 -0.1691854576
C  C44  1  0.84601000  0.19359000  0.13410000  1.0 -0.1691854576
C  C45  1  0.90122000  0.19218000  0.68300000  1.0 0.1959844121
C  C46  1  0.19218000  0.90122000  0.81700000  1.0 0.1959844121
C  C47  1  0.09878000  0.80782000  0.31700000  1.0 0.1959844121
C  C48  1  0.80782000  0.09878000  0.18300000  1.0 0.1959844121
C  C49  1  0.93620000  0.26160000  0.75260000  1.0 -0.1691854576
C  C50  1  0.26160000  0.93620000  0.74740000  1.0 -0.1691854576
C  C51  1  0.06380000  0.73840000  0.24740000  1.0 -0.1691854576
C  C52  1  0.73840000  0.06380000  0.25260000  1.0 -0.1691854576
C  C53  1  0.87900000  0.29880000  0.76920000  1.0 -0.018588981
C  C54  1  0.29880000  0.87900000  0.73080000  1.0 -0.018588981
C  C55  1  0.12100000  0.70120000  0.23080000  1.0 -0.018588981
C  C56  1  0.70120000  0.12100000  0.26920000  1.0 -0.018588981
C  C57  1  0.78502000  0.26338000  0.71690000  1.0 -0.1028432602
C  C58  1  0.26338000  0.78502000  0.78310000  1.0 -0.1028432602
C  C59  1  0.21498000  0.73662000  0.28310000  1.0 -0.1028432602
C  C60  1  0.73662000  0.21498000  0.21690000  1.0 -0.1028432602
C  C61  1  0.91920000  0.37540000  0.84280000  1.0 0.6498130077
C  C62  1  0.37540000  0.91920000  0.65720000  1.0 0.6498130077
C  C63  1  0.08080000  0.62460000  0.15720000  1.0 0.6498130077
C  C64  1  0.62460000  0.08080000  0.34280000  1.0 0.6498130077
N  N1  1  0.96116000  0.15804000  0.65830000  1.0 -0.2758947721
N  N2  1  0.15804000  0.96116000  0.84170000  1.0 -0.2758947721
N  N3  1  0.03884000  0.84196000  0.34170000  1.0 -0.2758947721
N  N4  1  0.84196000  0.03884000  0.15830000  1.0 -0.2758947721
O  O1  1  0.42646000  0.20454000  0.55500000  1.0 -0.6033560371
O  O2  1  0.20454000  0.42646000  0.94500000  1.0 -0.6033560371
O  O3  1  0.57354000  0.79546000  0.44500000  1.0 -0.6033560371
O  O4  1  0.79546000  0.57354000  0.05500000  1.0 -0.6033560371
O  O5  1  0.30108000  0.08312000  0.46910000  1.0 -0.6506632156
O  O6  1  0.08312000  0.30108000  0.03090000  1.0 -0.6506632156
O  O7  1  0.69892000  0.91688000  0.53090000  1.0 -0.6506632156
O  O8  1  0.91688000  0.69892000  0.96910000  1.0 -0.6506632156
O  O9  1  0.61279000  0.20681000  0.57980000  1.0 -0.583237294
O  O10  1  0.20681000  0.61279000  0.92020000  1.0 -0.583237294
O  O11  1  0.38721000  0.79319000  0.42020000  1.0 -0.583237294
O  O12  1  0.79319000  0.38721000  0.07980000  1.0 -0.583237294
O  O13  1  0.59944000  0.06616000  0.56200000  1.0 -0.7631118781
O  O14  1  0.06616000  0.59944000  0.93800000  1.0 -0.7631118781
O  O15  1  0.40056000  0.93384000  0.43800000  1.0 -0.7631118781
O  O16  1  0.93384000  0.40056000  0.06200000  1.0 -0.7631118781
O  O17  1  0.00516000  0.40204000  0.88710000  1.0 -0.6726808793
O  O18  1  0.40204000  0.00516000  0.61290000  1.0 -0.6639195567
O  O19  1  0.99484000  0.59796000  0.11290000  1.0 -0.6639195567
O  O20  1  0.59796000  0.99484000  0.38710000  1.0 -0.6639195567
O  O21  1  0.86783000  0.41077000  0.85340000  1.0 -0.6726808793
O  O22  1  0.41077000  0.86783000  0.64660000  1.0 -0.6726808793
O  O23  1  0.13217000  0.58923000  0.14660000  1.0 -0.6726808793
O  O24  1  0.58923000  0.13217000  0.35340000  1.0 -0.6726808793
