# DDEC6 charges by PACMAN v1.1 (https://github.com/mtap-research/PACMAN-charge/)
data_GEDQOX_ASR_pacman
_symmetry_space_group_name_H-M   'P 1'
_cell_length_a   16.12130000
_cell_length_b   16.12130000
_cell_length_c   13.27960000
_cell_angle_alpha   80.87550000
_cell_angle_beta   99.12450000
_cell_angle_gamma   124.55400000
_symmetry_Int_Tables_number   1
_chemical_formula_structural   NdH12C18SNO8
_chemical_formula_sum   'Nd4 H48 C72 S4 N4 O32'
_cell_volume   2796.49516877
_cell_formula_units_Z   4
loop_
 _symmetry_equiv_pos_site_id
 _symmetry_equiv_pos_as_xyz
  1  'x, y, z'
loop_
 _atom_site_type_symbol
 _atom_site_label
 _atom_site_symmetry_multiplicity
 _atom_site_fract_x
 _atom_site_fract_y
 _atom_site_fract_z
 _atom_site_occupancy
 _atom_site_charge
Nd  Nd1  1  0.39574000  0.03290000  0.95766000  1.0 1.9704767224
Nd  Nd2  1  0.03290000  0.39574000  0.54234000  1.0 1.9704767224
Nd  Nd3  1  0.60426000  0.96710000  0.04234000  1.0 1.9704767224
Nd  Nd4  1  0.96710000  0.60426000  0.45766000  1.0 1.9704767224
H  H1  1  0.47850000  0.36410000  0.04620000  1.0 0.1284446549
H  H2  1  0.36410000  0.47850000  0.45380000  1.0 0.1284446549
H  H3  1  0.52150000  0.63590000  0.95380000  1.0 0.1284446549
H  H4  1  0.63590000  0.52150000  0.54620000  1.0 0.1284446549
H  H5  1  0.44520000  0.47360000  0.09550000  1.0 0.1215245823
H  H6  1  0.47360000  0.44520000  0.40450000  1.0 0.1215245823
H  H7  1  0.55480000  0.52640000  0.90450000  1.0 0.1215245823
H  H8  1  0.52640000  0.55480000  0.59550000  1.0 0.1215245823
H  H9  1  0.16140000  0.24240000  0.13740000  1.0 0.1215245823
H  H10  1  0.24240000  0.16140000  0.36260000  1.0 0.1215245823
H  H11  1  0.83860000  0.75760000  0.86260000  1.0 0.1215245823
H  H12  1  0.75760000  0.83860000  0.63740000  1.0 0.1215245823
H  H13  1  0.19490000  0.13270000  0.09160000  1.0 0.1215245823
H  H14  1  0.13270000  0.19490000  0.40840000  1.0 0.1215245823
H  H15  1  0.80510000  0.86730000  0.90840000  1.0 0.1215245823
H  H16  1  0.86730000  0.80510000  0.59160000  1.0 0.1215245823
H  H17  1  0.22200000  0.39800000  0.19400000  1.0 0.0915268194
H  H18  1  0.39800000  0.22200000  0.30600000  1.0 0.0915268194
H  H19  1  0.77800000  0.60200000  0.80600000  1.0 0.0915268194
H  H20  1  0.60200000  0.77800000  0.69400000  1.0 0.0915268194
H  H21  1  0.19990000  0.48650000  0.27730000  1.0 0.1215245823
H  H22  1  0.48650000  0.19990000  0.22270000  1.0 0.1215245823
H  H23  1  0.80010000  0.51350000  0.72270000  1.0 0.1215245823
H  H24  1  0.51350000  0.80010000  0.77730000  1.0 0.1215245823
H  H25  1  0.39050000  0.71090000  0.08380000  1.0 0.1411004868
H  H26  1  0.71090000  0.39050000  0.41620000  1.0 0.1411004868
H  H27  1  0.60950000  0.28910000  0.91620000  1.0 0.1411004868
H  H28  1  0.28910000  0.60950000  0.58380000  1.0 0.1411004868
H  H29  1  0.19420000  0.73440000  0.20610000  1.0 0.1284446549
H  H30  1  0.73440000  0.19420000  0.29390000  1.0 0.1284446549
H  H31  1  0.80580000  0.26560000  0.79390000  1.0 0.1284446549
H  H32  1  0.26560000  0.80580000  0.70610000  1.0 0.1284446549
H  H33  1  0.41420000  0.13240000  0.52440000  1.0 0.1215245823
H  H34  1  0.13240000  0.41420000  0.97560000  1.0 0.1215245823
H  H35  1  0.58580000  0.86760000  0.47560000  1.0 0.1215245823
H  H36  1  0.86760000  0.58580000  0.02440000  1.0 0.1215245823
H  H37  1  0.36380000  0.17120000  0.58240000  1.0 0.1284446549
H  H38  1  0.17120000  0.36380000  0.91760000  1.0 0.1284446549
H  H39  1  0.63620000  0.82880000  0.41760000  1.0 0.1284446549
H  H40  1  0.82880000  0.63620000  0.08240000  1.0 0.1284446549
H  H41  1  0.51220000  0.14160000  0.68980000  1.0 0.1284446549
H  H42  1  0.14160000  0.51220000  0.81020000  1.0 0.1284446549
H  H43  1  0.48780000  0.85840000  0.31020000  1.0 0.1284446549
H  H44  1  0.85840000  0.48780000  0.18980000  1.0 0.1284446549
H  H45  1  0.40350000  0.04510000  0.68000000  1.0 0.1215245823
H  H46  1  0.04510000  0.40350000  0.82000000  1.0 0.1215245823
H  H47  1  0.59650000  0.95490000  0.32000000  1.0 0.1215245823
H  H48  1  0.95490000  0.59650000  0.18000000  1.0 0.1215245823
C  C1  1  0.35780000  0.16820000  0.01940000  1.0 0.559473848
C  C2  1  0.16820000  0.35780000  0.48060000  1.0 0.559473848
C  C3  1  0.64220000  0.83180000  0.98060000  1.0 0.559473848
C  C4  1  0.83180000  0.64220000  0.51940000  1.0 0.559473848
C  C5  1  0.34000000  0.23900000  0.05760000  1.0 -0.0268674157
C  C6  1  0.23900000  0.34000000  0.44240000  1.0 -0.0268674157
C  C7  1  0.66000000  0.76100000  0.94240000  1.0 -0.0268674157
C  C8  1  0.76100000  0.66000000  0.55760000  1.0 -0.0268674157
C  C9  1  0.41400000  0.33940000  0.06290000  1.0 -0.0911660138
C  C10  1  0.33940000  0.41400000  0.43710000  1.0 -0.0911660138
C  C11  1  0.58600000  0.66060000  0.93710000  1.0 -0.0911660138
C  C12  1  0.66060000  0.58600000  0.56290000  1.0 -0.0911660138
C  C13  1  0.39450000  0.40530000  0.09290000  1.0 -0.1186093781
C  C14  1  0.40530000  0.39450000  0.40710000  1.0 -0.1186093781
C  C15  1  0.60550000  0.59470000  0.90710000  1.0 -0.1186093781
C  C16  1  0.59470000  0.60550000  0.59290000  1.0 -0.1186093781
C  C17  1  0.29760000  0.36740000  0.11900000  1.0 0.0683682356
C  C18  1  0.36740000  0.29760000  0.38100000  1.0 0.0683682356
C  C19  1  0.70240000  0.63260000  0.88100000  1.0 0.0683682356
C  C20  1  0.63260000  0.70240000  0.61900000  1.0 0.0683682356
C  C21  1  0.22520000  0.26740000  0.11830000  1.0 -0.1558771971
C  C22  1  0.26740000  0.22520000  0.38170000  1.0 -0.1558771971
C  C23  1  0.77480000  0.73260000  0.88170000  1.0 -0.1558771971
C  C24  1  0.73260000  0.77480000  0.61830000  1.0 -0.1558771971
C  C25  1  0.24470000  0.20150000  0.08970000  1.0 -0.0911660138
C  C26  1  0.20150000  0.24470000  0.41030000  1.0 -0.0911660138
C  C27  1  0.75530000  0.79850000  0.91030000  1.0 -0.0911660138
C  C28  1  0.79850000  0.75530000  0.58970000  1.0 -0.0911660138
C  C29  1  0.27310000  0.43550000  0.14690000  1.0 0.0683682356
C  C30  1  0.43550000  0.27310000  0.35310000  1.0 0.0683682356
C  C31  1  0.72690000  0.56450000  0.85310000  1.0 0.0683682356
C  C32  1  0.56450000  0.72690000  0.64690000  1.0 0.0683682356
C  C33  1  0.10432000  0.56232000  0.32770000  1.0 0.6356570181
C  C34  1  0.56232000  0.10432000  0.17230000  1.0 0.6356570181
C  C35  1  0.89568000  0.43768000  0.67230000  1.0 0.6356570181
C  C36  1  0.43768000  0.89568000  0.82770000  1.0 0.6356570181
C  C37  1  0.18430000  0.60450000  0.25470000  1.0 -0.0171005379
C  C38  1  0.60450000  0.18430000  0.24530000  1.0 -0.0171005379
C  C39  1  0.81570000  0.39550000  0.74530000  1.0 -0.0171005379
C  C40  1  0.39550000  0.81570000  0.75470000  1.0 -0.0171005379
C  C41  1  0.22340000  0.54900000  0.24090000  1.0 -0.1777952704
C  C42  1  0.54900000  0.22340000  0.25910000  1.0 -0.1777952704
C  C43  1  0.77660000  0.45100000  0.75910000  1.0 -0.1777952704
C  C44  1  0.45100000  0.77660000  0.74090000  1.0 -0.1777952704
C  C45  1  0.29700000  0.58660000  0.17320000  1.0 0.2003418114
C  C46  1  0.58660000  0.29700000  0.32680000  1.0 0.2003418114
C  C47  1  0.70300000  0.41340000  0.82680000  1.0 0.2003418114
C  C48  1  0.41340000  0.70300000  0.67320000  1.0 0.2003418114
C  C49  1  0.33710000  0.68290000  0.12430000  1.0 -0.1667307522
C  C50  1  0.68290000  0.33710000  0.37570000  1.0 -0.1667307522
C  C51  1  0.66290000  0.31710000  0.87570000  1.0 -0.1667307522
C  C52  1  0.31710000  0.66290000  0.62430000  1.0 -0.1667307522
C  C53  1  0.29710000  0.73710000  0.13630000  1.0 -0.0171005379
C  C54  1  0.73710000  0.29710000  0.36370000  1.0 -0.0171005379
C  C55  1  0.70290000  0.26290000  0.86370000  1.0 -0.0171005379
C  C56  1  0.26290000  0.70290000  0.63630000  1.0 -0.0171005379
C  C57  1  0.22120000  0.69780000  0.19980000  1.0 -0.1127654314
C  C58  1  0.69780000  0.22120000  0.30020000  1.0 -0.1127654314
C  C59  1  0.77880000  0.30220000  0.80020000  1.0 -0.1127654314
C  C60  1  0.30220000  0.77880000  0.69980000  1.0 -0.1127654314
C  C61  1  0.33740000  0.84020000  0.08000000  1.0 0.6176408288
C  C62  1  0.84020000  0.33740000  0.42000000  1.0 0.6176408288
C  C63  1  0.66260000  0.15980000  0.92000000  1.0 0.6176408288
C  C64  1  0.15980000  0.66260000  0.58000000  1.0 0.6176408288
C  C65  1  0.41950000  0.16350000  0.58400000  1.0 -0.2320045177
C  C66  1  0.16350000  0.41950000  0.91600000  1.0 -0.2320045177
C  C67  1  0.58050000  0.83650000  0.41600000  1.0 -0.2320045177
C  C68  1  0.83650000  0.58050000  0.08400000  1.0 -0.2320045177
C  C69  1  0.44110000  0.11690000  0.68600000  1.0 0.0201861289
C  C70  1  0.11690000  0.44110000  0.81400000  1.0 0.0201861289
C  C71  1  0.55890000  0.88310000  0.31400000  1.0 0.0201861289
C  C72  1  0.88310000  0.55890000  0.18600000  1.0 0.0201861289
S  S1  1  0.54240000  0.27500000  0.61270000  1.0 -0.2627551425
S  S2  1  0.27500000  0.54240000  0.88730000  1.0 -0.2627551425
S  S3  1  0.45760000  0.72500000  0.38730000  1.0 -0.2627551425
S  S4  1  0.72500000  0.45760000  0.11270000  1.0 -0.2627551425
N  N1  1  0.33430000  0.52930000  0.15270000  1.0 -0.2377101946
N  N2  1  0.52930000  0.33430000  0.34730000  1.0 -0.2377101946
N  N3  1  0.66570000  0.47070000  0.84730000  1.0 -0.2377101946
N  N4  1  0.47070000  0.66570000  0.65270000  1.0 -0.2377101946
O  O1  1  0.43665000  0.20475000  0.97530000  1.0 -0.5989849512
O  O2  1  0.20475000  0.43665000  0.52470000  1.0 -0.5989849512
O  O3  1  0.56335000  0.79525000  0.02470000  1.0 -0.5989849512
O  O4  1  0.79525000  0.56335000  0.47530000  1.0 -0.5989849512
O  O5  1  0.29405000  0.07615000  0.03290000  1.0 -0.5931932572
O  O6  1  0.07615000  0.29405000  0.46710000  1.0 -0.5931932572
O  O7  1  0.70595000  0.92385000  0.96710000  1.0 -0.5931932572
O  O8  1  0.92385000  0.70595000  0.53290000  1.0 -0.5931932572
O  O9  1  0.07419000  0.47661000  0.37220000  1.0 -0.6279759053
O  O10  1  0.47661000  0.07419000  0.12780000  1.0 -0.6279759053
O  O11  1  0.92581000  0.52339000  0.62780000  1.0 -0.6279759053
O  O12  1  0.52339000  0.92581000  0.87220000  1.0 -0.6279759053
O  O13  1  0.07195000  0.61625000  0.33650000  1.0 -0.6821438316
O  O14  1  0.61625000  0.07195000  0.16350000  1.0 -0.6821438316
O  O15  1  0.92805000  0.38375000  0.66350000  1.0 -0.6821438316
O  O16  1  0.38375000  0.92805000  0.83650000  1.0 -0.6821438316
O  O17  1  0.28543000  0.87617000  0.06620000  1.0 -0.5749520305
O  O18  1  0.87617000  0.28543000  0.43380000  1.0 -0.5749520305
O  O19  1  0.71457000  0.12383000  0.93380000  1.0 -0.5758825186
O  O20  1  0.12383000  0.71457000  0.56620000  1.0 -0.5749520305
O  O21  1  0.42583000  0.89037000  0.04960000  1.0 -0.7399506215
O  O22  1  0.89037000  0.42583000  0.45040000  1.0 -0.7399506215
O  O23  1  0.57417000  0.10963000  0.95040000  1.0 -0.7399506215
O  O24  1  0.10963000  0.57417000  0.54960000  1.0 -0.7399506215
O  O25  1  0.42550000  0.12710000  0.78090000  1.0 0.0265648347
O  O26  1  0.12710000  0.42550000  0.71910000  1.0 0.0201861289
O  O27  1  0.57450000  0.87290000  0.21910000  1.0 0.0201861289
O  O28  1  0.87290000  0.57450000  0.28090000  1.0 0.0201861289
O  O29  1  0.41660000  0.14540000  0.79700000  1.0 -0.1127654314
O  O30  1  0.14540000  0.41660000  0.70300000  1.0 -0.1127654314
O  O31  1  0.58340000  0.85460000  0.20300000  1.0 -0.1127654314
O  O32  1  0.85460000  0.58340000  0.29700000  1.0 -0.1127654314
