# DDEC6 charges by PACMAN v1.1 (https://github.com/mtap-research/PACMAN-charge/)
data_GEDROY_FSR_pacman
_symmetry_space_group_name_H-M   'P 1'
_cell_length_a   15.98600000
_cell_length_b   15.98600000
_cell_length_c   12.30020000
_cell_angle_alpha   75.10960000
_cell_angle_beta   104.89000000
_cell_angle_gamma   125.96700000
_symmetry_Int_Tables_number   1
_chemical_formula_structural   NdH11C17NO8
_chemical_formula_sum   'Nd4 H44 C68 N4 O32'
_cell_volume   2435.95025992
_cell_formula_units_Z   4
loop_
 _symmetry_equiv_pos_site_id
 _symmetry_equiv_pos_as_xyz
  1  'x, y, z'
loop_
 _atom_site_type_symbol
 _atom_site_label
 _atom_site_symmetry_multiplicity
 _atom_site_fract_x
 _atom_site_fract_y
 _atom_site_fract_z
 _atom_site_occupancy
 _atom_site_charge
Nd  Nd1  1  0.46036000  0.10444000  0.92960000  1.0 2.0735227406
Nd  Nd2  1  0.10444000  0.46036000  0.57040000  1.0 2.0735227406
Nd  Nd3  1  0.53964000  0.89556000  0.07040000  1.0 2.0759166221
Nd  Nd4  1  0.89556000  0.53964000  0.42960000  1.0 2.0735227406
H  H1  1  0.14590000  0.03630000  0.03770000  1.0 0.1309956532
H  H2  1  0.03630000  0.14590000  0.46230000  1.0 0.1309956532
H  H3  1  0.85410000  0.96370000  0.96230000  1.0 0.1309956532
H  H4  1  0.96370000  0.85410000  0.53770000  1.0 0.1309956532
H  H5  1  0.04200000  0.07040000  0.09640000  1.0 0.1362646709
H  H6  1  0.07040000  0.04200000  0.40360000  1.0 0.1362646709
H  H7  1  0.95800000  0.92960000  0.90360000  1.0 0.1362646709
H  H8  1  0.92960000  0.95800000  0.59640000  1.0 0.1362646709
H  H9  1  0.28930000  0.36670000  0.12050000  1.0 0.1309956532
H  H10  1  0.36670000  0.28930000  0.37950000  1.0 0.1309956532
H  H11  1  0.71070000  0.63330000  0.87950000  1.0 0.1309956532
H  H12  1  0.63330000  0.71070000  0.62050000  1.0 0.1309956532
H  H13  1  0.39020000  0.32940000  0.06280000  1.0 0.1309956532
H  H14  1  0.32940000  0.39020000  0.43720000  1.0 0.1309956532
H  H15  1  0.60980000  0.67060000  0.93720000  1.0 0.1309956532
H  H16  1  0.67060000  0.60980000  0.56280000  1.0 0.1309956532
H  H17  1  0.80570000  0.12310000  0.07110000  1.0 0.1597965251
H  H18  1  0.12310000  0.80570000  0.42890000  1.0 0.1597965251
H  H19  1  0.19430000  0.87690000  0.92890000  1.0 0.1597965251
H  H20  1  0.87690000  0.19430000  0.57110000  1.0 0.1597965251
H  H21  1  0.04740000  0.33200000  0.26830000  1.0 0.1362646709
H  H22  1  0.33200000  0.04740000  0.23170000  1.0 0.1362646709
H  H23  1  0.95260000  0.66800000  0.73170000  1.0 0.1362646709
H  H24  1  0.66800000  0.95260000  0.76830000  1.0 0.1362646709
H  H25  1  0.78750000  0.33130000  0.17200000  1.0 0.1460676233
H  H26  1  0.33130000  0.78750000  0.32800000  1.0 0.1460676233
H  H27  1  0.21250000  0.66870000  0.82800000  1.0 0.1460676233
H  H28  1  0.66870000  0.21250000  0.67200000  1.0 0.1460676233
H  H29  1  0.24930000  0.01390000  0.61320000  1.0 0.1080775363
H  H30  1  0.01390000  0.24930000  0.88680000  1.0 0.1080775363
H  H31  1  0.75070000  0.98610000  0.38680000  1.0 0.1080775363
H  H32  1  0.98610000  0.75070000  0.11320000  1.0 0.1080775363
H  H33  1  0.37090000  0.08090000  0.61750000  1.0 0.1080775363
H  H34  1  0.08090000  0.37090000  0.88250000  1.0 0.1080775363
H  H35  1  0.62910000  0.91910000  0.38250000  1.0 0.1080775363
H  H36  1  0.91910000  0.62910000  0.11750000  1.0 0.1080775363
H  H37  1  0.31220000  0.96360000  0.67190000  1.0 0.1165780018
H  H38  1  0.96360000  0.31220000  0.82810000  1.0 0.1165780018
H  H39  1  0.68780000  0.03640000  0.32810000  1.0 0.1165780018
H  H40  1  0.03640000  0.68780000  0.17190000  1.0 0.1165780018
H  H41  1  0.12000000  0.32400000  0.11200000  1.0 0.1080775363
H  H42  1  0.32400000  0.12000000  0.38800000  1.0 0.1080775363
H  H43  1  0.88000000  0.67600000  0.88800000  1.0 0.1080775363
H  H44  1  0.67600000  0.88000000  0.61200000  1.0 0.1080775363
C  C1  1  0.33960000  0.15520000  0.00160000  1.0 0.5582103471
C  C2  1  0.15520000  0.33960000  0.49840000  1.0 0.5582103471
C  C3  1  0.66040000  0.84480000  0.99840000  1.0 0.5582103471
C  C4  1  0.84480000  0.66040000  0.50160000  1.0 0.5582103471
C  C5  1  0.27880000  0.18040000  0.04540000  1.0 -0.0251831
C  C6  1  0.18040000  0.27880000  0.45460000  1.0 -0.0251831
C  C7  1  0.72120000  0.81960000  0.95460000  1.0 -0.0251831
C  C8  1  0.81960000  0.72120000  0.54540000  1.0 -0.0251831
C  C9  1  0.17420000  0.10240000  0.05430000  1.0 -0.0754310864
C  C10  1  0.10240000  0.17420000  0.44570000  1.0 -0.0754310864
C  C11  1  0.82580000  0.89760000  0.94570000  1.0 -0.0754310864
C  C12  1  0.89760000  0.82580000  0.55430000  1.0 -0.0754310864
C  C13  1  0.11140000  0.12300000  0.08820000  1.0 -0.1343759854
C  C14  1  0.12300000  0.11140000  0.41180000  1.0 -0.1343759854
C  C15  1  0.88860000  0.87700000  0.91180000  1.0 -0.1343759854
C  C16  1  0.87700000  0.88860000  0.58820000  1.0 -0.1343759854
C  C17  1  0.15410000  0.22250000  0.10910000  1.0 0.0781211763
C  C18  1  0.22250000  0.15410000  0.39090000  1.0 0.0781211763
C  C19  1  0.84590000  0.77750000  0.89090000  1.0 0.0781211763
C  C20  1  0.77750000  0.84590000  0.60910000  1.0 0.0781211763
C  C21  1  0.26010000  0.30070000  0.10270000  1.0 -0.146757097
C  C22  1  0.30070000  0.26010000  0.39730000  1.0 -0.1398637367
C  C23  1  0.73990000  0.69930000  0.89730000  1.0 -0.1398637367
C  C24  1  0.69930000  0.73990000  0.60270000  1.0 -0.146757097
C  C25  1  0.32030000  0.27770000  0.06910000  1.0 -0.0747625937
C  C26  1  0.27770000  0.32030000  0.43090000  1.0 -0.0754310864
C  C27  1  0.67970000  0.72230000  0.93090000  1.0 -0.0754310864
C  C28  1  0.72230000  0.67970000  0.56910000  1.0 -0.0754310864
C  C29  1  0.09080000  0.25280000  0.13570000  1.0 0.0781211763
C  C30  1  0.25280000  0.09080000  0.36430000  1.0 0.0781211763
C  C31  1  0.90920000  0.74720000  0.86430000  1.0 0.0781211763
C  C32  1  0.74720000  0.90920000  0.63570000  1.0 0.0781211763
C  C33  1  0.67160000  0.17540000  0.05040000  1.0 0.6178986172
C  C34  1  0.17540000  0.67160000  0.44960000  1.0 0.6178986172
C  C35  1  0.32840000  0.82460000  0.94960000  1.0 0.6178986172
C  C36  1  0.82460000  0.32840000  0.55040000  1.0 0.6178986172
C  C37  1  0.77940000  0.22020000  0.11230000  1.0 -0.0081844343
C  C38  1  0.22020000  0.77940000  0.38770000  1.0 -0.0081844343
C  C39  1  0.22060000  0.77980000  0.88770000  1.0 -0.0081844343
C  C40  1  0.77980000  0.22060000  0.61230000  1.0 -0.0081844343
C  C41  1  0.83600000  0.18000000  0.10910000  1.0 -0.1398637367
C  C42  1  0.18000000  0.83600000  0.39090000  1.0 -0.1343759854
C  C43  1  0.16400000  0.82000000  0.89090000  1.0 -0.1343759854
C  C44  1  0.82000000  0.16400000  0.60910000  1.0 -0.1398637367
C  C45  1  0.93820000  0.22580000  0.16320000  1.0 0.1988953169
C  C46  1  0.22580000  0.93820000  0.33680000  1.0 0.1988953169
C  C47  1  0.06180000  0.77420000  0.83680000  1.0 0.1988953169
C  C48  1  0.77420000  0.06180000  0.66320000  1.0 0.1988953169
C  C49  1  0.98070000  0.30490000  0.22820000  1.0 -0.1672750224
C  C50  1  0.30490000  0.98070000  0.27180000  1.0 -0.1672750224
C  C51  1  0.01930000  0.69510000  0.77180000  1.0 -0.1672750224
C  C52  1  0.69510000  0.01930000  0.72820000  1.0 -0.1672750224
C  C53  1  0.92310000  0.34370000  0.23310000  1.0 -0.0024338692
C  C54  1  0.34370000  0.92310000  0.26690000  1.0 -0.0024338692
C  C55  1  0.07690000  0.65630000  0.76690000  1.0 -0.0024338692
C  C56  1  0.65630000  0.07690000  0.73310000  1.0 -0.0024338692
C  C57  1  0.82430000  0.30290000  0.17250000  1.0 -0.0906144844
C  C58  1  0.30290000  0.82430000  0.32750000  1.0 -0.0906144844
C  C59  1  0.17570000  0.69710000  0.82750000  1.0 -0.0906144844
C  C60  1  0.69710000  0.17570000  0.67250000  1.0 -0.0906144844
C  C61  1  0.96730000  0.42790000  0.30560000  1.0 0.6371380429
C  C62  1  0.42790000  0.96730000  0.19440000  1.0 0.6371380429
C  C63  1  0.03270000  0.57210000  0.69440000  1.0 0.6371380429
C  C64  1  0.57210000  0.03270000  0.80560000  1.0 0.6371380429
C  C65  1  0.31360000  0.02640000  0.65780000  1.0 -0.146757097
C  C66  1  0.02640000  0.31360000  0.84220000  1.0 -0.146757097
C  C67  1  0.68640000  0.97360000  0.34220000  1.0 -0.146757097
C  C68  1  0.97360000  0.68640000  0.15780000  1.0 -0.146757097
N  N1  1  0.99470000  0.18670000  0.14900000  1.0 -0.2388480526
N  N2  1  0.18670000  0.99470000  0.35100000  1.0 -0.2388480526
N  N3  1  0.00530000  0.81330000  0.85100000  1.0 -0.2388480526
N  N4  1  0.81330000  0.00530000  0.64900000  1.0 -0.2388480526
O  O1  1  0.43730000  0.22630000  0.99660000  1.0 -0.5695864965
O  O2  1  0.22630000  0.43730000  0.50340000  1.0 -0.5695864965
O  O3  1  0.56270000  0.77370000  0.00340000  1.0 -0.5695864965
O  O4  1  0.77370000  0.56270000  0.49660000  1.0 -0.5695864965
O  O5  1  0.29560000  0.06960000  0.96620000  1.0 -0.5874069442
O  O6  1  0.06960000  0.29560000  0.53380000  1.0 -0.5874069442
O  O7  1  0.70440000  0.93040000  0.03380000  1.0 -0.5874069442
O  O8  1  0.93040000  0.70440000  0.46620000  1.0 -0.5874069442
O  O9  1  0.63690000  0.23290000  0.01760000  1.0 -0.5555201133
O  O10  1  0.23290000  0.63690000  0.48240000  1.0 -0.5555201133
O  O11  1  0.36310000  0.76710000  0.98240000  1.0 -0.5555201133
O  O12  1  0.76710000  0.36310000  0.51760000  1.0 -0.5555201133
O  O13  1  0.61780000  0.08180000  0.03010000  1.0 -0.7135824521
O  O14  1  0.08180000  0.61780000  0.46990000  1.0 -0.7135824521
O  O15  1  0.38220000  0.91820000  0.96990000  1.0 -0.7135824521
O  O16  1  0.91820000  0.38220000  0.53010000  1.0 -0.7135824521
O  O17  1  0.91490000  0.46610000  0.29770000  1.0 -0.6048017998
O  O18  1  0.46610000  0.91490000  0.20230000  1.0 -0.6068490008
O  O19  1  0.08510000  0.53390000  0.70230000  1.0 -0.6068490008
O  O20  1  0.53390000  0.08510000  0.79770000  1.0 -0.6068490008
O  O21  1  0.05300000  0.45520000  0.36710000  1.0 -0.6208482643
O  O22  1  0.45520000  0.05300000  0.13290000  1.0 -0.6208482643
O  O23  1  0.94700000  0.54480000  0.63290000  1.0 -0.6208482643
O  O24  1  0.54480000  0.94700000  0.86710000  1.0 -0.6208482643
O  O25  1  0.32500000  0.05520000  0.75940000  1.0 -0.4097941329
O  O26  1  0.05520000  0.32500000  0.74060000  1.0 -0.4097941329
O  O27  1  0.67500000  0.94480000  0.24060000  1.0 -0.4097941329
O  O28  1  0.94480000  0.67500000  0.25940000  1.0 -0.4097941329
O  O29  1  0.52520000  0.26780000  0.79340000  1.0 -0.3494358321
O  O30  1  0.26780000  0.52520000  0.70660000  1.0 -0.3494358321
O  O31  1  0.47480000  0.73220000  0.20660000  1.0 -0.3389883895
O  O32  1  0.73220000  0.47480000  0.29340000  1.0 -0.3494358321
