# DDEC6 charges by PACMAN v1.1 (https://github.com/mtap-research/PACMAN-charge/)
data_GEDRAK_ASR_pacman
_symmetry_space_group_name_H-M   'P 1'
_cell_length_a   16.13420000
_cell_length_b   16.13420000
_cell_length_c   12.62840000
_cell_angle_alpha   78.15950000
_cell_angle_beta   101.84000000
_cell_angle_gamma   125.29400000
_symmetry_Int_Tables_number   1
_chemical_formula_structural   NdH8C16NO6
_chemical_formula_sum   'Nd4 H32 C64 N4 O24'
_cell_volume   2610.53575040
_cell_formula_units_Z   4
loop_
 _symmetry_equiv_pos_site_id
 _symmetry_equiv_pos_as_xyz
  1  'x, y, z'
loop_
 _atom_site_type_symbol
 _atom_site_label
 _atom_site_symmetry_multiplicity
 _atom_site_fract_x
 _atom_site_fract_y
 _atom_site_fract_z
 _atom_site_occupancy
 _atom_site_charge
Nd  Nd1  1  0.39493000  0.03513000  0.44282000  1.0 2.0899565089
Nd  Nd2  1  0.03513000  0.39493000  0.05718000  1.0 2.0899565089
Nd  Nd3  1  0.60507000  0.96487000  0.55718000  1.0 2.0899565089
Nd  Nd4  1  0.96487000  0.60507000  0.94282000  1.0 2.0899565089
H  H1  1  0.18600000  0.12360000  0.57730000  1.0 0.1202667806
H  H2  1  0.12360000  0.18600000  0.92270000  1.0 0.1202667806
H  H3  1  0.81400000  0.87640000  0.42270000  1.0 0.1202667806
H  H4  1  0.87640000  0.81400000  0.07730000  1.0 0.1202667806
H  H5  1  0.15060000  0.23000000  0.62490000  1.0 0.1202667806
H  H6  1  0.23000000  0.15060000  0.87510000  1.0 0.1202667806
H  H7  1  0.84940000  0.77000000  0.37510000  1.0 0.1202667806
H  H8  1  0.77000000  0.84940000  0.12490000  1.0 0.1202667806
H  H9  1  0.44170000  0.46630000  0.59850000  1.0 0.1202667806
H  H10  1  0.46630000  0.44170000  0.90150000  1.0 0.1202667806
H  H11  1  0.55830000  0.53370000  0.40150000  1.0 0.1202667806
H  H12  1  0.53370000  0.55830000  0.09850000  1.0 0.1202667806
H  H13  1  0.47480000  0.35920000  0.54520000  1.0 0.1202667806
H  H14  1  0.35920000  0.47480000  0.95480000  1.0 0.1202667806
H  H15  1  0.52520000  0.64080000  0.45480000  1.0 0.1202667806
H  H16  1  0.64080000  0.52520000  0.04520000  1.0 0.1202667806
H  H17  1  0.38400000  0.70080000  0.57510000  1.0 0.1398754287
H  H18  1  0.70080000  0.38400000  0.92490000  1.0 0.1398754287
H  H19  1  0.61600000  0.29920000  0.42490000  1.0 0.1398754287
H  H20  1  0.29920000  0.61600000  0.07510000  1.0 0.1398754287
H  H21  1  0.18270000  0.46850000  0.77010000  1.0 0.1202667806
H  H22  1  0.46850000  0.18270000  0.72990000  1.0 0.1202667806
H  H23  1  0.81730000  0.53150000  0.22990000  1.0 0.1202667806
H  H24  1  0.53150000  0.81730000  0.27010000  1.0 0.1202667806
H  H25  1  0.18120000  0.72100000  0.68860000  1.0 0.1331854779
H  H26  1  0.72100000  0.18120000  0.81140000  1.0 0.1331854779
H  H27  1  0.81880000  0.27900000  0.31140000  1.0 0.1331854779
H  H28  1  0.27900000  0.81880000  0.18860000  1.0 0.1331854779
H  H29  1  0.19700000  0.39500000  0.63900000  1.0 0.0946880225
H  H30  1  0.39500000  0.19700000  0.86100000  1.0 0.0946880225
H  H31  1  0.80300000  0.60500000  0.36100000  1.0 0.0946880225
H  H32  1  0.60500000  0.80300000  0.13900000  1.0 0.0946880225
C  C1  1  0.35390000  0.16510000  0.51060000  1.0 0.562690245
C  C2  1  0.16510000  0.35390000  0.98940000  1.0 0.562690245
C  C3  1  0.64610000  0.83490000  0.48940000  1.0 0.562690245
C  C4  1  0.83490000  0.64610000  0.01060000  1.0 0.562690245
C  C5  1  0.33300000  0.23200000  0.55250000  1.0 -0.025784215
C  C6  1  0.23200000  0.33300000  0.94750000  1.0 -0.025784215
C  C7  1  0.66700000  0.76800000  0.44750000  1.0 -0.025784215
C  C8  1  0.76800000  0.66700000  0.05250000  1.0 -0.025784215
C  C9  1  0.23670000  0.19290000  0.57920000  1.0 -0.0939443465
C  C10  1  0.19290000  0.23670000  0.92080000  1.0 -0.0939443465
C  C11  1  0.76330000  0.80710000  0.42080000  1.0 -0.0939443465
C  C12  1  0.80710000  0.76330000  0.07920000  1.0 -0.0939443465
C  C13  1  0.21580000  0.25640000  0.60890000  1.0 -0.1611849349
C  C14  1  0.25640000  0.21580000  0.89110000  1.0 -0.1611849349
C  C15  1  0.78420000  0.74360000  0.39110000  1.0 -0.1611849349
C  C16  1  0.74360000  0.78420000  0.10890000  1.0 -0.1611849349
C  C17  1  0.29150000  0.35930000  0.61480000  1.0 0.0665352699
C  C18  1  0.35930000  0.29150000  0.88520000  1.0 0.0665352699
C  C19  1  0.70850000  0.64070000  0.38520000  1.0 0.0665352699
C  C20  1  0.64070000  0.70850000  0.11480000  1.0 0.0665352699
C  C21  1  0.38970000  0.39790000  0.59240000  1.0 -0.1365904641
C  C22  1  0.39790000  0.38970000  0.90760000  1.0 -0.1365904641
C  C23  1  0.61030000  0.60210000  0.40760000  1.0 -0.1365904641
C  C24  1  0.60210000  0.61030000  0.09240000  1.0 -0.1365904641
C  C25  1  0.40960000  0.33360000  0.56070000  1.0 -0.0988082718
C  C26  1  0.33360000  0.40960000  0.93930000  1.0 -0.0988082718
C  C27  1  0.59040000  0.66640000  0.43930000  1.0 -0.0988082718
C  C28  1  0.66640000  0.59040000  0.06070000  1.0 -0.0988082718
C  C29  1  0.26450000  0.42510000  0.64110000  1.0 0.0609838236
C  C30  1  0.42510000  0.26450000  0.85890000  1.0 0.0609838236
C  C31  1  0.73550000  0.57490000  0.35890000  1.0 0.0609838236
C  C32  1  0.57490000  0.73550000  0.14110000  1.0 0.0609838236
C  C33  1  0.33240000  0.83400000  0.56440000  1.0 0.6216301191
C  C34  1  0.83400000  0.33240000  0.93560000  1.0 0.6216301191
C  C35  1  0.66760000  0.16600000  0.43560000  1.0 0.6216301191
C  C36  1  0.16600000  0.66760000  0.06440000  1.0 0.6216301191
C  C37  1  0.28970000  0.72790000  0.62450000  1.0 -0.0073689852
C  C38  1  0.72790000  0.28970000  0.87550000  1.0 -0.0073689852
C  C39  1  0.71030000  0.27210000  0.37550000  1.0 -0.0073689852
C  C40  1  0.27210000  0.71030000  0.12450000  1.0 -0.0073689852
C  C41  1  0.32980000  0.67220000  0.61600000  1.0 -0.1731472462
C  C42  1  0.67220000  0.32980000  0.88400000  1.0 -0.1731472462
C  C43  1  0.67020000  0.32780000  0.38400000  1.0 -0.1731472462
C  C44  1  0.32780000  0.67020000  0.11600000  1.0 -0.1731472462
C  C45  1  0.28740000  0.57360000  0.66940000  1.0 0.1995421033
C  C46  1  0.57360000  0.28740000  0.83060000  1.0 0.1995421033
C  C47  1  0.71260000  0.42640000  0.33060000  1.0 0.1995421033
C  C48  1  0.42640000  0.71260000  0.16940000  1.0 0.1995421033
C  C49  1  0.20950000  0.53350000  0.73300000  1.0 -0.1731472462
C  C50  1  0.53350000  0.20950000  0.76700000  1.0 -0.1731472462
C  C51  1  0.79050000  0.46650000  0.26700000  1.0 -0.1731472462
C  C52  1  0.46650000  0.79050000  0.23300000  1.0 -0.1731472462
C  C53  1  0.17020000  0.58860000  0.74260000  1.0 -0.0192894284
C  C54  1  0.58860000  0.17020000  0.75740000  1.0 -0.0192894284
C  C55  1  0.82980000  0.41140000  0.25740000  1.0 -0.0192894284
C  C56  1  0.41140000  0.82980000  0.24260000  1.0 -0.0192894284
C  C57  1  0.20940000  0.68500000  0.68560000  1.0 -0.1113842502
C  C58  1  0.68500000  0.20940000  0.81440000  1.0 -0.1113842502
C  C59  1  0.79060000  0.31500000  0.31440000  1.0 -0.1113842502
C  C60  1  0.31500000  0.79060000  0.18560000  1.0 -0.1113842502
C  C61  1  0.08590000  0.54430000  0.81160000  1.0 0.6492105592
C  C62  1  0.54430000  0.08590000  0.68840000  1.0 0.6492105592
C  C63  1  0.91410000  0.45570000  0.18840000  1.0 0.6492105592
C  C64  1  0.45570000  0.91410000  0.31160000  1.0 0.6492105592
N  N1  1  0.32766000  0.51934000  0.65230000  1.0 -0.267077608
N  N2  1  0.51934000  0.32766000  0.84770000  1.0 -0.267077608
N  N3  1  0.67234000  0.48066000  0.34770000  1.0 -0.267077608
N  N4  1  0.48066000  0.67234000  0.15230000  1.0 -0.267077608
O  O1  1  0.43612000  0.20488000  0.47220000  1.0 -0.6314737331
O  O2  1  0.20488000  0.43612000  0.02780000  1.0 -0.6314737331
O  O3  1  0.56388000  0.79512000  0.52780000  1.0 -0.6314737331
O  O4  1  0.79512000  0.56388000  0.97220000  1.0 -0.6314737331
O  O5  1  0.28530000  0.07070000  0.51500000  1.0 -0.6314737331
O  O6  1  0.07070000  0.28530000  0.98500000  1.0 -0.6314737331
O  O7  1  0.71470000  0.92930000  0.48500000  1.0 -0.6314737331
O  O8  1  0.92930000  0.71470000  0.01500000  1.0 -0.6314737331
O  O9  1  0.27684000  0.86776000  0.54140000  1.0 -0.6049004328
O  O10  1  0.86776000  0.27684000  0.95860000  1.0 -0.6049004328
O  O11  1  0.72316000  0.13224000  0.45860000  1.0 -0.6049004328
O  O12  1  0.13224000  0.72316000  0.04140000  1.0 -0.6049004328
O  O13  1  0.42251000  0.88509000  0.53870000  1.0 -0.7517626416
O  O14  1  0.88509000  0.42251000  0.96130000  1.0 -0.7517626416
O  O15  1  0.57749000  0.11491000  0.46130000  1.0 -0.7517626416
O  O16  1  0.11491000  0.57749000  0.03870000  1.0 -0.7517626416
O  O17  1  0.04939000  0.59641000  0.81250000  1.0 -0.6969832312
O  O18  1  0.59641000  0.04939000  0.68750000  1.0 -0.6969832312
O  O19  1  0.95061000  0.40359000  0.18750000  1.0 -0.6969832312
O  O20  1  0.40359000  0.95061000  0.31250000  1.0 -0.6969832312
O  O21  1  0.05689000  0.45951000  0.86610000  1.0 -0.6353106927
O  O22  1  0.45951000  0.05689000  0.63390000  1.0 -0.6353106927
O  O23  1  0.94311000  0.54049000  0.13390000  1.0 -0.6353106927
O  O24  1  0.54049000  0.94311000  0.36610000  1.0 -0.6353106927
