# DDEC6 charges by PACMAN v1.1 (https://github.com/mtap-research/PACMAN-charge/)
data_GEDRUE_ASR_pacman
_symmetry_space_group_name_H-M   'P 1'
_cell_length_a   16.10880000
_cell_length_b   16.10880000
_cell_length_c   13.24740000
_cell_angle_alpha   80.50520000
_cell_angle_beta   99.49480000
_cell_angle_gamma   126.99400000
_symmetry_Int_Tables_number   1
_chemical_formula_structural   NdH8C16NO6
_chemical_formula_sum   'Nd4 H32 C64 N4 O24'
_cell_volume   2698.56946257
_cell_formula_units_Z   4
loop_
 _symmetry_equiv_pos_site_id
 _symmetry_equiv_pos_as_xyz
  1  'x, y, z'
loop_
 _atom_site_type_symbol
 _atom_site_label
 _atom_site_symmetry_multiplicity
 _atom_site_fract_x
 _atom_site_fract_y
 _atom_site_fract_z
 _atom_site_occupancy
 _atom_site_charge
Nd  Nd1  1  0.89417000  0.53129000  0.45332000  1.0 2.0817506836
Nd  Nd2  1  0.53129000  0.89417000  0.04668000  1.0 2.0817506836
Nd  Nd3  1  0.10583000  0.46871000  0.54668000  1.0 2.0817506836
Nd  Nd4  1  0.46871000  0.10583000  0.95332000  1.0 2.0817506836
H  H1  1  0.68270000  0.61670000  0.58590000  1.0 0.1261018828
H  H2  1  0.61670000  0.68270000  0.91410000  1.0 0.1261018828
H  H3  1  0.31730000  0.38330000  0.41410000  1.0 0.1261018828
H  H4  1  0.38330000  0.31730000  0.08590000  1.0 0.1261018828
H  H5  1  0.64640000  0.72180000  0.63380000  1.0 0.1223637378
H  H6  1  0.72180000  0.64640000  0.86620000  1.0 0.1223637378
H  H7  1  0.35360000  0.27820000  0.36620000  1.0 0.1223637378
H  H8  1  0.27820000  0.35360000  0.13380000  1.0 0.1223637378
H  H9  1  0.94380000  0.96840000  0.60640000  1.0 0.1223637378
H  H10  1  0.96840000  0.94380000  0.89360000  1.0 0.1223637378
H  H11  1  0.05620000  0.03160000  0.39360000  1.0 0.1223637378
H  H12  1  0.03160000  0.05620000  0.10640000  1.0 0.1223637378
H  H13  1  0.97840000  0.86480000  0.55190000  1.0 0.1261018828
H  H14  1  0.86480000  0.97840000  0.94810000  1.0 0.1223637378
H  H15  1  0.02160000  0.13520000  0.44810000  1.0 0.1223637378
H  H16  1  0.13520000  0.02160000  0.05190000  1.0 0.1223637378
H  H17  1  0.69400000  0.88200000  0.65900000  1.0 0.0952780546
H  H18  1  0.88200000  0.69400000  0.84100000  1.0 0.0948952065
H  H19  1  0.30600000  0.11800000  0.34100000  1.0 0.0948952065
H  H20  1  0.11800000  0.30600000  0.15900000  1.0 0.0948952065
H  H21  1  0.88160000  0.20000000  0.57500000  1.0 0.137186749
H  H22  1  0.20000000  0.88160000  0.92500000  1.0 0.137186749
H  H23  1  0.11840000  0.80000000  0.42500000  1.0 0.137186749
H  H24  1  0.80000000  0.11840000  0.07500000  1.0 0.137186749
H  H25  1  0.68560000  0.97200000  0.77480000  1.0 0.1223637378
H  H26  1  0.97200000  0.68560000  0.72520000  1.0 0.1223637378
H  H27  1  0.31440000  0.02800000  0.22520000  1.0 0.1223637378
H  H28  1  0.02800000  0.31440000  0.27480000  1.0 0.1223637378
H  H29  1  0.68120000  0.21920000  0.69520000  1.0 0.137186749
H  H30  1  0.21920000  0.68120000  0.80480000  1.0 0.137186749
H  H31  1  0.31880000  0.78080000  0.30480000  1.0 0.137186749
H  H32  1  0.78080000  0.31880000  0.19520000  1.0 0.137186749
C  C1  1  0.85500000  0.66320000  0.52070000  1.0 0.5561158583
C  C2  1  0.66320000  0.85500000  0.97930000  1.0 0.5561158583
C  C3  1  0.14500000  0.33680000  0.47930000  1.0 0.5561158583
C  C4  1  0.33680000  0.14500000  0.02070000  1.0 0.5561158583
C  C5  1  0.83400000  0.72980000  0.56110000  1.0 -0.0275363511
C  C6  1  0.72980000  0.83400000  0.93890000  1.0 -0.0275363511
C  C7  1  0.16600000  0.27020000  0.43890000  1.0 -0.0275363511
C  C8  1  0.27020000  0.16600000  0.06110000  1.0 -0.0275363511
C  C9  1  0.73490000  0.68790000  0.58800000  1.0 -0.098440254
C  C10  1  0.68790000  0.73490000  0.91200000  1.0 -0.098440254
C  C11  1  0.26510000  0.31210000  0.41200000  1.0 -0.098440254
C  C12  1  0.31210000  0.26510000  0.08800000  1.0 -0.098440254
C  C13  1  0.71340000  0.75060000  0.61760000  1.0 -0.1595194711
C  C14  1  0.75060000  0.71340000  0.88240000  1.0 -0.1595194711
C  C15  1  0.28660000  0.24940000  0.38240000  1.0 -0.1595194711
C  C16  1  0.24940000  0.28660000  0.11760000  1.0 -0.1595194711
C  C17  1  0.79030000  0.85610000  0.62360000  1.0 0.0601029508
C  C18  1  0.85610000  0.79030000  0.87640000  1.0 0.0601029508
C  C19  1  0.20970000  0.14390000  0.37640000  1.0 0.0601029508
C  C20  1  0.14390000  0.20970000  0.12360000  1.0 0.0601029508
C  C21  1  0.89070000  0.89790000  0.60030000  1.0 -0.1360956206
C  C22  1  0.89790000  0.89070000  0.89970000  1.0 -0.1360956206
C  C23  1  0.10930000  0.10210000  0.39970000  1.0 -0.1360956206
C  C24  1  0.10210000  0.10930000  0.10030000  1.0 -0.1360956206
C  C25  1  0.91160000  0.83580000  0.56860000  1.0 -0.098440254
C  C26  1  0.83580000  0.91160000  0.93140000  1.0 -0.098440254
C  C27  1  0.08840000  0.16420000  0.43140000  1.0 -0.098440254
C  C28  1  0.16420000  0.08840000  0.06860000  1.0 -0.098440254
C  C29  1  0.76270000  0.92090000  0.64890000  1.0 0.0601029508
C  C30  1  0.92090000  0.76270000  0.85110000  1.0 0.0601029508
C  C31  1  0.23730000  0.07910000  0.35110000  1.0 0.0601029508
C  C32  1  0.07910000  0.23730000  0.14890000  1.0 0.0601029508
C  C33  1  0.83030000  0.32990000  0.56650000  1.0 0.6210870371
C  C34  1  0.32990000  0.83030000  0.93350000  1.0 0.6210870371
C  C35  1  0.16970000  0.67010000  0.43350000  1.0 0.6210870371
C  C36  1  0.67010000  0.16970000  0.06650000  1.0 0.6210870371
C  C37  1  0.78750000  0.22570000  0.62520000  1.0 -0.0124381133
C  C38  1  0.22570000  0.78750000  0.87480000  1.0 -0.0124381133
C  C39  1  0.21250000  0.77430000  0.37480000  1.0 -0.0124381133
C  C40  1  0.77430000  0.21250000  0.12520000  1.0 -0.0124381133
C  C41  1  0.82700000  0.17100000  0.61590000  1.0 -0.1712460741
C  C42  1  0.17100000  0.82700000  0.88410000  1.0 -0.1712460741
C  C43  1  0.17300000  0.82900000  0.38410000  1.0 -0.1712460741
C  C44  1  0.82900000  0.17300000  0.11590000  1.0 -0.1712460741
C  C45  1  0.78480000  0.07260000  0.66800000  1.0 0.201162234
C  C46  1  0.07260000  0.78480000  0.83200000  1.0 0.201162234
C  C47  1  0.21520000  0.92740000  0.33200000  1.0 0.201162234
C  C48  1  0.92740000  0.21520000  0.16800000  1.0 0.201162234
C  C49  1  0.71030000  0.03490000  0.73580000  1.0 -0.1791300102
C  C50  1  0.03490000  0.71030000  0.76420000  1.0 -0.1791300102
C  C51  1  0.28970000  0.96510000  0.26420000  1.0 -0.1791300102
C  C52  1  0.96510000  0.28970000  0.23580000  1.0 -0.1791300102
C  C53  1  0.67210000  0.09030000  0.74620000  1.0 -0.0124381133
C  C54  1  0.09030000  0.67210000  0.75380000  1.0 -0.0124381133
C  C55  1  0.32790000  0.90970000  0.25380000  1.0 -0.0124381133
C  C56  1  0.90970000  0.32790000  0.24620000  1.0 -0.0124381133
C  C57  1  0.70900000  0.18360000  0.69000000  1.0 -0.1067640818
C  C58  1  0.18360000  0.70900000  0.81000000  1.0 -0.1067640818
C  C59  1  0.29100000  0.81640000  0.31000000  1.0 -0.1067640818
C  C60  1  0.81640000  0.29100000  0.19000000  1.0 -0.1067640818
C  C61  1  0.58900000  0.04660000  0.82010000  1.0 0.6471788363
C  C62  1  0.04660000  0.58900000  0.67990000  1.0 0.6471788363
C  C63  1  0.41100000  0.95340000  0.17990000  1.0 0.6471788363
C  C64  1  0.95340000  0.41100000  0.32010000  1.0 0.6471788363
N  N1  1  0.82496000  0.01904000  0.65000000  1.0 -0.2769538834
N  N2  1  0.01904000  0.82496000  0.85000000  1.0 -0.2769538834
N  N3  1  0.17504000  0.98096000  0.35000000  1.0 -0.2769538834
N  N4  1  0.98096000  0.17504000  0.15000000  1.0 -0.2769538834
O  O1  1  0.94134000  0.70406000  0.48860000  1.0 -0.6218365653
O  O2  1  0.70406000  0.94134000  0.01140000  1.0 -0.6218365653
O  O3  1  0.05866000  0.29594000  0.51140000  1.0 -0.6218365653
O  O4  1  0.29594000  0.05866000  0.98860000  1.0 -0.6218365653
O  O5  1  0.78295000  0.56585000  0.52130000  1.0 -0.6396415903
O  O6  1  0.56585000  0.78295000  0.97870000  1.0 -0.6396415903
O  O7  1  0.21705000  0.43415000  0.47870000  1.0 -0.6396415903
O  O8  1  0.43415000  0.21705000  0.02130000  1.0 -0.6396415903
O  O9  1  0.77208000  0.36032000  0.54570000  1.0 -0.6124815418
O  O10  1  0.36032000  0.77208000  0.95430000  1.0 -0.6124815418
O  O11  1  0.22792000  0.63968000  0.45430000  1.0 -0.6124815418
O  O12  1  0.63968000  0.22792000  0.04570000  1.0 -0.6124815418
O  O13  1  0.92086000  0.38414000  0.53810000  1.0 -0.7440939619
O  O14  1  0.38414000  0.92086000  0.96190000  1.0 -0.7453640177
O  O15  1  0.07914000  0.61586000  0.46190000  1.0 -0.7453640177
O  O16  1  0.61586000  0.07914000  0.03810000  1.0 -0.7440939619
O  O17  1  0.55778000  0.96062000  0.86860000  1.0 -0.6396415903
O  O18  1  0.96062000  0.55778000  0.63140000  1.0 -0.6396415903
O  O19  1  0.44222000  0.03938000  0.13140000  1.0 -0.6396415903
O  O20  1  0.03938000  0.44222000  0.36860000  1.0 -0.6396415903
O  O21  1  0.55855000  0.10105000  0.82690000  1.0 -0.6760238334
O  O22  1  0.10105000  0.55855000  0.67310000  1.0 -0.6760238334
O  O23  1  0.44145000  0.89895000  0.17310000  1.0 -0.6760238334
O  O24  1  0.89895000  0.44145000  0.32690000  1.0 -0.6760238334
