# DDEC6 charges by PACMAN v1.1 (https://github.com/mtap-research/PACMAN-charge/)
data_GEDREO_FSR_pacman
_symmetry_space_group_name_H-M   'P 1'
_cell_length_a   16.19520000
_cell_length_b   16.19520000
_cell_length_c   14.11800000
_cell_angle_alpha   84.81630000
_cell_angle_beta   95.18370000
_cell_angle_gamma   134.27500000
_symmetry_Int_Tables_number   1
_chemical_formula_structural   NdH11C19N3O7
_chemical_formula_sum   'Nd4 H44 C76 N12 O28'
_cell_volume   2638.51429105
_cell_formula_units_Z   4
loop_
 _symmetry_equiv_pos_site_id
 _symmetry_equiv_pos_as_xyz
  1  'x, y, z'
loop_
 _atom_site_type_symbol
 _atom_site_label
 _atom_site_symmetry_multiplicity
 _atom_site_fract_x
 _atom_site_fract_y
 _atom_site_fract_z
 _atom_site_occupancy
 _atom_site_charge
Nd  Nd1  1  0.88447000  0.51287000  0.46127000  1.0 2.009307753
Nd  Nd2  1  0.51287000  0.88447000  0.03873000  1.0 2.009307753
Nd  Nd3  1  0.11553000  0.48713000  0.53873000  1.0 2.009307753
Nd  Nd4  1  0.48713000  0.11553000  0.96127000  1.0 2.009307753
H  H1  1  0.96770000  0.84450000  0.59240000  1.0 0.1380665784
H  H2  1  0.84450000  0.96770000  0.90760000  1.0 0.1380665784
H  H3  1  0.03230000  0.15550000  0.40760000  1.0 0.1380665784
H  H4  1  0.15550000  0.03230000  0.09240000  1.0 0.1380665784
H  H5  1  0.92670000  0.94510000  0.63670000  1.0 0.1322966029
H  H6  1  0.94510000  0.92670000  0.86330000  1.0 0.1322966029
H  H7  1  0.07330000  0.05490000  0.36330000  1.0 0.1322966029
H  H8  1  0.05490000  0.07330000  0.13670000  1.0 0.1322966029
H  H9  1  0.59030000  0.66610000  0.60190000  1.0 0.1380665784
H  H10  1  0.66610000  0.59030000  0.89810000  1.0 0.1380665784
H  H11  1  0.40970000  0.33390000  0.39810000  1.0 0.1380665784
H  H12  1  0.33390000  0.40970000  0.10190000  1.0 0.1380665784
H  H13  1  0.62940000  0.56260000  0.55840000  1.0 0.1322966029
H  H14  1  0.56260000  0.62940000  0.94160000  1.0 0.1322966029
H  H15  1  0.37060000  0.43740000  0.44160000  1.0 0.1322966029
H  H16  1  0.43740000  0.37060000  0.05840000  1.0 0.1322966029
H  H17  1  0.86160000  0.17400000  0.55970000  1.0 0.1535456737
H  H18  1  0.17400000  0.86160000  0.94030000  1.0 0.1535456737
H  H19  1  0.13840000  0.82600000  0.44030000  1.0 0.1535456737
H  H20  1  0.82600000  0.13840000  0.05970000  1.0 0.1535456737
H  H21  1  0.65870000  0.94430000  0.77070000  1.0 0.1380665784
H  H22  1  0.94430000  0.65870000  0.72930000  1.0 0.1380665784
H  H23  1  0.34130000  0.05570000  0.22930000  1.0 0.1380665784
H  H24  1  0.05570000  0.34130000  0.27070000  1.0 0.1380665784
H  H25  1  0.65620000  0.18540000  0.68550000  1.0 0.1380665784
H  H26  1  0.18540000  0.65620000  0.81450000  1.0 0.1380665784
H  H27  1  0.34380000  0.81460000  0.31450000  1.0 0.1380665784
H  H28  1  0.81460000  0.34380000  0.18550000  1.0 0.1380665784
H  H29  1  0.67460000  0.25340000  0.33190000  1.0 0.1111045514
H  H30  1  0.25340000  0.67460000  0.16810000  1.0 0.1111045514
H  H31  1  0.32540000  0.74660000  0.66810000  1.0 0.1111045514
H  H32  1  0.74660000  0.32540000  0.83190000  1.0 0.1111045514
H  H33  1  0.52800000  0.35140000  0.19770000  1.0 0.1111045514
H  H34  1  0.35140000  0.52800000  0.30230000  1.0 0.1111045514
H  H35  1  0.47200000  0.64860000  0.80230000  1.0 0.1111045514
H  H36  1  0.64860000  0.47200000  0.69770000  1.0 0.1111045514
H  H37  1  0.65480000  0.48020000  0.32870000  1.0 0.1166874298
H  H38  1  0.48020000  0.65480000  0.17130000  1.0 0.1166874298
H  H39  1  0.34520000  0.51980000  0.67130000  1.0 0.1166874298
H  H40  1  0.51980000  0.34520000  0.82870000  1.0 0.1166874298
H  H41  1  0.64500000  0.83900000  0.64500000  1.0 0.103583412
H  H42  1  0.83900000  0.64500000  0.85500000  1.0 0.103583412
H  H43  1  0.35500000  0.16100000  0.35500000  1.0 0.103583412
H  H44  1  0.16100000  0.35500000  0.14500000  1.0 0.103583412
C  C1  1  0.83264000  0.63116000  0.53740000  1.0 0.5489638259
C  C2  1  0.63116000  0.83264000  0.96260000  1.0 0.5489638259
C  C3  1  0.16736000  0.36884000  0.46260000  1.0 0.5489638259
C  C4  1  0.36884000  0.16736000  0.03740000  1.0 0.5489638259
C  C5  1  0.80425000  0.69435000  0.57010000  1.0 -0.0031737083
C  C6  1  0.69435000  0.80425000  0.92990000  1.0 -0.0031737083
C  C7  1  0.19575000  0.30565000  0.42990000  1.0 -0.0031737083
C  C8  1  0.30565000  0.19575000  0.07010000  1.0 -0.0031737083
C  C9  1  0.89130000  0.80810000  0.59380000  1.0 -0.0853569883
C  C10  1  0.80810000  0.89130000  0.90620000  1.0 -0.0853569883
C  C11  1  0.10870000  0.19190000  0.40620000  1.0 -0.0853569883
C  C12  1  0.19190000  0.10870000  0.09380000  1.0 -0.0853569883
C  C13  1  0.86670000  0.86870000  0.61970000  1.0 -0.1232348534
C  C14  1  0.86870000  0.86670000  0.88030000  1.0 -0.1232348534
C  C15  1  0.13330000  0.13130000  0.38030000  1.0 -0.1232348534
C  C16  1  0.13130000  0.13330000  0.11970000  1.0 -0.1232348534
C  C17  1  0.75350000  0.81750000  0.62070000  1.0 0.0788678906
C  C18  1  0.81750000  0.75350000  0.87930000  1.0 0.0788678906
C  C19  1  0.24650000  0.18250000  0.37930000  1.0 0.0788678906
C  C20  1  0.18250000  0.24650000  0.12070000  1.0 0.0788678906
C  C21  1  0.66666667  0.70260000  0.59910000  1.0 -0.1449813734
C  C22  1  0.70260000  0.66666667  0.90090000  1.0 -0.1449813734
C  C23  1  0.33340000  0.29740000  0.40090000  1.0 -0.1449813734
C  C24  1  0.29740000  0.33340000  0.09910000  1.0 -0.1449813734
C  C25  1  0.68945000  0.63975000  0.57330000  1.0 -0.0853569883
C  C26  1  0.63975000  0.68945000  0.92670000  1.0 -0.0853569883
C  C27  1  0.31055000  0.36025000  0.42670000  1.0 -0.0853569883
C  C28  1  0.36025000  0.31055000  0.07330000  1.0 -0.0853569883
C  C29  1  0.72350000  0.88130000  0.63950000  1.0 0.0788678906
C  C30  1  0.88130000  0.72350000  0.86050000  1.0 0.0788678906
C  C31  1  0.27650000  0.11870000  0.36050000  1.0 0.0788678906
C  C32  1  0.11870000  0.27650000  0.13950000  1.0 0.0788678906
C  C33  1  0.80843000  0.29717000  0.55150000  1.0 0.6178155799
C  C34  1  0.29717000  0.80843000  0.94850000  1.0 0.6178155799
C  C35  1  0.19157000  0.70283000  0.44850000  1.0 0.6178155799
C  C36  1  0.70283000  0.19157000  0.05150000  1.0 0.6178155799
C  C37  1  0.76503000  0.19457000  0.61290000  1.0 -0.0066008789
C  C38  1  0.19457000  0.76503000  0.88710000  1.0 -0.0066008789
C  C39  1  0.23497000  0.80543000  0.38710000  1.0 -0.0066008789
C  C40  1  0.80543000  0.23497000  0.11290000  1.0 -0.0066008789
C  C41  1  0.80540000  0.14320000  0.60320000  1.0 -0.1513025261
C  C42  1  0.14320000  0.80540000  0.89680000  1.0 -0.1513025261
C  C43  1  0.19460000  0.85680000  0.39680000  1.0 -0.1513025261
C  C44  1  0.85680000  0.19460000  0.10320000  1.0 -0.1513025261
C  C45  1  0.76078000  0.04462000  0.65960000  1.0 0.2082080503
C  C46  1  0.04462000  0.76078000  0.84040000  1.0 0.2082080503
C  C47  1  0.23922000  0.95538000  0.34040000  1.0 0.2082080503
C  C48  1  0.95538000  0.23922000  0.15960000  1.0 0.2082080503
C  C49  1  0.68418000  0.00622000  0.73010000  1.0 -0.1513025261
C  C50  1  0.00622000  0.68418000  0.76990000  1.0 -0.1513025261
C  C51  1  0.31582000  0.99378000  0.26990000  1.0 -0.1513025261
C  C52  1  0.99378000  0.31582000  0.23010000  1.0 -0.1513025261
C  C53  1  0.64572000  0.05808000  0.74060000  1.0 -0.0031737083
C  C54  1  0.05808000  0.64572000  0.75940000  1.0 -0.0031737083
C  C55  1  0.35428000  0.94192000  0.25940000  1.0 -0.0031737083
C  C56  1  0.94192000  0.35428000  0.24060000  1.0 -0.0031737083
C  C57  1  0.68419000  0.15181000  0.68050000  1.0 -0.0956676792
C  C58  1  0.15181000  0.68419000  0.81950000  1.0 -0.0956676792
C  C59  1  0.31581000  0.84819000  0.31950000  1.0 -0.0956676792
C  C60  1  0.84819000  0.31581000  0.18050000  1.0 -0.0956676792
C  C61  1  0.56492000  0.01928000  0.81750000  1.0 0.6307941188
C  C62  1  0.01928000  0.56492000  0.68250000  1.0 0.6307941188
C  C63  1  0.43508000  0.98072000  0.18250000  1.0 0.6307941188
C  C64  1  0.98072000  0.43508000  0.31750000  1.0 0.6307941188
C  C65  1  0.65430000  0.29430000  0.31500000  1.0 0.1764906419
C  C66  1  0.29430000  0.65430000  0.18500000  1.0 0.1764906419
C  C67  1  0.34570000  0.70570000  0.68500000  1.0 0.1764906419
C  C68  1  0.70570000  0.34570000  0.81500000  1.0 0.1764906419
C  C69  1  0.57240000  0.34700000  0.24010000  1.0 -0.0408828718
C  C70  1  0.34700000  0.57240000  0.25990000  1.0 -0.0408828718
C  C71  1  0.42760000  0.65300000  0.75990000  1.0 -0.0408828718
C  C72  1  0.65300000  0.42760000  0.74010000  1.0 -0.0408828718
C  C73  1  0.64313000  0.41807000  0.31290000  1.0 0.003842659
C  C74  1  0.41807000  0.64313000  0.18710000  1.0 0.003842659
C  C75  1  0.35687000  0.58193000  0.68710000  1.0 0.003842659
C  C76  1  0.58193000  0.35687000  0.81290000  1.0 0.0055529014
N  N1  1  0.79850000  0.99070000  0.64350000  1.0 -0.2435904931
N  N2  1  0.99070000  0.79850000  0.85650000  1.0 -0.2435904931
N  N3  1  0.20150000  0.00930000  0.35650000  1.0 -0.2460497211
N  N4  1  0.00930000  0.20150000  0.14350000  1.0 -0.2460497211
N  N5  1  0.69428000  0.38552000  0.35900000  1.0 -0.3954374681
N  N6  1  0.38552000  0.69428000  0.14100000  1.0 -0.3954374681
N  N7  1  0.30572000  0.61448000  0.64100000  1.0 -0.3954374681
N  N8  1  0.61448000  0.30572000  0.85900000  1.0 -0.3954374681
N  N9  1  0.58015000  0.26825000  0.24200000  1.0 -0.2195092517
N  N10  1  0.26825000  0.58015000  0.25800000  1.0 -0.2195092517
N  N11  1  0.41985000  0.73175000  0.75800000  1.0 -0.2195092517
N  N12  1  0.73175000  0.41985000  0.74200000  1.0 -0.2195092517
O  O1  1  0.75400000  0.52340000  0.52980000  1.0 -0.5727697353
O  O2  1  0.52340000  0.75400000  0.97020000  1.0 -0.5727697353
O  O3  1  0.24600000  0.47660000  0.47020000  1.0 -0.5727697353
O  O4  1  0.47660000  0.24600000  0.02980000  1.0 -0.5727697353
O  O5  1  0.93588000  0.68872000  0.51650000  1.0 -0.5587036352
O  O6  1  0.68872000  0.93588000  0.98350000  1.0 -0.5587036352
O  O7  1  0.06412000  0.31128000  0.48350000  1.0 -0.5587036352
O  O8  1  0.31128000  0.06412000  0.01650000  1.0 -0.5587036352
O  O9  1  0.90900000  0.36620000  0.51910000  1.0 -0.6848791729
O  O10  1  0.36620000  0.90900000  0.98090000  1.0 -0.6848791729
O  O11  1  0.09100000  0.63380000  0.48090000  1.0 -0.6856777559
O  O12  1  0.63380000  0.09100000  0.01910000  1.0 -0.6848791729
O  O13  1  0.74282000  0.31318000  0.53320000  1.0 -0.5587036352
O  O14  1  0.31318000  0.74282000  0.96680000  1.0 -0.5587036352
O  O15  1  0.25718000  0.68682000  0.46680000  1.0 -0.5587036352
O  O16  1  0.68682000  0.25718000  0.03320000  1.0 -0.5587036352
O  O17  1  0.54270000  0.07690000  0.82990000  1.0 -0.5872979055
O  O18  1  0.07690000  0.54270000  0.67010000  1.0 -0.5872979055
O  O19  1  0.45730000  0.92310000  0.17010000  1.0 -0.5872979055
O  O20  1  0.92310000  0.45730000  0.32990000  1.0 -0.5872979055
O  O21  1  0.52344000  0.92736000  0.86530000  1.0 -0.6256069829
O  O22  1  0.92736000  0.52344000  0.63470000  1.0 -0.6256069829
O  O23  1  0.47656000  0.07264000  0.13470000  1.0 -0.6237227808
O  O24  1  0.07264000  0.47656000  0.36530000  1.0 -0.6256069829
O  O25  1  0.91852000  0.63848000  0.32520000  1.0 -0.4240549843
O  O26  1  0.63848000  0.91852000  0.17480000  1.0 -0.4240549843
O  O27  1  0.08148000  0.36152000  0.67480000  1.0 -0.4264728914
O  O28  1  0.36152000  0.08148000  0.82520000  1.0 -0.4373392056
