# DDEC6 charges by PACMAN v1.1 (https://github.com/mtap-research/PACMAN-charge/)
data_GEDSOZ_ASR_pacman
_symmetry_space_group_name_H-M   'P 1'
_cell_length_a   16.27510000
_cell_length_b   16.27510000
_cell_length_c   13.09260000
_cell_angle_alpha   82.16710000
_cell_angle_beta   97.83290000
_cell_angle_gamma   127.29500000
_symmetry_Int_Tables_number   1
_chemical_formula_structural   NdH8C16NO6
_chemical_formula_sum   'Nd4 H32 C64 N4 O24'
_cell_volume   2726.75372930
_cell_formula_units_Z   4
loop_
 _symmetry_equiv_pos_site_id
 _symmetry_equiv_pos_as_xyz
  1  'x, y, z'
loop_
 _atom_site_type_symbol
 _atom_site_label
 _atom_site_symmetry_multiplicity
 _atom_site_fract_x
 _atom_site_fract_y
 _atom_site_fract_z
 _atom_site_occupancy
 _atom_site_charge
Nd  Nd1  1  0.39125000  0.02343000  0.45587000  1.0 2.0928810767
Nd  Nd2  1  0.02343000  0.39125000  0.04413000  1.0 2.0964342288
Nd  Nd3  1  0.60875000  0.97657000  0.54413000  1.0 2.0964342288
Nd  Nd4  1  0.97657000  0.60875000  0.95587000  1.0 2.0964342288
H  H1  1  0.46840000  0.35460000  0.53510000  1.0 0.1254527054
H  H2  1  0.35460000  0.46840000  0.96490000  1.0 0.1254527054
H  H3  1  0.53160000  0.64540000  0.46490000  1.0 0.1254527054
H  H4  1  0.64540000  0.53160000  0.03510000  1.0 0.1254527054
H  H5  1  0.44180000  0.46520000  0.58880000  1.0 0.1219453913
H  H6  1  0.46520000  0.44180000  0.91120000  1.0 0.1219453913
H  H7  1  0.55820000  0.53480000  0.41120000  1.0 0.1219453913
H  H8  1  0.53480000  0.55820000  0.08880000  1.0 0.1219453913
H  H9  1  0.14780000  0.22060000  0.63970000  1.0 0.1219453913
H  H10  1  0.22060000  0.14780000  0.86030000  1.0 0.1219453913
H  H11  1  0.85220000  0.77940000  0.36030000  1.0 0.1219453913
H  H12  1  0.77940000  0.85220000  0.13970000  1.0 0.1219453913
H  H13  1  0.18010000  0.11170000  0.59150000  1.0 0.1254527054
H  H14  1  0.11170000  0.18010000  0.90850000  1.0 0.1219453913
H  H15  1  0.81990000  0.88830000  0.40850000  1.0 0.1219453913
H  H16  1  0.88830000  0.81990000  0.09150000  1.0 0.1219453913
H  H17  1  0.38630000  0.70050000  0.57050000  1.0 0.1387209228
H  H18  1  0.70050000  0.38630000  0.92950000  1.0 0.1387209228
H  H19  1  0.61370000  0.29950000  0.42950000  1.0 0.1387209228
H  H20  1  0.29950000  0.61370000  0.07050000  1.0 0.1387209228
H  H21  1  0.18590000  0.46990000  0.76860000  1.0 0.1219453913
H  H22  1  0.46990000  0.18590000  0.73140000  1.0 0.1219453913
H  H23  1  0.81410000  0.53010000  0.23140000  1.0 0.1219453913
H  H24  1  0.53010000  0.81410000  0.26860000  1.0 0.1219453913
H  H25  1  0.18360000  0.71520000  0.69320000  1.0 0.1387209228
H  H26  1  0.71520000  0.18360000  0.80680000  1.0 0.1387209228
H  H27  1  0.81640000  0.28480000  0.30680000  1.0 0.1387209228
H  H28  1  0.28480000  0.81640000  0.19320000  1.0 0.1387209228
H  H29  1  0.20400000  0.38800000  0.66000000  1.0 0.1100907258
H  H30  1  0.38800000  0.20400000  0.84000000  1.0 0.1100907258
H  H31  1  0.79600000  0.61200000  0.34000000  1.0 0.1100907258
H  H32  1  0.61200000  0.79600000  0.16000000  1.0 0.1100907258
C  C1  1  0.34670000  0.15350000  0.52250000  1.0 0.5655686191
C  C2  1  0.15350000  0.34670000  0.97750000  1.0 0.5655686191
C  C3  1  0.65330000  0.84650000  0.47750000  1.0 0.5644000701
C  C4  1  0.84650000  0.65330000  0.02250000  1.0 0.5644000701
C  C5  1  0.32840000  0.22300000  0.55830000  1.0 -0.041526438
C  C6  1  0.22300000  0.32840000  0.94170000  1.0 -0.041526438
C  C7  1  0.67160000  0.77700000  0.44170000  1.0 -0.041526438
C  C8  1  0.77700000  0.67160000  0.05830000  1.0 -0.041526438
C  C9  1  0.40420000  0.32760000  0.55750000  1.0 -0.0915693168
C  C10  1  0.32760000  0.40420000  0.94250000  1.0 -0.0915693168
C  C11  1  0.59580000  0.67240000  0.44250000  1.0 -0.0915693168
C  C12  1  0.67240000  0.59580000  0.05750000  1.0 -0.0915693168
C  C13  1  0.38850000  0.39450000  0.58870000  1.0 -0.1522158303
C  C14  1  0.39450000  0.38850000  0.91130000  1.0 -0.1522158303
C  C15  1  0.61150000  0.60550000  0.41130000  1.0 -0.1522158303
C  C16  1  0.60550000  0.61150000  0.08870000  1.0 -0.1522158303
C  C17  1  0.29000000  0.35380000  0.62040000  1.0 0.0713165931
C  C18  1  0.35380000  0.29000000  0.87960000  1.0 0.0713165931
C  C19  1  0.71000000  0.64620000  0.37960000  1.0 0.0713165931
C  C20  1  0.64620000  0.71000000  0.12040000  1.0 0.0713165931
C  C21  1  0.21310000  0.24810000  0.61990000  1.0 -0.1700522222
C  C22  1  0.24810000  0.21310000  0.88010000  1.0 -0.1700522222
C  C23  1  0.78690000  0.75190000  0.38010000  1.0 -0.1700522222
C  C24  1  0.75190000  0.78690000  0.11990000  1.0 -0.1700522222
C  C25  1  0.23210000  0.18270000  0.59010000  1.0 -0.0915693168
C  C26  1  0.18270000  0.23210000  0.90990000  1.0 -0.0915693168
C  C27  1  0.76790000  0.81730000  0.40990000  1.0 -0.0915693168
C  C28  1  0.81730000  0.76790000  0.09010000  1.0 -0.0915693168
C  C29  1  0.26630000  0.42250000  0.64530000  1.0 0.0638425878
C  C30  1  0.42250000  0.26630000  0.85470000  1.0 0.0638425878
C  C31  1  0.73370000  0.57750000  0.35470000  1.0 0.0638425878
C  C32  1  0.57750000  0.73370000  0.14530000  1.0 0.0638425878
C  C33  1  0.33360000  0.82760000  0.56720000  1.0 0.6215955547
C  C34  1  0.82760000  0.33360000  0.93280000  1.0 0.6215955547
C  C35  1  0.66640000  0.17240000  0.43280000  1.0 0.6215955547
C  C36  1  0.17240000  0.66640000  0.06720000  1.0 0.6215955547
C  C37  1  0.28820000  0.72080000  0.62160000  1.0 -0.0096862764
C  C38  1  0.72080000  0.28820000  0.87840000  1.0 -0.0096862764
C  C39  1  0.71180000  0.27920000  0.37840000  1.0 -0.0096862764
C  C40  1  0.27920000  0.71180000  0.12160000  1.0 -0.0096862764
C  C41  1  0.33040000  0.66980000  0.61090000  1.0 -0.1755603471
C  C42  1  0.66980000  0.33040000  0.88910000  1.0 -0.1755603471
C  C43  1  0.66960000  0.33020000  0.38910000  1.0 -0.1755603471
C  C44  1  0.33020000  0.66960000  0.11090000  1.0 -0.1755603471
C  C45  1  0.28830000  0.57190000  0.66130000  1.0 0.1992024563
C  C46  1  0.57190000  0.28830000  0.83870000  1.0 0.1992024563
C  C47  1  0.71170000  0.42810000  0.33870000  1.0 0.1992024563
C  C48  1  0.42810000  0.71170000  0.16130000  1.0 0.1992024563
C  C49  1  0.21110000  0.53250000  0.73070000  1.0 -0.1899645061
C  C50  1  0.53250000  0.21110000  0.76930000  1.0 -0.1899645061
C  C51  1  0.78890000  0.46750000  0.26930000  1.0 -0.1899645061
C  C52  1  0.46750000  0.78890000  0.23070000  1.0 -0.1899645061
C  C53  1  0.17260000  0.58620000  0.74250000  1.0 -0.0246801407
C  C54  1  0.58620000  0.17260000  0.75750000  1.0 -0.0246801407
C  C55  1  0.82740000  0.41380000  0.25750000  1.0 -0.0246801407
C  C56  1  0.41380000  0.82740000  0.24250000  1.0 -0.0246801407
C  C57  1  0.21070000  0.67990000  0.68670000  1.0 -0.1101166003
C  C58  1  0.67990000  0.21070000  0.81330000  1.0 -0.1101166003
C  C59  1  0.78930000  0.32010000  0.31330000  1.0 -0.1101166003
C  C60  1  0.32010000  0.78930000  0.18670000  1.0 -0.1101166003
C  C61  1  0.09380000  0.54580000  0.81910000  1.0 0.6520672373
C  C62  1  0.54580000  0.09380000  0.68090000  1.0 0.6520672373
C  C63  1  0.90620000  0.45420000  0.18090000  1.0 0.6520672373
C  C64  1  0.45420000  0.90620000  0.31910000  1.0 0.6520672373
N  N1  1  0.32584000  0.51696000  0.64230000  1.0 -0.2564229735
N  N2  1  0.51696000  0.32584000  0.85770000  1.0 -0.2564229735
N  N3  1  0.67416000  0.48304000  0.35770000  1.0 -0.2564229735
N  N4  1  0.48304000  0.67416000  0.14230000  1.0 -0.2564229735
O  O1  1  0.42484000  0.19156000  0.47340000  1.0 -0.6380897232
O  O2  1  0.19156000  0.42484000  0.02660000  1.0 -0.6380897232
O  O3  1  0.57516000  0.80844000  0.52660000  1.0 -0.6380897232
O  O4  1  0.80844000  0.57516000  0.97340000  1.0 -0.6380897232
O  O5  1  0.28154000  0.05566000  0.53960000  1.0 -0.6380897232
O  O6  1  0.05566000  0.28154000  0.96040000  1.0 -0.6380897232
O  O7  1  0.71846000  0.94434000  0.46040000  1.0 -0.6380897232
O  O8  1  0.94434000  0.71846000  0.03960000  1.0 -0.6380897232
O  O9  1  0.42558000  0.88442000  0.54280000  1.0 -0.7428824225
O  O10  1  0.88442000  0.42558000  0.95720000  1.0 -0.7428824225
O  O11  1  0.57442000  0.11558000  0.45720000  1.0 -0.7428824225
O  O12  1  0.11558000  0.57442000  0.04280000  1.0 -0.7428824225
O  O13  1  0.27532000  0.85448000  0.54730000  1.0 -0.604424543
O  O14  1  0.85448000  0.27532000  0.95270000  1.0 -0.604424543
O  O15  1  0.72468000  0.14552000  0.45270000  1.0 -0.604424543
O  O16  1  0.14552000  0.72468000  0.04730000  1.0 -0.604424543
O  O17  1  0.06352000  0.59868000  0.82990000  1.0 -0.6807294258
O  O18  1  0.59868000  0.06352000  0.67010000  1.0 -0.6807294258
O  O19  1  0.93648000  0.40132000  0.17010000  1.0 -0.6807294258
O  O20  1  0.40132000  0.93648000  0.32990000  1.0 -0.6807294258
O  O21  1  0.06165000  0.46015000  0.86840000  1.0 -0.6526185789
O  O22  1  0.46015000  0.06165000  0.63160000  1.0 -0.6526185789
O  O23  1  0.93835000  0.53985000  0.13160000  1.0 -0.6526185789
O  O24  1  0.53985000  0.93835000  0.36840000  1.0 -0.6526185789
