# DDEC6 charges by PACMAN v1.1 (https://github.com/mtap-research/PACMAN-charge/)
data_GEDSAL_ASR_pacman
_symmetry_space_group_name_H-M   'P 1'
_cell_length_a   16.03300000
_cell_length_b   16.03300000
_cell_length_c   12.82730000
_cell_angle_alpha   77.83180000
_cell_angle_beta   102.16800000
_cell_angle_gamma   126.37200000
_symmetry_Int_Tables_number   1
_chemical_formula_structural   NdH8C16NO6
_chemical_formula_sum   'Nd4 H32 C64 N4 O24'
_cell_volume   2579.86337079
_cell_formula_units_Z   4
loop_
 _symmetry_equiv_pos_site_id
 _symmetry_equiv_pos_as_xyz
  1  'x, y, z'
loop_
 _atom_site_type_symbol
 _atom_site_label
 _atom_site_symmetry_multiplicity
 _atom_site_fract_x
 _atom_site_fract_y
 _atom_site_fract_z
 _atom_site_occupancy
 _atom_site_charge
Nd  Nd1  1  0.89411000  0.53355000  0.44084000  1.0 2.0810742694
Nd  Nd2  1  0.53354000  0.89411000  0.05916000  1.0 2.0810742694
Nd  Nd3  1  0.10589000  0.46646000  0.55916000  1.0 2.0810742694
Nd  Nd4  1  0.46646000  0.10589000  0.94084000  1.0 2.0810742694
H  H1  1  0.97230000  0.86010000  0.54210000  1.0 0.1206023413
H  H2  1  0.86010000  0.97230000  0.95790000  1.0 0.1206023413
H  H3  1  0.02770000  0.13990000  0.45790000  1.0 0.1206023413
H  H4  1  0.13990000  0.02770000  0.04210000  1.0 0.1206023413
H  H5  1  0.93840000  0.96340000  0.60160000  1.0 0.1206023413
H  H6  1  0.96340000  0.93840000  0.89840000  1.0 0.1206023413
H  H7  1  0.06160000  0.03660000  0.39840000  1.0 0.1206023413
H  H8  1  0.03660000  0.06160000  0.10160000  1.0 0.1206023413
H  H9  1  0.63680000  0.71620000  0.61600000  1.0 0.1206023413
H  H10  1  0.71620000  0.63680000  0.88400000  1.0 0.1206023413
H  H11  1  0.36320000  0.28380000  0.38400000  1.0 0.1206023413
H  H12  1  0.28380000  0.36320000  0.11600000  1.0 0.1206023413
H  H13  1  0.67780000  0.61160000  0.57170000  1.0 0.1206023413
H  H14  1  0.61160000  0.67780000  0.92830000  1.0 0.1206023413
H  H15  1  0.32220000  0.38840000  0.42830000  1.0 0.1206023413
H  H16  1  0.38840000  0.32220000  0.07170000  1.0 0.1206023413
H  H17  1  0.67500000  0.86900000  0.64700000  1.0 0.0757502597
H  H18  1  0.86900000  0.67500000  0.85300000  1.0 0.0757502597
H  H19  1  0.32500000  0.13100000  0.35300000  1.0 0.0757502597
H  H20  1  0.13100000  0.32500000  0.14700000  1.0 0.0757502597
H  H21  1  0.87930000  0.19530000  0.57390000  1.0 0.1377248465
H  H22  1  0.19530000  0.87930000  0.92610000  1.0 0.1377248465
H  H23  1  0.12070000  0.80470000  0.42610000  1.0 0.1377248465
H  H24  1  0.80470000  0.12070000  0.07390000  1.0 0.1377248465
H  H25  1  0.67610000  0.95950000  0.77150000  1.0 0.1206023413
H  H26  1  0.95950000  0.67610000  0.72850000  1.0 0.1206023413
H  H27  1  0.32390000  0.04050000  0.22850000  1.0 0.1206023413
H  H28  1  0.04050000  0.32390000  0.27150000  1.0 0.1206023413
H  H29  1  0.67860000  0.21580000  0.68810000  1.0 0.1377248465
H  H30  1  0.21580000  0.67860000  0.81190000  1.0 0.1377248465
H  H31  1  0.32140000  0.78420000  0.31190000  1.0 0.1377248465
H  H32  1  0.78420000  0.32140000  0.18810000  1.0 0.1377248465
C  C1  1  0.84860000  0.66100000  0.50340000  1.0 0.5616239625
C  C2  1  0.66100000  0.84860000  0.99660000  1.0 0.5616239625
C  C3  1  0.15140000  0.33900000  0.49660000  1.0 0.5616239625
C  C4  1  0.33900000  0.15140000  0.00340000  1.0 0.5616239625
C  C5  1  0.82720000  0.72680000  0.54700000  1.0 -0.0256145712
C  C6  1  0.72680000  0.82720000  0.95300000  1.0 -0.0256145712
C  C7  1  0.17280000  0.27320000  0.45300000  1.0 -0.0256145712
C  C8  1  0.27320000  0.17280000  0.04700000  1.0 -0.0256145712
C  C9  1  0.90570000  0.83150000  0.55820000  1.0 -0.099389021
C  C10  1  0.83150000  0.90570000  0.94180000  1.0 -0.099389021
C  C11  1  0.09430000  0.16850000  0.44180000  1.0 -0.099389021
C  C12  1  0.16850000  0.09430000  0.05820000  1.0 -0.099389021
C  C13  1  0.88550000  0.89390000  0.59300000  1.0 -0.1387901586
C  C14  1  0.89390000  0.88550000  0.90700000  1.0 -0.1387901586
C  C15  1  0.11450000  0.10610000  0.40700000  1.0 -0.1387901586
C  C16  1  0.10610000  0.11450000  0.09300000  1.0 -0.1387901586
C  C17  1  0.78280000  0.84960000  0.61530000  1.0 0.0673607271
C  C18  1  0.84960000  0.78280000  0.88470000  1.0 0.0673607271
C  C19  1  0.21720000  0.15040000  0.38470000  1.0 0.0673607271
C  C20  1  0.15040000  0.21720000  0.11530000  1.0 0.0673607271
C  C21  1  0.70450000  0.74470000  0.60380000  1.0 -0.1686977875
C  C22  1  0.74470000  0.70450000  0.89620000  1.0 -0.1686977875
C  C23  1  0.29550000  0.25530000  0.39620000  1.0 -0.1686977875
C  C24  1  0.25530000  0.29550000  0.10380000  1.0 -0.1686977875
C  C25  1  0.72840000  0.68280000  0.57380000  1.0 -0.099389021
C  C26  1  0.68280000  0.72840000  0.92620000  1.0 -0.099389021
C  C27  1  0.27160000  0.31720000  0.42620000  1.0 -0.099389021
C  C28  1  0.31720000  0.27160000  0.07380000  1.0 -0.099389021
C  C29  1  0.75330000  0.91150000  0.64340000  1.0 0.0561022702
C  C30  1  0.91150000  0.75330000  0.85660000  1.0 0.0561022702
C  C31  1  0.24670000  0.08850000  0.35660000  1.0 0.0561022702
C  C32  1  0.08850000  0.24670000  0.14340000  1.0 0.0561022702
C  C33  1  0.82600000  0.32740000  0.56090000  1.0 0.6145065743
C  C34  1  0.32740000  0.82600000  0.93910000  1.0 0.6145065743
C  C35  1  0.17400000  0.67260000  0.43910000  1.0 0.6145065743
C  C36  1  0.67260000  0.17400000  0.06090000  1.0 0.6159433442
C  C37  1  0.78510000  0.22310000  0.62120000  1.0 -0.0256145712
C  C38  1  0.22310000  0.78510000  0.87880000  1.0 -0.0256145712
C  C39  1  0.21490000  0.77690000  0.37880000  1.0 -0.0256145712
C  C40  1  0.77690000  0.21490000  0.12120000  1.0 -0.0256145712
C  C41  1  0.82370000  0.16610000  0.61330000  1.0 -0.1616263223
C  C42  1  0.16610000  0.82370000  0.88670000  1.0 -0.1616263223
C  C43  1  0.17630000  0.83390000  0.38670000  1.0 -0.1616263223
C  C44  1  0.83390000  0.17630000  0.11330000  1.0 -0.1616263223
C  C45  1  0.77720000  0.06440000  0.66580000  1.0 0.1965849269
C  C46  1  0.06440000  0.77720000  0.83420000  1.0 0.1965849269
C  C47  1  0.22280000  0.93560000  0.33420000  1.0 0.1965849269
C  C48  1  0.93560000  0.22280000  0.16580000  1.0 0.1965849269
C  C49  1  0.70240000  0.02480000  0.73270000  1.0 -0.1686977875
C  C50  1  0.02480000  0.70240000  0.76730000  1.0 -0.1686977875
C  C51  1  0.29760000  0.97520000  0.26730000  1.0 -0.1686977875
C  C52  1  0.97520000  0.29760000  0.23270000  1.0 -0.1686977875
C  C53  1  0.66620000  0.08300000  0.74210000  1.0 -0.0126572468
C  C54  1  0.08300000  0.66620000  0.75790000  1.0 -0.0126572468
C  C55  1  0.33380000  0.91700000  0.25790000  1.0 -0.0126572468
C  C56  1  0.91700000  0.33380000  0.24210000  1.0 -0.0126572468
C  C57  1  0.70600000  0.17920000  0.68440000  1.0 -0.099389021
C  C58  1  0.17920000  0.70600000  0.81560000  1.0 -0.099389021
C  C59  1  0.29400000  0.82080000  0.31560000  1.0 -0.099389021
C  C60  1  0.82080000  0.29400000  0.18440000  1.0 -0.099389021
C  C61  1  0.58300000  0.03840000  0.81550000  1.0 0.6486575324
C  C62  1  0.03840000  0.58300000  0.68450000  1.0 0.6486575324
C  C63  1  0.41700000  0.96160000  0.18450000  1.0 0.6486575324
C  C64  1  0.96160000  0.41700000  0.31550000  1.0 0.6486575324
N  N1  1  0.81710000  0.00910000  0.64780000  1.0 -0.2727006805
N  N2  1  0.00910000  0.81710000  0.85220000  1.0 -0.2727006805
N  N3  1  0.18290000  0.99090000  0.35220000  1.0 -0.2727006805
N  N4  1  0.99090000  0.18290000  0.14780000  1.0 -0.2727006805
O  O1  1  0.77900000  0.56680000  0.50120000  1.0 -0.6130304617
O  O2  1  0.56680000  0.77900000  0.99880000  1.0 -0.6130304617
O  O3  1  0.22100000  0.43320000  0.49880000  1.0 -0.6130304617
O  O4  1  0.43320000  0.22100000  0.00120000  1.0 -0.6130304617
O  O5  1  0.93618000  0.70462000  0.47200000  1.0 -0.6327101987
O  O6  1  0.70462000  0.93618000  0.02800000  1.0 -0.6327101987
O  O7  1  0.06382000  0.29538000  0.52800000  1.0 -0.6327101987
O  O8  1  0.29538000  0.06382000  0.97200000  1.0 -0.6327101987
O  O9  1  0.77074000  0.36006000  0.53510000  1.0 -0.578792153
O  O10  1  0.36006000  0.77074000  0.96490000  1.0 -0.578792153
O  O11  1  0.22926000  0.63994000  0.46490000  1.0 -0.578792153
O  O12  1  0.63994000  0.22926000  0.03510000  1.0 -0.578792153
O  O13  1  0.91970000  0.38230000  0.53610000  1.0 -0.7646805328
O  O14  1  0.38230000  0.91970000  0.96390000  1.0 -0.7664873086
O  O15  1  0.08030000  0.61770000  0.46390000  1.0 -0.7664873086
O  O16  1  0.61770000  0.08030000  0.03610000  1.0 -0.7664873086
O  O17  1  0.55092000  0.09408000  0.81510000  1.0 -0.6818526667
O  O18  1  0.09408000  0.55092000  0.68490000  1.0 -0.6818526667
O  O19  1  0.44908000  0.90592000  0.18490000  1.0 -0.6818526667
O  O20  1  0.90592000  0.44908000  0.31510000  1.0 -0.6818526667
O  O21  1  0.55430000  0.95290000  0.87120000  1.0 -0.6364217084
O  O22  1  0.95290000  0.55430000  0.62880000  1.0 -0.6364217084
O  O23  1  0.44570000  0.04710000  0.12880000  1.0 -0.6364217084
O  O24  1  0.04710000  0.44570000  0.37120000  1.0 -0.6327101987
