# DDEC6 charges by PACMAN v1.1 (https://github.com/mtap-research/PACMAN-charge/)
data_GEFFUT_FSR_pacman
_symmetry_space_group_name_H-M   'P 1'
_cell_length_a   19.00330000
_cell_length_b   19.00330000
_cell_length_c   15.28610000
_cell_angle_alpha   86.26850000
_cell_angle_beta   93.73150000
_cell_angle_gamma   54.86460000
_symmetry_Int_Tables_number   1
_chemical_formula_structural   Co2H27C44N10O7
_chemical_formula_sum   'Co8 H108 C176 N40 O28'
_cell_volume   4469.11611175
_cell_formula_units_Z   4
loop_
 _symmetry_equiv_pos_site_id
 _symmetry_equiv_pos_as_xyz
  1  'x, y, z'
loop_
 _atom_site_type_symbol
 _atom_site_label
 _atom_site_symmetry_multiplicity
 _atom_site_fract_x
 _atom_site_fract_y
 _atom_site_fract_z
 _atom_site_occupancy
 _atom_site_charge
Co  Co1  1  0.11440000  0.68402000  0.93244000  1.0 0.9110401196
Co  Co2  1  0.31598000  0.88560000  0.43244000  1.0 0.9110401196
Co  Co3  1  0.38467000  0.34283000  0.49918000  1.0 0.7432418687
Co  Co4  1  0.65717000  0.61533000  0.99918000  1.0 0.7432418687
Co  Co5  1  0.98170000  0.31006000  0.21829000  1.0 0.8295532091
Co  Co6  1  0.68994000  0.01830000  0.71829000  1.0 0.8295532091
Co  Co7  1  0.04258000  0.19274000  0.61093000  1.0 0.7217419965
Co  Co8  1  0.80726000  0.95742000  0.11093000  1.0 0.7217419965
H  H1  1  0.26500000  0.45900000  0.85900000  1.0 0.1397624675
H  H2  1  0.54100000  0.73500000  0.35900000  1.0 0.1397624675
H  H3  1  0.39250000  0.33010000  0.83430000  1.0 0.1107734194
H  H4  1  0.66990000  0.60750000  0.33430000  1.0 0.1107734194
H  H5  1  0.50080000  0.33780000  0.80280000  1.0 0.1212519112
H  H6  1  0.66220000  0.49920000  0.30280000  1.0 0.1212519112
H  H7  1  0.50060000  0.45700000  0.81170000  1.0 0.1308083062
H  H8  1  0.54300000  0.49940000  0.31170000  1.0 0.1308083062
H  H9  1  0.96630000  0.92970000  0.91800000  1.0 0.1397624675
H  H10  1  0.07030000  0.03370000  0.41800000  1.0 0.1397624675
H  H11  1  0.93470000  0.06910000  0.91340000  1.0 0.1107734194
H  H12  1  0.93090000  0.06530000  0.41340000  1.0 0.1107734194
H  H13  1  0.04240000  0.08980000  0.92120000  1.0 0.1107734194
H  H14  1  0.91020000  0.95760000  0.42120000  1.0 0.1107734194
H  H15  1  0.18570000  0.97570000  0.90840000  1.0 0.1212519112
H  H16  1  0.02430000  0.81430000  0.40840000  1.0 0.1212519112
H  H17  1  0.08540000  0.47360000  0.05920000  1.0 0.1212519112
H  H18  1  0.52640000  0.91460000  0.55920000  1.0 0.1212519112
H  H19  1  0.19940000  0.33320000  0.29930000  1.0 0.1212519112
H  H20  1  0.66680000  0.80060000  0.79930000  1.0 0.1212519112
H  H21  1  0.25510000  0.49610000  0.20180000  1.0 0.1308083062
H  H22  1  0.50390000  0.74490000  0.70180000  1.0 0.1308083062
H  H23  1  0.18480000  0.34740000  0.50970000  1.0 0.1397624675
H  H24  1  0.65260000  0.81520000  0.00970000  1.0 0.1397624675
H  H25  1  0.04640000  0.39640000  0.54010000  1.0 0.1212519112
H  H26  1  0.60360000  0.95360000  0.04010000  1.0 0.1212519112
H  H27  1  0.96480000  0.51880000  0.60960000  1.0 0.1034859976
H  H28  1  0.48120000  0.03520000  0.10960000  1.0 0.1034859976
H  H29  1  0.01850000  0.59670000  0.65080000  1.0 0.1397624675
H  H30  1  0.40330000  0.98150000  0.15080000  1.0 0.1397624675
H  H31  1  0.57340000  0.36260000  0.51070000  1.0 0.1308083062
H  H32  1  0.63740000  0.42660000  0.01070000  1.0 0.1308083062
H  H33  1  0.64380000  0.42780000  0.53070000  1.0 0.1107734194
H  H34  1  0.57220000  0.35620000  0.03070000  1.0 0.1107734194
H  H35  1  0.57770000  0.55870000  0.58770000  1.0 0.1212519112
H  H36  1  0.44130000  0.42230000  0.08770000  1.0 0.1212519112
H  H37  1  0.43830000  0.62990000  0.62230000  1.0 0.1483334098
H  H38  1  0.37010000  0.56170000  0.12230000  1.0 0.1483334098
H  H39  1  0.48770000  0.33710000  0.29280000  1.0 0.1397624675
H  H40  1  0.66290000  0.51230000  0.79280000  1.0 0.1397624675
H  H41  1  0.59420000  0.27840000  0.19900000  1.0 0.1107734194
H  H42  1  0.72160000  0.40580000  0.69900000  1.0 0.1107734194
H  H43  1  0.73160000  0.15440000  0.24480000  1.0 0.1212519112
H  H44  1  0.84560000  0.26840000  0.74480000  1.0 0.1212519112
H  H45  1  0.76650000  0.07970000  0.38650000  1.0 0.1308083062
H  H46  1  0.92030000  0.23350000  0.88650000  1.0 0.1308083062
H  H47  1  0.29160000  0.30300000  0.69170000  1.0 0.1308083062
H  H48  1  0.69700000  0.70840000  0.19170000  1.0 0.1308083062
H  H49  1  0.29490000  0.23810000  0.82580000  1.0 0.1107734194
H  H50  1  0.76190000  0.70510000  0.32580000  1.0 0.1107734194
H  H51  1  0.42360000  0.12060000  0.90170000  1.0 0.1107734194
H  H52  1  0.87940000  0.57640000  0.40170000  1.0 0.1107734194
H  H53  1  0.55280000  0.06260000  0.84380000  1.0 0.1308083062
H  H54  1  0.93740000  0.44720000  0.34380000  1.0 0.1308083062
H  H55  1  0.81100000  0.32880000  0.23340000  1.0 0.1308083062
H  H56  1  0.67120000  0.18900000  0.73340000  1.0 0.1308083062
H  H57  1  0.69830000  0.33270000  0.28560000  1.0 0.1107734194
H  H58  1  0.66730000  0.30170000  0.78560000  1.0 0.1107734194
H  H59  1  0.70880000  0.28460000  0.43300000  1.0 0.1034859976
H  H60  1  0.71540000  0.29120000  0.93300000  1.0 0.1034859976
H  H61  1  0.82570000  0.24410000  0.53600000  1.0 0.1397624675
H  H62  1  0.75590000  0.17430000  0.03600000  1.0 0.1397624675
H  H63  1  0.32330000  0.16330000  0.37290000  1.0 0.1308083062
H  H64  1  0.83670000  0.67670000  0.87290000  1.0 0.1308083062
H  H65  1  0.43280000  0.10120000  0.48900000  1.0 0.1212519112
H  H66  1  0.89880000  0.56720000  0.98900000  1.0 0.1212519112
H  H67  1  0.40900000  0.08220000  0.63030000  1.0 0.1107734194
H  H68  1  0.91780000  0.59100000  0.13030000  1.0 0.1107734194
H  H69  1  0.27350000  0.12530000  0.66230000  1.0 0.1212519112
H  H70  1  0.87470000  0.72650000  0.16230000  1.0 0.1212519112
H  H71  1  0.24550000  0.98410000  0.71530000  1.0 0.1483334098
H  H72  1  0.01590000  0.75450000  0.21530000  1.0 0.1483334098
H  H73  1  0.37390000  0.89430000  0.81430000  1.0 0.1212519112
H  H74  1  0.10570000  0.62610000  0.31430000  1.0 0.1212519112
H  H75  1  0.39960000  0.94420000  0.93530000  1.0 0.1107734194
H  H76  1  0.05580000  0.60040000  0.43530000  1.0 0.1107734194
H  H77  1  0.29900000  0.08560000  0.97020000  1.0 0.1397624675
H  H78  1  0.91440000  0.70100000  0.47020000  1.0 0.1397624675
H  H79  1  0.83980000  0.42000000  0.52500000  1.0 0.1397624675
H  H80  1  0.58000000  0.16020000  0.02500000  1.0 0.1397624675
H  H81  1  0.73250000  0.56230000  0.52720000  1.0 0.1212519112
H  H82  1  0.43770000  0.26750000  0.02720000  1.0 0.1212519112
H  H83  1  0.72490000  0.63230000  0.64900000  1.0 0.1212519112
H  H84  1  0.36770000  0.27510000  0.14900000  1.0 0.1212519112
H  H85  1  0.82880000  0.56100000  0.76850000  1.0 0.1483334098
H  H86  1  0.43900000  0.17120000  0.26850000  1.0 0.1483334098
H  H87  1  0.92560000  0.11180000  0.15670000  1.0 0.1212519112
H  H88  1  0.88820000  0.07440000  0.65670000  1.0 0.1212519112
H  H89  1  0.18070000  0.00990000  0.16960000  1.0 0.1212519112
H  H90  1  0.99010000  0.81930000  0.66960000  1.0 0.1212519112
H  H91  1  0.10010000  0.85730000  0.14120000  1.0 0.1308083062
H  H92  1  0.14270000  0.89990000  0.64120000  1.0 0.1308083062
H  H93  1  0.28680000  0.79620000  0.89860000  1.0 0.3102741562
H  H94  1  0.20380000  0.71320000  0.39860000  1.0 0.3102741562
H  H95  1  0.38730000  0.62990000  0.86080000  1.0 0.3102741562
H  H96  1  0.37010000  0.61270000  0.36080000  1.0 0.3102741562
H  H97  1  0.30000000  0.60940000  0.62430000  1.0 0.3102741562
H  H98  1  0.39060000  0.70000000  0.12430000  1.0 0.3102741562
H  H99  1  0.17050000  0.59290000  0.64190000  1.0 0.3189601941
H  H100  1  0.40710000  0.82950000  0.14190000  1.0 0.3189601941
H  H101  1  0.68720000  0.08880000  0.53870000  1.0 0.3189601941
H  H102  1  0.91120000  0.31280000  0.03870000  1.0 0.3189601941
H  H103  1  0.14530000  0.22910000  0.33880000  1.0 0.3189601941
H  H104  1  0.77090000  0.85470000  0.83880000  1.0 0.3189601941
H  H105  1  0.98160000  0.39180000  0.83060000  1.0 0.3189601941
H  H106  1  0.60820000  0.01840000  0.33060000  1.0 0.3189601941
H  H107  1  0.13780000  0.24000000  0.89280000  1.0 0.3189601941
H  H108  1  0.76000000  0.86220000  0.39280000  1.0 0.3189601941
C  C1  1  0.30780000  0.52940000  0.86880000  1.0 0.1397624675
C  C2  1  0.47060000  0.69220000  0.36880000  1.0 0.1397624675
C  C3  1  0.31110000  0.45410000  0.86350000  1.0 -0.1380629281
C  C4  1  0.54590000  0.68890000  0.36350000  1.0 -0.1380629281
C  C5  1  0.38740000  0.38140000  0.83830000  1.0 -0.1189286081
C  C6  1  0.61860000  0.61260000  0.33830000  1.0 -0.1189286081
C  C7  1  0.45220000  0.38680000  0.82020000  1.0 -0.1002269696
C  C8  1  0.61320000  0.54780000  0.32020000  1.0 -0.1002269696
C  C9  1  0.45370000  0.45670000  0.82490000  1.0 -0.1779651495
C  C10  1  0.54330000  0.54630000  0.32490000  1.0 -0.1779651495
C  C11  1  0.37810000  0.52950000  0.85150000  1.0 0.1308083062
C  C12  1  0.47050000  0.62190000  0.35150000  1.0 0.1308083062
C  C13  1  0.09610000  0.86930000  0.91380000  1.0 0.1581936079
C  C14  1  0.13070000  0.90390000  0.41380000  1.0 0.1581936079
C  C15  1  0.00980000  0.93820000  0.91600000  1.0 -0.1510152993
C  C16  1  0.06180000  0.99020000  0.41600000  1.0 -0.1510152993
C  C17  1  0.99190000  0.02130000  0.91500000  1.0 -0.1002269696
C  C18  1  0.97870000  0.00810000  0.41500000  1.0 -0.1002269696
C  C19  1  0.05680000  0.03460000  0.91640000  1.0 -0.1002269696
C  C20  1  0.96540000  0.94320000  0.41640000  1.0 -0.1002269696
C  C21  1  0.14240000  0.96700000  0.91080000  1.0 -0.1851010101
C  C22  1  0.03300000  0.85760000  0.41080000  1.0 -0.1851010101
C  C23  1  0.15920000  0.88520000  0.90910000  1.0 0.1483334098
C  C24  1  0.11480000  0.84080000  0.40910000  1.0 0.1483334098
C  C25  1  0.27530000  0.65510000  0.88820000  1.0 0.2677433613
C  C26  1  0.34490000  0.72470000  0.38820000  1.0 0.2677433613
C  C27  1  0.21810000  0.74630000  0.90210000  1.0 0.2489123963
C  C28  1  0.25370000  0.78190000  0.40210000  1.0 0.2489123963
C  C29  1  0.15230000  0.56330000  0.05140000  1.0 0.5195358617
C  C30  1  0.43670000  0.84770000  0.55140000  1.0 0.5195358617
C  C31  1  0.16820000  0.49500000  0.12060000  1.0 -0.0222787272
C  C32  1  0.50500000  0.83180000  0.62060000  1.0 -0.0222787272
C  C33  1  0.12270000  0.45830000  0.11060000  1.0 -0.1109023804
C  C34  1  0.54170000  0.87730000  0.61060000  1.0 -0.1109023804
C  C35  1  0.13360000  0.39820000  0.17840000  1.0 -0.0289564936
C  C36  1  0.60180000  0.86640000  0.67840000  1.0 -0.0289564936
C  C37  1  0.08130000  0.36310000  0.16940000  1.0 0.562888704
C  C38  1  0.63690000  0.91870000  0.66940000  1.0 0.562888704
C  C39  1  0.19180000  0.37360000  0.25470000  1.0 -0.1189286081
C  C40  1  0.62640000  0.80820000  0.75470000  1.0 -0.1189286081
C  C41  1  0.23860000  0.40940000  0.26420000  1.0 -0.0222787272
C  C42  1  0.59060000  0.76140000  0.76420000  1.0 -0.0222787272
C  C43  1  0.29970000  0.38170000  0.34680000  1.0 0.5323075278
C  C44  1  0.61830000  0.70030000  0.84680000  1.0 0.5323075278
C  C45  1  0.22520000  0.47120000  0.19600000  1.0 -0.1189286081
C  C46  1  0.52880000  0.77480000  0.69600000  1.0 -0.1189286081
C  C47  1  0.18360000  0.44420000  0.56070000  1.0 0.1397624675
C  C48  1  0.55580000  0.81640000  0.06070000  1.0 0.1397624675
C  C49  1  0.15180000  0.39700000  0.53710000  1.0 -0.1510152993
C  C50  1  0.60300000  0.84820000  0.03710000  1.0 -0.1510152993
C  C51  1  0.06940000  0.42640000  0.55580000  1.0 -0.1267014725
C  C52  1  0.57360000  0.93060000  0.05580000  1.0 -0.1267014725
C  C53  1  0.02000000  0.50060000  0.59800000  1.0 -0.1189286081
C  C54  1  0.49940000  0.98000000  0.09800000  1.0 -0.1189286081
C  C55  1  0.05160000  0.54740000  0.62280000  1.0 -0.1995563509
C  C56  1  0.45260000  0.94840000  0.12280000  1.0 -0.1995563509
C  C57  1  0.13490000  0.51790000  0.60420000  1.0 0.1581936079
C  C58  1  0.48210000  0.86510000  0.10420000  1.0 0.1581936079
C  C59  1  0.46110000  0.45750000  0.55470000  1.0 0.1397624675
C  C60  1  0.54250000  0.53890000  0.05470000  1.0 0.1397624675
C  C61  1  0.54600000  0.41560000  0.53290000  1.0 -0.1779651495
C  C62  1  0.58440000  0.45400000  0.03290000  1.0 -0.1779651495
C  C63  1  0.58770000  0.45470000  0.54530000  1.0 -0.1189286081
C  C64  1  0.54530000  0.41230000  0.04530000  1.0 -0.1189286081
C  C65  1  0.54740000  0.53440000  0.57930000  1.0 -0.1109023804
C  C66  1  0.46560000  0.45260000  0.07930000  1.0 -0.1109023804
C  C67  1  0.46510000  0.57670000  0.60050000  1.0 -0.1671226226
C  C68  1  0.42330000  0.53490000  0.10050000  1.0 -0.1671226226
C  C69  1  0.42200000  0.53740000  0.58820000  1.0 0.1308083062
C  C70  1  0.46260000  0.57800000  0.08820000  1.0 0.1308083062
C  C71  1  0.25890000  0.49490000  0.58270000  1.0 0.2616174294
C  C72  1  0.50510000  0.74110000  0.08270000  1.0 0.2616174294
C  C73  1  0.33333333  0.49890000  0.58100000  1.0 0.2677433613
C  C74  1  0.50110000  0.66666667  0.08100000  1.0 0.2677433613
C  C75  1  0.56230000  0.23870000  0.39680000  1.0 0.1397624675
C  C76  1  0.76130000  0.43770000  0.89680000  1.0 0.1397624675
C  C77  1  0.54190000  0.28550000  0.31090000  1.0 -0.1568726527
C  C78  1  0.71450000  0.45810000  0.81090000  1.0 -0.1568726527
C  C79  1  0.60660000  0.25060000  0.25600000  1.0 -0.1189286081
C  C80  1  0.74940000  0.39340000  0.75600000  1.0 -0.1189286081
C  C81  1  0.68990000  0.17490000  0.28350000  1.0 -0.0907167139
C  C82  1  0.82510000  0.31010000  0.78350000  1.0 -0.0907167139
C  C83  1  0.71120000  0.12980000  0.36760000  1.0 -0.1995563509
C  C84  1  0.87020000  0.28880000  0.86760000  1.0 -0.1995563509
C  C85  1  0.64420000  0.16400000  0.42280000  1.0 0.1308083062
C  C86  1  0.83600000  0.35580000  0.92280000  1.0 0.1308083062
C  C87  1  0.42200000  0.22360000  0.68610000  1.0 0.1581936079
C  C88  1  0.77640000  0.57800000  0.18610000  1.0 0.1581936079
C  C89  1  0.34400000  0.25580000  0.72170000  1.0 -0.1671226226
C  C90  1  0.74420000  0.65600000  0.22170000  1.0 -0.1671226226
C  C91  1  0.34640000  0.21660000  0.80160000  1.0 -0.1189286081
C  C92  1  0.78340000  0.65360000  0.30160000  1.0 -0.1109023804
C  C93  1  0.42410000  0.14530000  0.84740000  1.0 -0.1189286081
C  C94  1  0.85470000  0.57590000  0.34740000  1.0 -0.1189286081
C  C95  1  0.50120000  0.11080000  0.81390000  1.0 -0.1568726527
C  C96  1  0.88920000  0.49880000  0.31390000  1.0 -0.1568726527
C  C97  1  0.49900000  0.15200000  0.73140000  1.0 0.1483334098
C  C98  1  0.84800000  0.50100000  0.23140000  1.0 0.1483334098
C  C99  1  0.56230000  0.19110000  0.52870000  1.0 0.2489123963
C  C100  1  0.80890000  0.43770000  0.02870000  1.0 0.2489123963
C  C101  1  0.52720000  0.18580000  0.60580000  1.0 0.2402723057
C  C102  1  0.81420000  0.47280000  0.10580000  1.0 0.2402723057
C  C103  1  0.88640000  0.28780000  0.35380000  1.0 0.1483334098
C  C104  1  0.71220000  0.11360000  0.85380000  1.0 0.1483334098
C  C105  1  0.81350000  0.31310000  0.29300000  1.0 -0.1671226226
C  C106  1  0.68690000  0.18650000  0.79300000  1.0 -0.1671226226
C  C107  1  0.74770000  0.31390000  0.32390000  1.0 -0.1189286081
C  C108  1  0.68610000  0.25230000  0.82390000  1.0 -0.1189286081
C  C109  1  0.75370000  0.28610000  0.41450000  1.0 -0.1189286081
C  C110  1  0.71390000  0.24630000  0.91450000  1.0 -0.1189286081
C  C111  1  0.82340000  0.26080000  0.47670000  1.0 -0.1779651495
C  C112  1  0.73920000  0.17660000  0.97670000  1.0 -0.1779651495
C  C113  1  0.89140000  0.26240000  0.44350000  1.0 0.1655004693
C  C114  1  0.73760000  0.10860000  0.94350000  1.0 0.1655004693
C  C115  1  0.23290000  0.17750000  0.44800000  1.0 0.1397624675
C  C116  1  0.82250000  0.76710000  0.94800000  1.0 0.1397624675
C  C117  1  0.31340000  0.15460000  0.43010000  1.0 -0.1671226226
C  C118  1  0.84540000  0.68660000  0.93010000  1.0 -0.1671226226
C  C119  1  0.37760000  0.11860000  0.49960000  1.0 -0.0793475026
C  C120  1  0.88140000  0.62240000  0.99960000  1.0 -0.0793475026
C  C121  1  0.36330000  0.10730000  0.58490000  1.0 -0.1002269696
C  C122  1  0.89270000  0.63670000  0.08490000  1.0 -0.1002269696
C  C123  1  0.28310000  0.13230000  0.60450000  1.0 -0.1671226226
C  C124  1  0.86770000  0.71690000  0.10450000  1.0 -0.1671226226
C  C125  1  0.21650000  0.16870000  0.53420000  1.0 0.1397624675
C  C126  1  0.83130000  0.78350000  0.03420000  1.0 0.1397624675
C  C127  1  0.00880000  0.24960000  0.42130000  1.0 0.2489123963
C  C128  1  0.75040000  0.99120000  0.92130000  1.0 0.2489123963
C  C129  1  0.09790000  0.22210000  0.44840000  1.0 0.2948060853
C  C130  1  0.77790000  0.90210000  0.94840000  1.0 0.2948060853
C  C131  1  0.19920000  0.08880000  0.78360000  1.0 0.1397624675
C  C132  1  0.91120000  0.80080000  0.28360000  1.0 0.1397624675
C  C133  1  0.25670000  0.00410000  0.76450000  1.0 -0.1380629281
C  C134  1  0.99590000  0.74330000  0.26450000  1.0 -0.1380629281
C  C135  1  0.33280000  0.95100000  0.82440000  1.0 -0.1267014725
C  C136  1  0.04900000  0.66720000  0.32440000  1.0 -0.1267014725
C  C137  1  0.34790000  0.98150000  0.89800000  1.0 -0.0907167139
C  C138  1  0.01850000  0.65210000  0.39800000  1.0 -0.0907167139
C  C139  1  0.28880000  0.06640000  0.91970000  1.0 -0.2106526869
C  C140  1  0.93360000  0.71120000  0.41970000  1.0 -0.2106526869
C  C141  1  0.21430000  0.11870000  0.85940000  1.0 0.1483334098
C  C142  1  0.88130000  0.78570000  0.35940000  1.0 0.1483334098
C  C143  1  0.90200000  0.40080000  0.64680000  1.0 0.1397624675
C  C144  1  0.59920000  0.09800000  0.14680000  1.0 0.1397624675
C  C145  1  0.83830000  0.44710000  0.57410000  1.0 -0.1510152993
C  C146  1  0.55290000  0.16170000  0.07410000  1.0 -0.1510152993
C  C147  1  0.77460000  0.53140000  0.57580000  1.0 -0.0907167139
C  C148  1  0.46860000  0.22540000  0.07580000  1.0 -0.1002269696
C  C149  1  0.77040000  0.57420000  0.65000000  1.0 -0.0793475026
C  C150  1  0.42580000  0.22960000  0.15000000  1.0 -0.0793475026
C  C151  1  0.83040000  0.53300000  0.72030000  1.0 -0.1671226226
C  C152  1  0.46700000  0.16960000  0.22030000  1.0 -0.1671226226
C  C153  1  0.89580000  0.44540000  0.71790000  1.0 0.1308083062
C  C154  1  0.55460000  0.10420000  0.21790000  1.0 0.1308083062
C  C155  1  0.09230000  0.22530000  0.78070000  1.0 0.2616174294
C  C156  1  0.77470000  0.90770000  0.28070000  1.0 0.2616174294
C  C157  1  0.01090000  0.30950000  0.74260000  1.0 0.2677433613
C  C158  1  0.69050000  0.98910000  0.24260000  1.0 0.2677433613
C  C159  1  0.93100000  0.97000000  0.13630000  1.0 0.5323075278
C  C160  1  0.03000000  0.06900000  0.63630000  1.0 0.5323075278
C  C161  1  0.00360000  0.98160000  0.14660000  1.0 -0.0107252691
C  C162  1  0.01840000  0.99640000  0.64660000  1.0 -0.0107252691
C  C163  1  0.98270000  0.06450000  0.15610000  1.0 -0.1189286081
C  C164  1  0.93550000  0.01730000  0.65610000  1.0 -0.1189286081
C  C165  1  0.05010000  0.07370000  0.16460000  1.0 -0.0107252691
C  C166  1  0.92630000  0.94990000  0.66460000  1.0 -0.0107252691
C  C167  1  0.03780000  0.15880000  0.17980000  1.0 0.5498832089
C  C168  1  0.84120000  0.96220000  0.67980000  1.0 0.5498832089
C  C169  1  0.13650000  0.00230000  0.16430000  1.0 -0.1189286081
C  C170  1  0.99770000  0.86350000  0.66430000  1.0 -0.1109023804
C  C171  1  0.15640000  0.92040000  0.15630000  1.0 -0.0289564936
C  C172  1  0.07960000  0.84360000  0.65630000  1.0 -0.0289564936
C  C173  1  0.25020000  0.84580000  0.15940000  1.0 0.5374333782
C  C174  1  0.15420000  0.74980000  0.65940000  1.0 0.5374333782
C  C175  1  0.08810000  0.91150000  0.14710000  1.0 -0.1109023804
C  C176  1  0.08850000  0.91190000  0.64710000  1.0 -0.1109023804
N  N1  1  0.24220000  0.61000000  0.89100000  1.0 -0.3866991279
N  N2  1  0.39000000  0.75780000  0.39100000  1.0 -0.3866991279
N  N3  1  0.13490000  0.78170000  0.91070000  1.0 -0.3806905525
N  N4  1  0.21830000  0.86510000  0.41070000  1.0 -0.3806905525
N  N5  1  0.23710000  0.80590000  0.90210000  1.0 -0.2934097575
N  N6  1  0.19410000  0.76290000  0.40210000  1.0 -0.2934097575
N  N7  1  0.35570000  0.61130000  0.86560000  1.0 -0.2771413204
N  N8  1  0.38870000  0.64430000  0.36560000  1.0 -0.2771413204
N  N9  1  0.26290000  0.43070000  0.54760000  1.0 -0.3866991279
N  N10  1  0.56930000  0.73710000  0.04760000  1.0 -0.3866991279
N  N11  1  0.40210000  0.43550000  0.54950000  1.0 -0.4003447619
N  N12  1  0.56450000  0.59790000  0.04950000  1.0 -0.4003447619
N  N13  1  0.33900000  0.56280000  0.60410000  1.0 -0.2974846589
N  N14  1  0.43720000  0.66100000  0.10410000  1.0 -0.2974846589
N  N15  1  0.18430000  0.54810000  0.61680000  1.0 -0.2771413204
N  N16  1  0.45190000  0.81570000  0.11680000  1.0 -0.2771413204
N  N17  1  0.51140000  0.25440000  0.46300000  1.0 -0.3806905525
N  N18  1  0.74560000  0.48860000  0.96300000  1.0 -0.3717973369
N  N19  1  0.44070000  0.24510000  0.60650000  1.0 -0.4003447619
N  N20  1  0.75490000  0.55930000  0.10650000  1.0 -0.4003447619
N  N21  1  0.56720000  0.12620000  0.68040000  1.0 -0.4155239838
N  N22  1  0.87380000  0.43280000  0.18040000  1.0 -0.4155239838
N  N23  1  0.64430000  0.13430000  0.50630000  1.0 -0.2771413204
N  N24  1  0.86570000  0.35570000  0.00630000  1.0 -0.2771413204
N  N25  1  0.96240000  0.27960000  0.34030000  1.0 -0.4113090413
N  N26  1  0.72040000  0.03760000  0.84030000  1.0 -0.4113090413
N  N27  1  0.15520000  0.21420000  0.39500000  1.0 -0.2717119681
N  N28  1  0.78580000  0.84480000  0.89500000  1.0 -0.2717119681
N  N29  1  0.12880000  0.19720000  0.53140000  1.0 -0.3866991279
N  N30  1  0.80280000  0.87120000  0.03140000  1.0 -0.3866991279
N  N31  1  0.96920000  0.23880000  0.48660000  1.0 -0.4003447619
N  N32  1  0.76120000  0.03080000  0.98660000  1.0 -0.4003447619
N  N33  1  0.11970000  0.15830000  0.73460000  1.0 -0.3717973369
N  N34  1  0.84170000  0.88030000  0.23460000  1.0 -0.3717973369
N  N35  1  0.97520000  0.31540000  0.66420000  1.0 -0.3717973369
N  N36  1  0.68460000  0.02480000  0.16420000  1.0 -0.3717973369
N  N37  1  0.96790000  0.38370000  0.77950000  1.0 -0.2974846589
N  N38  1  0.61630000  0.03210000  0.27950000  1.0 -0.2974846589
N  N39  1  0.14530000  0.20530000  0.85490000  1.0 -0.2974846589
N  N40  1  0.79470000  0.85470000  0.35490000  1.0 -0.2974846589
O  O1  1  0.05390000  0.69470000  0.81070000  1.0 -0.253899731
O  O2  1  0.30530000  0.94610000  0.31070000  1.0 -0.253899731
O  O3  1  0.18200000  0.60760000  0.06390000  1.0 -0.5658796208
O  O4  1  0.39240000  0.81800000  0.56390000  1.0 -0.5658796208
O  O5  1  0.00160000  0.77140000  0.99430000  1.0 -0.0691804031
O  O6  1  0.22860000  0.99840000  0.49430000  1.0 -0.0691804031
O  O7  1  0.10280000  0.58200000  0.97930000  1.0 -0.5270432211
O  O8  1  0.41800000  0.89720000  0.47930000  1.0 -0.5270432211
O  O9  1  0.07410000  0.32890000  0.24020000  1.0 -0.5658796208
O  O10  1  0.67110000  0.92590000  0.74020000  1.0 -0.5658796208
O  O11  1  0.04320000  0.36900000  0.09630000  1.0 -0.5774291532
O  O12  1  0.63100000  0.95680000  0.59630000  1.0 -0.5774291532
O  O13  1  0.31890000  0.31810000  0.39950000  1.0 -0.5270432211
O  O14  1  0.68190000  0.68110000  0.89950000  1.0 -0.5270432211
O  O15  1  0.32981000  0.42441000  0.36490000  1.0 -0.5567477124
O  O16  1  0.57559000  0.67019000  0.86490000  1.0 -0.5567477124
O  O17  1  0.85790000  0.02770000  0.15550000  1.0 -0.5382474439
O  O18  1  0.97230000  0.14210000  0.65550000  1.0 -0.5382474439
O  O19  1  0.94490000  0.90350000  0.10540000  1.0 -0.4828360157
O  O20  1  0.09650000  0.05510000  0.60540000  1.0 -0.4828360157
O  O21  1  0.26920000  0.77380000  0.13980000  1.0 -0.5953493195
O  O22  1  0.22620000  0.73080000  0.63980000  1.0 -0.5953493195
O  O23  1  0.30660000  0.85920000  0.18130000  1.0 -0.5270432211
O  O24  1  0.14080000  0.69340000  0.68130000  1.0 -0.5270432211
O  O25  1  0.96400000  0.22880000  0.15040000  1.0 -0.5774291532
O  O26  1  0.77120000  0.03600000  0.65040000  1.0 -0.5774291532
O  O27  1  0.09530000  0.16010000  0.22130000  1.0 -0.5196206348
O  O28  1  0.83990000  0.90470000  0.72130000  1.0 -0.5196206348
