# DDEC6 charges by PACMAN v1.1 (https://github.com/mtap-research/PACMAN-charge/)
data_GEGDED_ASR_pacman
_symmetry_space_group_name_H-M   'P 1'
_cell_length_a   12.24730000
_cell_length_b   25.91400000
_cell_length_c   25.91410000
_cell_angle_alpha   90.00000000
_cell_angle_beta   90.00000000
_cell_angle_gamma   90.00000000
_symmetry_Int_Tables_number   1
_chemical_formula_structural   Cu4H20C37O20
_chemical_formula_sum   'Cu16 H80 C148 O80'
_cell_volume   8224.52719308
_cell_formula_units_Z   4
loop_
 _symmetry_equiv_pos_site_id
 _symmetry_equiv_pos_as_xyz
  1  'x, y, z'
loop_
 _atom_site_type_symbol
 _atom_site_label
 _atom_site_symmetry_multiplicity
 _atom_site_fract_x
 _atom_site_fract_y
 _atom_site_fract_z
 _atom_site_occupancy
 _atom_site_charge
Cu  Cu1  1  0.07411000  0.49399000  0.03674000  1.0 0.8725974627
Cu  Cu2  1  0.92589000  0.50601000  0.53674000  1.0 0.8725974627
Cu  Cu3  1  0.07411000  0.00601000  0.96326000  1.0 0.8725974627
Cu  Cu4  1  0.92589000  0.99399000  0.46326000  1.0 0.8725974627
Cu  Cu5  1  0.92589000  0.50601000  0.96326000  1.0 0.8725974627
Cu  Cu6  1  0.07411000  0.49399000  0.46326000  1.0 0.8725974627
Cu  Cu7  1  0.92589000  0.99399000  0.03674000  1.0 0.8725974627
Cu  Cu8  1  0.07411000  0.00601000  0.53674000  1.0 0.8725974627
Cu  Cu9  1  0.99536000  0.70295000  0.75000000  1.0 0.859591841
Cu  Cu10  1  0.00464000  0.29705000  0.25000000  1.0 0.859591841
Cu  Cu11  1  0.99536000  0.79705000  0.25000000  1.0 0.859591841
Cu  Cu12  1  0.00464000  0.20295000  0.75000000  1.0 0.859591841
Cu  Cu13  1  0.14575000  0.77623000  0.75000000  1.0 0.859591841
Cu  Cu14  1  0.85425000  0.22377000  0.25000000  1.0 0.859591841
Cu  Cu15  1  0.14575000  0.72377000  0.25000000  1.0 0.859591841
Cu  Cu16  1  0.85425000  0.27623000  0.75000000  1.0 0.859591841
H  H1  1  0.09770000  0.61440000  0.87100000  1.0 0.1504141073
H  H2  1  0.90230000  0.38560000  0.37100000  1.0 0.1504141073
H  H3  1  0.09770000  0.88560000  0.12900000  1.0 0.1504141073
H  H4  1  0.90230000  0.11440000  0.62900000  1.0 0.1504141073
H  H5  1  0.90230000  0.38560000  0.12900000  1.0 0.1504141073
H  H6  1  0.09770000  0.61440000  0.62900000  1.0 0.1504141073
H  H7  1  0.90230000  0.11440000  0.87100000  1.0 0.1504141073
H  H8  1  0.09770000  0.88560000  0.37100000  1.0 0.1504141073
H  H9  1  0.33810000  0.71970000  0.88090000  1.0 0.1335882966
H  H10  1  0.66190000  0.28030000  0.38090000  1.0 0.1335882966
H  H11  1  0.33810000  0.78030000  0.11910000  1.0 0.1335882966
H  H12  1  0.66190000  0.21970000  0.61910000  1.0 0.1335882966
H  H13  1  0.66190000  0.28030000  0.11910000  1.0 0.1335882966
H  H14  1  0.33810000  0.71970000  0.61910000  1.0 0.1335882966
H  H15  1  0.66190000  0.21970000  0.88090000  1.0 0.1335882966
H  H16  1  0.33810000  0.78030000  0.38090000  1.0 0.1335882966
H  H17  1  0.30230000  0.61220000  0.99180000  1.0 0.1504141073
H  H18  1  0.69770000  0.38780000  0.49180000  1.0 0.1504141073
H  H19  1  0.30230000  0.88780000  0.00820000  1.0 0.1504141073
H  H20  1  0.69770000  0.11220000  0.50820000  1.0 0.1504141073
H  H21  1  0.69770000  0.38780000  0.00820000  1.0 0.1504141073
H  H22  1  0.30230000  0.61220000  0.50820000  1.0 0.1504141073
H  H23  1  0.69770000  0.11220000  0.99180000  1.0 0.1504141073
H  H24  1  0.30230000  0.88780000  0.49180000  1.0 0.1504141073
H  H25  1  0.51420000  0.72500000  0.92400000  1.0 0.1054628242
H  H26  1  0.48580000  0.27500000  0.42400000  1.0 0.1054628242
H  H27  1  0.51420000  0.77500000  0.07600000  1.0 0.1054628242
H  H28  1  0.48580000  0.22500000  0.57600000  1.0 0.1054628242
H  H29  1  0.48580000  0.27500000  0.07600000  1.0 0.1054628242
H  H30  1  0.51420000  0.72500000  0.57600000  1.0 0.1054628242
H  H31  1  0.48580000  0.22500000  0.92400000  1.0 0.1054628242
H  H32  1  0.51420000  0.77500000  0.42400000  1.0 0.1054628242
H  H33  1  0.41530000  0.75910000  0.94630000  1.0 0.1028924726
H  H34  1  0.58470000  0.24090000  0.44630000  1.0 0.1028924726
H  H35  1  0.41530000  0.74090000  0.05370000  1.0 0.1028924726
H  H36  1  0.58470000  0.25910000  0.55370000  1.0 0.1028924726
H  H37  1  0.58470000  0.24090000  0.05370000  1.0 0.1028924726
H  H38  1  0.41530000  0.75910000  0.55370000  1.0 0.1028924726
H  H39  1  0.58470000  0.25910000  0.94630000  1.0 0.1028924726
H  H40  1  0.41530000  0.74090000  0.44630000  1.0 0.1028924726
H  H41  1  0.66410000  0.69470000  0.98830000  1.0 0.1028924726
H  H42  1  0.33590000  0.30530000  0.48830000  1.0 0.1028924726
H  H43  1  0.66410000  0.80530000  0.01170000  1.0 0.1028924726
H  H44  1  0.33590000  0.19470000  0.51170000  1.0 0.1028924726
H  H45  1  0.33590000  0.30530000  0.01170000  1.0 0.1028924726
H  H46  1  0.66410000  0.69470000  0.51170000  1.0 0.1028924726
H  H47  1  0.33590000  0.19470000  0.98830000  1.0 0.1028924726
H  H48  1  0.66410000  0.80530000  0.48830000  1.0 0.1028924726
H  H49  1  0.56850000  0.67460000  0.02580000  1.0 0.1054628242
H  H50  1  0.43150000  0.32540000  0.52580000  1.0 0.1054628242
H  H51  1  0.56850000  0.82540000  0.97420000  1.0 0.1054628242
H  H52  1  0.43150000  0.17460000  0.47420000  1.0 0.1054628242
H  H53  1  0.43150000  0.32540000  0.97420000  1.0 0.1054628242
H  H54  1  0.56850000  0.67460000  0.47420000  1.0 0.1054628242
H  H55  1  0.43150000  0.17460000  0.02580000  1.0 0.1054628242
H  H56  1  0.56850000  0.82540000  0.52580000  1.0 0.1054628242
H  H57  1  0.78880000  0.74460000  0.13510000  1.0 0.1504141073
H  H58  1  0.21120000  0.25540000  0.63510000  1.0 0.1504141073
H  H59  1  0.78880000  0.75540000  0.86490000  1.0 0.1504141073
H  H60  1  0.21120000  0.24460000  0.36490000  1.0 0.1504141073
H  H61  1  0.21120000  0.25540000  0.86490000  1.0 0.1504141073
H  H62  1  0.78880000  0.74460000  0.36490000  1.0 0.1504141073
H  H63  1  0.21120000  0.24460000  0.13510000  1.0 0.1504141073
H  H64  1  0.78880000  0.75540000  0.63510000  1.0 0.1504141073
H  H65  1  0.00180000  0.62440000  0.13110000  1.0 0.1432455398
H  H66  1  0.99820000  0.37560000  0.63110000  1.0 0.1432455398
H  H67  1  0.00180000  0.87560000  0.86890000  1.0 0.1432455398
H  H68  1  0.99820000  0.12440000  0.36890000  1.0 0.1432455398
H  H69  1  0.99820000  0.37560000  0.86890000  1.0 0.1432455398
H  H70  1  0.00180000  0.62440000  0.36890000  1.0 0.1432455398
H  H71  1  0.99820000  0.12440000  0.13110000  1.0 0.1432455398
H  H72  1  0.00180000  0.87560000  0.63110000  1.0 0.1432455398
H  H73  1  0.75250000  0.63280000  0.02720000  1.0 0.1335882966
H  H74  1  0.24750000  0.36720000  0.52720000  1.0 0.1335882966
H  H75  1  0.75250000  0.86720000  0.97280000  1.0 0.1335882966
H  H76  1  0.24750000  0.13280000  0.47280000  1.0 0.1335882966
H  H77  1  0.24750000  0.36720000  0.97280000  1.0 0.1335882966
H  H78  1  0.75250000  0.63280000  0.47280000  1.0 0.1335882966
H  H79  1  0.24750000  0.13280000  0.02720000  1.0 0.1335882966
H  H80  1  0.75250000  0.86720000  0.52720000  1.0 0.1335882966
C  C1  1  0.12750000  0.56322000  0.95936000  1.0 0.5814306636
C  C2  1  0.87250000  0.43678000  0.45936000  1.0 0.5814306636
C  C3  1  0.12750000  0.93678000  0.04064000  1.0 0.5814306636
C  C4  1  0.87250000  0.06322000  0.54064000  1.0 0.5814306636
C  C5  1  0.87250000  0.43678000  0.04064000  1.0 0.5814306636
C  C6  1  0.12750000  0.56322000  0.54064000  1.0 0.5814306636
C  C7  1  0.87250000  0.06322000  0.95936000  1.0 0.5814306636
C  C8  1  0.12750000  0.93678000  0.45936000  1.0 0.5814306636
C  C9  1  0.19140000  0.60640000  0.93566000  1.0 0.002344952
C  C10  1  0.80860000  0.39360000  0.43566000  1.0 0.002344952
C  C11  1  0.19140000  0.89360000  0.06434000  1.0 0.002344952
C  C12  1  0.80860000  0.10640000  0.56434000  1.0 0.002344952
C  C13  1  0.80860000  0.39360000  0.06434000  1.0 0.002344952
C  C14  1  0.19140000  0.60640000  0.56434000  1.0 0.002344952
C  C15  1  0.80860000  0.10640000  0.93566000  1.0 0.002344952
C  C16  1  0.19140000  0.89360000  0.43566000  1.0 0.002344952
C  C17  1  0.15840000  0.62840000  0.88899000  1.0 -0.1306900017
C  C18  1  0.84160000  0.37160000  0.38899000  1.0 -0.1306900017
C  C19  1  0.15840000  0.87160000  0.11101000  1.0 -0.1306900017
C  C20  1  0.84160000  0.12840000  0.61101000  1.0 -0.1306900017
C  C21  1  0.84160000  0.37160000  0.11101000  1.0 -0.1306900017
C  C22  1  0.15840000  0.62840000  0.61101000  1.0 -0.1306900017
C  C23  1  0.84160000  0.12840000  0.88899000  1.0 -0.1306900017
C  C24  1  0.15840000  0.87160000  0.38899000  1.0 -0.1306900017
C  C25  1  0.21250000  0.66977000  0.86911000  1.0 0.0104782262
C  C26  1  0.78750000  0.33023000  0.36911000  1.0 0.0104782262
C  C27  1  0.21250000  0.83023000  0.13089000  1.0 0.0104782262
C  C28  1  0.78750000  0.16977000  0.63089000  1.0 0.0104782262
C  C29  1  0.78750000  0.33023000  0.13089000  1.0 0.0104782262
C  C30  1  0.21250000  0.66977000  0.63089000  1.0 0.0104782262
C  C31  1  0.78750000  0.16977000  0.86911000  1.0 0.0104782262
C  C32  1  0.21250000  0.83023000  0.36911000  1.0 0.0104782262
C  C33  1  0.30060000  0.69070000  0.89468000  1.0 -0.2319059714
C  C34  1  0.69940000  0.30930000  0.39468000  1.0 -0.2319059714
C  C35  1  0.30060000  0.80930000  0.10532000  1.0 -0.2319059714
C  C36  1  0.69940000  0.19070000  0.60532000  1.0 -0.2319059714
C  C37  1  0.69940000  0.30930000  0.10532000  1.0 -0.2319059714
C  C38  1  0.30060000  0.69070000  0.60532000  1.0 -0.2319059714
C  C39  1  0.69940000  0.19070000  0.89468000  1.0 -0.2319059714
C  C40  1  0.30060000  0.80930000  0.39468000  1.0 -0.2319059714
C  C41  1  0.33380000  0.66854000  0.94124000  1.0 0.2562655278
C  C42  1  0.66620000  0.33146000  0.44124000  1.0 0.2562655278
C  C43  1  0.33380000  0.83146000  0.05876000  1.0 0.2562655278
C  C44  1  0.66620000  0.16854000  0.55876000  1.0 0.2562655278
C  C45  1  0.66620000  0.33146000  0.05876000  1.0 0.2562655278
C  C46  1  0.33380000  0.66854000  0.55876000  1.0 0.2562655278
C  C47  1  0.66620000  0.16854000  0.94124000  1.0 0.2562655278
C  C48  1  0.33380000  0.83146000  0.44124000  1.0 0.2562655278
C  C49  1  0.27880000  0.62710000  0.96026000  1.0 -0.1980442328
C  C50  1  0.72120000  0.37290000  0.46026000  1.0 -0.1980442328
C  C51  1  0.27880000  0.87290000  0.03974000  1.0 -0.1980442328
C  C52  1  0.72120000  0.12710000  0.53974000  1.0 -0.1980442328
C  C53  1  0.72120000  0.37290000  0.03974000  1.0 -0.1980442328
C  C54  1  0.27880000  0.62710000  0.53974000  1.0 -0.1980442328
C  C55  1  0.72120000  0.12710000  0.96026000  1.0 -0.1980442328
C  C56  1  0.27880000  0.87290000  0.46026000  1.0 -0.1980442328
C  C57  1  0.16790000  0.69580000  0.82026000  1.0 0.5814306636
C  C58  1  0.83210000  0.30420000  0.32026000  1.0 0.5814306636
C  C59  1  0.16790000  0.80420000  0.17974000  1.0 0.5814306636
C  C60  1  0.83210000  0.19580000  0.67974000  1.0 0.5814306636
C  C61  1  0.83210000  0.30420000  0.17974000  1.0 0.5814306636
C  C62  1  0.16790000  0.69580000  0.67974000  1.0 0.5814306636
C  C63  1  0.83210000  0.19580000  0.82026000  1.0 0.5814306636
C  C64  1  0.16790000  0.80420000  0.32026000  1.0 0.5814306636
C  C65  1  0.46910000  0.73200000  0.95497000  1.0 -0.0811659328
C  C66  1  0.53090000  0.26800000  0.45497000  1.0 -0.0811659328
C  C67  1  0.46910000  0.76800000  0.04503000  1.0 -0.0811659328
C  C68  1  0.53090000  0.23200000  0.54503000  1.0 -0.0811659328
C  C69  1  0.53090000  0.26800000  0.04503000  1.0 -0.0811659328
C  C70  1  0.46910000  0.73200000  0.54503000  1.0 -0.0811659328
C  C71  1  0.53090000  0.23200000  0.95497000  1.0 -0.0811659328
C  C72  1  0.46910000  0.76800000  0.45497000  1.0 -0.0811659328
C  C73  1  0.54230000  0.75000000  0.00000000  1.0 0.046492895
C  C74  1  0.45770000  0.25000000  0.50000000  1.0 0.046492895
C  C75  1  0.45770000  0.25000000  0.00000000  1.0 0.044514361
C  C76  1  0.54230000  0.75000000  0.50000000  1.0 0.046492895
C  C77  1  0.61400000  0.70473000  0.01653000  1.0 -0.0926354944
C  C78  1  0.38600000  0.29527000  0.51653000  1.0 -0.0926354944
C  C79  1  0.61400000  0.79527000  0.98347000  1.0 -0.0926354944
C  C80  1  0.38600000  0.20473000  0.48347000  1.0 -0.0926354944
C  C81  1  0.38600000  0.29527000  0.98347000  1.0 -0.0926354944
C  C82  1  0.61400000  0.70473000  0.48347000  1.0 -0.0926354944
C  C83  1  0.38600000  0.20473000  0.01653000  1.0 -0.0926354944
C  C84  1  0.61400000  0.79527000  0.51653000  1.0 -0.0926354944
C  C85  1  0.75790000  0.69360000  0.07741000  1.0 0.2670412131
C  C86  1  0.24210000  0.30640000  0.57741000  1.0 0.2670412131
C  C87  1  0.75790000  0.80640000  0.92259000  1.0 0.2670412131
C  C88  1  0.24210000  0.19360000  0.42259000  1.0 0.2670412131
C  C89  1  0.24210000  0.30640000  0.92259000  1.0 0.2670412131
C  C90  1  0.75790000  0.69360000  0.42259000  1.0 0.2670412131
C  C91  1  0.24210000  0.19360000  0.07741000  1.0 0.2670412131
C  C92  1  0.75790000  0.80640000  0.57741000  1.0 0.2670412131
C  C93  1  0.81340000  0.71360000  0.11941000  1.0 -0.2222448669
C  C94  1  0.18660000  0.28640000  0.61941000  1.0 -0.2222448669
C  C95  1  0.81340000  0.78640000  0.88059000  1.0 -0.2222448669
C  C96  1  0.18660000  0.21360000  0.38059000  1.0 -0.2222448669
C  C97  1  0.18660000  0.28640000  0.88059000  1.0 -0.2222448669
C  C98  1  0.81340000  0.71360000  0.38059000  1.0 -0.2222448669
C  C99  1  0.18660000  0.21360000  0.11941000  1.0 -0.2222448669
C  C100  1  0.81340000  0.78640000  0.61941000  1.0 -0.2222448669
C  C101  1  0.90520000  0.68840000  0.13875000  1.0 -0.0132172595
C  C102  1  0.09480000  0.31160000  0.63875000  1.0 -0.0132172595
C  C103  1  0.90520000  0.81160000  0.86125000  1.0 -0.0132172595
C  C104  1  0.09480000  0.18840000  0.36125000  1.0 -0.0132172595
C  C105  1  0.09480000  0.31160000  0.86125000  1.0 -0.0132172595
C  C106  1  0.90520000  0.68840000  0.36125000  1.0 -0.0132172595
C  C107  1  0.09480000  0.18840000  0.13875000  1.0 -0.0132172595
C  C108  1  0.90520000  0.81160000  0.63875000  1.0 -0.0132172595
C  C109  1  0.94000000  0.64190000  0.11755000  1.0 -0.1424860459
C  C110  1  0.06000000  0.35810000  0.61755000  1.0 -0.1424860459
C  C111  1  0.94000000  0.85810000  0.88245000  1.0 -0.1424860459
C  C112  1  0.06000000  0.14190000  0.38245000  1.0 -0.1424860459
C  C113  1  0.06000000  0.35810000  0.88245000  1.0 -0.1424860459
C  C114  1  0.94000000  0.64190000  0.38245000  1.0 -0.1424860459
C  C115  1  0.06000000  0.14190000  0.11755000  1.0 -0.1424860459
C  C116  1  0.94000000  0.85810000  0.61755000  1.0 -0.1424860459
C  C117  1  0.88150000  0.62139000  0.07543000  1.0 0.002344952
C  C118  1  0.11850000  0.37861000  0.57543000  1.0 0.002344952
C  C119  1  0.88150000  0.87861000  0.92457000  1.0 0.002344952
C  C120  1  0.11850000  0.12139000  0.42457000  1.0 0.002344952
C  C121  1  0.11850000  0.37861000  0.92457000  1.0 0.002344952
C  C122  1  0.88150000  0.62139000  0.42457000  1.0 0.002344952
C  C123  1  0.11850000  0.12139000  0.07543000  1.0 0.002344952
C  C124  1  0.88150000  0.87861000  0.57543000  1.0 0.002344952
C  C125  1  0.79140000  0.64700000  0.05558000  1.0 -0.2430721901
C  C126  1  0.20860000  0.35300000  0.55558000  1.0 -0.2430721901
C  C127  1  0.79140000  0.85300000  0.94442000  1.0 -0.2430721901
C  C128  1  0.20860000  0.14700000  0.44442000  1.0 -0.2430721901
C  C129  1  0.20860000  0.35300000  0.94442000  1.0 -0.2430721901
C  C130  1  0.79140000  0.64700000  0.44442000  1.0 -0.2430721901
C  C131  1  0.20860000  0.14700000  0.05558000  1.0 -0.2430721901
C  C132  1  0.79140000  0.85300000  0.55558000  1.0 -0.2430721901
C  C133  1  0.96570000  0.71400000  0.18098000  1.0 0.5814306636
C  C134  1  0.03430000  0.28600000  0.68098000  1.0 0.5814306636
C  C135  1  0.96570000  0.78600000  0.81902000  1.0 0.5814306636
C  C136  1  0.03430000  0.21400000  0.31902000  1.0 0.5814306636
C  C137  1  0.03430000  0.28600000  0.81902000  1.0 0.5814306636
C  C138  1  0.96570000  0.71400000  0.31902000  1.0 0.5814306636
C  C139  1  0.03430000  0.21400000  0.18098000  1.0 0.5814306636
C  C140  1  0.96570000  0.78600000  0.68098000  1.0 0.5814306636
C  C141  1  0.92200000  0.57323000  0.05025000  1.0 0.5814306636
C  C142  1  0.07800000  0.42677000  0.55025000  1.0 0.5814306636
C  C143  1  0.92200000  0.92677000  0.94975000  1.0 0.5814306636
C  C144  1  0.07800000  0.07323000  0.44975000  1.0 0.5814306636
C  C145  1  0.07800000  0.42677000  0.94975000  1.0 0.5814306636
C  C146  1  0.92200000  0.57323000  0.44975000  1.0 0.5814306636
C  C147  1  0.07800000  0.07323000  0.05025000  1.0 0.5814306636
C  C148  1  0.92200000  0.92677000  0.55025000  1.0 0.5814306636
O  O1  1  0.16300000  0.54371000  0.00007000  1.0 -0.5082109727
O  O2  1  0.83700000  0.45629000  0.50007000  1.0 -0.5082109727
O  O3  1  0.16300000  0.95629000  0.99993000  1.0 -0.5082109727
O  O4  1  0.83700000  0.04371000  0.49993000  1.0 -0.5082109727
O  O5  1  0.83700000  0.45629000  0.99993000  1.0 -0.5082109727
O  O6  1  0.16300000  0.54371000  0.49993000  1.0 -0.5082109727
O  O7  1  0.83700000  0.04371000  0.00007000  1.0 -0.5082109727
O  O8  1  0.16300000  0.95629000  0.50007000  1.0 -0.5082109727
O  O9  1  0.03710000  0.55218000  0.93730000  1.0 -0.5416268639
O  O10  1  0.96290000  0.44782000  0.43730000  1.0 -0.5416268639
O  O11  1  0.03710000  0.94782000  0.06270000  1.0 -0.5416268639
O  O12  1  0.96290000  0.05218000  0.56270000  1.0 -0.5416268639
O  O13  1  0.96290000  0.44782000  0.06270000  1.0 -0.5416268639
O  O14  1  0.03710000  0.55218000  0.56270000  1.0 -0.5416268639
O  O15  1  0.96290000  0.05218000  0.93730000  1.0 -0.5416268639
O  O16  1  0.03710000  0.94782000  0.43730000  1.0 -0.5416268639
O  O17  1  0.08300000  0.67320000  0.80222000  1.0 -0.5275616653
O  O18  1  0.91700000  0.32680000  0.30222000  1.0 -0.5275616653
O  O19  1  0.08300000  0.82680000  0.19778000  1.0 -0.5275616653
O  O20  1  0.91700000  0.17320000  0.69778000  1.0 -0.5275616653
O  O21  1  0.91700000  0.32680000  0.19778000  1.0 -0.5275616653
O  O22  1  0.08300000  0.67320000  0.69778000  1.0 -0.5275616653
O  O23  1  0.91700000  0.17320000  0.80222000  1.0 -0.5275616653
O  O24  1  0.08300000  0.82680000  0.30222000  1.0 -0.5275616653
O  O25  1  0.21670000  0.73454000  0.80404000  1.0 -0.4979855314
O  O26  1  0.78330000  0.26546000  0.30404000  1.0 -0.4979855314
O  O27  1  0.21670000  0.76546000  0.19596000  1.0 -0.4979855314
O  O28  1  0.78330000  0.23454000  0.69596000  1.0 -0.4979855314
O  O29  1  0.78330000  0.26546000  0.19596000  1.0 -0.4979855314
O  O30  1  0.21670000  0.73454000  0.69596000  1.0 -0.4979855314
O  O31  1  0.78330000  0.23454000  0.80404000  1.0 -0.4979855314
O  O32  1  0.21670000  0.76546000  0.30404000  1.0 -0.4979855314
O  O33  1  0.41510000  0.68672000  0.97070000  1.0 -0.189601884
O  O34  1  0.58490000  0.31328000  0.47070000  1.0 -0.189601884
O  O35  1  0.41510000  0.81328000  0.02930000  1.0 -0.189601884
O  O36  1  0.58490000  0.18672000  0.52930000  1.0 -0.189601884
O  O37  1  0.58490000  0.31328000  0.02930000  1.0 -0.189601884
O  O38  1  0.41510000  0.68672000  0.52930000  1.0 -0.189601884
O  O39  1  0.58490000  0.18672000  0.97070000  1.0 -0.189601884
O  O40  1  0.41510000  0.81328000  0.47070000  1.0 -0.189601884
O  O41  1  0.67440000  0.72237000  0.06031000  1.0 -0.1980442328
O  O42  1  0.32560000  0.27763000  0.56031000  1.0 -0.1980442328
O  O43  1  0.67440000  0.77763000  0.93969000  1.0 -0.1980442328
O  O44  1  0.32560000  0.22237000  0.43969000  1.0 -0.1980442328
O  O45  1  0.32560000  0.27763000  0.93969000  1.0 -0.1980442328
O  O46  1  0.67440000  0.72237000  0.43969000  1.0 -0.1980442328
O  O47  1  0.32560000  0.22237000  0.06031000  1.0 -0.1980442328
O  O48  1  0.67440000  0.77763000  0.56031000  1.0 -0.1980442328
O  O49  1  0.87540000  0.56088000  0.00899000  1.0 -0.5275616653
O  O50  1  0.12460000  0.43912000  0.50899000  1.0 -0.5275616653
O  O51  1  0.87540000  0.93912000  0.99101000  1.0 -0.5275616653
O  O52  1  0.12460000  0.06088000  0.49101000  1.0 -0.5275616653
O  O53  1  0.12460000  0.43912000  0.99101000  1.0 -0.5275616653
O  O54  1  0.87540000  0.56088000  0.49101000  1.0 -0.5275616653
O  O55  1  0.12460000  0.06088000  0.00899000  1.0 -0.5275616653
O  O56  1  0.87540000  0.93912000  0.50899000  1.0 -0.5275616653
O  O57  1  0.00190000  0.55159000  0.07070000  1.0 -0.5082109727
O  O58  1  0.99810000  0.44841000  0.57070000  1.0 -0.5082109727
O  O59  1  0.00190000  0.94841000  0.92930000  1.0 -0.5082109727
O  O60  1  0.99810000  0.05159000  0.42930000  1.0 -0.5082109727
O  O61  1  0.99810000  0.44841000  0.92930000  1.0 -0.5082109727
O  O62  1  0.00190000  0.55159000  0.42930000  1.0 -0.5082109727
O  O63  1  0.99810000  0.05159000  0.07070000  1.0 -0.5082109727
O  O64  1  0.00190000  0.94841000  0.57070000  1.0 -0.5082109727
O  O65  1  0.05290000  0.69264000  0.19693000  1.0 -0.5217476122
O  O66  1  0.94710000  0.30736000  0.69693000  1.0 -0.5217476122
O  O67  1  0.05290000  0.80736000  0.80307000  1.0 -0.5217476122
O  O68  1  0.94710000  0.19264000  0.30307000  1.0 -0.5217476122
O  O69  1  0.94710000  0.30736000  0.80307000  1.0 -0.5217476122
O  O70  1  0.05290000  0.69264000  0.30307000  1.0 -0.5217476122
O  O71  1  0.94710000  0.19264000  0.19693000  1.0 -0.5217476122
O  O72  1  0.05290000  0.80736000  0.69693000  1.0 -0.5217476122
O  O73  1  0.92790000  0.75513000  0.19809000  1.0 -0.5217476122
O  O74  1  0.07210000  0.24487000  0.69809000  1.0 -0.5217476122
O  O75  1  0.92790000  0.74487000  0.80191000  1.0 -0.5217476122
O  O76  1  0.07210000  0.25513000  0.30191000  1.0 -0.5217476122
O  O77  1  0.07210000  0.24487000  0.80191000  1.0 -0.5217476122
O  O78  1  0.92790000  0.75513000  0.30191000  1.0 -0.5217476122
O  O79  1  0.07210000  0.25513000  0.19809000  1.0 -0.5217476122
O  O80  1  0.92790000  0.74487000  0.69809000  1.0 -0.5217476122
