# DDEC6 charges by PACMAN v1.1 (https://github.com/mtap-research/PACMAN-charge/)
data_GEHDAB_FSR_pacman
_symmetry_space_group_name_H-M   'P 1'
_cell_length_a   23.34220000
_cell_length_b   23.34220000
_cell_length_c   23.34220000
_cell_angle_alpha   109.47100000
_cell_angle_beta   109.47100000
_cell_angle_gamma   109.47100000
_symmetry_Int_Tables_number   1
_chemical_formula_structural   CeC16(N3O4)2
_chemical_formula_sum   'Ce12 C192 N72 O96'
_cell_volume   9790.54830285
_cell_formula_units_Z   12
loop_
 _symmetry_equiv_pos_site_id
 _symmetry_equiv_pos_as_xyz
  1  'x, y, z'
loop_
 _atom_site_type_symbol
 _atom_site_label
 _atom_site_symmetry_multiplicity
 _atom_site_fract_x
 _atom_site_fract_y
 _atom_site_fract_z
 _atom_site_occupancy
 _atom_site_charge
Ce  Ce1  1  0.00000000  0.17082000  0.50000000  1.0 2.0129569044
Ce  Ce2  1  0.17082000  0.50000000  0.00000000  1.0 2.0129569044
Ce  Ce3  1  0.50000000  0.00000000  0.17082000  1.0 2.0129569044
Ce  Ce4  1  0.32918000  0.32918000  0.32918000  1.0 2.0129569044
Ce  Ce5  1  0.00000000  0.82918000  0.50000000  1.0 2.0129569044
Ce  Ce6  1  0.82918000  0.50000000  0.00000000  1.0 2.0129569044
Ce  Ce7  1  0.50000000  0.00000000  0.82918000  1.0 2.0129569044
Ce  Ce8  1  0.67082000  0.67082000  0.67082000  1.0 2.0129569044
Ce  Ce9  1  0.00000000  0.00000000  0.50000000  1.0 1.8392951658
Ce  Ce10  1  0.00000000  0.50000000  0.00000000  1.0 1.8392951658
Ce  Ce11  1  0.50000000  0.00000000  0.00000000  1.0 1.8392951658
Ce  Ce12  1  0.50000000  0.50000000  0.50000000  1.0 1.8392951658
C  C1  1  0.61050000  0.98290000  0.25280000  1.0 0.5974161969
C  C2  1  0.67450000  0.98280000  0.29530000  1.0 -0.1258739334
C  C3  1  0.86790000  0.99600000  0.41110000  1.0 0.6374944544
C  C4  1  0.71770000  0.03110000  0.36560000  1.0 0.1670146065
C  C5  1  0.69400000  0.93740000  0.26200000  1.0 0.1178061397
C  C6  1  0.78350000  0.03530000  0.40360000  1.0 0.0263396273
C  C7  1  0.80010000  0.98950000  0.37100000  1.0 -0.1403715497
C  C8  1  0.75500000  0.93930000  0.29990000  1.0 0.1388190124
C  C9  1  0.23010000  0.35770000  0.24720000  1.0 0.5974161969
C  C10  1  0.18750000  0.37920000  0.20470000  1.0 -0.1258739334
C  C11  1  0.08490000  0.45680000  0.08890000  1.0 0.6374944544
C  C12  1  0.16550000  0.35210000  0.13440000  1.0 0.1670146065
C  C13  1  0.17540000  0.43200000  0.23800000  1.0 0.1178061397
C  C14  1  0.13170000  0.37990000  0.09640000  1.0 0.0263396273
C  C15  1  0.11850000  0.42910000  0.12900000  1.0 -0.1403715497
C  C16  1  0.13940000  0.45510000  0.20010000  1.0 0.1388190124
C  C17  1  0.88950000  0.14230000  0.37240000  1.0 0.5974161969
C  C18  1  0.82550000  0.12080000  0.30830000  1.0 -0.1258739334
C  C19  1  0.63210000  0.04320000  0.12810000  1.0 0.6374944544
C  C20  1  0.78230000  0.14790000  0.31340000  1.0 0.1670146065
C  C21  1  0.80600000  0.06800000  0.24340000  1.0 0.1178061397
C  C22  1  0.71650000  0.12010000  0.25180000  1.0 0.0263396273
C  C23  1  0.69990000  0.07090000  0.18940000  1.0 -0.1403715497
C  C24  1  0.74500000  0.04490000  0.18430000  1.0 0.1388190124
C  C25  1  0.26990000  0.51710000  0.12760000  1.0 0.5974161969
C  C26  1  0.31250000  0.51720000  0.19170000  1.0 -0.1258739334
C  C27  1  0.41510000  0.50400000  0.37190000  1.0 0.6374944544
C  C28  1  0.33450000  0.46890000  0.18660000  1.0 0.1670146065
C  C29  1  0.32460000  0.56260000  0.25660000  1.0 0.1178061397
C  C30  1  0.36830000  0.46470000  0.24820000  1.0 0.0263396273
C  C31  1  0.38150000  0.51050000  0.31060000  1.0 -0.1403715497
C  C32  1  0.36060000  0.56070000  0.31570000  1.0 0.1388190124
C  C33  1  0.51710000  0.12760000  0.26990000  1.0 0.5974161969
C  C34  1  0.51720000  0.19170000  0.31250000  1.0 -0.1258739334
C  C35  1  0.50400000  0.37190000  0.41510000  1.0 0.6374944544
C  C36  1  0.46890000  0.18660000  0.33450000  1.0 0.1670146065
C  C37  1  0.56260000  0.25660000  0.32460000  1.0 0.1178061397
C  C38  1  0.46470000  0.24820000  0.36830000  1.0 0.0263396273
C  C39  1  0.51050000  0.31060000  0.38150000  1.0 -0.1403715497
C  C40  1  0.56070000  0.31570000  0.36060000  1.0 0.1388190124
C  C41  1  0.14230000  0.37240000  0.88950000  1.0 0.5974161969
C  C42  1  0.12080000  0.30830000  0.82550000  1.0 -0.1258739334
C  C43  1  0.04320000  0.12810000  0.63210000  1.0 0.6374944544
C  C44  1  0.14790000  0.31340000  0.78230000  1.0 0.1670146065
C  C45  1  0.06800000  0.24340000  0.80600000  1.0 0.1178061397
C  C46  1  0.12010000  0.25180000  0.71650000  1.0 0.0263396273
C  C47  1  0.07090000  0.18940000  0.69990000  1.0 -0.1403715497
C  C48  1  0.04490000  0.18430000  0.74500000  1.0 0.1388190124
C  C49  1  0.35770000  0.24720000  0.23010000  1.0 0.5974161969
C  C50  1  0.37920000  0.20470000  0.18750000  1.0 -0.1258739334
C  C51  1  0.45680000  0.08890000  0.08490000  1.0 0.6374944544
C  C52  1  0.35210000  0.13440000  0.16550000  1.0 0.1670146065
C  C53  1  0.43200000  0.23800000  0.17540000  1.0 0.1178061397
C  C54  1  0.37990000  0.09640000  0.13170000  1.0 0.0263396273
C  C55  1  0.42910000  0.12900000  0.11850000  1.0 -0.1403715497
C  C56  1  0.45510000  0.20010000  0.13940000  1.0 0.1388190124
C  C57  1  0.98290000  0.25280000  0.61050000  1.0 0.5974161969
C  C58  1  0.98280000  0.29530000  0.67450000  1.0 -0.1258739334
C  C59  1  0.99600000  0.41110000  0.86790000  1.0 0.6374944544
C  C60  1  0.03110000  0.36560000  0.71770000  1.0 0.1670146065
C  C61  1  0.93740000  0.26200000  0.69400000  1.0 0.1178061397
C  C62  1  0.03530000  0.40360000  0.78350000  1.0 0.0263396273
C  C63  1  0.98950000  0.37100000  0.80010000  1.0 -0.1403715497
C  C64  1  0.93930000  0.29990000  0.75500000  1.0 0.1388190124
C  C65  1  0.37240000  0.88950000  0.14230000  1.0 0.5974161969
C  C66  1  0.30830000  0.82550000  0.12080000  1.0 -0.1258739334
C  C67  1  0.12810000  0.63210000  0.04320000  1.0 0.6374944544
C  C68  1  0.31340000  0.78230000  0.14790000  1.0 0.1670146065
C  C69  1  0.24340000  0.80600000  0.06800000  1.0 0.1178061397
C  C70  1  0.25180000  0.71650000  0.12010000  1.0 0.0263396273
C  C71  1  0.18940000  0.69990000  0.07090000  1.0 -0.1403715497
C  C72  1  0.18430000  0.74500000  0.04490000  1.0 0.1388190124
C  C73  1  0.12760000  0.26990000  0.51710000  1.0 0.5974161969
C  C74  1  0.19170000  0.31250000  0.51720000  1.0 -0.1258739334
C  C75  1  0.37190000  0.41510000  0.50400000  1.0 0.6374944544
C  C76  1  0.18660000  0.33450000  0.46890000  1.0 0.1670146065
C  C77  1  0.25660000  0.32460000  0.56260000  1.0 0.1178061397
C  C78  1  0.24820000  0.36830000  0.46470000  1.0 0.0263396273
C  C79  1  0.31060000  0.38150000  0.51050000  1.0 -0.1403715497
C  C80  1  0.31570000  0.36060000  0.56070000  1.0 0.1388190124
C  C81  1  0.25280000  0.61050000  0.98290000  1.0 0.5974161969
C  C82  1  0.29530000  0.67450000  0.98280000  1.0 -0.1258739334
C  C83  1  0.41110000  0.86790000  0.99600000  1.0 0.6374944544
C  C84  1  0.36560000  0.71770000  0.03110000  1.0 0.1670146065
C  C85  1  0.26200000  0.69400000  0.93740000  1.0 0.1178061397
C  C86  1  0.40360000  0.78350000  0.03530000  1.0 0.0263396273
C  C87  1  0.37100000  0.80010000  0.98950000  1.0 -0.1403715497
C  C88  1  0.29990000  0.75500000  0.93930000  1.0 0.1388190124
C  C89  1  0.24720000  0.23010000  0.35770000  1.0 0.5974161969
C  C90  1  0.20470000  0.18750000  0.37920000  1.0 -0.1258739334
C  C91  1  0.08890000  0.08490000  0.45680000  1.0 0.6374944544
C  C92  1  0.13440000  0.16550000  0.35210000  1.0 0.1670146065
C  C93  1  0.23800000  0.17540000  0.43200000  1.0 0.1178061397
C  C94  1  0.09640000  0.13170000  0.37990000  1.0 0.0263396273
C  C95  1  0.12900000  0.11850000  0.42910000  1.0 -0.1403715497
C  C96  1  0.20010000  0.13940000  0.45510000  1.0 0.1388190124
C  C97  1  0.38950000  0.01710000  0.74720000  1.0 0.5974161969
C  C98  1  0.32550000  0.01720000  0.70470000  1.0 -0.1258739334
C  C99  1  0.13210000  0.00400000  0.58890000  1.0 0.6374944544
C  C100  1  0.28230000  0.96890000  0.63440000  1.0 0.1670146065
C  C101  1  0.30600000  0.06260000  0.73800000  1.0 0.1178061397
C  C102  1  0.21650000  0.96470000  0.59640000  1.0 0.0263396273
C  C103  1  0.19990000  0.01050000  0.62900000  1.0 -0.1403715497
C  C104  1  0.24500000  0.06070000  0.70010000  1.0 0.1388190124
C  C105  1  0.76990000  0.64230000  0.75280000  1.0 0.5974161969
C  C106  1  0.81250000  0.62080000  0.79530000  1.0 -0.1258739334
C  C107  1  0.91510000  0.54320000  0.91110000  1.0 0.6374944544
C  C108  1  0.83450000  0.64790000  0.86560000  1.0 0.1670146065
C  C109  1  0.82460000  0.56800000  0.76200000  1.0 0.1178061397
C  C110  1  0.86830000  0.62010000  0.90360000  1.0 0.0263396273
C  C111  1  0.88150000  0.57090000  0.87100000  1.0 -0.1403715497
C  C112  1  0.86060000  0.54490000  0.79990000  1.0 0.1388190124
C  C113  1  0.11050000  0.85770000  0.62760000  1.0 0.5974161969
C  C114  1  0.17450000  0.87920000  0.69170000  1.0 -0.1258739334
C  C115  1  0.36790000  0.95680000  0.87190000  1.0 0.6374944544
C  C116  1  0.21770000  0.85210000  0.68660000  1.0 0.1670146065
C  C117  1  0.19400000  0.93200000  0.75660000  1.0 0.1178061397
C  C118  1  0.28350000  0.87990000  0.74820000  1.0 0.0263396273
C  C119  1  0.30010000  0.92910000  0.81060000  1.0 -0.1403715497
C  C120  1  0.25500000  0.95510000  0.81570000  1.0 0.1388190124
C  C121  1  0.73010000  0.48290000  0.87240000  1.0 0.5974161969
C  C122  1  0.68750000  0.48280000  0.80830000  1.0 -0.1258739334
C  C123  1  0.58490000  0.49600000  0.62810000  1.0 0.6374944544
C  C124  1  0.66550000  0.53110000  0.81340000  1.0 0.1670146065
C  C125  1  0.67540000  0.43740000  0.74340000  1.0 0.1178061397
C  C126  1  0.63170000  0.53530000  0.75180000  1.0 0.0263396273
C  C127  1  0.61850000  0.48950000  0.68940000  1.0 -0.1403715497
C  C128  1  0.63940000  0.43930000  0.68430000  1.0 0.1388190124
C  C129  1  0.48290000  0.87240000  0.73010000  1.0 0.5974161969
C  C130  1  0.48280000  0.80830000  0.68750000  1.0 -0.1241358647
C  C131  1  0.49600000  0.62810000  0.58490000  1.0 0.6374944544
C  C132  1  0.53110000  0.81340000  0.66550000  1.0 0.1670146065
C  C133  1  0.43740000  0.74340000  0.67540000  1.0 0.1178061397
C  C134  1  0.53530000  0.75180000  0.63170000  1.0 0.0263396273
C  C135  1  0.48950000  0.68940000  0.61850000  1.0 -0.1403715497
C  C136  1  0.43930000  0.68430000  0.63940000  1.0 0.1388190124
C  C137  1  0.85770000  0.62760000  0.11050000  1.0 0.5974161969
C  C138  1  0.87920000  0.69170000  0.17450000  1.0 -0.1258739334
C  C139  1  0.95680000  0.87190000  0.36790000  1.0 0.6374944544
C  C140  1  0.85210000  0.68660000  0.21770000  1.0 0.1670146065
C  C141  1  0.93200000  0.75660000  0.19400000  1.0 0.1178061397
C  C142  1  0.87990000  0.74820000  0.28350000  1.0 0.0263396273
C  C143  1  0.92910000  0.81060000  0.30010000  1.0 -0.1403715497
C  C144  1  0.95510000  0.81570000  0.25500000  1.0 0.1388190124
C  C145  1  0.64230000  0.75280000  0.76990000  1.0 0.5974161969
C  C146  1  0.62080000  0.79530000  0.81250000  1.0 -0.1258739334
C  C147  1  0.54320000  0.91110000  0.91510000  1.0 0.6374944544
C  C148  1  0.64790000  0.86560000  0.83450000  1.0 0.1670146065
C  C149  1  0.56800000  0.76200000  0.82460000  1.0 0.1178061397
C  C150  1  0.62010000  0.90360000  0.86830000  1.0 0.0263396273
C  C151  1  0.57090000  0.87100000  0.88150000  1.0 -0.1403715497
C  C152  1  0.54490000  0.79990000  0.86060000  1.0 0.1388190124
C  C153  1  0.01710000  0.74720000  0.38950000  1.0 0.5974161969
C  C154  1  0.01720000  0.70470000  0.32550000  1.0 -0.1241358647
C  C155  1  0.00400000  0.58890000  0.13210000  1.0 0.6374944544
C  C156  1  0.96890000  0.63440000  0.28230000  1.0 0.1670146065
C  C157  1  0.06260000  0.73800000  0.30600000  1.0 0.1178061397
C  C158  1  0.96470000  0.59640000  0.21650000  1.0 0.0263396273
C  C159  1  0.01050000  0.62900000  0.19990000  1.0 -0.1403715497
C  C160  1  0.06070000  0.70010000  0.24500000  1.0 0.1388190124
C  C161  1  0.62760000  0.11050000  0.85770000  1.0 0.5974161969
C  C162  1  0.69170000  0.17450000  0.87920000  1.0 -0.1258739334
C  C163  1  0.87190000  0.36790000  0.95680000  1.0 0.6374944544
C  C164  1  0.68660000  0.21770000  0.85210000  1.0 0.1670146065
C  C165  1  0.75660000  0.19400000  0.93200000  1.0 0.1178061397
C  C166  1  0.74820000  0.28350000  0.87990000  1.0 0.0263396273
C  C167  1  0.81060000  0.30010000  0.92910000  1.0 -0.1403715497
C  C168  1  0.81570000  0.25500000  0.95510000  1.0 0.1388190124
C  C169  1  0.87240000  0.73010000  0.48290000  1.0 0.5974161969
C  C170  1  0.80830000  0.68750000  0.48280000  1.0 -0.1258739334
C  C171  1  0.62810000  0.58490000  0.49600000  1.0 0.6374944544
C  C172  1  0.81340000  0.66550000  0.53110000  1.0 0.1670146065
C  C173  1  0.74340000  0.67540000  0.43740000  1.0 0.1178061397
C  C174  1  0.75180000  0.63170000  0.53530000  1.0 0.0263396273
C  C175  1  0.68940000  0.61850000  0.48950000  1.0 -0.1403715497
C  C176  1  0.68430000  0.63940000  0.43930000  1.0 0.1388190124
C  C177  1  0.74720000  0.38950000  0.01710000  1.0 0.5974161969
C  C178  1  0.70470000  0.32550000  0.01720000  1.0 -0.1258739334
C  C179  1  0.58890000  0.13210000  0.00400000  1.0 0.6374944544
C  C180  1  0.63440000  0.28230000  0.96890000  1.0 0.1670146065
C  C181  1  0.73800000  0.30600000  0.06260000  1.0 0.1178061397
C  C182  1  0.59640000  0.21650000  0.96470000  1.0 0.0263396273
C  C183  1  0.62900000  0.19990000  0.01050000  1.0 -0.1403715497
C  C184  1  0.70010000  0.24500000  0.06070000  1.0 0.1388190124
C  C185  1  0.75280000  0.76990000  0.64230000  1.0 0.5974161969
C  C186  1  0.79530000  0.81250000  0.62080000  1.0 -0.1258739334
C  C187  1  0.91110000  0.91510000  0.54320000  1.0 0.6374944544
C  C188  1  0.86560000  0.83450000  0.64790000  1.0 0.1670146065
C  C189  1  0.76200000  0.82460000  0.56800000  1.0 0.1178061397
C  C190  1  0.90360000  0.86830000  0.62010000  1.0 0.0263396273
C  C191  1  0.87100000  0.88150000  0.57090000  1.0 -0.1403715497
C  C192  1  0.79990000  0.86060000  0.54490000  1.0 0.1388190124
N  N1  1  0.77120000  0.89390000  0.25690000  1.0 -0.0118608006
N  N2  1  0.65390000  0.88540000  0.19150000  1.0 -0.0734234607
N  N3  1  0.70690000  0.08380000  0.40550000  1.0 -0.0566169922
N  N4  1  0.13700000  0.51430000  0.24310000  1.0 -0.0118608006
N  N5  1  0.19390000  0.46240000  0.30850000  1.0 -0.0734234607
N  N6  1  0.17830000  0.30140000  0.09450000  1.0 -0.0566169922
N  N7  1  0.72880000  0.98570000  0.12270000  1.0 -0.0118608006
N  N8  1  0.84610000  0.03760000  0.23150000  1.0 -0.0734234607
N  N9  1  0.79310000  0.19860000  0.37690000  1.0 -0.0566169922
N  N10  1  0.36300000  0.60610000  0.37730000  1.0 -0.0118608006
N  N11  1  0.30610000  0.61460000  0.26850000  1.0 -0.0734234607
N  N12  1  0.32170000  0.41620000  0.12310000  1.0 -0.0566169922
N  N13  1  0.60610000  0.37730000  0.36300000  1.0 -0.0118608006
N  N14  1  0.61460000  0.26850000  0.30610000  1.0 -0.0734234607
N  N15  1  0.41620000  0.12310000  0.32170000  1.0 -0.0566169922
N  N16  1  0.98570000  0.12270000  0.72880000  1.0 -0.0118608006
N  N17  1  0.03760000  0.23150000  0.84610000  1.0 -0.0734234607
N  N18  1  0.19860000  0.37690000  0.79310000  1.0 -0.0566169922
N  N19  1  0.51430000  0.24310000  0.13700000  1.0 -0.0118608006
N  N20  1  0.46240000  0.30850000  0.19390000  1.0 -0.0734234607
N  N21  1  0.30140000  0.09450000  0.17830000  1.0 -0.0566169922
N  N22  1  0.89390000  0.25690000  0.77120000  1.0 -0.0118608006
N  N23  1  0.88540000  0.19150000  0.65390000  1.0 -0.0760131617
N  N24  1  0.08380000  0.40550000  0.70690000  1.0 -0.0566169922
N  N25  1  0.12270000  0.72880000  0.98570000  1.0 -0.0118608006
N  N26  1  0.23150000  0.84610000  0.03760000  1.0 -0.0734234607
N  N27  1  0.37690000  0.79310000  0.19860000  1.0 -0.0566169922
N  N28  1  0.37730000  0.36300000  0.60610000  1.0 -0.0118608006
N  N29  1  0.26850000  0.30610000  0.61460000  1.0 -0.0734234607
N  N30  1  0.12310000  0.32170000  0.41620000  1.0 -0.0566169922
N  N31  1  0.25690000  0.77120000  0.89390000  1.0 -0.0118608006
N  N32  1  0.19150000  0.65390000  0.88540000  1.0 -0.0760131617
N  N33  1  0.40550000  0.70690000  0.08380000  1.0 -0.0566169922
N  N34  1  0.24310000  0.13700000  0.51430000  1.0 -0.0118608006
N  N35  1  0.30850000  0.19390000  0.46240000  1.0 -0.0734234607
N  N36  1  0.09450000  0.17830000  0.30140000  1.0 -0.0566169922
N  N37  1  0.22880000  0.10610000  0.74310000  1.0 -0.0118608006
N  N38  1  0.34610000  0.11460000  0.80850000  1.0 -0.0734234607
N  N39  1  0.29310000  0.91620000  0.59450000  1.0 -0.0566169922
N  N40  1  0.86300000  0.48570000  0.75690000  1.0 -0.0118608006
N  N41  1  0.80610000  0.53760000  0.69150000  1.0 -0.0734234607
N  N42  1  0.82170000  0.69860000  0.90550000  1.0 -0.0566169922
N  N43  1  0.27120000  0.01430000  0.87730000  1.0 -0.0118608006
N  N44  1  0.15390000  0.96240000  0.76850000  1.0 -0.0760131617
N  N45  1  0.20690000  0.80140000  0.62310000  1.0 -0.0566169922
N  N46  1  0.63700000  0.39390000  0.62270000  1.0 -0.0118608006
N  N47  1  0.69390000  0.38540000  0.73150000  1.0 -0.0734234607
N  N48  1  0.67830000  0.58380000  0.87690000  1.0 -0.0566169922
N  N49  1  0.39390000  0.62270000  0.63700000  1.0 -0.0118608006
N  N50  1  0.38540000  0.73150000  0.69390000  1.0 -0.0760131617
N  N51  1  0.58380000  0.87690000  0.67830000  1.0 -0.0566169922
N  N52  1  0.01430000  0.87730000  0.27120000  1.0 -0.0118608006
N  N53  1  0.96240000  0.76850000  0.15390000  1.0 -0.0760131617
N  N54  1  0.80140000  0.62310000  0.20690000  1.0 -0.0566169922
N  N55  1  0.48570000  0.75690000  0.86300000  1.0 -0.0118608006
N  N56  1  0.53760000  0.69150000  0.80610000  1.0 -0.0760131617
N  N57  1  0.69860000  0.90550000  0.82170000  1.0 -0.0566169922
N  N58  1  0.10610000  0.74310000  0.22880000  1.0 -0.0118608006
N  N59  1  0.11460000  0.80850000  0.34610000  1.0 -0.0734234607
N  N60  1  0.91620000  0.59450000  0.29310000  1.0 -0.0566169922
N  N61  1  0.87730000  0.27120000  0.01430000  1.0 -0.0118608006
N  N62  1  0.76850000  0.15390000  0.96240000  1.0 -0.0734234607
N  N63  1  0.62310000  0.20690000  0.80140000  1.0 -0.0566169922
N  N64  1  0.62270000  0.63700000  0.39390000  1.0 -0.0118608006
N  N65  1  0.73150000  0.69390000  0.38540000  1.0 -0.0734234607
N  N66  1  0.87690000  0.67830000  0.58380000  1.0 -0.0566169922
N  N67  1  0.74310000  0.22880000  0.10610000  1.0 -0.0118608006
N  N68  1  0.80850000  0.34610000  0.11460000  1.0 -0.0734234607
N  N69  1  0.59450000  0.29310000  0.91620000  1.0 -0.0566169922
N  N70  1  0.75690000  0.86300000  0.48570000  1.0 -0.0118608006
N  N71  1  0.69150000  0.80610000  0.53760000  1.0 -0.0760131617
N  N72  1  0.90550000  0.82170000  0.69860000  1.0 -0.0566169922
O  O1  1  0.59424000  0.02570000  0.28474000  1.0 -0.5631709401
O  O2  1  0.91458000  0.05107000  0.46791000  1.0 -0.6316615422
O  O3  1  0.57570000  0.94337000  0.18707000  1.0 -0.5631709401
O  O4  1  0.87925000  0.94640000  0.38605000  1.0 -0.4957388185
O  O5  1  0.24096000  0.30950000  0.21526000  1.0 -0.5631709401
O  O6  1  0.08316000  0.44667000  0.03209000  1.0 -0.6316615422
O  O7  1  0.25630000  0.38863000  0.31293000  1.0 -0.5631709401
O  O8  1  0.06035000  0.49320000  0.11395000  1.0 -0.4957388185
O  O9  1  0.90576000  0.19050000  0.43146000  1.0 -0.5631709401
O  O10  1  0.58542000  0.05333000  0.13649000  1.0 -0.6316615422
O  O11  1  0.92430000  0.11137000  0.36767000  1.0 -0.5631709401
O  O12  1  0.62075000  0.00680000  0.06715000  1.0 -0.4957388185
O  O13  1  0.25904000  0.47430000  0.06854000  1.0 -0.5631709401
O  O14  1  0.41684000  0.44893000  0.36351000  1.0 -0.6316615422
O  O15  1  0.24370000  0.55663000  0.13233000  1.0 -0.5631709401
O  O16  1  0.43965000  0.55360000  0.43285000  1.0 -0.4957388185
O  O17  1  0.47430000  0.06854000  0.25904000  1.0 -0.5631709401
O  O18  1  0.44893000  0.36351000  0.41684000  1.0 -0.6316615422
O  O19  1  0.55663000  0.13233000  0.24370000  1.0 -0.5631709401
O  O20  1  0.55360000  0.43285000  0.43965000  1.0 -0.4957388185
O  O21  1  0.19050000  0.43146000  0.90576000  1.0 -0.5631709401
O  O22  1  0.05333000  0.13649000  0.58542000  1.0 -0.6316615422
O  O23  1  0.11137000  0.36767000  0.92430000  1.0 -0.5631709401
O  O24  1  0.00680000  0.06715000  0.62075000  1.0 -0.4957388185
O  O25  1  0.30950000  0.21526000  0.24096000  1.0 -0.5631709401
O  O26  1  0.44667000  0.03209000  0.08316000  1.0 -0.6316615422
O  O27  1  0.38863000  0.31293000  0.25630000  1.0 -0.5631709401
O  O28  1  0.49320000  0.11395000  0.06035000  1.0 -0.493948383
O  O29  1  0.02570000  0.28474000  0.59424000  1.0 -0.5631709401
O  O30  1  0.05107000  0.46791000  0.91458000  1.0 -0.6316615422
O  O31  1  0.94337000  0.18707000  0.57570000  1.0 -0.5631709401
O  O32  1  0.94640000  0.38605000  0.87925000  1.0 -0.4957388185
O  O33  1  0.43146000  0.90576000  0.19050000  1.0 -0.5631709401
O  O34  1  0.13649000  0.58542000  0.05333000  1.0 -0.6316615422
O  O35  1  0.36767000  0.92430000  0.11137000  1.0 -0.5631709401
O  O36  1  0.06715000  0.62075000  0.00680000  1.0 -0.4957388185
O  O37  1  0.06854000  0.25904000  0.47430000  1.0 -0.5631709401
O  O38  1  0.36351000  0.41684000  0.44893000  1.0 -0.6316615422
O  O39  1  0.13233000  0.24370000  0.55663000  1.0 -0.5631709401
O  O40  1  0.43285000  0.43965000  0.55360000  1.0 -0.4957388185
O  O41  1  0.28474000  0.59424000  0.02570000  1.0 -0.5631709401
O  O42  1  0.46791000  0.91458000  0.05107000  1.0 -0.6316615422
O  O43  1  0.18707000  0.57570000  0.94337000  1.0 -0.5631709401
O  O44  1  0.38605000  0.87925000  0.94640000  1.0 -0.4957388185
O  O45  1  0.21526000  0.24096000  0.30950000  1.0 -0.5631709401
O  O46  1  0.03209000  0.08316000  0.44667000  1.0 -0.6316615422
O  O47  1  0.31293000  0.25630000  0.38863000  1.0 -0.5631709401
O  O48  1  0.11395000  0.06035000  0.49320000  1.0 -0.4957388185
O  O49  1  0.40576000  0.97430000  0.71526000  1.0 -0.5631709401
O  O50  1  0.08542000  0.94893000  0.53209000  1.0 -0.6316615422
O  O51  1  0.42430000  0.05663000  0.81293000  1.0 -0.5631709401
O  O52  1  0.12075000  0.05360000  0.61395000  1.0 -0.4957388185
O  O53  1  0.75904000  0.69050000  0.78474000  1.0 -0.5631709401
O  O54  1  0.91684000  0.55333000  0.96791000  1.0 -0.6316615422
O  O55  1  0.74370000  0.61137000  0.68707000  1.0 -0.5631709401
O  O56  1  0.93965000  0.50680000  0.88605000  1.0 -0.4957388185
O  O57  1  0.09424000  0.80950000  0.56854000  1.0 -0.5631709401
O  O58  1  0.41458000  0.94667000  0.86351000  1.0 -0.6316615422
O  O59  1  0.07570000  0.88863000  0.63233000  1.0 -0.5631709401
O  O60  1  0.37925000  0.99320000  0.93285000  1.0 -0.4957388185
O  O61  1  0.74096000  0.52570000  0.93146000  1.0 -0.5631709401
O  O62  1  0.58316000  0.55107000  0.63649000  1.0 -0.6316615422
O  O63  1  0.75630000  0.44337000  0.86767000  1.0 -0.5631709401
O  O64  1  0.56035000  0.44640000  0.56715000  1.0 -0.4957388185
O  O65  1  0.52570000  0.93146000  0.74096000  1.0 -0.5631709401
O  O66  1  0.55107000  0.63649000  0.58316000  1.0 -0.6316615422
O  O67  1  0.44337000  0.86767000  0.75630000  1.0 -0.5631709401
O  O68  1  0.44640000  0.56715000  0.56035000  1.0 -0.4957388185
O  O69  1  0.80950000  0.56854000  0.09424000  1.0 -0.5631709401
O  O70  1  0.94667000  0.86351000  0.41458000  1.0 -0.6316615422
O  O71  1  0.88863000  0.63233000  0.07570000  1.0 -0.5631709401
O  O72  1  0.99320000  0.93285000  0.37925000  1.0 -0.4957388185
O  O73  1  0.69050000  0.78474000  0.75904000  1.0 -0.5631709401
O  O74  1  0.55333000  0.96791000  0.91684000  1.0 -0.6316615422
O  O75  1  0.61137000  0.68707000  0.74370000  1.0 -0.5631709401
O  O76  1  0.50680000  0.88605000  0.93965000  1.0 -0.4957388185
O  O77  1  0.97430000  0.71526000  0.40576000  1.0 -0.5631709401
O  O78  1  0.94893000  0.53209000  0.08542000  1.0 -0.6316615422
O  O79  1  0.05663000  0.81293000  0.42430000  1.0 -0.5631709401
O  O80  1  0.05360000  0.61395000  0.12075000  1.0 -0.4957388185
O  O81  1  0.56854000  0.09424000  0.80950000  1.0 -0.5631709401
O  O82  1  0.86351000  0.41458000  0.94667000  1.0 -0.6316615422
O  O83  1  0.63233000  0.07570000  0.88863000  1.0 -0.5631709401
O  O84  1  0.93285000  0.37925000  0.99320000  1.0 -0.4957388185
O  O85  1  0.93146000  0.74096000  0.52570000  1.0 -0.5631709401
O  O86  1  0.63649000  0.58316000  0.55107000  1.0 -0.6316615422
O  O87  1  0.86767000  0.75630000  0.44337000  1.0 -0.5631709401
O  O88  1  0.56715000  0.56035000  0.44640000  1.0 -0.4957388185
O  O89  1  0.71526000  0.40576000  0.97430000  1.0 -0.5631709401
O  O90  1  0.53209000  0.08542000  0.94893000  1.0 -0.6316615422
O  O91  1  0.81293000  0.42430000  0.05663000  1.0 -0.5631709401
O  O92  1  0.61395000  0.12075000  0.05360000  1.0 -0.4957388185
O  O93  1  0.78474000  0.75904000  0.69050000  1.0 -0.5631709401
O  O94  1  0.96791000  0.91684000  0.55333000  1.0 -0.6316615422
O  O95  1  0.68707000  0.74370000  0.61137000  1.0 -0.5631709401
O  O96  1  0.88605000  0.93965000  0.50680000  1.0 -0.4957388185
