# DDEC6 charges by PACMAN v1.1 (https://github.com/mtap-research/PACMAN-charge/)
data_GEHSAN_ASR_pacman
_symmetry_space_group_name_H-M   'P 1'
_cell_length_a   11.30200000
_cell_length_b   13.73500000
_cell_length_c   13.53000000
_cell_angle_alpha   90.00000000
_cell_angle_beta   90.00000000
_cell_angle_gamma   97.17000000
_symmetry_Int_Tables_number   1
_chemical_formula_structural   Ca2Fe(CN)6
_chemical_formula_sum   'Ca8 Fe4 C24 N24'
_cell_volume   2083.87812011
_cell_formula_units_Z   4
loop_
 _symmetry_equiv_pos_site_id
 _symmetry_equiv_pos_as_xyz
  1  'x, y, z'
loop_
 _atom_site_type_symbol
 _atom_site_label
 _atom_site_symmetry_multiplicity
 _atom_site_fract_x
 _atom_site_fract_y
 _atom_site_fract_z
 _atom_site_occupancy
 _atom_site_charge
Ca  Ca1  1  0.82426000  0.36484000  0.38750000  1.0 0.6827271516
Ca  Ca2  1  0.17574000  0.63516000  0.61250000  1.0 0.6827271516
Ca  Ca3  1  0.17574000  0.13516000  0.38750000  1.0 0.6680050626
Ca  Ca4  1  0.82426000  0.86484000  0.61250000  1.0 0.6646339033
Ca  Ca5  1  0.32426000  0.36484000  0.88750000  1.0 0.6827271516
Ca  Ca6  1  0.67574000  0.63516000  0.11250000  1.0 0.6915338968
Ca  Ca7  1  0.67574000  0.13516000  0.88750000  1.0 0.6680050626
Ca  Ca8  1  0.32426000  0.86484000  0.11250000  1.0 0.6680050626
Fe  Fe1  1  0.25000000  0.50000000  0.25000000  1.0 0.0288823039
Fe  Fe2  1  0.75000000  0.50000000  0.75000000  1.0 0.0246088446
Fe  Fe3  1  0.75000000  0.00000000  0.25000000  1.0 0.0810159368
Fe  Fe4  1  0.25000000  0.00000000  0.75000000  1.0 0.0810159368
C  C1  1  0.08016000  0.47690000  0.26927000  1.0 0.2273974565
C  C2  1  0.91984000  0.52310000  0.73073000  1.0 0.2273974565
C  C3  1  0.91984000  0.02310000  0.26927000  1.0 0.2215420191
C  C4  1  0.08016000  0.97690000  0.73073000  1.0 0.2215420191
C  C5  1  0.58016000  0.47690000  0.76927000  1.0 0.2273974565
C  C6  1  0.41984000  0.52310000  0.23073000  1.0 0.2273974565
C  C7  1  0.41984000  0.02310000  0.76927000  1.0 0.2215420191
C  C8  1  0.58016000  0.97690000  0.23073000  1.0 0.2215420191
C  C9  1  0.25113000  0.36737000  0.28328000  1.0 0.2591646869
C  C10  1  0.74887000  0.63263000  0.71672000  1.0 0.2591646869
C  C11  1  0.74887000  0.13263000  0.28328000  1.0 0.2503188976
C  C12  1  0.25113000  0.86737000  0.71672000  1.0 0.2503188976
C  C13  1  0.75113000  0.36737000  0.78328000  1.0 0.2591646869
C  C14  1  0.24887000  0.63263000  0.21672000  1.0 0.2591646869
C  C15  1  0.24887000  0.13263000  0.78328000  1.0 0.2503188976
C  C16  1  0.75113000  0.86737000  0.21672000  1.0 0.2503188976
C  C17  1  0.24414000  0.46619000  0.11464000  1.0 0.2503188976
C  C18  1  0.75586000  0.53381000  0.88536000  1.0 0.2503188976
C  C19  1  0.75586000  0.03381000  0.11464000  1.0 0.2410463353
C  C20  1  0.24414000  0.96619000  0.88536000  1.0 0.2410463353
C  C21  1  0.74414000  0.46619000  0.61464000  1.0 0.2503188976
C  C22  1  0.25586000  0.53381000  0.38536000  1.0 0.2503188976
C  C23  1  0.25586000  0.03381000  0.61464000  1.0 0.2410463353
C  C24  1  0.74414000  0.96619000  0.38536000  1.0 0.2410463353
N  N1  1  0.97781000  0.45778000  0.29167000  1.0 -0.4525792043
N  N2  1  0.02219000  0.54222000  0.70833000  1.0 -0.4525792043
N  N3  1  0.02219000  0.04222000  0.29167000  1.0 -0.4597884233
N  N4  1  0.97781000  0.95778000  0.70833000  1.0 -0.4597884233
N  N5  1  0.47781000  0.45778000  0.79167000  1.0 -0.4525792043
N  N6  1  0.52219000  0.54222000  0.20833000  1.0 -0.4525792043
N  N7  1  0.52219000  0.04222000  0.79167000  1.0 -0.4597884233
N  N8  1  0.47781000  0.95778000  0.20833000  1.0 -0.4597884233
N  N9  1  0.24564000  0.28378000  0.30774000  1.0 -0.488597181
N  N10  1  0.75436000  0.71622000  0.69226000  1.0 -0.4812663859
N  N11  1  0.75436000  0.21622000  0.30774000  1.0 -0.488597181
N  N12  1  0.24564000  0.78378000  0.69226000  1.0 -0.488597181
N  N13  1  0.74564000  0.28378000  0.80774000  1.0 -0.488597181
N  N14  1  0.25436000  0.71622000  0.19226000  1.0 -0.4812663859
N  N15  1  0.25436000  0.21622000  0.80774000  1.0 -0.488597181
N  N16  1  0.74564000  0.78378000  0.19226000  1.0 -0.488597181
N  N17  1  0.25137000  0.44293000  0.03013000  1.0 -0.4812663859
N  N18  1  0.74863000  0.55707000  0.96987000  1.0 -0.4812663859
N  N19  1  0.74863000  0.05707000  0.03013000  1.0 -0.488597181
N  N20  1  0.25137000  0.94293000  0.96987000  1.0 -0.488597181
N  N21  1  0.75137000  0.44293000  0.53013000  1.0 -0.4812663859
N  N22  1  0.24863000  0.55707000  0.46987000  1.0 -0.4812663859
N  N23  1  0.24863000  0.05707000  0.53013000  1.0 -0.488597181
N  N24  1  0.75137000  0.94293000  0.46987000  1.0 -0.488597181
