# DDEC6 charges by PACMAN v1.1 (https://github.com/mtap-research/PACMAN-charge/)
data_GEJJEL01_ASR_pacman
_symmetry_space_group_name_H-M   'P 1'
_cell_length_a   7.83540000
_cell_length_b   12.04960000
_cell_length_c   12.25240000
_cell_angle_alpha   112.01500000
_cell_angle_beta   89.96700000
_cell_angle_gamma   99.92100000
_symmetry_Int_Tables_number   1
_chemical_formula_structural   NdH4(CO)6
_chemical_formula_sum   'Nd4 H16 C24 O24'
_cell_volume   1053.80956423
_cell_formula_units_Z   4
loop_
 _symmetry_equiv_pos_site_id
 _symmetry_equiv_pos_as_xyz
  1  'x, y, z'
loop_
 _atom_site_type_symbol
 _atom_site_label
 _atom_site_symmetry_multiplicity
 _atom_site_fract_x
 _atom_site_fract_y
 _atom_site_fract_z
 _atom_site_occupancy
 _atom_site_charge
Nd  Nd1  1  0.99131000  0.64570000  0.35421000  1.0 2.0639808179
Nd  Nd2  1  0.00869000  0.35430000  0.64579000  1.0 2.0639808179
Nd  Nd3  1  0.49093000  0.64513000  0.25275000  1.0 2.0730531217
Nd  Nd4  1  0.50907000  0.35487000  0.74725000  1.0 2.0730531217
H  H1  1  0.74410000  0.27600000  0.14320000  1.0 0.1308441275
H  H2  1  0.25590000  0.72400000  0.85680000  1.0 0.1308441275
H  H3  1  0.63560000  0.25110000  0.02620000  1.0 0.1308441275
H  H4  1  0.36440000  0.74890000  0.97380000  1.0 0.1308441275
H  H5  1  0.97290000  0.40210000  0.08170000  1.0 0.1308441275
H  H6  1  0.02710000  0.59790000  0.91830000  1.0 0.1308441275
H  H7  1  0.94850000  0.26240000  0.00510000  1.0 0.1308441275
H  H8  1  0.05150000  0.73760000  0.99490000  1.0 0.1308441275
H  H9  1  0.28630000  0.02160000  0.32330000  1.0 0.1431722642
H  H10  1  0.71370000  0.97840000  0.67670000  1.0 0.1431722642
H  H11  1  0.12260000  0.94440000  0.35070000  1.0 0.1431722642
H  H12  1  0.87740000  0.05560000  0.64930000  1.0 0.1431722642
H  H13  1  0.40930000  0.07230000  0.50120000  1.0 0.1229036153
H  H14  1  0.59070000  0.92770000  0.49880000  1.0 0.1229036153
H  H15  1  0.26470000  0.98170000  0.52920000  1.0 0.1431722642
H  H16  1  0.73530000  0.01830000  0.47080000  1.0 0.1431722642
C  C1  1  0.64700000  0.42900000  0.14900000  1.0 0.6629121901
C  C2  1  0.35300000  0.57100000  0.85100000  1.0 0.6629121901
C  C3  1  0.72200000  0.31000000  0.08570000  1.0 -0.2621366381
C  C4  1  0.27800000  0.69000000  0.91430000  1.0 -0.2621366381
C  C5  1  0.89400000  0.33300000  0.02570000  1.0 -0.2817409932
C  C6  1  0.10600000  0.66700000  0.97430000  1.0 -0.2817409932
C  C7  1  0.86300000  0.35900000  0.91360000  1.0 0.6773730518
C  C8  1  0.13700000  0.64100000  0.08640000  1.0 0.6773730518
C  C9  1  0.14400000  0.42600000  0.29710000  1.0 0.58678329
C  C10  1  0.85600000  0.57400000  0.70290000  1.0 0.58678329
C  C11  1  0.22400000  0.30880000  0.27180000  1.0 0.0790203774
C  C12  1  0.77600000  0.69120000  0.72820000  1.0 0.0790203774
C  C13  1  0.38800000  0.33300000  0.35120000  1.0 -0.0910661369
C  C14  1  0.61200000  0.66700000  0.64880000  1.0 -0.0910661369
C  C15  1  0.36500000  0.36300000  0.47600000  1.0 0.6197859646
C  C16  1  0.63500000  0.63700000  0.52400000  1.0 0.6197859646
C  C17  1  0.32300000  0.86100000  0.31510000  1.0 0.6273192168
C  C18  1  0.67700000  0.13900000  0.68490000  1.0 0.6273192168
C  C19  1  0.24800000  0.96900000  0.36500000  1.0 -0.2998810409
C  C20  1  0.75200000  0.03100000  0.63500000  1.0 -0.2998810409
C  C21  1  0.28600000  0.03700000  0.48800000  1.0 -0.2621366381
C  C22  1  0.71400000  0.96300000  0.51200000  1.0 -0.2621366381
C  C23  1  0.17900000  0.14400000  0.54500000  1.0 0.6512612106
C  C24  1  0.82100000  0.85600000  0.45500000  1.0 0.6512612106
O  O1  1  0.73630000  0.51840000  0.22070000  1.0 -0.6345987319
O  O2  1  0.26370000  0.48160000  0.77930000  1.0 -0.635254383
O  O3  1  0.48800000  0.42840000  0.11800000  1.0 -0.6508510112
O  O4  1  0.51200000  0.57160000  0.88200000  1.0 -0.6508510112
O  O5  1  0.23170000  0.51790000  0.28990000  1.0 -0.6782411485
O  O6  1  0.76830000  0.48210000  0.71010000  1.0 -0.6782411485
O  O7  1  0.99090000  0.42850000  0.32680000  1.0 -0.6064505576
O  O8  1  0.00910000  0.57150000  0.67320000  1.0 -0.6064505576
O  O9  1  0.27160000  0.77710000  0.35910000  1.0 -0.7979234456
O  O10  1  0.72840000  0.22290000  0.64090000  1.0 -0.7979234456
O  O11  1  0.45000000  0.85500000  0.25890000  1.0 -0.5431720017
O  O12  1  0.55000000  0.14500000  0.74110000  1.0 -0.5431720017
O  O13  1  0.72140000  0.39100000  0.90130000  1.0 -0.6782411485
O  O14  1  0.27860000  0.60900000  0.09870000  1.0 -0.6782411485
O  O15  1  0.98440000  0.34610000  0.84900000  1.0 -0.6345987319
O  O16  1  0.01560000  0.65390000  0.15100000  1.0 -0.6345987319
O  O17  1  0.23110000  0.22310000  0.65340000  1.0 -0.8173652886
O  O18  1  0.76890000  0.77690000  0.34660000  1.0 -0.8173652886
O  O19  1  0.04720000  0.14950000  0.49510000  1.0 -0.5624449252
O  O20  1  0.95280000  0.85050000  0.50490000  1.0 -0.5624449252
O  O21  1  0.48620000  0.35000000  0.53550000  1.0 -0.6508510112
O  O22  1  0.51380000  0.65000000  0.46450000  1.0 -0.6508510112
O  O23  1  0.22690000  0.39690000  0.51680000  1.0 -0.6652588843
O  O24  1  0.77310000  0.60310000  0.48320000  1.0 -0.6652588843
