# DDEC6 charges by PACMAN v1.1 (https://github.com/mtap-research/PACMAN-charge/)
data_GEJRAR_ASR_pacman
_symmetry_space_group_name_H-M   'P 1'
_cell_length_a   4.88790000
_cell_length_b   29.52600000
_cell_length_c   8.36599000
_cell_angle_alpha   90.00000000
_cell_angle_beta   121.97200000
_cell_angle_gamma   90.00000000
_symmetry_Int_Tables_number   1
_chemical_formula_structural   CaH14C14(NO2)4
_chemical_formula_sum   'Ca2 H28 C28 N8 O16'
_cell_volume   1024.22954688
_cell_formula_units_Z   2
loop_
 _symmetry_equiv_pos_site_id
 _symmetry_equiv_pos_as_xyz
  1  'x, y, z'
loop_
 _atom_site_type_symbol
 _atom_site_label
 _atom_site_symmetry_multiplicity
 _atom_site_fract_x
 _atom_site_fract_y
 _atom_site_fract_z
 _atom_site_occupancy
 _atom_site_charge
Ca  Ca1  1  0.00000000  0.50000000  0.50000000  1.0 1.3880279067
Ca  Ca2  1  0.00000000  0.00000000  0.00000000  1.0 1.3880279067
H  H1  1  0.33990000  0.57630000  0.25800000  1.0 0.1407626237
H  H2  1  0.35120000  0.68130000  0.96740000  1.0 0.1407626237
H  H3  1  0.85430000  0.63870000  0.76670000  1.0 0.1407626237
H  H4  1  0.78980000  0.54340000  0.02800000  1.0 0.1498650415
H  H5  1  0.55140000  0.57570000  0.86370000  1.0 0.1498650415
H  H6  1  0.82800000  0.67500000  0.29540000  1.0 0.1269252005
H  H7  1  0.70340000  0.66090000  0.42610000  1.0 0.1498650415
H  H8  1  0.66010000  0.42370000  0.74200000  1.0 0.1407626237
H  H9  1  0.64880000  0.31870000  0.03260000  1.0 0.1407626237
H  H10  1  0.14570000  0.36130000  0.23330000  1.0 0.1407626237
H  H11  1  0.21020000  0.45660000  0.97200000  1.0 0.1498650415
H  H12  1  0.44860000  0.42430000  0.13630000  1.0 0.1498650415
H  H13  1  0.17200000  0.32500000  0.70460000  1.0 0.1269252005
H  H14  1  0.29660000  0.33910000  0.57390000  1.0 0.1498650415
H  H15  1  0.66010000  0.07630000  0.24200000  1.0 0.1407626237
H  H16  1  0.64880000  0.18130000  0.53260000  1.0 0.1407626237
H  H17  1  0.14570000  0.13870000  0.73330000  1.0 0.1407626237
H  H18  1  0.21020000  0.04340000  0.47200000  1.0 0.1498650415
H  H19  1  0.44860000  0.07570000  0.63630000  1.0 0.1498650415
H  H20  1  0.17200000  0.17500000  0.20460000  1.0 0.1269252005
H  H21  1  0.29660000  0.16090000  0.07390000  1.0 0.1498650415
H  H22  1  0.33990000  0.92370000  0.75800000  1.0 0.1407626237
H  H23  1  0.35120000  0.81870000  0.46740000  1.0 0.1407626237
H  H24  1  0.85430000  0.86130000  0.26670000  1.0 0.1407626237
H  H25  1  0.78980000  0.95660000  0.52800000  1.0 0.1498650415
H  H26  1  0.55140000  0.92430000  0.36370000  1.0 0.1498650415
H  H27  1  0.82800000  0.82500000  0.79540000  1.0 0.1269252005
H  H28  1  0.70340000  0.83910000  0.92610000  1.0 0.1498650415
C  C1  1  0.28060000  0.59721000  0.16200000  1.0 0.0837167541
C  C2  1  0.28630000  0.65520000  0.00030000  1.0 -0.1210168448
C  C3  1  0.01320000  0.63183000  0.89050000  1.0 -0.0598863957
C  C4  1  0.76130000  0.56133000  0.92300000  1.0 -0.2706890849
C  C5  1  0.77170000  0.53018000  0.78100000  1.0 0.638206661
C  C6  1  0.75140000  0.64960000  0.33470000  1.0 -0.2706890849
C  C7  1  0.02340000  0.61519000  0.43240000  1.0 0.6095591041
C  C8  1  0.71940000  0.40279000  0.83800000  1.0 0.0837167541
C  C9  1  0.71370000  0.34480000  0.99970000  1.0 -0.1210168448
C  C10  1  0.98680000  0.36817000  0.10950000  1.0 -0.0598863957
C  C11  1  0.23870000  0.43867000  0.07700000  1.0 -0.2706890849
C  C12  1  0.22830000  0.46982000  0.21900000  1.0 0.638206661
C  C13  1  0.24860000  0.35040000  0.66530000  1.0 -0.2706890849
C  C14  1  0.97660000  0.38481000  0.56760000  1.0 0.6095591041
C  C15  1  0.71940000  0.09721000  0.33800000  1.0 0.0837167541
C  C16  1  0.71370000  0.15520000  0.49970000  1.0 -0.1210168448
C  C17  1  0.98680000  0.13183000  0.60950000  1.0 -0.0598863957
C  C18  1  0.23870000  0.06133000  0.57700000  1.0 -0.2706890849
C  C19  1  0.22830000  0.03018000  0.71900000  1.0 0.638206661
C  C20  1  0.24860000  0.14960000  0.16530000  1.0 -0.2706890849
C  C21  1  0.97660000  0.11519000  0.06760000  1.0 0.6095591041
C  C22  1  0.28060000  0.90279000  0.66200000  1.0 0.0837167541
C  C23  1  0.28630000  0.84480000  0.50030000  1.0 -0.1210168448
C  C24  1  0.01320000  0.86817000  0.39050000  1.0 -0.0598863957
C  C25  1  0.76130000  0.93867000  0.42300000  1.0 -0.2706890849
C  C26  1  0.77170000  0.96982000  0.28100000  1.0 0.638206661
C  C27  1  0.75140000  0.85040000  0.83470000  1.0 -0.2706890849
C  C28  1  0.02340000  0.88481000  0.93240000  1.0 0.6095591041
N  N1  1  0.45150000  0.63312000  0.17060000  1.0 0.0687490089
N  N2  1  0.01170000  0.59628000  0.99380000  1.0 0.0837167541
N  N3  1  0.54850000  0.36688000  0.82940000  1.0 0.0687490089
N  N4  1  0.98830000  0.40372000  0.00620000  1.0 0.0837167541
N  N5  1  0.54850000  0.13312000  0.32940000  1.0 0.0687490089
N  N6  1  0.98830000  0.09628000  0.50620000  1.0 0.0837167541
N  N7  1  0.45150000  0.86688000  0.67060000  1.0 0.0687490089
N  N8  1  0.01170000  0.90372000  0.49380000  1.0 0.0837167541
O  O1  1  0.29010000  0.63237000  0.54700000  1.0 -0.6039000151
O  O2  1  0.96240000  0.57459000  0.39270000  1.0 -0.6162769196
O  O3  1  0.99130000  0.53489000  0.75070000  1.0 -0.5940399167
O  O4  1  0.55200000  0.50111000  0.70750000  1.0 -0.6402721701
O  O5  1  0.70990000  0.36763000  0.45300000  1.0 -0.6039000151
O  O6  1  0.03760000  0.42541000  0.60730000  1.0 -0.6162769196
O  O7  1  0.00870000  0.46511000  0.24930000  1.0 -0.5940399167
O  O8  1  0.44800000  0.49889000  0.29250000  1.0 -0.6402721701
O  O9  1  0.70990000  0.13237000  0.95300000  1.0 -0.6039000151
O  O10  1  0.03760000  0.07459000  0.10730000  1.0 -0.6162769196
O  O11  1  0.00870000  0.03489000  0.74930000  1.0 -0.5940399167
O  O12  1  0.44800000  0.00111000  0.79250000  1.0 -0.6402721701
O  O13  1  0.29010000  0.86763000  0.04700000  1.0 -0.6039000151
O  O14  1  0.96240000  0.92541000  0.89270000  1.0 -0.6162769196
O  O15  1  0.99130000  0.96511000  0.25070000  1.0 -0.5940399167
O  O16  1  0.55200000  0.99889000  0.20750000  1.0 -0.6402721701
