# DDEC6 charges by PACMAN v1.1 (https://github.com/mtap-research/PACMAN-charge/)
data_GENGOY_FSR_pacman
_symmetry_space_group_name_H-M   'P 1'
_cell_length_a   18.41420000
_cell_length_b   18.41420000
_cell_length_c   18.84900000
_cell_angle_alpha   66.39020000
_cell_angle_beta   113.61000000
_cell_angle_gamma   135.50700000
_symmetry_Int_Tables_number   1
_chemical_formula_structural   Zn2H16C28N10O9
_chemical_formula_sum   'Zn8 H64 C112 N40 O36'
_cell_volume   4038.14451311
_cell_formula_units_Z   4
loop_
 _symmetry_equiv_pos_site_id
 _symmetry_equiv_pos_as_xyz
  1  'x, y, z'
loop_
 _atom_site_type_symbol
 _atom_site_label
 _atom_site_symmetry_multiplicity
 _atom_site_fract_x
 _atom_site_fract_y
 _atom_site_fract_z
 _atom_site_occupancy
 _atom_site_charge
Zn  Zn1  1  0.07886000  0.60664000  0.39581000  1.0 0.8658109609
Zn  Zn2  1  0.43050000  0.87668000  0.33698000  1.0 0.8807864491
Zn  Zn3  1  0.60664000  0.07886000  0.10419000  1.0 0.8658109609
Zn  Zn4  1  0.87668000  0.43050000  0.16302000  1.0 0.8807864491
Zn  Zn5  1  0.92114000  0.39336000  0.60419000  1.0 0.8658109609
Zn  Zn6  1  0.56950000  0.12332000  0.66302000  1.0 0.8807864491
Zn  Zn7  1  0.39336000  0.92114000  0.89581000  1.0 0.8658109609
Zn  Zn8  1  0.12332000  0.56950000  0.83698000  1.0 0.8807864491
H  H1  1  0.38360000  0.66900000  0.40320000  1.0 0.1101618631
H  H2  1  0.46180000  0.60300000  0.43620000  1.0 0.1285470095
H  H3  1  0.72460000  0.88880000  0.37610000  1.0 0.1285470095
H  H4  1  0.63710000  0.94890000  0.33550000  1.0 0.1285470095
H  H5  1  0.72550000  0.50210000  0.41370000  1.0 0.1385365691
H  H6  1  0.16170000  0.87150000  0.19320000  1.0 0.1285470095
H  H7  1  0.17460000  0.96000000  0.06330000  1.0 0.1101618631
H  H8  1  0.23210000  0.94470000  0.98780000  1.0 0.1285470095
H  H9  1  0.46740000  0.73940000  0.21910000  1.0 0.1208563693
H  H10  1  0.34020000  0.55560000  0.23680000  1.0 0.1208563693
H  H11  1  0.16480000  0.47260000  0.21960000  1.0 0.1208563693
H  H12  1  0.91610000  0.51730000  0.65880000  1.0 0.1208563693
H  H13  1  0.79900000  0.43040000  0.45880000  1.0 0.1285470095
H  H14  1  0.84270000  0.59330000  0.61840000  1.0 0.1285470095
H  H15  1  0.48310000  0.86690000  0.48590000  1.0 0.368284971
H  H16  1  0.39070000  0.85030000  0.46400000  1.0 0.3943379078
H  H17  1  0.66900000  0.38360000  0.09680000  1.0 0.1101618631
H  H18  1  0.60300000  0.46180000  0.06380000  1.0 0.1285470095
H  H19  1  0.88880000  0.72460000  0.12390000  1.0 0.1285470095
H  H20  1  0.94890000  0.63710000  0.16450000  1.0 0.1285470095
H  H21  1  0.50210000  0.72550000  0.08630000  1.0 0.1385365691
H  H22  1  0.87150000  0.16170000  0.30680000  1.0 0.1285470095
H  H23  1  0.96000000  0.17460000  0.43670000  1.0 0.1101618631
H  H24  1  0.94470000  0.23210000  0.51220000  1.0 0.1285470095
H  H25  1  0.73940000  0.46740000  0.28090000  1.0 0.1208563693
H  H26  1  0.55560000  0.34020000  0.26320000  1.0 0.1208563693
H  H27  1  0.47260000  0.16480000  0.28040000  1.0 0.1208563693
H  H28  1  0.51730000  0.91610000  0.84120000  1.0 0.1208563693
H  H29  1  0.43040000  0.79900000  0.04120000  1.0 0.1285470095
H  H30  1  0.59330000  0.84270000  0.88160000  1.0 0.1285470095
H  H31  1  0.86690000  0.48310000  0.01410000  1.0 0.368284971
H  H32  1  0.85030000  0.39070000  0.03600000  1.0 0.3943379078
H  H33  1  0.61640000  0.33100000  0.59680000  1.0 0.1101618631
H  H34  1  0.53820000  0.39700000  0.56380000  1.0 0.1285470095
H  H35  1  0.27540000  0.11120000  0.62390000  1.0 0.1285470095
H  H36  1  0.36290000  0.05110000  0.66450000  1.0 0.1285470095
H  H37  1  0.27450000  0.49790000  0.58630000  1.0 0.1385365691
H  H38  1  0.83830000  0.12850000  0.80680000  1.0 0.1285470095
H  H39  1  0.82540000  0.04000000  0.93670000  1.0 0.1101618631
H  H40  1  0.76790000  0.05530000  0.01220000  1.0 0.1285470095
H  H41  1  0.53260000  0.26060000  0.78090000  1.0 0.1208563693
H  H42  1  0.65980000  0.44440000  0.76320000  1.0 0.1208563693
H  H43  1  0.83520000  0.52740000  0.78040000  1.0 0.1208563693
H  H44  1  0.08390000  0.48270000  0.34120000  1.0 0.1208563693
H  H45  1  0.20100000  0.56960000  0.54120000  1.0 0.1285470095
H  H46  1  0.15730000  0.40670000  0.38160000  1.0 0.1285470095
H  H47  1  0.51690000  0.13310000  0.51410000  1.0 0.368284971
H  H48  1  0.60930000  0.14970000  0.53600000  1.0 0.3943379078
H  H49  1  0.33100000  0.61640000  0.90320000  1.0 0.1101618631
H  H50  1  0.39700000  0.53820000  0.93620000  1.0 0.1285470095
H  H51  1  0.11120000  0.27540000  0.87610000  1.0 0.1285470095
H  H52  1  0.05110000  0.36290000  0.83550000  1.0 0.1285470095
H  H53  1  0.49790000  0.27450000  0.91370000  1.0 0.1385365691
H  H54  1  0.12850000  0.83830000  0.69320000  1.0 0.1285470095
H  H55  1  0.04000000  0.82540000  0.56330000  1.0 0.1101618631
H  H56  1  0.05530000  0.76790000  0.48780000  1.0 0.1285470095
H  H57  1  0.26060000  0.53260000  0.71910000  1.0 0.1208563693
H  H58  1  0.44440000  0.65980000  0.73680000  1.0 0.1208563693
H  H59  1  0.52740000  0.83520000  0.71960000  1.0 0.1208563693
H  H60  1  0.48270000  0.08390000  0.15880000  1.0 0.1208563693
H  H61  1  0.56960000  0.20100000  0.95880000  1.0 0.1285470095
H  H62  1  0.40670000  0.15730000  0.11840000  1.0 0.1285470095
H  H63  1  0.13310000  0.51690000  0.98590000  1.0 0.368284971
H  H64  1  0.14970000  0.60930000  0.96400000  1.0 0.3943379078
C  C1  1  0.45320000  0.71460000  0.39740000  1.0 0.0906479363
C  C2  1  0.49970000  0.67490000  0.41800000  1.0 -0.1532703709
C  C3  1  0.60300000  0.74100000  0.41200000  1.0 0.0096014433
C  C4  1  0.65490000  0.84310000  0.38170000  1.0 -0.1423913534
C  C5  1  0.60240000  0.87860000  0.35890000  1.0 0.0837119524
C  C6  1  0.64488000  0.69372000  0.43060000  1.0 0.2528678481
C  C7  1  0.73563000  0.60537000  0.47990000  1.0 0.2256936435
C  C8  1  0.78100000  0.56160000  0.50910000  1.0 -0.0184144001
C  C9  1  0.76590000  0.50810000  0.46400000  1.0 -0.1532703709
C  C10  1  0.20060000  0.74840000  0.27530000  1.0 0.5956304376
C  C11  1  0.20731000  0.80049000  0.19030000  1.0 -0.050532471
C  C12  1  0.18314000  0.86426000  0.16120000  1.0 -0.1005540356
C  C13  1  0.19097000  0.91723000  0.08390000  1.0 -0.1005540356
C  C14  1  0.22291000  0.90569000  0.03860000  1.0 -0.1005540356
C  C15  1  0.24232000  0.83828000  0.06500000  1.0 -0.050532471
C  C16  1  0.23400000  0.78300000  0.14320000  1.0 0.0427350965
C  C17  1  0.27273000  0.82767000  0.00990000  1.0 0.5685558919
C  C18  1  0.44911000  0.88049000  0.18010000  1.0 0.5685558919
C  C19  1  0.36650000  0.76290000  0.18850000  1.0 -0.0693994635
C  C20  1  0.39667000  0.70513000  0.21110000  1.0 -0.1050554957
C  C21  1  0.32070000  0.59510000  0.22200000  1.0 -0.1050554957
C  C22  1  0.21540000  0.54580000  0.21020000  1.0 -0.1005540356
C  C23  1  0.18457000  0.60343000  0.18460000  1.0 -0.0693994635
C  C24  1  0.25941000  0.71339000  0.17460000  1.0 0.0549180363
C  C25  1  0.07040000  0.54400000  0.16880000  1.0 0.5561922495
C  C26  1  0.87700000  0.51480000  0.60840000  1.0 0.1101618631
C  C27  1  0.80860000  0.46440000  0.49150000  1.0 0.0954389539
C  C28  1  0.83460000  0.56220000  0.58420000  1.0 -0.1570339459
C  C29  1  0.71460000  0.45320000  0.10260000  1.0 0.0906479363
C  C30  1  0.67490000  0.49970000  0.08200000  1.0 -0.1532703709
C  C31  1  0.74100000  0.60300000  0.08800000  1.0 0.0096014433
C  C32  1  0.84310000  0.65490000  0.11830000  1.0 -0.1423913534
C  C33  1  0.87860000  0.60240000  0.14110000  1.0 0.0837119524
C  C34  1  0.69372000  0.64488000  0.06940000  1.0 0.2528678481
C  C35  1  0.60537000  0.73563000  0.02010000  1.0 0.2256936435
C  C36  1  0.56160000  0.78100000  0.99090000  1.0 -0.0184144001
C  C37  1  0.50810000  0.76590000  0.03600000  1.0 -0.1532703709
C  C38  1  0.74840000  0.20060000  0.22470000  1.0 0.5956304376
C  C39  1  0.80049000  0.20731000  0.30970000  1.0 -0.050532471
C  C40  1  0.86426000  0.18314000  0.33880000  1.0 -0.1005540356
C  C41  1  0.91723000  0.19097000  0.41610000  1.0 -0.1005540356
C  C42  1  0.90569000  0.22291000  0.46140000  1.0 -0.1005540356
C  C43  1  0.83828000  0.24232000  0.43500000  1.0 -0.050532471
C  C44  1  0.78300000  0.23400000  0.35680000  1.0 0.0427350965
C  C45  1  0.82767000  0.27273000  0.49010000  1.0 0.5685558919
C  C46  1  0.88049000  0.44911000  0.31990000  1.0 0.5685558919
C  C47  1  0.76290000  0.36650000  0.31150000  1.0 -0.0693994635
C  C48  1  0.70513000  0.39667000  0.28890000  1.0 -0.1050554957
C  C49  1  0.59510000  0.32070000  0.27800000  1.0 -0.1050554957
C  C50  1  0.54580000  0.21540000  0.28980000  1.0 -0.1005540356
C  C51  1  0.60343000  0.18457000  0.31540000  1.0 -0.0693994635
C  C52  1  0.71339000  0.25941000  0.32540000  1.0 0.0549180363
C  C53  1  0.54400000  0.07040000  0.33120000  1.0 0.5561922495
C  C54  1  0.51480000  0.87700000  0.89160000  1.0 0.1101618631
C  C55  1  0.46440000  0.80860000  0.00850000  1.0 0.0954389539
C  C56  1  0.56220000  0.83460000  0.91580000  1.0 -0.1570339459
C  C57  1  0.54680000  0.28540000  0.60260000  1.0 0.0906479363
C  C58  1  0.50030000  0.32510000  0.58200000  1.0 -0.1532703709
C  C59  1  0.39700000  0.25900000  0.58800000  1.0 0.0096014433
C  C60  1  0.34510000  0.15690000  0.61830000  1.0 -0.1423913534
C  C61  1  0.39760000  0.12140000  0.64110000  1.0 0.0837119524
C  C62  1  0.35512000  0.30628000  0.56940000  1.0 0.2528678481
C  C63  1  0.26437000  0.39463000  0.52010000  1.0 0.2256936435
C  C64  1  0.21900000  0.43840000  0.49090000  1.0 -0.0184144001
C  C65  1  0.23410000  0.49190000  0.53600000  1.0 -0.1532703709
C  C66  1  0.79940000  0.25160000  0.72470000  1.0 0.5956304376
C  C67  1  0.79269000  0.19951000  0.80970000  1.0 -0.050532471
C  C68  1  0.81686000  0.13574000  0.83880000  1.0 -0.1005540356
C  C69  1  0.80903000  0.08277000  0.91610000  1.0 -0.1005540356
C  C70  1  0.77709000  0.09431000  0.96140000  1.0 -0.1005540356
C  C71  1  0.75768000  0.16172000  0.93500000  1.0 -0.050532471
C  C72  1  0.76600000  0.21700000  0.85680000  1.0 0.0427350965
C  C73  1  0.72727000  0.17233000  0.99010000  1.0 0.5685558919
C  C74  1  0.55089000  0.11951000  0.81990000  1.0 0.5685558919
C  C75  1  0.63350000  0.23710000  0.81150000  1.0 -0.0693994635
C  C76  1  0.60333000  0.29487000  0.78890000  1.0 -0.1050554957
C  C77  1  0.67930000  0.40490000  0.77800000  1.0 -0.1050554957
C  C78  1  0.78460000  0.45420000  0.78980000  1.0 -0.1005540356
C  C79  1  0.81543000  0.39657000  0.81540000  1.0 -0.0693994635
C  C80  1  0.74059000  0.28661000  0.82540000  1.0 0.0549180363
C  C81  1  0.92960000  0.45600000  0.83120000  1.0 0.5561922495
C  C82  1  0.12300000  0.48520000  0.39160000  1.0 0.1101618631
C  C83  1  0.19140000  0.53560000  0.50850000  1.0 0.0954389539
C  C84  1  0.16540000  0.43780000  0.41580000  1.0 -0.1570339459
C  C85  1  0.28540000  0.54680000  0.89740000  1.0 0.0906479363
C  C86  1  0.32510000  0.50030000  0.91800000  1.0 -0.1532703709
C  C87  1  0.25900000  0.39700000  0.91200000  1.0 0.0096014433
C  C88  1  0.15690000  0.34510000  0.88170000  1.0 -0.1423913534
C  C89  1  0.12140000  0.39760000  0.85890000  1.0 0.0837119524
C  C90  1  0.30628000  0.35512000  0.93060000  1.0 0.2528678481
C  C91  1  0.39463000  0.26437000  0.97990000  1.0 0.2256936435
C  C92  1  0.43840000  0.21900000  0.00910000  1.0 -0.0184144001
C  C93  1  0.49190000  0.23410000  0.96400000  1.0 -0.1532703709
C  C94  1  0.25160000  0.79940000  0.77530000  1.0 0.5956304376
C  C95  1  0.19951000  0.79269000  0.69030000  1.0 -0.050532471
C  C96  1  0.13574000  0.81686000  0.66120000  1.0 -0.1005540356
C  C97  1  0.08277000  0.80903000  0.58390000  1.0 -0.1005540356
C  C98  1  0.09431000  0.77709000  0.53860000  1.0 -0.1005540356
C  C99  1  0.16172000  0.75768000  0.56500000  1.0 -0.050532471
C  C100  1  0.21700000  0.76600000  0.64320000  1.0 0.0427350965
C  C101  1  0.17233000  0.72727000  0.50990000  1.0 0.5685558919
C  C102  1  0.11951000  0.55089000  0.68010000  1.0 0.5685558919
C  C103  1  0.23710000  0.63350000  0.68850000  1.0 -0.0693994635
C  C104  1  0.29487000  0.60333000  0.71110000  1.0 -0.1050554957
C  C105  1  0.40490000  0.67930000  0.72200000  1.0 -0.1050554957
C  C106  1  0.45420000  0.78460000  0.71020000  1.0 -0.1005540356
C  C107  1  0.39657000  0.81543000  0.68460000  1.0 -0.0693994635
C  C108  1  0.28661000  0.74059000  0.67460000  1.0 0.0549180363
C  C109  1  0.45600000  0.92960000  0.66880000  1.0 0.5561922495
C  C110  1  0.48520000  0.12300000  0.10840000  1.0 0.1101618631
C  C111  1  0.53560000  0.19140000  0.99150000  1.0 0.0954389539
C  C112  1  0.43780000  0.16540000  0.08420000  1.0 -0.1570339459
N  N1  1  0.58594000  0.59386000  0.41710000  1.0 -0.1328280266
N  N2  1  0.63130000  0.54970000  0.44170000  1.0 -0.1532703709
N  N3  1  0.79460000  0.70520000  0.49340000  1.0 -0.0184144001
N  N4  1  0.74920000  0.74940000  0.46880000  1.0 0.0096014433
N  N5  1  0.50249000  0.81611000  0.36900000  1.0 -0.2388461824
N  N6  1  0.86353000  0.46707000  0.56260000  1.0 -0.2146347123
N  N7  1  0.73770000  0.74650000  0.41540000  1.0 -0.082274105
N  N8  1  0.63480000  0.63080000  0.51030000  1.0 -0.1005540356
N  N9  1  0.68950000  0.59550000  0.53000000  1.0 -0.050532471
N  N10  1  0.78540000  0.70760000  0.44190000  1.0 -0.0597743648
N  N11  1  0.59386000  0.58594000  0.08290000  1.0 -0.1328280266
N  N12  1  0.54970000  0.63130000  0.05830000  1.0 -0.1532703709
N  N13  1  0.70520000  0.79460000  0.00660000  1.0 -0.0184144001
N  N14  1  0.74940000  0.74920000  0.03120000  1.0 0.0152591402
N  N15  1  0.81611000  0.50249000  0.13100000  1.0 -0.2388461824
N  N16  1  0.46707000  0.86353000  0.93740000  1.0 -0.2146347123
N  N17  1  0.74650000  0.73770000  0.08460000  1.0 -0.082274105
N  N18  1  0.63080000  0.63480000  0.98970000  1.0 -0.1005540356
N  N19  1  0.59550000  0.68950000  0.97000000  1.0 -0.050532471
N  N20  1  0.70760000  0.78540000  0.05810000  1.0 -0.0597743648
N  N21  1  0.41406000  0.40614000  0.58290000  1.0 -0.1328280266
N  N22  1  0.36870000  0.45030000  0.55830000  1.0 -0.1532703709
N  N23  1  0.20540000  0.29480000  0.50660000  1.0 -0.0253712605
N  N24  1  0.25080000  0.25060000  0.53120000  1.0 0.0152591402
N  N25  1  0.49751000  0.18389000  0.63100000  1.0 -0.2388461824
N  N26  1  0.13647000  0.53293000  0.43740000  1.0 -0.2146347123
N  N27  1  0.26230000  0.25350000  0.58460000  1.0 -0.082274105
N  N28  1  0.36520000  0.36920000  0.48970000  1.0 -0.1005540356
N  N29  1  0.31050000  0.40450000  0.47000000  1.0 -0.050532471
N  N30  1  0.21460000  0.29240000  0.55810000  1.0 -0.0597743648
N  N31  1  0.40614000  0.41406000  0.91710000  1.0 -0.1328280266
N  N32  1  0.45030000  0.36870000  0.94170000  1.0 -0.1532703709
N  N33  1  0.29480000  0.20540000  0.99340000  1.0 -0.0253712605
N  N34  1  0.25060000  0.25080000  0.96880000  1.0 0.0152591402
N  N35  1  0.18389000  0.49751000  0.86900000  1.0 -0.2388461824
N  N36  1  0.53293000  0.13647000  0.06260000  1.0 -0.2146347123
N  N37  1  0.25350000  0.26230000  0.91540000  1.0 -0.082274105
N  N38  1  0.36920000  0.36520000  0.01030000  1.0 -0.1005540356
N  N39  1  0.40450000  0.31050000  0.03000000  1.0 -0.050532471
N  N40  1  0.29240000  0.21460000  0.94190000  1.0 -0.0597743648
O  O1  1  0.00584000  0.44316000  0.18680000  1.0 -0.5513882931
O  O2  1  0.27476000  0.75164000  0.32061000  1.0 -0.5566631552
O  O3  1  0.11640000  0.70220000  0.29517000  1.0 -0.5136952694
O  O4  1  0.50470000  0.92390000  0.12890000  1.0 -0.5197196598
O  O5  1  0.23470000  0.74050000  0.00660000  1.0 -0.5408046837
O  O6  1  0.03515000  0.59005000  0.13880000  1.0 -0.5408046837
O  O7  1  0.45942000  0.92738000  0.22060000  1.0 -0.5513882931
O  O8  1  0.33748000  0.91412000  0.96740000  1.0 -0.5513882931
O  O9  1  0.42092000  0.83388000  0.45750000  1.0 -0.6628602143
O  O10  1  0.44316000  0.00584000  0.31320000  1.0 -0.5513882931
O  O11  1  0.75164000  0.27476000  0.17939000  1.0 -0.5566631552
O  O12  1  0.70220000  0.11640000  0.20483000  1.0 -0.5136952694
O  O13  1  0.92390000  0.50470000  0.37110000  1.0 -0.5197196598
O  O14  1  0.74050000  0.23470000  0.49340000  1.0 -0.5408046837
O  O15  1  0.59005000  0.03515000  0.36120000  1.0 -0.5408046837
O  O16  1  0.92738000  0.45942000  0.27940000  1.0 -0.5513882931
O  O17  1  0.91412000  0.33748000  0.53260000  1.0 -0.5513882931
O  O18  1  0.83388000  0.42092000  0.04250000  1.0 -0.6628602143
O  O19  1  0.99416000  0.55684000  0.81320000  1.0 -0.5513882931
O  O20  1  0.72524000  0.24836000  0.67939000  1.0 -0.5566631552
O  O21  1  0.88360000  0.29780000  0.70483000  1.0 -0.5136952694
O  O22  1  0.49530000  0.07610000  0.87110000  1.0 -0.5197196598
O  O23  1  0.76530000  0.25950000  0.99340000  1.0 -0.5408046837
O  O24  1  0.96485000  0.40995000  0.86120000  1.0 -0.5408046837
O  O25  1  0.54058000  0.07262000  0.77940000  1.0 -0.5513882931
O  O26  1  0.66252000  0.08588000  0.03260000  1.0 -0.5513882931
O  O27  1  0.57908000  0.16612000  0.54250000  1.0 -0.6628602143
O  O28  1  0.55684000  0.99416000  0.68680000  1.0 -0.5513882931
O  O29  1  0.24836000  0.72524000  0.82061000  1.0 -0.5566631552
O  O30  1  0.29780000  0.88360000  0.79517000  1.0 -0.5136952694
O  O31  1  0.07610000  0.49530000  0.62890000  1.0 -0.5197196598
O  O32  1  0.25950000  0.76530000  0.50660000  1.0 -0.5408046837
O  O33  1  0.40995000  0.96485000  0.63880000  1.0 -0.5408046837
O  O34  1  0.07262000  0.54058000  0.72060000  1.0 -0.5513882931
O  O35  1  0.08588000  0.66252000  0.46740000  1.0 -0.5513882931
O  O36  1  0.16612000  0.57908000  0.95750000  1.0 -0.6628602143
