# DDEC6 charges by PACMAN v1.1 (https://github.com/mtap-research/PACMAN-charge/)
data_GERPUP_FSR_pacman
_symmetry_space_group_name_H-M   'P 1'
_cell_length_a   14.98300000
_cell_length_b   14.98300000
_cell_length_c   14.86500000
_cell_angle_alpha   90.00000000
_cell_angle_beta   90.00000000
_cell_angle_gamma   120.00000000
_symmetry_Int_Tables_number   1
_chemical_formula_structural   Sm2Cu3H24(C4O5)6
_chemical_formula_sum   'Sm4 Cu6 H48 C48 O60'
_cell_volume   2889.96846807
_cell_formula_units_Z   2
loop_
 _symmetry_equiv_pos_site_id
 _symmetry_equiv_pos_as_xyz
  1  'x, y, z'
loop_
 _atom_site_type_symbol
 _atom_site_label
 _atom_site_symmetry_multiplicity
 _atom_site_fract_x
 _atom_site_fract_y
 _atom_site_fract_z
 _atom_site_occupancy
 _atom_site_charge
Sm  Sm1  1  0.66666667  0.33333333  0.25000000  1.0 1.951440644
Sm  Sm2  1  0.33333333  0.66666667  0.25000000  1.0 1.951440644
Sm  Sm3  1  0.33333333  0.66666667  0.75000000  1.0 1.951440644
Sm  Sm4  1  0.66666667  0.33333333  0.75000000  1.0 1.951440644
Cu  Cu1  1  0.50000000  0.00000000  0.00000000  1.0 0.913915765
Cu  Cu2  1  0.00000000  0.50000000  0.00000000  1.0 0.913915765
Cu  Cu3  1  0.50000000  0.50000000  0.00000000  1.0 0.913915765
Cu  Cu4  1  0.00000000  0.50000000  0.50000000  1.0 0.913915765
Cu  Cu5  1  0.50000000  0.00000000  0.50000000  1.0 0.913915765
Cu  Cu6  1  0.50000000  0.50000000  0.50000000  1.0 0.913915765
H  H1  1  0.36740000  0.15790000  0.16090000  1.0 0.1387129394
H  H2  1  0.84210000  0.20950000  0.16090000  1.0 0.1387129394
H  H3  1  0.79050000  0.63260000  0.16090000  1.0 0.1387129394
H  H4  1  0.15790000  0.79050000  0.16090000  1.0 0.1387129394
H  H5  1  0.20950000  0.36740000  0.16090000  1.0 0.1387129394
H  H6  1  0.15790000  0.36740000  0.33910000  1.0 0.1387129394
H  H7  1  0.79050000  0.15790000  0.33910000  1.0 0.1387129394
H  H8  1  0.36740000  0.20950000  0.33910000  1.0 0.1387129394
H  H9  1  0.63260000  0.84210000  0.16090000  1.0 0.1387129394
H  H10  1  0.20950000  0.84210000  0.33910000  1.0 0.1387129394
H  H11  1  0.63260000  0.79050000  0.33910000  1.0 0.1387129394
H  H12  1  0.84210000  0.63260000  0.33910000  1.0 0.1387129394
H  H13  1  0.63260000  0.84210000  0.83910000  1.0 0.1387129394
H  H14  1  0.15790000  0.79050000  0.83910000  1.0 0.1387129394
H  H15  1  0.20950000  0.36740000  0.83910000  1.0 0.1387129394
H  H16  1  0.84210000  0.20950000  0.83910000  1.0 0.1387129394
H  H17  1  0.79050000  0.63260000  0.83910000  1.0 0.1387129394
H  H18  1  0.84210000  0.63260000  0.66090000  1.0 0.1387129394
H  H19  1  0.20950000  0.84210000  0.66090000  1.0 0.1387129394
H  H20  1  0.63260000  0.79050000  0.66090000  1.0 0.1387129394
H  H21  1  0.36740000  0.15790000  0.83910000  1.0 0.1387129394
H  H22  1  0.79050000  0.15790000  0.66090000  1.0 0.1387129394
H  H23  1  0.36740000  0.20950000  0.66090000  1.0 0.1387129394
H  H24  1  0.15790000  0.36740000  0.66090000  1.0 0.1387129394
H  H25  1  0.37580000  0.08990000  0.23730000  1.0 0.1237647054
H  H26  1  0.91010000  0.28590000  0.23730000  1.0 0.1237647054
H  H27  1  0.71410000  0.62420000  0.23730000  1.0 0.1237647054
H  H28  1  0.08990000  0.71410000  0.23730000  1.0 0.1237647054
H  H29  1  0.28590000  0.37580000  0.23730000  1.0 0.1237647054
H  H30  1  0.08990000  0.37580000  0.26270000  1.0 0.1237647054
H  H31  1  0.71410000  0.08990000  0.26270000  1.0 0.1237647054
H  H32  1  0.37580000  0.28590000  0.26270000  1.0 0.1237647054
H  H33  1  0.62420000  0.91010000  0.23730000  1.0 0.1237647054
H  H34  1  0.28590000  0.91010000  0.26270000  1.0 0.1237647054
H  H35  1  0.62420000  0.71410000  0.26270000  1.0 0.1237647054
H  H36  1  0.91010000  0.62420000  0.26270000  1.0 0.1237647054
H  H37  1  0.62420000  0.91010000  0.76270000  1.0 0.1237647054
H  H38  1  0.08990000  0.71410000  0.76270000  1.0 0.1237647054
H  H39  1  0.28590000  0.37580000  0.76270000  1.0 0.1237647054
H  H40  1  0.91010000  0.28590000  0.76270000  1.0 0.1237647054
H  H41  1  0.71410000  0.62420000  0.76270000  1.0 0.1237647054
H  H42  1  0.91010000  0.62420000  0.73730000  1.0 0.1237647054
H  H43  1  0.28590000  0.91010000  0.73730000  1.0 0.1237647054
H  H44  1  0.62420000  0.71410000  0.73730000  1.0 0.1237647054
H  H45  1  0.37580000  0.08990000  0.76270000  1.0 0.1237647054
H  H46  1  0.71410000  0.08990000  0.73730000  1.0 0.1237647054
H  H47  1  0.37580000  0.28590000  0.73730000  1.0 0.1237647054
H  H48  1  0.08990000  0.37580000  0.73730000  1.0 0.1237647054
C  C1  1  0.48600000  0.12950000  0.14000000  1.0 0.6312688408
C  C2  1  0.87050000  0.35650000  0.14000000  1.0 0.6312688408
C  C3  1  0.64350000  0.51400000  0.14000000  1.0 0.6312688408
C  C4  1  0.12950000  0.64350000  0.14000000  1.0 0.6312688408
C  C5  1  0.35650000  0.48600000  0.14000000  1.0 0.6312688408
C  C6  1  0.12950000  0.48600000  0.36000000  1.0 0.6312688408
C  C7  1  0.64350000  0.12950000  0.36000000  1.0 0.6312688408
C  C8  1  0.48600000  0.35650000  0.36000000  1.0 0.6312688408
C  C9  1  0.51400000  0.87050000  0.14000000  1.0 0.6312688408
C  C10  1  0.35650000  0.87050000  0.36000000  1.0 0.6312688408
C  C11  1  0.51400000  0.64350000  0.36000000  1.0 0.6312688408
C  C12  1  0.87050000  0.51400000  0.36000000  1.0 0.6312688408
C  C13  1  0.51400000  0.87050000  0.86000000  1.0 0.6312688408
C  C14  1  0.12950000  0.64350000  0.86000000  1.0 0.6312688408
C  C15  1  0.35650000  0.48600000  0.86000000  1.0 0.6312688408
C  C16  1  0.87050000  0.35650000  0.86000000  1.0 0.6312688408
C  C17  1  0.64350000  0.51400000  0.86000000  1.0 0.6312688408
C  C18  1  0.87050000  0.51400000  0.64000000  1.0 0.6312688408
C  C19  1  0.35650000  0.87050000  0.64000000  1.0 0.6312688408
C  C20  1  0.51400000  0.64350000  0.64000000  1.0 0.6312688408
C  C21  1  0.48600000  0.12950000  0.86000000  1.0 0.6312688408
C  C22  1  0.64350000  0.12950000  0.64000000  1.0 0.6312688408
C  C23  1  0.48600000  0.35650000  0.64000000  1.0 0.6312688408
C  C24  1  0.12950000  0.48600000  0.64000000  1.0 0.6312688408
C  C25  1  0.41530000  0.14880000  0.19830000  1.0 -0.1665270013
C  C26  1  0.85120000  0.26650000  0.19830000  1.0 -0.1665270013
C  C27  1  0.73350000  0.58470000  0.19830000  1.0 -0.1665270013
C  C28  1  0.14880000  0.73350000  0.19830000  1.0 -0.1665270013
C  C29  1  0.26650000  0.41530000  0.19830000  1.0 -0.1665270013
C  C30  1  0.14880000  0.41530000  0.30170000  1.0 -0.1665270013
C  C31  1  0.73350000  0.14880000  0.30170000  1.0 -0.1665270013
C  C32  1  0.41530000  0.26650000  0.30170000  1.0 -0.1665270013
C  C33  1  0.58470000  0.85120000  0.19830000  1.0 -0.1665270013
C  C34  1  0.26650000  0.85120000  0.30170000  1.0 -0.1665270013
C  C35  1  0.58470000  0.73350000  0.30170000  1.0 -0.1665270013
C  C36  1  0.85120000  0.58470000  0.30170000  1.0 -0.1665270013
C  C37  1  0.58470000  0.85120000  0.80170000  1.0 -0.1665270013
C  C38  1  0.14880000  0.73350000  0.80170000  1.0 -0.1665270013
C  C39  1  0.26650000  0.41530000  0.80170000  1.0 -0.1665270013
C  C40  1  0.85120000  0.26650000  0.80170000  1.0 -0.1665270013
C  C41  1  0.73350000  0.58470000  0.80170000  1.0 -0.1665270013
C  C42  1  0.85120000  0.58470000  0.69830000  1.0 -0.1665270013
C  C43  1  0.26650000  0.85120000  0.69830000  1.0 -0.1665270013
C  C44  1  0.58470000  0.73350000  0.69830000  1.0 -0.1665270013
C  C45  1  0.41530000  0.14880000  0.80170000  1.0 -0.1665270013
C  C46  1  0.73350000  0.14880000  0.69830000  1.0 -0.1665270013
C  C47  1  0.41530000  0.26650000  0.69830000  1.0 -0.1665270013
C  C48  1  0.14880000  0.41530000  0.69830000  1.0 -0.1665270013
O  O1  1  0.44320000  0.05060000  0.09240000  1.0 -0.5482226866
O  O2  1  0.94940000  0.39260000  0.09240000  1.0 -0.5482226866
O  O3  1  0.60740000  0.55680000  0.09240000  1.0 -0.5482226866
O  O4  1  0.05060000  0.60740000  0.09240000  1.0 -0.5482226866
O  O5  1  0.39260000  0.44320000  0.09240000  1.0 -0.5482226866
O  O6  1  0.05060000  0.44320000  0.40760000  1.0 -0.5482226866
O  O7  1  0.60740000  0.05060000  0.40760000  1.0 -0.5482226866
O  O8  1  0.44320000  0.39260000  0.40760000  1.0 -0.5482226866
O  O9  1  0.55680000  0.94940000  0.09240000  1.0 -0.5482226866
O  O10  1  0.39260000  0.94940000  0.40760000  1.0 -0.5482226866
O  O11  1  0.55680000  0.60740000  0.40760000  1.0 -0.5482226866
O  O12  1  0.94940000  0.55680000  0.40760000  1.0 -0.5482226866
O  O13  1  0.55680000  0.94940000  0.90760000  1.0 -0.5482226866
O  O14  1  0.05060000  0.60740000  0.90760000  1.0 -0.5482226866
O  O15  1  0.39260000  0.44320000  0.90760000  1.0 -0.5482226866
O  O16  1  0.94940000  0.39260000  0.90760000  1.0 -0.5482226866
O  O17  1  0.60740000  0.55680000  0.90760000  1.0 -0.5482226866
O  O18  1  0.94940000  0.55680000  0.59240000  1.0 -0.5482226866
O  O19  1  0.39260000  0.94940000  0.59240000  1.0 -0.5482226866
O  O20  1  0.55680000  0.60740000  0.59240000  1.0 -0.5482226866
O  O21  1  0.44320000  0.05060000  0.90760000  1.0 -0.5482226866
O  O22  1  0.60740000  0.05060000  0.59240000  1.0 -0.5482226866
O  O23  1  0.44320000  0.39260000  0.59240000  1.0 -0.5482226866
O  O24  1  0.05060000  0.44320000  0.59240000  1.0 -0.5482226866
O  O25  1  0.58040000  0.19360000  0.14270000  1.0 -0.6231098605
O  O26  1  0.80640000  0.38680000  0.14270000  1.0 -0.6231098605
O  O27  1  0.61320000  0.41960000  0.14270000  1.0 -0.6231098605
O  O28  1  0.19360000  0.61320000  0.14270000  1.0 -0.6231098605
O  O29  1  0.38680000  0.58040000  0.14270000  1.0 -0.6231098605
O  O30  1  0.19360000  0.58040000  0.35730000  1.0 -0.6231098605
O  O31  1  0.61320000  0.19360000  0.35730000  1.0 -0.6231098605
O  O32  1  0.58040000  0.38680000  0.35730000  1.0 -0.6231098605
O  O33  1  0.41960000  0.80640000  0.14270000  1.0 -0.6231098605
O  O34  1  0.38680000  0.80640000  0.35730000  1.0 -0.6231098605
O  O35  1  0.41960000  0.61320000  0.35730000  1.0 -0.6231098605
O  O36  1  0.80640000  0.41960000  0.35730000  1.0 -0.6231098605
O  O37  1  0.41960000  0.80640000  0.85730000  1.0 -0.6231098605
O  O38  1  0.19360000  0.61320000  0.85730000  1.0 -0.6231098605
O  O39  1  0.38680000  0.58040000  0.85730000  1.0 -0.6231098605
O  O40  1  0.80640000  0.38680000  0.85730000  1.0 -0.6231098605
O  O41  1  0.61320000  0.41960000  0.85730000  1.0 -0.6231098605
O  O42  1  0.80640000  0.41960000  0.64270000  1.0 -0.6231098605
O  O43  1  0.38680000  0.80640000  0.64270000  1.0 -0.6231098605
O  O44  1  0.41960000  0.61320000  0.64270000  1.0 -0.6231098605
O  O45  1  0.58040000  0.19360000  0.85730000  1.0 -0.6231098605
O  O46  1  0.61320000  0.19360000  0.64270000  1.0 -0.6231098605
O  O47  1  0.58040000  0.38680000  0.64270000  1.0 -0.6231098605
O  O48  1  0.19360000  0.58040000  0.64270000  1.0 -0.6231098605
O  O49  1  0.47290000  0.23645000  0.25000000  1.0 -0.2192119715
O  O50  1  0.76355000  0.23645000  0.25000000  1.0 -0.2192119715
O  O51  1  0.76355000  0.52710000  0.25000000  1.0 -0.2192119715
O  O52  1  0.23645000  0.76355000  0.25000000  1.0 -0.2192119715
O  O53  1  0.23645000  0.47290000  0.25000000  1.0 -0.2192119715
O  O54  1  0.52710000  0.76355000  0.25000000  1.0 -0.2192119715
O  O55  1  0.52710000  0.76355000  0.75000000  1.0 -0.2192119715
O  O56  1  0.23645000  0.76355000  0.75000000  1.0 -0.2192119715
O  O57  1  0.23645000  0.47290000  0.75000000  1.0 -0.2192119715
O  O58  1  0.76355000  0.23645000  0.75000000  1.0 -0.2192119715
O  O59  1  0.76355000  0.52710000  0.75000000  1.0 -0.2192119715
O  O60  1  0.47290000  0.23645000  0.75000000  1.0 -0.2192119715
