# DDEC6 charges by PACMAN v1.1 (https://github.com/mtap-research/PACMAN-charge/)
data_GERWOR_ion_pacman
_symmetry_space_group_name_H-M   'P 1'
_cell_length_a   14.98790000
_cell_length_b   14.98790000
_cell_length_c   26.11200000
_cell_angle_alpha   82.73150000
_cell_angle_beta   97.26850000
_cell_angle_gamma   101.29500000
_symmetry_Int_Tables_number   1
_chemical_formula_structural   Cd3Si2H72C76(N3O16)2
_chemical_formula_sum   'Cd6 Si4 H144 C152 N12 O64'
_cell_volume   5674.59940959
_cell_formula_units_Z   2
loop_
 _symmetry_equiv_pos_site_id
 _symmetry_equiv_pos_as_xyz
  1  'x, y, z'
loop_
 _atom_site_type_symbol
 _atom_site_label
 _atom_site_symmetry_multiplicity
 _atom_site_fract_x
 _atom_site_fract_y
 _atom_site_fract_z
 _atom_site_occupancy
 _atom_site_charge
Cd  Cd1  1  0.64462000  0.64462000  0.75000000  1.0 0.9439483758
Cd  Cd2  1  0.35538000  0.35538000  0.25000000  1.0 0.9439483758
Cd  Cd3  1  0.90494000  0.74108000  0.41119000  1.0 0.9439483758
Cd  Cd4  1  0.74108000  0.90494000  0.08881000  1.0 0.9439483758
Cd  Cd5  1  0.09506000  0.25892000  0.58881000  1.0 0.9439483758
Cd  Cd6  1  0.25892000  0.09506000  0.91119000  1.0 0.9439483758
Si  Si1  1  0.16499000  0.75635000  0.68010000  1.0 0.679707793
Si  Si2  1  0.75635000  0.16499000  0.81990000  1.0 0.679707793
Si  Si3  1  0.83501000  0.24365000  0.31990000  1.0 0.679707793
Si  Si4  1  0.24365000  0.83501000  0.18010000  1.0 0.679707793
H  H1  1  0.79850000  0.67790000  0.59800000  1.0 0.1289430874
H  H2  1  0.67790000  0.79850000  0.90200000  1.0 0.1289430874
H  H3  1  0.20150000  0.32210000  0.40200000  1.0 0.1289430874
H  H4  1  0.32210000  0.20150000  0.09800000  1.0 0.1289430874
H  H5  1  0.06430000  0.74350000  0.57990000  1.0 0.1289430874
H  H6  1  0.74350000  0.06430000  0.92010000  1.0 0.1289430874
H  H7  1  0.93570000  0.25650000  0.42010000  1.0 0.1289430874
H  H8  1  0.25650000  0.93570000  0.07990000  1.0 0.1289430874
H  H9  1  0.98310000  0.71270000  0.72200000  1.0 0.1381958916
H  H10  1  0.71270000  0.98310000  0.77800000  1.0 0.1381958916
H  H11  1  0.01690000  0.28730000  0.27800000  1.0 0.1381958916
H  H12  1  0.28730000  0.01690000  0.22200000  1.0 0.1381958916
H  H13  1  0.32060000  0.07480000  0.56320000  1.0 0.1381958916
H  H14  1  0.07480000  0.32060000  0.93680000  1.0 0.1381958916
H  H15  1  0.67940000  0.92520000  0.43680000  1.0 0.1381958916
H  H16  1  0.92520000  0.67940000  0.06320000  1.0 0.1381958916
H  H17  1  0.31970000  0.81370000  0.61750000  1.0 0.1133396602
H  H18  1  0.81370000  0.31970000  0.88250000  1.0 0.1133396602
H  H19  1  0.68030000  0.18630000  0.38250000  1.0 0.1133396602
H  H20  1  0.18630000  0.68030000  0.11750000  1.0 0.1133396602
H  H21  1  0.13010000  0.94130000  0.65360000  1.0 0.1210837517
H  H22  1  0.94130000  0.13010000  0.84640000  1.0 0.1210837517
H  H23  1  0.86990000  0.05870000  0.34640000  1.0 0.1210837517
H  H24  1  0.05870000  0.86990000  0.15360000  1.0 0.1210837517
H  H25  1  0.11620000  0.57720000  0.63640000  1.0 0.1210837517
H  H26  1  0.57720000  0.11620000  0.86360000  1.0 0.1210837517
H  H27  1  0.88380000  0.42280000  0.36360000  1.0 0.1210837517
H  H28  1  0.42280000  0.88380000  0.13640000  1.0 0.1210837517
H  H29  1  0.34770000  0.71670000  0.70400000  1.0 0.1289430874
H  H30  1  0.71670000  0.34770000  0.79600000  1.0 0.1289430874
H  H31  1  0.65230000  0.28330000  0.29600000  1.0 0.1289430874
H  H32  1  0.28330000  0.65230000  0.20400000  1.0 0.1289430874
H  H33  1  0.34690000  0.47590000  0.65400000  1.0 0.1289430874
H  H34  1  0.47590000  0.34690000  0.84600000  1.0 0.1289430874
H  H35  1  0.65310000  0.52410000  0.34600000  1.0 0.1289430874
H  H36  1  0.52410000  0.65310000  0.15400000  1.0 0.1289430874
H  H37  1  0.16420000  0.63440000  0.77320000  1.0 0.1210837517
H  H38  1  0.63440000  0.16420000  0.72680000  1.0 0.1210837517
H  H39  1  0.83580000  0.36560000  0.22680000  1.0 0.1210837517
H  H40  1  0.36560000  0.83580000  0.27320000  1.0 0.1210837517
H  H41  1  0.19920000  0.90500000  0.75010000  1.0 0.1289430874
H  H42  1  0.90500000  0.19920000  0.74990000  1.0 0.1289430874
H  H43  1  0.80080000  0.09500000  0.24990000  1.0 0.1289430874
H  H44  1  0.09500000  0.80080000  0.25010000  1.0 0.1289430874
H  H45  1  0.19960000  0.78240000  0.89380000  1.0 0.1381958916
H  H46  1  0.78240000  0.19960000  0.60620000  1.0 0.1381958916
H  H47  1  0.80040000  0.21760000  0.10620000  1.0 0.1381958916
H  H48  1  0.21760000  0.80040000  0.39380000  1.0 0.1381958916
H  H49  1  0.85730000  0.13710000  0.03650000  1.0 0.1511458433
H  H50  1  0.89950000  0.09610000  0.99490000  1.0 0.1289430874
H  H51  1  0.94190000  0.19430000  0.01040000  1.0 0.1289430874
H  H52  1  0.06460000  0.01980000  0.05640000  1.0 0.1210837517
H  H53  1  0.06240000  0.10600000  0.01570000  1.0 0.1210837517
H  H54  1  0.98360000  0.02040000  0.01210000  1.0 0.0817307806
H  H55  1  0.01420000  0.13560000  0.08470000  1.0 0.267968101
H  H56  1  0.94770000  0.04910000  0.08820000  1.0 0.2772347904
H  H57  1  0.13710000  0.85730000  0.46350000  1.0 0.1511458433
H  H58  1  0.09610000  0.89950000  0.50510000  1.0 0.1289430874
H  H59  1  0.19430000  0.94190000  0.48960000  1.0 0.1289430874
H  H60  1  0.01980000  0.06460000  0.44360000  1.0 0.1210837517
H  H61  1  0.10600000  0.06240000  0.48430000  1.0 0.1210837517
H  H62  1  0.02040000  0.98360000  0.48790000  1.0 0.0817307806
H  H63  1  0.13560000  0.01420000  0.41530000  1.0 0.267968101
H  H64  1  0.04910000  0.94770000  0.41180000  1.0 0.2772347904
H  H65  1  0.14270000  0.86290000  0.96350000  1.0 0.1511458433
H  H66  1  0.10050000  0.90390000  0.00510000  1.0 0.1289430874
H  H67  1  0.05810000  0.80570000  0.98960000  1.0 0.1289430874
H  H68  1  0.93540000  0.98020000  0.94360000  1.0 0.1210837517
H  H69  1  0.93760000  0.89400000  0.98430000  1.0 0.1210837517
H  H70  1  0.01640000  0.97960000  0.98790000  1.0 0.0817307806
H  H71  1  0.98580000  0.86440000  0.91530000  1.0 0.267968101
H  H72  1  0.05230000  0.95090000  0.91180000  1.0 0.2772347904
H  H73  1  0.86290000  0.14270000  0.53650000  1.0 0.1511458433
H  H74  1  0.90390000  0.10050000  0.49490000  1.0 0.1289430874
H  H75  1  0.80570000  0.05810000  0.51040000  1.0 0.1289430874
H  H76  1  0.98020000  0.93540000  0.55640000  1.0 0.1210837517
H  H77  1  0.89400000  0.93760000  0.51570000  1.0 0.1210837517
H  H78  1  0.97960000  0.01640000  0.51210000  1.0 0.0817307806
H  H79  1  0.86440000  0.98580000  0.58470000  1.0 0.267968101
H  H80  1  0.95090000  0.05230000  0.58820000  1.0 0.2772347904
H  H81  1  0.49970000  0.14370000  0.26500000  1.0 0.1289430874
H  H82  1  0.57830000  0.09390000  0.29250000  1.0 0.1133396602
H  H83  1  0.47940000  0.03780000  0.28070000  1.0 0.1289430874
H  H84  1  0.60430000  0.94850000  0.22390000  1.0 0.1289430874
H  H85  1  0.52660000  0.94720000  0.25900000  1.0 0.1289430874
H  H86  1  0.62540000  0.00100000  0.27350000  1.0 0.1210837517
H  H87  1  0.60230000  0.12670000  0.19440000  1.0 0.302323503
H  H88  1  0.50750000  0.07570000  0.17920000  1.0 0.302323503
H  H89  1  0.14370000  0.49970000  0.23500000  1.0 0.1289430874
H  H90  1  0.09390000  0.57830000  0.20750000  1.0 0.1133396602
H  H91  1  0.03780000  0.47940000  0.21930000  1.0 0.1289430874
H  H92  1  0.94850000  0.60430000  0.27610000  1.0 0.1289430874
H  H93  1  0.94720000  0.52660000  0.24100000  1.0 0.1289430874
H  H94  1  0.00100000  0.62540000  0.22650000  1.0 0.1210837517
H  H95  1  0.12670000  0.60230000  0.30560000  1.0 0.302323503
H  H96  1  0.07570000  0.50750000  0.32080000  1.0 0.302323503
H  H97  1  0.50030000  0.85630000  0.73500000  1.0 0.1289430874
H  H98  1  0.42170000  0.90610000  0.70750000  1.0 0.1133396602
H  H99  1  0.52060000  0.96220000  0.71930000  1.0 0.1289430874
H  H100  1  0.39570000  0.05150000  0.77610000  1.0 0.1289430874
H  H101  1  0.47340000  0.05280000  0.74100000  1.0 0.1289430874
H  H102  1  0.37460000  0.99900000  0.72650000  1.0 0.1210837517
H  H103  1  0.39770000  0.87330000  0.80560000  1.0 0.302323503
H  H104  1  0.49250000  0.92430000  0.82080000  1.0 0.302323503
H  H105  1  0.85630000  0.50030000  0.76500000  1.0 0.1289430874
H  H106  1  0.90610000  0.42170000  0.79250000  1.0 0.1133396602
H  H107  1  0.96220000  0.52060000  0.78070000  1.0 0.1289430874
H  H108  1  0.05150000  0.39570000  0.72390000  1.0 0.1289430874
H  H109  1  0.05280000  0.47340000  0.75900000  1.0 0.1289430874
H  H110  1  0.99900000  0.37460000  0.77350000  1.0 0.1210837517
H  H111  1  0.87330000  0.39770000  0.69440000  1.0 0.302323503
H  H112  1  0.92430000  0.49250000  0.67920000  1.0 0.302323503
H  H113  1  0.41360000  0.64900000  0.30000000  1.0 0.1210837517
H  H114  1  0.48780000  0.61540000  0.34190000  1.0 0.1381958916
H  H115  1  0.42020000  0.67260000  0.35740000  1.0 0.1210837517
H  H116  1  0.34200000  0.42280000  0.40020000  1.0 0.1210837517
H  H117  1  0.37450000  0.51270000  0.42740000  1.0 0.1289430874
H  H118  1  0.44380000  0.47380000  0.40020000  1.0 0.1381958916
H  H119  1  0.30200000  0.55060000  0.35110000  1.0 0.2408085069
H  H120  1  0.35120000  0.50080000  0.32360000  1.0 0.2408085069
H  H121  1  0.64900000  0.41360000  0.20000000  1.0 0.1210837517
H  H122  1  0.61540000  0.48780000  0.15810000  1.0 0.1381958916
H  H123  1  0.67260000  0.42020000  0.14260000  1.0 0.1210837517
H  H124  1  0.42280000  0.34200000  0.09980000  1.0 0.1210837517
H  H125  1  0.51270000  0.37450000  0.07260000  1.0 0.1289430874
H  H126  1  0.47380000  0.44380000  0.09980000  1.0 0.1381958916
H  H127  1  0.55060000  0.30200000  0.14890000  1.0 0.2408085069
H  H128  1  0.50080000  0.35120000  0.17640000  1.0 0.2408085069
H  H129  1  0.58640000  0.35100000  0.70000000  1.0 0.1210837517
H  H130  1  0.51220000  0.38460000  0.65810000  1.0 0.1381958916
H  H131  1  0.57980000  0.32740000  0.64260000  1.0 0.1210837517
H  H132  1  0.65800000  0.57720000  0.59980000  1.0 0.1210837517
H  H133  1  0.62550000  0.48730000  0.57260000  1.0 0.1289430874
H  H134  1  0.55620000  0.52620000  0.59980000  1.0 0.1381958916
H  H135  1  0.69800000  0.44940000  0.64890000  1.0 0.2408085069
H  H136  1  0.64880000  0.49920000  0.67640000  1.0 0.2408085069
H  H137  1  0.35100000  0.58640000  0.80000000  1.0 0.1210837517
H  H138  1  0.38460000  0.51220000  0.84190000  1.0 0.1381958916
H  H139  1  0.32740000  0.57980000  0.85740000  1.0 0.1210837517
H  H140  1  0.57720000  0.65800000  0.90020000  1.0 0.1210837517
H  H141  1  0.48730000  0.62550000  0.92740000  1.0 0.1289430874
H  H142  1  0.52620000  0.55620000  0.90020000  1.0 0.1381958916
H  H143  1  0.44940000  0.69800000  0.85110000  1.0 0.2408085069
H  H144  1  0.49920000  0.64880000  0.82360000  1.0 0.2408085069
C  C1  1  0.80253000  0.67791000  0.69994000  1.0 0.5414388156
C  C2  1  0.67791000  0.80253000  0.80006000  1.0 0.5414388156
C  C3  1  0.19747000  0.32209000  0.30006000  1.0 0.5414388156
C  C4  1  0.32209000  0.19747000  0.19994000  1.0 0.5414388156
C  C5  1  0.87887000  0.69363000  0.66538000  1.0 -0.0104159431
C  C6  1  0.69363000  0.87887000  0.83462000  1.0 -0.0104159431
C  C7  1  0.12113000  0.30637000  0.33462000  1.0 -0.0104159431
C  C8  1  0.30637000  0.12113000  0.16538000  1.0 -0.0104159431
C  C9  1  0.85906000  0.69122000  0.61217000  1.0 -0.1122962242
C  C10  1  0.69122000  0.85906000  0.88783000  1.0 -0.1122962242
C  C11  1  0.14094000  0.30878000  0.38783000  1.0 -0.1122962242
C  C12  1  0.30878000  0.14094000  0.11217000  1.0 -0.1122962242
C  C13  1  0.92826000  0.70836000  0.58003000  1.0 0.0063255806
C  C14  1  0.70836000  0.92826000  0.91997000  1.0 0.0063255806
C  C15  1  0.07174000  0.29164000  0.41997000  1.0 0.0063255806
C  C16  1  0.29164000  0.07174000  0.08003000  1.0 0.0063255806
C  C17  1  0.01780000  0.72940000  0.60168000  1.0 -0.0929007833
C  C18  1  0.72940000  0.01780000  0.89832000  1.0 -0.0929007833
C  C19  1  0.98220000  0.27060000  0.39832000  1.0 -0.0929007833
C  C20  1  0.27060000  0.98220000  0.10168000  1.0 -0.0929007833
C  C21  1  0.04079000  0.73009000  0.65502000  1.0 -0.1991807916
C  C22  1  0.73009000  0.04079000  0.84498000  1.0 -0.1991807916
C  C23  1  0.95921000  0.26991000  0.34498000  1.0 -0.1991807916
C  C24  1  0.26991000  0.95921000  0.15502000  1.0 -0.1991807916
C  C25  1  0.96963000  0.71223000  0.68624000  1.0 -0.0825144396
C  C26  1  0.71223000  0.96963000  0.81376000  1.0 -0.0825144396
C  C27  1  0.03037000  0.28777000  0.31376000  1.0 -0.0825144396
C  C28  1  0.28777000  0.03037000  0.18624000  1.0 -0.0825144396
C  C29  1  0.90629000  0.70815000  0.52153000  1.0 0.5181479729
C  C30  1  0.70815000  0.90629000  0.97847000  1.0 0.5181479729
C  C31  1  0.09371000  0.29185000  0.47847000  1.0 0.5181479729
C  C32  1  0.29185000  0.09371000  0.02153000  1.0 0.5181479729
C  C33  1  0.17611000  0.10605000  0.60204000  1.0 0.4931576229
C  C34  1  0.10605000  0.17611000  0.89796000  1.0 0.4931576229
C  C35  1  0.82389000  0.89395000  0.39796000  1.0 0.4931576229
C  C36  1  0.89395000  0.82389000  0.10204000  1.0 0.4931576229
C  C37  1  0.21912000  0.02150000  0.60774000  1.0 0.0063255806
C  C38  1  0.02150000  0.21912000  0.89226000  1.0 0.0063255806
C  C39  1  0.78088000  0.97850000  0.39226000  1.0 0.0063255806
C  C40  1  0.97850000  0.78088000  0.10774000  1.0 0.0063255806
C  C41  1  0.29481000  0.02167000  0.58247000  1.0 -0.0706434658
C  C42  1  0.02167000  0.29481000  0.91753000  1.0 -0.0706434658
C  C43  1  0.70519000  0.97833000  0.41753000  1.0 -0.0706434658
C  C44  1  0.97833000  0.70519000  0.08247000  1.0 -0.0706434658
C  C45  1  0.33282000  0.94394000  0.58546000  1.0 -0.019045128
C  C46  1  0.94394000  0.33282000  0.91454000  1.0 -0.019045128
C  C47  1  0.66718000  0.05606000  0.41454000  1.0 -0.019045128
C  C48  1  0.05606000  0.66718000  0.08546000  1.0 -0.019045128
C  C49  1  0.29390000  0.86586000  0.61514000  1.0 -0.0825144396
C  C50  1  0.86586000  0.29390000  0.88486000  1.0 -0.0825144396
C  C51  1  0.70610000  0.13414000  0.38486000  1.0 -0.0825144396
C  C52  1  0.13414000  0.70610000  0.11514000  1.0 -0.0825144396
C  C53  1  0.21784000  0.86220000  0.64149000  1.0 -0.1991807916
C  C54  1  0.86220000  0.21784000  0.85851000  1.0 -0.1991807916
C  C55  1  0.78216000  0.13780000  0.35851000  1.0 -0.1991807916
C  C56  1  0.13780000  0.78216000  0.14149000  1.0 -0.1991807916
C  C57  1  0.18134000  0.94150000  0.63683000  1.0 -0.0998062391
C  C58  1  0.94150000  0.18134000  0.86317000  1.0 -0.0998062391
C  C59  1  0.81866000  0.05850000  0.36317000  1.0 -0.0998062391
C  C60  1  0.05850000  0.81866000  0.13683000  1.0 -0.0998062391
C  C61  1  0.41183000  0.94275000  0.55721000  1.0 0.5149139739
C  C62  1  0.94275000  0.41183000  0.94279000  1.0 0.5149139739
C  C63  1  0.58817000  0.05725000  0.44279000  1.0 0.5149139739
C  C64  1  0.05725000  0.58817000  0.05721000  1.0 0.5149139739
C  C65  1  0.17295000  0.42651000  0.62112000  1.0 0.5414388156
C  C66  1  0.42651000  0.17295000  0.87888000  1.0 0.5414388156
C  C67  1  0.82705000  0.57349000  0.37888000  1.0 0.5414388156
C  C68  1  0.57349000  0.82705000  0.12112000  1.0 0.5414388156
C  C69  1  0.22404000  0.51268000  0.64286000  1.0 0.0019089689
C  C70  1  0.51268000  0.22404000  0.85714000  1.0 0.0019089689
C  C71  1  0.77596000  0.48732000  0.35714000  1.0 0.0019089689
C  C72  1  0.48732000  0.77596000  0.14286000  1.0 0.0019089689
C  C73  1  0.17796000  0.58260000  0.64834000  1.0 -0.0706434658
C  C74  1  0.58260000  0.17796000  0.85166000  1.0 -0.0706434658
C  C75  1  0.82204000  0.41740000  0.35166000  1.0 -0.0706434658
C  C76  1  0.41740000  0.82204000  0.14834000  1.0 -0.0706434658
C  C77  1  0.22267000  0.66023000  0.67137000  1.0 -0.1991807916
C  C78  1  0.66023000  0.22267000  0.82863000  1.0 -0.1991807916
C  C79  1  0.77733000  0.33977000  0.32863000  1.0 -0.1991807916
C  C80  1  0.33977000  0.77733000  0.17137000  1.0 -0.1991807916
C  C81  1  0.31648000  0.66588000  0.68800000  1.0 -0.0825144396
C  C82  1  0.66588000  0.31648000  0.81200000  1.0 -0.0825144396
C  C83  1  0.68352000  0.33412000  0.31200000  1.0 -0.0825144396
C  C84  1  0.33412000  0.68352000  0.18800000  1.0 -0.0825144396
C  C85  1  0.36349000  0.59833000  0.68135000  1.0 -0.004344566
C  C86  1  0.59833000  0.36349000  0.81865000  1.0 -0.004344566
C  C87  1  0.63651000  0.40167000  0.31865000  1.0 -0.004344566
C  C88  1  0.40167000  0.63651000  0.18135000  1.0 -0.004344566
C  C89  1  0.31590000  0.52190000  0.65866000  1.0 -0.0825144396
C  C90  1  0.52190000  0.31590000  0.84134000  1.0 -0.0825144396
C  C91  1  0.68410000  0.47810000  0.34134000  1.0 -0.0825144396
C  C92  1  0.47810000  0.68410000  0.15866000  1.0 -0.0825144396
C  C93  1  0.46478000  0.60682000  0.69850000  1.0 0.5414388156
C  C94  1  0.60682000  0.46478000  0.80150000  1.0 0.5414388156
C  C95  1  0.53522000  0.39318000  0.30150000  1.0 0.5414388156
C  C96  1  0.39318000  0.53522000  0.19850000  1.0 0.5414388156
C  C97  1  0.17852000  0.60510000  0.87410000  1.0 0.5181479729
C  C98  1  0.60510000  0.17852000  0.62590000  1.0 0.5181479729
C  C99  1  0.82148000  0.39490000  0.12590000  1.0 0.5181479729
C  C100  1  0.39490000  0.82148000  0.37410000  1.0 0.5181479729
C  C101  1  0.18203000  0.69459000  0.83954000  1.0 0.0019089689
C  C102  1  0.69459000  0.18203000  0.66046000  1.0 0.0019089689
C  C103  1  0.81797000  0.30541000  0.16046000  1.0 0.0019089689
C  C104  1  0.30541000  0.81797000  0.33954000  1.0 0.0019089689
C  C105  1  0.17338000  0.69106000  0.78586000  1.0 -0.0825144396
C  C106  1  0.69106000  0.17338000  0.71414000  1.0 -0.0825144396
C  C107  1  0.82662000  0.30894000  0.21414000  1.0 -0.0825144396
C  C108  1  0.30894000  0.82662000  0.28586000  1.0 -0.0825144396
C  C109  1  0.17792000  0.76916000  0.75092000  1.0 -0.1991807916
C  C110  1  0.76916000  0.17792000  0.74908000  1.0 -0.1991807916
C  C111  1  0.82208000  0.23084000  0.24908000  1.0 -0.1991807916
C  C112  1  0.23084000  0.82208000  0.25092000  1.0 -0.1991807916
C  C113  1  0.19370000  0.85100000  0.77231000  1.0 -0.0929007833
C  C114  1  0.85100000  0.19370000  0.72769000  1.0 -0.0929007833
C  C115  1  0.80630000  0.14900000  0.22769000  1.0 -0.0929007833
C  C116  1  0.14900000  0.80630000  0.27231000  1.0 -0.0929007833
C  C117  1  0.20189000  0.85671000  0.82541000  1.0 -0.019045128
C  C118  1  0.85671000  0.20189000  0.67459000  1.0 -0.019045128
C  C119  1  0.79811000  0.14329000  0.17459000  1.0 -0.019045128
C  C120  1  0.14329000  0.79811000  0.32541000  1.0 -0.019045128
C  C121  1  0.19526000  0.77904000  0.85824000  1.0 -0.0998062391
C  C122  1  0.77904000  0.19526000  0.64176000  1.0 -0.0998062391
C  C123  1  0.80474000  0.22096000  0.14176000  1.0 -0.0998062391
C  C124  1  0.22096000  0.80474000  0.35824000  1.0 -0.0998062391
C  C125  1  0.22005000  0.94815000  0.84738000  1.0 0.5414388156
C  C126  1  0.94815000  0.22005000  0.65262000  1.0 0.5414388156
C  C127  1  0.77995000  0.05185000  0.15262000  1.0 0.5414388156
C  C128  1  0.05185000  0.77995000  0.34738000  1.0 0.5414388156
C  C129  1  0.91300000  0.13400000  0.02290000  1.0 -0.3321996057
C  C130  1  0.02570000  0.05710000  0.03540000  1.0 -0.2889159643
C  C131  1  0.13400000  0.91300000  0.47710000  1.0 -0.3321996057
C  C132  1  0.05710000  0.02570000  0.46460000  1.0 -0.2889159643
C  C133  1  0.08700000  0.86600000  0.97710000  1.0 -0.3321996057
C  C134  1  0.97430000  0.94290000  0.96460000  1.0 -0.2889159643
C  C135  1  0.86600000  0.08700000  0.52290000  1.0 -0.3321996057
C  C136  1  0.94290000  0.97430000  0.53540000  1.0 -0.2889159643
C  C137  1  0.52415000  0.08845000  0.26831000  1.0 -0.3821460032
C  C138  1  0.58026000  0.98354000  0.24536000  1.0 -0.3925903687
C  C139  1  0.08845000  0.52415000  0.23169000  1.0 -0.3821460032
C  C140  1  0.98354000  0.58026000  0.25464000  1.0 -0.3925903687
C  C141  1  0.47585000  0.91155000  0.73169000  1.0 -0.3821460032
C  C142  1  0.41974000  0.01646000  0.75464000  1.0 -0.3925903687
C  C143  1  0.91155000  0.47585000  0.76831000  1.0 -0.3821460032
C  C144  1  0.01646000  0.41974000  0.74536000  1.0 -0.3925903687
C  C145  1  0.42640000  0.62720000  0.33590000  1.0 -0.2998487973
C  C146  1  0.38140000  0.48160000  0.39860000  1.0 -0.2730905437
C  C147  1  0.62720000  0.42640000  0.16410000  1.0 -0.2998487973
C  C148  1  0.48160000  0.38140000  0.10140000  1.0 -0.2730905437
C  C149  1  0.57360000  0.37280000  0.66410000  1.0 -0.2998487973
C  C150  1  0.61860000  0.51840000  0.60140000  1.0 -0.2730905437
C  C151  1  0.37280000  0.57360000  0.83590000  1.0 -0.2998487973
C  C152  1  0.51840000  0.61860000  0.89860000  1.0 -0.2730905437
N  N1  1  0.97820000  0.09260000  0.06650000  1.0 -0.0706434658
N  N2  1  0.09260000  0.97820000  0.43350000  1.0 -0.0706434658
N  N3  1  0.02180000  0.90740000  0.93350000  1.0 -0.0706434658
N  N4  1  0.90740000  0.02180000  0.56650000  1.0 -0.0706434658
N  N5  1  0.55415000  0.08491000  0.20445000  1.0 -0.2730905437
N  N6  1  0.08491000  0.55415000  0.29555000  1.0 -0.2730905437
N  N7  1  0.44585000  0.91509000  0.79555000  1.0 -0.2730905437
N  N8  1  0.91509000  0.44585000  0.70445000  1.0 -0.2730905437
N  N9  1  0.35704000  0.53616000  0.34967000  1.0 -0.0998062391
N  N10  1  0.53616000  0.35704000  0.15033000  1.0 -0.0998062391
N  N11  1  0.64296000  0.46384000  0.65033000  1.0 -0.0998062391
N  N12  1  0.46384000  0.64296000  0.84967000  1.0 -0.0998062391
O  O1  1  0.82108000  0.67978000  0.74724000  1.0 -0.4768128866
O  O2  1  0.67978000  0.82108000  0.75276000  1.0 -0.4768128866
O  O3  1  0.17892000  0.32022000  0.25276000  1.0 -0.4768128866
O  O4  1  0.32022000  0.17892000  0.24724000  1.0 -0.4768128866
O  O5  1  0.72207000  0.66147000  0.67890000  1.0 -0.5286067152
O  O6  1  0.66147000  0.72207000  0.82110000  1.0 -0.5286067152
O  O7  1  0.27793000  0.33853000  0.32110000  1.0 -0.5286067152
O  O8  1  0.33853000  0.27793000  0.17890000  1.0 -0.5286067152
O  O9  1  0.83053000  0.67459000  0.50386000  1.0 -0.4383772039
O  O10  1  0.67459000  0.83053000  0.99614000  1.0 -0.4383772039
O  O11  1  0.16947000  0.32541000  0.49614000  1.0 -0.4383772039
O  O12  1  0.32541000  0.16947000  0.00386000  1.0 -0.4383772039
O  O13  1  0.96667000  0.73967000  0.49411000  1.0 -0.4611182112
O  O14  1  0.73967000  0.96667000  0.00589000  1.0 -0.4611182112
O  O15  1  0.03333000  0.26033000  0.50589000  1.0 -0.4611182112
O  O16  1  0.26033000  0.03333000  0.99411000  1.0 -0.4611182112
O  O17  1  0.10017000  0.10065000  0.61232000  1.0 -0.4470239156
O  O18  1  0.10065000  0.10017000  0.88768000  1.0 -0.4470239156
O  O19  1  0.89983000  0.89935000  0.38768000  1.0 -0.4470239156
O  O20  1  0.89935000  0.89983000  0.11232000  1.0 -0.4470239156
O  O21  1  0.21726000  0.17770000  0.58762000  1.0 -0.3667557263
O  O22  1  0.17770000  0.21726000  0.91238000  1.0 -0.3667557263
O  O23  1  0.78274000  0.82230000  0.41238000  1.0 -0.3667557263
O  O24  1  0.82230000  0.78274000  0.08762000  1.0 -0.3667557263
O  O25  1  0.44651000  0.87427000  0.56251000  1.0 -0.3925903687
O  O26  1  0.87427000  0.44651000  0.93749000  1.0 -0.3925903687
O  O27  1  0.55349000  0.12573000  0.43749000  1.0 -0.3925903687
O  O28  1  0.12573000  0.55349000  0.06251000  1.0 -0.3925903687
O  O29  1  0.43921000  0.01175000  0.52694000  1.0 -0.3552703583
O  O30  1  0.01175000  0.43921000  0.97306000  1.0 -0.3552703583
O  O31  1  0.56079000  0.98825000  0.47306000  1.0 -0.3552703583
O  O32  1  0.98825000  0.56079000  0.02694000  1.0 -0.3552703583
O  O33  1  0.50149000  0.67095000  0.72475000  1.0 -0.51122837
O  O34  1  0.67095000  0.50149000  0.77525000  1.0 -0.51122837
O  O35  1  0.49851000  0.32905000  0.27525000  1.0 -0.51122837
O  O36  1  0.32905000  0.49851000  0.22475000  1.0 -0.51122837
O  O37  1  0.50708000  0.54996000  0.68633000  1.0 -0.5352806174
O  O38  1  0.54996000  0.50708000  0.81367000  1.0 -0.5352806174
O  O39  1  0.49292000  0.45004000  0.31367000  1.0 -0.5352806174
O  O40  1  0.45004000  0.49292000  0.18633000  1.0 -0.5352806174
O  O41  1  0.20784000  0.35704000  0.62914000  1.0 -0.4611182112
O  O42  1  0.35704000  0.20784000  0.87086000  1.0 -0.4611182112
O  O43  1  0.79216000  0.64296000  0.37086000  1.0 -0.4611182112
O  O44  1  0.64296000  0.79216000  0.12914000  1.0 -0.4611182112
O  O45  1  0.09679000  0.42597000  0.59639000  1.0 -0.4868366742
O  O46  1  0.42597000  0.09679000  0.90361000  1.0 -0.4868366742
O  O47  1  0.90321000  0.57403000  0.40361000  1.0 -0.4868366742
O  O48  1  0.57403000  0.90321000  0.09639000  1.0 -0.4868366742
O  O49  1  0.16098000  0.53094000  0.85717000  1.0 -0.4768128866
O  O50  1  0.53094000  0.16098000  0.64283000  1.0 -0.4768128866
O  O51  1  0.83902000  0.46906000  0.14283000  1.0 -0.4768128866
O  O52  1  0.46906000  0.83902000  0.35717000  1.0 -0.4768128866
O  O53  1  0.19686000  0.61782000  0.92279000  1.0 -0.4611182112
O  O54  1  0.61782000  0.19686000  0.57721000  1.0 -0.4611182112
O  O55  1  0.80314000  0.38218000  0.07721000  1.0 -0.4611182112
O  O56  1  0.38218000  0.80314000  0.42279000  1.0 -0.4611182112
O  O57  1  0.22654000  0.94656000  0.89576000  1.0 -0.5176418
O  O58  1  0.94656000  0.22654000  0.60424000  1.0 -0.5176418
O  O59  1  0.77346000  0.05344000  0.10424000  1.0 -0.5176418
O  O60  1  0.05344000  0.77346000  0.39576000  1.0 -0.5176418
O  O61  1  0.22763000  0.02009000  0.81726000  1.0 -0.51122837
O  O62  1  0.02009000  0.22763000  0.68274000  1.0 -0.51122837
O  O63  1  0.77237000  0.97991000  0.18274000  1.0 -0.51122837
O  O64  1  0.97991000  0.77237000  0.31726000  1.0 -0.51122837
