# DDEC6 charges by PACMAN v1.1 (https://github.com/mtap-research/PACMAN-charge/)
data_GERWEH_FSR_pacman
_symmetry_space_group_name_H-M   'P 1'
_cell_length_a   17.49200000
_cell_length_b   17.49200000
_cell_length_c   9.10500000
_cell_angle_alpha   90.00000000
_cell_angle_beta   90.00000000
_cell_angle_gamma   90.00000000
_symmetry_Int_Tables_number   1
_chemical_formula_structural   Cu4SiH12(C8O5)4
_chemical_formula_sum   'Cu8 Si2 H24 C64 O40'
_cell_volume   2785.85743272
_cell_formula_units_Z   2
loop_
 _symmetry_equiv_pos_site_id
 _symmetry_equiv_pos_as_xyz
  1  'x, y, z'
loop_
 _atom_site_type_symbol
 _atom_site_label
 _atom_site_symmetry_multiplicity
 _atom_site_fract_x
 _atom_site_fract_y
 _atom_site_fract_z
 _atom_site_occupancy
 _atom_site_charge
Cu  Cu1  1  0.20628000  0.29372000  0.58487000  1.0 0.9286208349
Cu  Cu2  1  0.79372000  0.70628000  0.58487000  1.0 0.9286208349
Cu  Cu3  1  0.79372000  0.29372000  0.58487000  1.0 0.9286208349
Cu  Cu4  1  0.20628000  0.70628000  0.58487000  1.0 0.9286208349
Cu  Cu5  1  0.70628000  0.20628000  0.41513000  1.0 0.9286208349
Cu  Cu6  1  0.29372000  0.79372000  0.41513000  1.0 0.9286208349
Cu  Cu7  1  0.29372000  0.20628000  0.41513000  1.0 0.9286208349
Cu  Cu8  1  0.70628000  0.79372000  0.41513000  1.0 0.9286208349
Si  Si1  1  0.50000000  0.50000000  0.00000000  1.0 0.6367602843
Si  Si2  1  0.00000000  0.00000000  0.00000000  1.0 0.6367602843
H  H1  1  0.40170000  0.38520000  0.13990000  1.0 0.1318884688
H  H2  1  0.59830000  0.61480000  0.13990000  1.0 0.1318884688
H  H3  1  0.88520000  0.09830000  0.13990000  1.0 0.1318884688
H  H4  1  0.11480000  0.90170000  0.13990000  1.0 0.1318884688
H  H5  1  0.90170000  0.11480000  0.86010000  1.0 0.1318884688
H  H6  1  0.09830000  0.88520000  0.86010000  1.0 0.1318884688
H  H7  1  0.38520000  0.40170000  0.86010000  1.0 0.1318884688
H  H8  1  0.61480000  0.59830000  0.86010000  1.0 0.1318884688
H  H9  1  0.09830000  0.11480000  0.86010000  1.0 0.1318884688
H  H10  1  0.90170000  0.88520000  0.86010000  1.0 0.1318884688
H  H11  1  0.61480000  0.40170000  0.86010000  1.0 0.1318884688
H  H12  1  0.38520000  0.59830000  0.86010000  1.0 0.1318884688
H  H13  1  0.59830000  0.38520000  0.13990000  1.0 0.1318884688
H  H14  1  0.40170000  0.61480000  0.13990000  1.0 0.1318884688
H  H15  1  0.11480000  0.09830000  0.13990000  1.0 0.1318884688
H  H16  1  0.88520000  0.90170000  0.13990000  1.0 0.1318884688
H  H17  1  0.25220000  0.50000000  0.38960000  1.0 0.1553231711
H  H18  1  0.74780000  0.50000000  0.38960000  1.0 0.1553231711
H  H19  1  0.00000000  0.24780000  0.38960000  1.0 0.1553231711
H  H20  1  0.00000000  0.75220000  0.38960000  1.0 0.1553231711
H  H21  1  0.75220000  0.00000000  0.61040000  1.0 0.1553231711
H  H22  1  0.24780000  0.00000000  0.61040000  1.0 0.1553231711
H  H23  1  0.50000000  0.25220000  0.61040000  1.0 0.1553231711
H  H24  1  0.50000000  0.74780000  0.61040000  1.0 0.1553231711
C  C1  1  0.41250000  0.50000000  0.12050000  1.0 -0.1754345399
C  C2  1  0.58750000  0.50000000  0.12050000  1.0 -0.1754345399
C  C3  1  0.00000000  0.08750000  0.12050000  1.0 -0.1754345399
C  C4  1  0.00000000  0.91250000  0.12050000  1.0 -0.1754345399
C  C5  1  0.91250000  0.00000000  0.87950000  1.0 -0.1754345399
C  C6  1  0.08750000  0.00000000  0.87950000  1.0 -0.1754345399
C  C7  1  0.50000000  0.41250000  0.87950000  1.0 -0.1754345399
C  C8  1  0.50000000  0.58750000  0.87950000  1.0 -0.1754345399
C  C9  1  0.38190000  0.43145000  0.17310000  1.0 -0.0851022628
C  C10  1  0.61810000  0.56855000  0.17310000  1.0 -0.0851022628
C  C11  1  0.93145000  0.11810000  0.17310000  1.0 -0.0851022628
C  C12  1  0.06855000  0.88190000  0.17310000  1.0 -0.0851022628
C  C13  1  0.88190000  0.06855000  0.82690000  1.0 -0.0851022628
C  C14  1  0.11810000  0.93145000  0.82690000  1.0 -0.0851022628
C  C15  1  0.43145000  0.38190000  0.82690000  1.0 -0.0851022628
C  C16  1  0.56855000  0.61810000  0.82690000  1.0 -0.0851022628
C  C17  1  0.11810000  0.06855000  0.82690000  1.0 -0.0851022628
C  C18  1  0.88190000  0.93145000  0.82690000  1.0 -0.0851022628
C  C19  1  0.56855000  0.38190000  0.82690000  1.0 -0.0851022628
C  C20  1  0.43145000  0.61810000  0.82690000  1.0 -0.0851022628
C  C21  1  0.61810000  0.43145000  0.17310000  1.0 -0.0851022628
C  C22  1  0.38190000  0.56855000  0.17310000  1.0 -0.0851022628
C  C23  1  0.06855000  0.11810000  0.17310000  1.0 -0.0851022628
C  C24  1  0.93145000  0.88190000  0.17310000  1.0 -0.0806337928
C  C25  1  0.32230000  0.43130000  0.27480000  1.0 -0.0066073577
C  C26  1  0.67770000  0.56870000  0.27480000  1.0 -0.0066073577
C  C27  1  0.93130000  0.17770000  0.27480000  1.0 -0.0066073577
C  C28  1  0.06870000  0.82230000  0.27480000  1.0 -0.0066073577
C  C29  1  0.82230000  0.06870000  0.72520000  1.0 -0.0066073577
C  C30  1  0.17770000  0.93130000  0.72520000  1.0 -0.0066073577
C  C31  1  0.43130000  0.32230000  0.72520000  1.0 -0.0066073577
C  C32  1  0.56870000  0.67770000  0.72520000  1.0 -0.0066073577
C  C33  1  0.17770000  0.06870000  0.72520000  1.0 -0.0066073577
C  C34  1  0.82230000  0.93130000  0.72520000  1.0 -0.0066073577
C  C35  1  0.56870000  0.32230000  0.72520000  1.0 -0.0066073577
C  C36  1  0.43130000  0.67770000  0.72520000  1.0 -0.0066073577
C  C37  1  0.67770000  0.43130000  0.27480000  1.0 -0.0066073577
C  C38  1  0.32230000  0.56870000  0.27480000  1.0 -0.0066073577
C  C39  1  0.06870000  0.17770000  0.27480000  1.0 -0.0066073577
C  C40  1  0.93130000  0.82230000  0.27480000  1.0 -0.0066073577
C  C41  1  0.29270000  0.50000000  0.32330000  1.0 -0.0806337928
C  C42  1  0.70730000  0.50000000  0.32330000  1.0 -0.0806337928
C  C43  1  0.00000000  0.20730000  0.32330000  1.0 -0.0806337928
C  C44  1  0.00000000  0.79270000  0.32330000  1.0 -0.0806337928
C  C45  1  0.79270000  0.00000000  0.67670000  1.0 -0.0806337928
C  C46  1  0.20730000  0.00000000  0.67670000  1.0 -0.0806337928
C  C47  1  0.50000000  0.29270000  0.67670000  1.0 -0.0806337928
C  C48  1  0.50000000  0.70730000  0.67670000  1.0 -0.0806337928
C  C49  1  0.29160000  0.35950000  0.34120000  1.0 0.5807944434
C  C50  1  0.70840000  0.64050000  0.34120000  1.0 0.5807944434
C  C51  1  0.85950000  0.20840000  0.34120000  1.0 0.5807944434
C  C52  1  0.14050000  0.79160000  0.34120000  1.0 0.5807944434
C  C53  1  0.79160000  0.14050000  0.65880000  1.0 0.5807944434
C  C54  1  0.20840000  0.85950000  0.65880000  1.0 0.5807944434
C  C55  1  0.35950000  0.29160000  0.65880000  1.0 0.5807944434
C  C56  1  0.64050000  0.70840000  0.65880000  1.0 0.5807944434
C  C57  1  0.20840000  0.14050000  0.65880000  1.0 0.5807944434
C  C58  1  0.79160000  0.85950000  0.65880000  1.0 0.5807944434
C  C59  1  0.64050000  0.29160000  0.65880000  1.0 0.5807944434
C  C60  1  0.35950000  0.70840000  0.65880000  1.0 0.5807944434
C  C61  1  0.70840000  0.35950000  0.34120000  1.0 0.5807944434
C  C62  1  0.29160000  0.64050000  0.34120000  1.0 0.5807944434
C  C63  1  0.14050000  0.20840000  0.34120000  1.0 0.5807944434
C  C64  1  0.85950000  0.79160000  0.34120000  1.0 0.5807944434
O  O1  1  0.24379000  0.36780000  0.44110000  1.0 -0.5151878697
O  O2  1  0.75621000  0.63220000  0.44110000  1.0 -0.5151878697
O  O3  1  0.86780000  0.25621000  0.44110000  1.0 -0.5151878697
O  O4  1  0.13220000  0.74379000  0.44110000  1.0 -0.5151878697
O  O5  1  0.74379000  0.13220000  0.55890000  1.0 -0.514142583
O  O6  1  0.25621000  0.86780000  0.55890000  1.0 -0.514142583
O  O7  1  0.36780000  0.24379000  0.55890000  1.0 -0.514142583
O  O8  1  0.63220000  0.75621000  0.55890000  1.0 -0.514142583
O  O9  1  0.25621000  0.13220000  0.55890000  1.0 -0.514142583
O  O10  1  0.74379000  0.86780000  0.55890000  1.0 -0.514142583
O  O11  1  0.63220000  0.24379000  0.55890000  1.0 -0.514142583
O  O12  1  0.36780000  0.75621000  0.55890000  1.0 -0.514142583
O  O13  1  0.75621000  0.36780000  0.44110000  1.0 -0.5151878697
O  O14  1  0.24379000  0.63220000  0.44110000  1.0 -0.5151878697
O  O15  1  0.13220000  0.25621000  0.44110000  1.0 -0.5151878697
O  O16  1  0.86780000  0.74379000  0.44110000  1.0 -0.5151878697
O  O17  1  0.31750000  0.29700000  0.29550000  1.0 -0.4959866208
O  O18  1  0.68250000  0.70300000  0.29550000  1.0 -0.4959866208
O  O19  1  0.79700000  0.18250000  0.29550000  1.0 -0.4959866208
O  O20  1  0.20300000  0.81750000  0.29550000  1.0 -0.4959866208
O  O21  1  0.81750000  0.20300000  0.70450000  1.0 -0.4959866208
O  O22  1  0.18250000  0.79700000  0.70450000  1.0 -0.4959866208
O  O23  1  0.29700000  0.31750000  0.70450000  1.0 -0.4959866208
O  O24  1  0.70300000  0.68250000  0.70450000  1.0 -0.4959866208
O  O25  1  0.18250000  0.20300000  0.70450000  1.0 -0.4959866208
O  O26  1  0.81750000  0.79700000  0.70450000  1.0 -0.4959866208
O  O27  1  0.70300000  0.31750000  0.70450000  1.0 -0.4959866208
O  O28  1  0.29700000  0.68250000  0.70450000  1.0 -0.4959866208
O  O29  1  0.68250000  0.29700000  0.29550000  1.0 -0.4959866208
O  O30  1  0.31750000  0.70300000  0.29550000  1.0 -0.4959866208
O  O31  1  0.20300000  0.18250000  0.29550000  1.0 -0.4959866208
O  O32  1  0.79700000  0.81750000  0.29550000  1.0 -0.4959866208
O  O33  1  0.12846000  0.37154000  0.69090000  1.0 -0.2082671923
O  O34  1  0.87154000  0.62846000  0.69090000  1.0 -0.2082671923
O  O35  1  0.87154000  0.37154000  0.69090000  1.0 -0.2082671923
O  O36  1  0.12846000  0.62846000  0.69090000  1.0 -0.2082671923
O  O37  1  0.62846000  0.12846000  0.30910000  1.0 -0.2082671923
O  O38  1  0.37154000  0.87154000  0.30910000  1.0 -0.2082671923
O  O39  1  0.37154000  0.12846000  0.30910000  1.0 -0.2082671923
O  O40  1  0.62846000  0.87154000  0.30910000  1.0 -0.2082671923
