# DDEC6 charges by PACMAN v1.1 (https://github.com/mtap-research/PACMAN-charge/)
data_GESDUF_FSR_pacman
_symmetry_space_group_name_H-M   'P 1'
_cell_length_a   19.36650000
_cell_length_b   19.36650000
_cell_length_c   8.14550000
_cell_angle_alpha   80.56080000
_cell_angle_beta   99.43920000
_cell_angle_gamma   140.19100000
_symmetry_Int_Tables_number   1
_chemical_formula_structural   CoH28C32O11
_chemical_formula_sum   'Co2 H56 C64 O22'
_cell_volume   1925.96131840
_cell_formula_units_Z   2
loop_
 _symmetry_equiv_pos_site_id
 _symmetry_equiv_pos_as_xyz
  1  'x, y, z'
loop_
 _atom_site_type_symbol
 _atom_site_label
 _atom_site_symmetry_multiplicity
 _atom_site_fract_x
 _atom_site_fract_y
 _atom_site_fract_z
 _atom_site_occupancy
 _atom_site_charge
Co  Co1  1  0.00000000  0.00000000  0.00000000  1.0 1.0913756375
Co  Co2  1  0.00000000  0.00000000  0.50000000  1.0 1.0913756375
H  H1  1  0.18770000  0.08810000  0.99560000  1.0 0.3708943908
H  H2  1  0.08810000  0.18770000  0.50440000  1.0 0.3708943908
H  H3  1  0.81230000  0.91190000  0.00440000  1.0 0.3708943908
H  H4  1  0.91190000  0.81230000  0.49560000  1.0 0.3708943908
H  H5  1  0.14890000  0.07450000  0.82980000  1.0 0.3708943908
H  H6  1  0.07450000  0.14890000  0.67020000  1.0 0.3708943908
H  H7  1  0.85110000  0.92550000  0.17020000  1.0 0.3708943908
H  H8  1  0.92550000  0.85110000  0.32980000  1.0 0.3708943908
H  H9  1  0.10690000  0.35630000  0.04500000  1.0 0.1134545316
H  H10  1  0.35630000  0.10690000  0.45500000  1.0 0.1134545316
H  H11  1  0.89310000  0.64370000  0.95500000  1.0 0.1134545316
H  H12  1  0.64370000  0.89310000  0.54500000  1.0 0.1134545316
H  H13  1  0.09040000  0.45440000  0.89680000  1.0 0.1196180952
H  H14  1  0.45440000  0.09040000  0.60320000  1.0 0.1196180952
H  H15  1  0.90960000  0.54560000  0.10320000  1.0 0.1196180952
H  H16  1  0.54560000  0.90960000  0.39680000  1.0 0.1196180952
H  H17  1  0.94660000  0.26800000  0.51370000  1.0 0.1196180952
H  H18  1  0.26800000  0.94660000  0.98630000  1.0 0.1196180952
H  H19  1  0.05340000  0.73200000  0.48630000  1.0 0.1196180952
H  H20  1  0.73200000  0.05340000  0.01370000  1.0 0.1196180952
H  H21  1  0.96210000  0.16870000  0.66310000  1.0 0.1196180952
H  H22  1  0.16870000  0.96210000  0.83690000  1.0 0.1196180952
H  H23  1  0.03790000  0.83130000  0.33690000  1.0 0.1196180952
H  H24  1  0.83130000  0.03790000  0.16310000  1.0 0.1196180952
H  H25  1  0.21490000  0.56050000  0.65590000  1.0 0.1196180952
H  H26  1  0.56050000  0.21490000  0.84410000  1.0 0.1196180952
H  H27  1  0.78510000  0.43950000  0.34410000  1.0 0.1196180952
H  H28  1  0.43950000  0.78510000  0.15590000  1.0 0.1196180952
H  H29  1  0.36750000  0.67370000  0.80890000  1.0 0.1196180952
H  H30  1  0.67370000  0.36750000  0.69110000  1.0 0.1196180952
H  H31  1  0.63250000  0.32630000  0.19110000  1.0 0.1196180952
H  H32  1  0.32630000  0.63250000  0.30890000  1.0 0.1196180952
H  H33  1  0.39580000  0.65840000  0.65950000  1.0 0.1196180952
H  H34  1  0.65840000  0.39580000  0.84050000  1.0 0.1196180952
H  H35  1  0.60420000  0.34160000  0.34050000  1.0 0.1196180952
H  H36  1  0.34160000  0.60420000  0.15950000  1.0 0.1196180952
H  H37  1  0.48770000  0.76190000  0.76170000  1.0 0.1304612641
H  H38  1  0.76190000  0.48770000  0.73830000  1.0 0.1304612641
H  H39  1  0.51230000  0.23810000  0.23830000  1.0 0.1304612641
H  H40  1  0.23810000  0.51230000  0.26170000  1.0 0.1304612641
H  H41  1  0.34360000  0.94120000  0.40860000  1.0 0.1196180952
H  H42  1  0.94120000  0.34360000  0.09140000  1.0 0.1196180952
H  H43  1  0.65640000  0.05880000  0.59140000  1.0 0.1196180952
H  H44  1  0.05880000  0.65640000  0.90860000  1.0 0.1196180952
H  H45  1  0.45240000  0.01180000  0.32940000  1.0 0.1373360117
H  H46  1  0.01180000  0.45240000  0.17060000  1.0 0.1373360117
H  H47  1  0.54760000  0.98820000  0.67060000  1.0 0.1373360117
H  H48  1  0.98820000  0.54760000  0.82940000  1.0 0.1373360117
H  H49  1  0.34200000  0.91100000  0.23980000  1.0 0.1134545316
H  H50  1  0.91100000  0.34200000  0.26020000  1.0 0.1134545316
H  H51  1  0.65800000  0.08900000  0.76020000  1.0 0.1134545316
H  H52  1  0.08900000  0.65800000  0.73980000  1.0 0.1134545316
H  H53  1  0.18690000  0.76110000  0.34400000  1.0 0.1196180952
H  H54  1  0.76110000  0.18690000  0.15600000  1.0 0.1196180952
H  H55  1  0.81310000  0.23890000  0.65600000  1.0 0.1196180952
H  H56  1  0.23890000  0.81310000  0.84400000  1.0 0.1196180952
C  C1  1  0.05166000  0.19154000  0.96610000  1.0 0.5575923805
C  C2  1  0.19154000  0.05166000  0.53390000  1.0 0.5575923805
C  C3  1  0.94834000  0.80846000  0.03390000  1.0 0.5575923805
C  C4  1  0.80846000  0.94834000  0.46610000  1.0 0.5575923805
C  C5  1  0.03837000  0.25343000  0.86920000  1.0 -0.0294070722
C  C6  1  0.25343000  0.03837000  0.63080000  1.0 -0.0294070722
C  C7  1  0.96163000  0.74657000  0.13080000  1.0 -0.0294070722
C  C8  1  0.74657000  0.96163000  0.36920000  1.0 -0.0294070722
C  C9  1  0.07503000  0.33857000  0.93730000  1.0 -0.1028194691
C  C10  1  0.33857000  0.07503000  0.56270000  1.0 -0.1028194691
C  C11  1  0.92497000  0.66143000  0.06270000  1.0 -0.1028194691
C  C12  1  0.66143000  0.92497000  0.43730000  1.0 -0.1028194691
C  C13  1  0.06494000  0.39726000  0.84850000  1.0 -0.1507330223
C  C14  1  0.39726000  0.06494000  0.65150000  1.0 -0.1507330223
C  C15  1  0.93506000  0.60274000  0.15150000  1.0 -0.1507330223
C  C16  1  0.60274000  0.93506000  0.34850000  1.0 -0.1507330223
C  C17  1  0.01772000  0.37288000  0.68920000  1.0 0.0882970837
C  C18  1  0.37288000  0.01772000  0.81080000  1.0 0.0882970837
C  C19  1  0.98228000  0.62712000  0.31080000  1.0 0.0882970837
C  C20  1  0.62712000  0.98228000  0.18920000  1.0 0.0882970837
C  C21  1  0.97926000  0.28614000  0.62100000  1.0 -0.160248738
C  C22  1  0.28614000  0.97926000  0.87900000  1.0 -0.160248738
C  C23  1  0.02074000  0.71386000  0.37900000  1.0 -0.160248738
C  C24  1  0.71386000  0.02074000  0.12100000  1.0 -0.160248738
C  C25  1  0.98900000  0.22700000  0.71010000  1.0 -0.1028194691
C  C26  1  0.22700000  0.98900000  0.78990000  1.0 -0.1028194691
C  C27  1  0.01100000  0.77300000  0.28990000  1.0 -0.1028194691
C  C28  1  0.77300000  0.01100000  0.21010000  1.0 -0.1028194691
C  C29  1  0.00853000  0.43807000  0.59300000  1.0 -0.0294070722
C  C30  1  0.43807000  0.00853000  0.90700000  1.0 -0.0294070722
C  C31  1  0.99147000  0.56193000  0.40700000  1.0 -0.0294070722
C  C32  1  0.56193000  0.99147000  0.09300000  1.0 -0.0294070722
C  C33  1  0.10194000  0.54706000  0.54840000  1.0 0.0390178577
C  C34  1  0.54706000  0.10194000  0.95160000  1.0 0.0390178577
C  C35  1  0.89806000  0.45294000  0.45160000  1.0 0.0390178577
C  C36  1  0.45294000  0.89806000  0.04840000  1.0 0.0390178577
C  C37  1  0.20767000  0.60033000  0.59720000  1.0 -0.2778718735
C  C38  1  0.60033000  0.20767000  0.90280000  1.0 -0.2778718735
C  C39  1  0.79233000  0.39967000  0.40280000  1.0 -0.2778718735
C  C40  1  0.39967000  0.79233000  0.09720000  1.0 -0.2778718735
C  C41  1  0.29725000  0.70635000  0.56100000  1.0 0.1565126066
C  C42  1  0.70635000  0.29725000  0.93900000  1.0 0.1565126066
C  C43  1  0.70275000  0.29365000  0.43900000  1.0 0.1565126066
C  C44  1  0.29365000  0.70275000  0.06100000  1.0 0.1565126066
C  C45  1  0.41386000  0.71014000  0.71850000  1.0 -0.2290100719
C  C46  1  0.71014000  0.41386000  0.78150000  1.0 -0.2290100719
C  C47  1  0.58614000  0.28986000  0.28150000  1.0 -0.2290100719
C  C48  1  0.28986000  0.58614000  0.21850000  1.0 -0.2290100719
C  C49  1  0.28915000  0.76865000  0.46460000  1.0 0.1694195566
C  C50  1  0.76865000  0.28915000  0.03540000  1.0 0.1694195566
C  C51  1  0.71085000  0.23135000  0.53540000  1.0 0.1694195566
C  C52  1  0.23135000  0.71085000  0.96460000  1.0 0.1694195566
C  C53  1  0.38026000  0.93974000  0.34600000  1.0 -0.2290100719
C  C54  1  0.93974000  0.38026000  0.15400000  1.0 -0.2290100719
C  C55  1  0.61974000  0.06026000  0.65400000  1.0 -0.2290100719
C  C56  1  0.06026000  0.61974000  0.84600000  1.0 -0.2290100719
C  C57  1  0.19126000  0.72074000  0.41110000  1.0 -0.2981846223
C  C58  1  0.72074000  0.19126000  0.08890000  1.0 -0.2981846223
C  C59  1  0.80874000  0.27926000  0.58890000  1.0 -0.2981846223
C  C60  1  0.27926000  0.80874000  0.91110000  1.0 -0.2981846223
C  C61  1  0.09341000  0.60959000  0.45400000  1.0 0.0390178577
C  C62  1  0.60959000  0.09341000  0.04600000  1.0 0.0390178577
C  C63  1  0.90659000  0.39041000  0.54600000  1.0 0.0390178577
C  C64  1  0.39041000  0.90659000  0.95400000  1.0 0.0390178577
O  O1  1  0.93340000  0.93340000  0.75000000  1.0 -0.3795594241
O  O2  1  0.06660000  0.06660000  0.25000000  1.0 -0.3795594241
O  O3  1  0.14564000  0.08366000  0.92020000  1.0 -0.6556984449
O  O4  1  0.08366000  0.14564000  0.57980000  1.0 -0.6556984449
O  O5  1  0.85436000  0.91634000  0.07980000  1.0 -0.6556984449
O  O6  1  0.91634000  0.85436000  0.42020000  1.0 -0.6556984449
O  O7  1  0.02529000  0.12045000  0.89240000  1.0 -0.5652105923
O  O8  1  0.12045000  0.02529000  0.60760000  1.0 -0.5644542689
O  O9  1  0.97471000  0.87955000  0.10760000  1.0 -0.5652105923
O  O10  1  0.87955000  0.97471000  0.39240000  1.0 -0.5652105923
O  O11  1  0.08778000  0.21202000  0.11270000  1.0 -0.4842252548
O  O12  1  0.21202000  0.08778000  0.38730000  1.0 -0.4842252548
O  O13  1  0.91222000  0.78798000  0.88730000  1.0 -0.4853223081
O  O14  1  0.78798000  0.91222000  0.61270000  1.0 -0.4853223081
O  O15  1  0.40038000  0.76372000  0.60900000  1.0 -0.1507330223
O  O16  1  0.76372000  0.40038000  0.89100000  1.0 -0.1507330223
O  O17  1  0.59962000  0.23628000  0.39100000  1.0 -0.1507330223
O  O18  1  0.23628000  0.59962000  0.10900000  1.0 -0.1507330223
O  O19  1  0.38462000  0.87354000  0.43520000  1.0 -0.1334670897
O  O20  1  0.87354000  0.38462000  0.06480000  1.0 -0.1334670897
O  O21  1  0.61538000  0.12646000  0.56480000  1.0 -0.1334670897
O  O22  1  0.12646000  0.61538000  0.93520000  1.0 -0.1334670897
