# DDEC6 charges by PACMAN v1.1 (https://github.com/mtap-research/PACMAN-charge/)
data_GESFAN_ASR_pacman
_symmetry_space_group_name_H-M   'P 1'
_cell_length_a   19.50000000
_cell_length_b   19.50000000
_cell_length_c   7.94800000
_cell_angle_alpha   80.65480000
_cell_angle_beta   99.34520000
_cell_angle_gamma   139.77700000
_symmetry_Int_Tables_number   1
_chemical_formula_structural   NiH24C32O9
_chemical_formula_sum   'Ni2 H48 C64 O18'
_cell_volume   1922.24408058
_cell_formula_units_Z   2
loop_
 _symmetry_equiv_pos_site_id
 _symmetry_equiv_pos_as_xyz
  1  'x, y, z'
loop_
 _atom_site_type_symbol
 _atom_site_label
 _atom_site_symmetry_multiplicity
 _atom_site_fract_x
 _atom_site_fract_y
 _atom_site_fract_z
 _atom_site_occupancy
 _atom_site_charge
Ni  Ni1  1  0.00000000  0.00000000  0.00000000  1.0 1.2021348447
Ni  Ni2  1  0.00000000  0.00000000  0.50000000  1.0 1.2021348447
H  H1  1  0.64460000  0.89020000  0.04850000  1.0 0.1204082893
H  H2  1  0.89020000  0.64460000  0.45150000  1.0 0.1204082893
H  H3  1  0.35540000  0.10980000  0.95150000  1.0 0.1204082893
H  H4  1  0.10980000  0.35540000  0.54850000  1.0 0.1204082893
H  H5  1  0.54600000  0.90680000  0.89860000  1.0 0.1204082893
H  H6  1  0.90680000  0.54600000  0.60140000  1.0 0.1204082893
H  H7  1  0.45400000  0.09320000  0.10140000  1.0 0.1204082893
H  H8  1  0.09320000  0.45400000  0.39860000  1.0 0.1204082893
H  H9  1  0.73520000  0.05820000  0.51000000  1.0 0.1204082893
H  H10  1  0.05820000  0.73520000  0.99000000  1.0 0.1204082893
H  H11  1  0.26480000  0.94180000  0.49000000  1.0 0.1204082893
H  H12  1  0.94180000  0.26480000  0.01000000  1.0 0.1204082893
H  H13  1  0.83440000  0.04200000  0.66040000  1.0 0.1271799789
H  H14  1  0.04200000  0.83440000  0.83960000  1.0 0.1271799789
H  H15  1  0.16560000  0.95800000  0.33960000  1.0 0.1271799789
H  H16  1  0.95800000  0.16560000  0.16040000  1.0 0.1271799789
H  H17  1  0.44670000  0.78950000  0.64440000  1.0 0.1271799789
H  H18  1  0.78950000  0.44670000  0.85560000  1.0 0.1204082893
H  H19  1  0.55330000  0.21050000  0.35560000  1.0 0.1204082893
H  H20  1  0.21050000  0.55330000  0.14440000  1.0 0.1204082893
H  H21  1  0.75920000  0.18640000  0.65560000  1.0 0.1271799789
H  H22  1  0.18640000  0.75920000  0.84440000  1.0 0.1271799789
H  H23  1  0.24080000  0.81360000  0.34440000  1.0 0.1271799789
H  H24  1  0.81360000  0.24080000  0.15560000  1.0 0.1271799789
H  H25  1  0.91280000  0.34320000  0.75720000  1.0 0.1204082893
H  H26  1  0.34320000  0.91280000  0.74280000  1.0 0.1204082893
H  H27  1  0.08720000  0.65680000  0.24280000  1.0 0.1204082893
H  H28  1  0.65680000  0.08720000  0.25720000  1.0 0.1204082893
H  H29  1  0.93370000  0.34030000  0.57750000  1.0 0.1204082893
H  H30  1  0.34030000  0.93370000  0.92250000  1.0 0.1204082893
H  H31  1  0.06630000  0.65970000  0.42250000  1.0 0.1204082893
H  H32  1  0.65970000  0.06630000  0.07750000  1.0 0.1204082893
H  H33  1  0.00730000  0.44970000  0.65530000  1.0 0.1393754452
H  H34  1  0.44970000  0.00730000  0.84470000  1.0 0.1393754452
H  H35  1  0.99270000  0.55030000  0.34470000  1.0 0.1393754452
H  H36  1  0.55030000  0.99270000  0.15530000  1.0 0.1393754452
H  H37  1  0.64440000  0.38620000  0.35610000  1.0 0.1204082893
H  H38  1  0.38620000  0.64440000  0.14390000  1.0 0.1204082893
H  H39  1  0.35560000  0.61380000  0.64390000  1.0 0.1204082893
H  H40  1  0.61380000  0.35560000  0.85610000  1.0 0.1204082893
H  H41  1  0.74700000  0.48220000  0.25570000  1.0 0.1393754452
H  H42  1  0.48220000  0.74700000  0.24430000  1.0 0.1393754452
H  H43  1  0.25300000  0.51780000  0.74430000  1.0 0.1393754452
H  H44  1  0.51780000  0.25300000  0.75570000  1.0 0.1393754452
H  H45  1  0.66460000  0.36640000  0.19680000  1.0 0.1204082893
H  H46  1  0.36640000  0.66460000  0.30320000  1.0 0.1204082893
H  H47  1  0.33540000  0.63360000  0.80320000  1.0 0.1204082893
H  H48  1  0.63360000  0.33540000  0.69680000  1.0 0.1204082893
C  C1  1  0.81159000  0.95061000  0.96920000  1.0 0.5605200052
C  C2  1  0.95061000  0.81159000  0.53080000  1.0 0.5605200052
C  C3  1  0.18841000  0.04939000  0.03080000  1.0 0.5605200052
C  C4  1  0.04939000  0.18841000  0.46920000  1.0 0.5605200052
C  C5  1  0.74909000  0.96311000  0.87010000  1.0 -0.0144830481
C  C6  1  0.96311000  0.74909000  0.62990000  1.0 -0.0144830481
C  C7  1  0.25091000  0.03689000  0.12990000  1.0 -0.0144830481
C  C8  1  0.03689000  0.25091000  0.37010000  1.0 -0.0144830481
C  C9  1  0.66297000  0.92383000  0.93960000  1.0 -0.111130764
C  C10  1  0.92383000  0.66297000  0.56040000  1.0 -0.111130764
C  C11  1  0.33703000  0.07617000  0.06040000  1.0 -0.111130764
C  C12  1  0.07617000  0.33703000  0.43960000  1.0 -0.111130764
C  C13  1  0.60358000  0.93382000  0.84940000  1.0 -0.156897384
C  C14  1  0.93382000  0.60358000  0.65060000  1.0 -0.156897384
C  C15  1  0.39642000  0.06618000  0.15060000  1.0 -0.156897384
C  C16  1  0.06618000  0.39642000  0.34940000  1.0 -0.156897384
C  C17  1  0.62915000  0.98365000  0.68670000  1.0 0.0840887844
C  C18  1  0.98365000  0.62915000  0.81330000  1.0 0.0840887844
C  C19  1  0.37085000  0.01635000  0.31330000  1.0 0.0840887844
C  C20  1  0.01635000  0.37085000  0.18670000  1.0 0.0840887844
C  C21  1  0.71630000  0.02390000  0.61850000  1.0 -0.15368675
C  C22  1  0.02390000  0.71630000  0.88150000  1.0 -0.15368675
C  C23  1  0.28370000  0.97610000  0.38150000  1.0 -0.15368675
C  C24  1  0.97610000  0.28370000  0.11850000  1.0 -0.15368675
C  C25  1  0.77619000  0.01421000  0.70860000  1.0 -0.0796019875
C  C26  1  0.01421000  0.77619000  0.79140000  1.0 -0.0796019875
C  C27  1  0.22381000  0.98579000  0.29140000  1.0 -0.0796019875
C  C28  1  0.98579000  0.22381000  0.20860000  1.0 -0.0796019875
C  C29  1  0.40548000  0.79552000  0.58910000  1.0 -0.2690586776
C  C30  1  0.79552000  0.40548000  0.91090000  1.0 -0.2690586776
C  C31  1  0.59452000  0.20448000  0.41090000  1.0 -0.2690586776
C  C32  1  0.20448000  0.59452000  0.08910000  1.0 -0.2690586776
C  C33  1  0.45498000  0.89902000  0.54420000  1.0 0.0473154269
C  C34  1  0.89902000  0.45498000  0.95580000  1.0 0.0473154269
C  C35  1  0.54502000  0.10098000  0.45580000  1.0 0.0473154269
C  C36  1  0.10098000  0.54502000  0.04420000  1.0 0.0473154269
C  C37  1  0.56285000  0.99215000  0.59060000  1.0 -0.0192182467
C  C38  1  0.99215000  0.56285000  0.90940000  1.0 -0.0192182467
C  C39  1  0.43715000  0.00785000  0.40940000  1.0 -0.0192182467
C  C40  1  0.00785000  0.43715000  0.09060000  1.0 -0.0192182467
C  C41  1  0.60810000  0.09270000  0.54700000  1.0 0.0431626632
C  C42  1  0.09270000  0.60810000  0.95300000  1.0 0.0431626632
C  C43  1  0.39190000  0.90730000  0.45300000  1.0 0.0431626632
C  C44  1  0.90730000  0.39190000  0.04700000  1.0 0.0431626632
C  C45  1  0.71795000  0.19005000  0.58980000  1.0 -0.2962883145
C  C46  1  0.19005000  0.71795000  0.91020000  1.0 -0.2962883145
C  C47  1  0.28205000  0.80995000  0.41020000  1.0 -0.2962883145
C  C48  1  0.80995000  0.28205000  0.08980000  1.0 -0.2962883145
C  C49  1  0.93583000  0.37837000  0.64550000  1.0 -0.2270793386
C  C50  1  0.37837000  0.93583000  0.85450000  1.0 -0.2270793386
C  C51  1  0.06417000  0.62163000  0.35450000  1.0 -0.2270793386
C  C52  1  0.62163000  0.06417000  0.14550000  1.0 -0.2270793386
C  C53  1  0.76314000  0.28646000  0.53780000  1.0 0.176828888
C  C54  1  0.28646000  0.76314000  0.96220000  1.0 0.176828888
C  C55  1  0.23686000  0.71354000  0.46220000  1.0 0.176828888
C  C56  1  0.71354000  0.23686000  0.03780000  1.0 0.176828888
C  C57  1  0.69860000  0.29360000  0.44590000  1.0 0.1666906446
C  C58  1  0.29360000  0.69860000  0.05410000  1.0 0.1666906446
C  C59  1  0.30140000  0.70640000  0.55410000  1.0 0.1666906446
C  C60  1  0.70640000  0.30140000  0.94590000  1.0 0.1666906446
C  C61  1  0.69779000  0.40861000  0.29380000  1.0 -0.2270793386
C  C62  1  0.40861000  0.69779000  0.20620000  1.0 -0.2270793386
C  C63  1  0.30221000  0.59139000  0.70620000  1.0 -0.2270793386
C  C64  1  0.59139000  0.30221000  0.79380000  1.0 -0.2270793386
O  O1  1  0.86712000  0.38146000  0.56600000  1.0 -0.1286972791
O  O2  1  0.38146000  0.86712000  0.93400000  1.0 -0.1286972791
O  O3  1  0.13288000  0.61854000  0.43400000  1.0 -0.1286972791
O  O4  1  0.61854000  0.13288000  0.06600000  1.0 -0.1286972791
O  O5  1  0.75330000  0.39552000  0.40180000  1.0 -0.144423756
O  O6  1  0.39552000  0.75330000  0.09820000  1.0 -0.144423756
O  O7  1  0.24670000  0.60448000  0.59820000  1.0 -0.144423756
O  O8  1  0.60448000  0.24670000  0.90180000  1.0 -0.144423756
O  O9  1  0.88339000  0.97875000  0.89290000  1.0 -0.5595574856
O  O10  1  0.97875000  0.88339000  0.60710000  1.0 -0.5595574856
O  O11  1  0.11661000  0.02125000  0.10710000  1.0 -0.5595574856
O  O12  1  0.02125000  0.11661000  0.39290000  1.0 -0.5595574856
O  O13  1  0.79176000  0.91452000  0.11930000  1.0 -0.4428639293
O  O14  1  0.91452000  0.79176000  0.38070000  1.0 -0.4428639293
O  O15  1  0.20824000  0.08548000  0.88070000  1.0 -0.4428639293
O  O16  1  0.08548000  0.20824000  0.61930000  1.0 -0.4428639293
O  O17  1  0.93745000  0.93745000  0.25000000  1.0 -0.6953552395
O  O18  1  0.06255000  0.06255000  0.75000000  1.0 -0.6953552395
