# DDEC6 charges by PACMAN v1.1 (https://github.com/mtap-research/PACMAN-charge/)
data_GESGOE_FSR_pacman
_symmetry_space_group_name_H-M   'P 1'
_cell_length_a   11.67700000
_cell_length_b   18.42760000
_cell_length_c   21.37470000
_cell_angle_alpha   108.30400000
_cell_angle_beta   103.30000000
_cell_angle_gamma   97.57900000
_symmetry_Int_Tables_number   1
_chemical_formula_structural   Ni2H44C64S2N12O17
_chemical_formula_sum   'Ni4 H88 C128 S4 N24 O34'
_cell_volume   4144.53162423
_cell_formula_units_Z   2
loop_
 _symmetry_equiv_pos_site_id
 _symmetry_equiv_pos_as_xyz
  1  'x, y, z'
loop_
 _atom_site_type_symbol
 _atom_site_label
 _atom_site_symmetry_multiplicity
 _atom_site_fract_x
 _atom_site_fract_y
 _atom_site_fract_z
 _atom_site_occupancy
 _atom_site_charge
Ni  Ni1  1  0.99579000  0.75519000  0.25921000  1.0 0.7787423527
Ni  Ni2  1  0.00421000  0.24481000  0.74079000  1.0 0.7787423527
Ni  Ni3  1  0.00000000  0.50000000  0.50000000  1.0 0.7787423527
Ni  Ni4  1  0.00000000  0.00000000  0.00000000  1.0 0.8183761036
H  H1  1  0.83696000  0.21781000  0.93810000  1.0 0.1394308851
H  H2  1  0.94887000  0.85224000  0.35557000  1.0 0.3386492899
H  H3  1  0.85954000  0.78755000  0.33240000  1.0 0.3001607134
H  H4  1  0.33517000  0.74163000  0.44824000  1.0 0.1394308851
H  H5  1  0.47896000  0.67330000  0.48132000  1.0 0.3001607134
H  H6  1  0.63742000  0.34595000  0.37354000  1.0 0.1301639092
H  H7  1  0.33821000  0.12928000  0.69497000  1.0 0.1556255019
H  H8  1  0.51585000  0.07562000  0.77337000  1.0 0.3074293753
H  H9  1  0.94929000  0.15928000  0.00178000  1.0 0.1176690592
H  H10  1  0.50366000  0.85212000  0.06027000  1.0 0.2902710285
H  H11  1  0.04811000  0.40302000  0.40311000  1.0 0.3468207812
H  H12  1  0.13986000  0.46771000  0.42814000  1.0 0.3214142716
H  H13  1  0.67837000  0.00666000  0.79928000  1.0 0.1394308851
H  H14  1  0.49896000  0.39594000  0.68634000  1.0 0.3001607134
H  H15  1  0.98149000  0.08208000  0.11575000  1.0 0.3386492899
H  H16  1  0.87236000  0.03295000  0.09055000  1.0 0.3001607134
H  H17  1  0.15136000  0.53293000  0.30994000  1.0 0.1487542653
H  H18  1  0.00390000  0.68557000  0.14162000  1.0 0.3074293753
H  H19  1  0.11725000  0.72915000  0.16742000  1.0 0.3001607134
H  H20  1  0.11997000  0.05170000  0.30183000  1.0 0.1301639092
H  H21  1  0.67433000  0.51610000  0.04075000  1.0 0.1176690592
H  H22  1  0.39013000  0.43952000  0.60643000  1.0 0.1301639092
H  H23  1  0.21370000  0.19867000  0.99258000  1.0 0.11150093
H  H24  1  0.26399000  0.50305000  0.55575000  1.0 0.11150093
H  H25  1  0.80741000  0.18994000  0.42923000  1.0 0.1394308851
H  H26  1  0.98380000  0.37918000  0.56929000  1.0 0.11150093
H  H27  1  0.20941000  0.79838000  0.38983000  1.0 0.1301639092
H  H28  1  0.03141000  0.59580000  0.25602000  1.0 0.11150093
H  H29  1  0.72998000  0.75348000  0.20100000  1.0 0.1000333946
H  H30  1  0.09744000  0.31231000  0.62109000  1.0 0.1394308851
H  H31  1  0.79997000  0.95443000  0.86467000  1.0 0.11150093
H  H32  1  0.45130000  0.26008000  0.33668000  1.0 0.1301639092
H  H33  1  0.30371000  0.28976000  0.19766000  1.0 0.1301639092
H  H34  1  0.26594000  0.15684000  0.31494000  1.0 0.1394308851
H  H35  1  0.67883000  0.33919000  0.75923000  1.0 0.1487542653
H  H36  1  0.90315000  0.93892000  0.13119000  1.0 0.1394308851
H  H37  1  0.01784000  0.87268000  0.18520000  1.0 0.11150093
H  H38  1  0.70708000  0.55626000  0.23873000  1.0 0.1301639092
H  H39  1  0.51154000  0.41556000  0.00661000  1.0 0.1301639092
H  H40  1  0.35210000  0.30078000  0.99045000  1.0 0.11150093
H  H41  1  0.60908000  0.81210000  0.14187000  1.0 0.1301639092
H  H42  1  0.36598000  0.94319000  0.37001000  1.0 0.1487542653
H  H43  1  0.34850000  0.38014000  0.43800000  1.0 0.1487542653
H  H44  1  0.32734000  0.89915000  0.97568000  1.0 0.1394308851
H  H45  1  0.16304000  0.78219000  0.06190000  1.0 0.1394308851
H  H46  1  0.05113000  0.14776000  0.64443000  1.0 0.3386492899
H  H47  1  0.14046000  0.21245000  0.66760000  1.0 0.3001607134
H  H48  1  0.66483000  0.25837000  0.55176000  1.0 0.1394308851
H  H49  1  0.52104000  0.32670000  0.51868000  1.0 0.3001607134
H  H50  1  0.36258000  0.65405000  0.62646000  1.0 0.1301639092
H  H51  1  0.66179000  0.87072000  0.30503000  1.0 0.1556255019
H  H52  1  0.48415000  0.92438000  0.22663000  1.0 0.3074293753
H  H53  1  0.05071000  0.84072000  0.99822000  1.0 0.1176690592
H  H54  1  0.49634000  0.14788000  0.93973000  1.0 0.2902710285
H  H55  1  0.95189000  0.59698000  0.59689000  1.0 0.3468207812
H  H56  1  0.86014000  0.53229000  0.57186000  1.0 0.3214142716
H  H57  1  0.32163000  0.99334000  0.20072000  1.0 0.1394308851
H  H58  1  0.50104000  0.60406000  0.31366000  1.0 0.3001607134
H  H59  1  0.01851000  0.91792000  0.88425000  1.0 0.3386492899
H  H60  1  0.12764000  0.96705000  0.90945000  1.0 0.3001607134
H  H61  1  0.84864000  0.46707000  0.69006000  1.0 0.1487542653
H  H62  1  0.99610000  0.31443000  0.85838000  1.0 0.3074293753
H  H63  1  0.88275000  0.27085000  0.83258000  1.0 0.3001607134
H  H64  1  0.88003000  0.94830000  0.69817000  1.0 0.1301639092
H  H65  1  0.32567000  0.48390000  0.95925000  1.0 0.1176690592
H  H66  1  0.60987000  0.56048000  0.39357000  1.0 0.1301639092
H  H67  1  0.78630000  0.80133000  0.00742000  1.0 0.11150093
H  H68  1  0.73601000  0.49695000  0.44425000  1.0 0.11150093
H  H69  1  0.19259000  0.81006000  0.57077000  1.0 0.1394308851
H  H70  1  0.01620000  0.62082000  0.43071000  1.0 0.11150093
H  H71  1  0.79059000  0.20162000  0.61017000  1.0 0.1301639092
H  H72  1  0.96859000  0.40420000  0.74398000  1.0 0.11150093
H  H73  1  0.27002000  0.24652000  0.79900000  1.0 0.1000333946
H  H74  1  0.90256000  0.68769000  0.37891000  1.0 0.1394308851
H  H75  1  0.20003000  0.04557000  0.13533000  1.0 0.11150093
H  H76  1  0.54870000  0.73992000  0.66332000  1.0 0.1301639092
H  H77  1  0.69629000  0.71024000  0.80234000  1.0 0.1301639092
H  H78  1  0.73406000  0.84316000  0.68506000  1.0 0.1394308851
H  H79  1  0.32117000  0.66081000  0.24077000  1.0 0.1487542653
H  H80  1  0.09685000  0.06108000  0.86881000  1.0 0.1394308851
H  H81  1  0.98216000  0.12732000  0.81480000  1.0 0.11150093
H  H82  1  0.29292000  0.44374000  0.76127000  1.0 0.1301639092
H  H83  1  0.48846000  0.58444000  0.99339000  1.0 0.1301639092
H  H84  1  0.64790000  0.69922000  0.00955000  1.0 0.11150093
H  H85  1  0.39092000  0.18790000  0.85813000  1.0 0.1301639092
H  H86  1  0.63402000  0.05681000  0.62999000  1.0 0.1487542653
H  H87  1  0.65150000  0.61986000  0.56200000  1.0 0.1487542653
H  H88  1  0.67266000  0.10085000  0.02432000  1.0 0.1394308851
C  C1  1  0.39780000  0.23780000  0.69130000  1.0 0.1301639092
C  C2  1  0.82750000  0.16360000  0.92180000  1.0 -0.1898492231
C  C3  1  0.67290000  0.15530000  0.81840000  1.0 0.2902710285
C  C4  1  0.27390000  0.71030000  0.40880000  1.0 -0.1797047112
C  C5  1  0.33660000  0.32490000  0.65310000  1.0 0.2902710285
C  C6  1  0.39900000  0.34880000  0.15170000  1.0 -0.1115550207
C  C7  1  0.12320000  0.92410000  0.32770000  1.0 0.555524925
C  C8  1  0.63300000  0.29700000  0.37770000  1.0 -0.0949503163
C  C9  1  0.40380000  0.17110000  0.70870000  1.0 -0.2580810988
C  C10  1  0.89500000  0.12760000  0.95960000  1.0 0.0809781671
C  C11  1  0.66790000  0.92070000  0.08880000  1.0 0.3001607134
C  C12  1  0.73510000  0.03970000  0.84010000  1.0 -0.1898492231
C  C13  1  0.51750000  0.17330000  0.74850000  1.0 0.1301639092
C  C14  1  0.16560000  0.58740000  0.32730000  1.0 -0.1722498143
C  C15  1  0.61060000  0.99940000  0.03950000  1.0 0.1301639092
C  C16  1  0.74570000  0.11790000  0.85950000  1.0 0.0499826827
C  C17  1  0.22800000  0.98880000  0.33600000  1.0 -0.0008190108
C  C18  1  0.51430000  0.17620000  0.36660000  1.0 0.0303653294
C  C19  1  0.70750000  0.54430000  0.14230000  1.0 -0.0301454047
C  C20  1  0.25940000  0.63050000  0.38620000  1.0 0.0499826827
C  C21  1  0.20070000  0.05170000  0.31920000  1.0 -0.1015556225
C  C22  1  0.50750000  0.94200000  0.02570000  1.0 0.1301639092
C  C23  1  0.64750000  0.50230000  0.07400000  1.0 -0.1115550207
C  C24  1  0.30750000  0.42640000  0.59980000  1.0 -0.1797047112
C  C25  1  0.56790000  0.46330000  0.17130000  1.0 -0.1015556225
C  C26  1  0.49930000  0.29800000  0.70970000  1.0 0.1301639092
C  C27  1  0.15850000  0.16200000  0.08930000  1.0 0.5539477265
C  C28  1  0.74080000  0.88150000  0.12830000  1.0 0.0688036906
C  C29  1  0.26190000  0.23620000  0.03410000  1.0 -0.1015556225
C  C30  1  0.61630000  0.23630000  0.77010000  1.0 0.1301639092
C  C31  1  0.23040000  0.46360000  0.56890000  1.0 0.0890053804
C  C32  1  0.73690000  0.20500000  0.41290000  1.0 -0.1115550207
C  C33  1  0.25740000  0.36760000  0.62140000  1.0 0.0688036906
C  C34  1  0.43650000  0.05200000  0.37040000  1.0 -0.1307881876
C  C35  1  0.06690000  0.39150000  0.57690000  1.0 0.1000333946
C  C36  1  0.19820000  0.74410000  0.37320000  1.0 0.0890053804
C  C37  1  0.33190000  0.58950000  0.42160000  1.0 0.3001607134
C  C38  1  0.09430000  0.62600000  0.29510000  1.0 0.0809781671
C  C39  1  0.76570000  0.79110000  0.18670000  1.0 0.1000333946
C  C40  1  0.85730000  0.33680000  0.42560000  1.0 0.5539477265
C  C41  1  0.13460000  0.35100000  0.60840000  1.0 -0.1631339544
C  C42  1  0.80790000  0.00850000  0.88040000  1.0 0.0890053804
C  C43  1  0.40550000  0.11400000  0.35250000  1.0 0.0407785394
C  C44  1  0.81680000  0.61110000  0.16210000  1.0 0.4516705072
C  C45  1  0.41620000  0.35330000  0.09100000  1.0 0.0407785394
C  C46  1  0.52060000  0.24650000  0.35680000  1.0 -0.1307881876
C  C47  1  0.62120000  0.15670000  0.39510000  1.0 -0.1162535453
C  C48  1  0.31510000  0.28960000  0.15600000  1.0 -0.1115550207
C  C49  1  0.48500000  0.56790000  0.49120000  1.0 0.1394308851
C  C50  1  0.28720000  0.11500000  0.32680000  1.0 -0.1307881876
C  C51  1  0.61180000  0.29930000  0.74850000  1.0 -0.2508958111
C  C52  1  0.86600000  0.90030000  0.14400000  1.0 -0.1797047112
C  C53  1  0.93480000  0.86200000  0.17800000  1.0 0.0809781671
C  C54  1  0.24900000  0.22950000  0.09230000  1.0 -0.009378067
C  C55  1  0.39570000  0.49750000  0.45350000  1.0 0.1301639092
C  C56  1  0.66910000  0.52740000  0.19240000  1.0 -0.1015556225
C  C57  1  0.73760000  0.27700000  0.40440000  1.0 -0.0008190108
C  C58  1  0.55120000  0.44170000  0.05320000  1.0 -0.1115550207
C  C59  1  0.51250000  0.41920000  0.10280000  1.0 0.0499826827
C  C60  1  0.34610000  0.29840000  0.03240000  1.0 -0.1419815103
C  C61  1  0.69230000  0.82610000  0.15090000  1.0 -0.2021527046
C  C62  1  0.34570000  0.98640000  0.36030000  1.0 -0.1015556225
C  C63  1  0.40690000  0.42640000  0.46160000  1.0 -0.2765642011
C  C64  1  0.39420000  0.93880000  0.98540000  1.0 -0.2717602903
C  C65  1  0.60220000  0.76220000  0.30870000  1.0 0.1301639092
C  C66  1  0.17250000  0.83640000  0.07820000  1.0 -0.1898492231
C  C67  1  0.32710000  0.84470000  0.18160000  1.0 0.2902710285
C  C68  1  0.72610000  0.28970000  0.59120000  1.0 -0.1797047112
C  C69  1  0.66340000  0.67510000  0.34690000  1.0 0.2902710285
C  C70  1  0.60100000  0.65120000  0.84830000  1.0 -0.1115550207
C  C71  1  0.87680000  0.07590000  0.67230000  1.0 0.555524925
C  C72  1  0.36700000  0.70300000  0.62230000  1.0 -0.0949503163
C  C73  1  0.59620000  0.82890000  0.29130000  1.0 -0.2580810988
C  C74  1  0.10500000  0.87240000  0.04040000  1.0 0.0809781671
C  C75  1  0.33210000  0.07930000  0.91120000  1.0 0.3001607134
C  C76  1  0.26490000  0.96030000  0.15990000  1.0 -0.1898492231
C  C77  1  0.48250000  0.82670000  0.25150000  1.0 0.1301639092
C  C78  1  0.83440000  0.41260000  0.67270000  1.0 -0.1722498143
C  C79  1  0.38940000  0.00060000  0.96050000  1.0 0.1301639092
C  C80  1  0.25430000  0.88210000  0.14050000  1.0 0.0499826827
C  C81  1  0.77200000  0.01120000  0.66400000  1.0 -0.0008190108
C  C82  1  0.48570000  0.82380000  0.63340000  1.0 0.0303653294
C  C83  1  0.29250000  0.45570000  0.85770000  1.0 -0.0301454047
C  C84  1  0.74060000  0.36950000  0.61380000  1.0 0.0499826827
C  C85  1  0.79930000  0.94830000  0.68080000  1.0 -0.1015556225
C  C86  1  0.49250000  0.05800000  0.97430000  1.0 0.1301639092
C  C87  1  0.35250000  0.49770000  0.92600000  1.0 -0.1115550207
C  C88  1  0.69250000  0.57360000  0.40020000  1.0 -0.1797047112
C  C89  1  0.43210000  0.53670000  0.82870000  1.0 -0.1015556225
C  C90  1  0.50070000  0.70200000  0.29030000  1.0 0.1301639092
C  C91  1  0.84150000  0.83800000  0.91070000  1.0 0.5539477265
C  C92  1  0.25920000  0.11850000  0.87170000  1.0 0.0688036906
C  C93  1  0.73810000  0.76380000  0.96590000  1.0 -0.1015556225
C  C94  1  0.38370000  0.76370000  0.22990000  1.0 0.1301639092
C  C95  1  0.76960000  0.53640000  0.43110000  1.0 0.0890053804
C  C96  1  0.26310000  0.79500000  0.58710000  1.0 -0.1115550207
C  C97  1  0.74260000  0.63240000  0.37860000  1.0 0.0688036906
C  C98  1  0.56350000  0.94800000  0.62960000  1.0 -0.1307881876
C  C99  1  0.93310000  0.60850000  0.42310000  1.0 0.1000333946
C  C100  1  0.80180000  0.25590000  0.62680000  1.0 0.0890053804
C  C101  1  0.66810000  0.41050000  0.57840000  1.0 0.3001607134
C  C102  1  0.90570000  0.37400000  0.70490000  1.0 0.0809781671
C  C103  1  0.23430000  0.20890000  0.81330000  1.0 0.1000333946
C  C104  1  0.14270000  0.66320000  0.57440000  1.0 0.5539477265
C  C105  1  0.86540000  0.64900000  0.39160000  1.0 -0.1631339544
C  C106  1  0.19210000  0.99150000  0.11960000  1.0 0.0890053804
C  C107  1  0.59450000  0.88600000  0.64750000  1.0 0.0407785394
C  C108  1  0.18320000  0.38890000  0.83790000  1.0 0.4516705072
C  C109  1  0.58380000  0.64670000  0.90900000  1.0 0.0407785394
C  C110  1  0.47940000  0.75350000  0.64320000  1.0 -0.1307881876
C  C111  1  0.37880000  0.84330000  0.60490000  1.0 -0.1162535453
C  C112  1  0.68490000  0.71040000  0.84400000  1.0 -0.1115550207
C  C113  1  0.51500000  0.43210000  0.50880000  1.0 0.1394308851
C  C114  1  0.71280000  0.88500000  0.67320000  1.0 -0.1307881876
C  C115  1  0.38820000  0.70070000  0.25150000  1.0 -0.2508958111
C  C116  1  0.13400000  0.09970000  0.85600000  1.0 -0.1797047112
C  C117  1  0.06520000  0.13800000  0.82200000  1.0 0.0809781671
C  C118  1  0.75100000  0.77050000  0.90770000  1.0 -0.009378067
C  C119  1  0.60430000  0.50250000  0.54650000  1.0 0.1301639092
C  C120  1  0.33090000  0.47260000  0.80760000  1.0 -0.1015556225
C  C121  1  0.26240000  0.72300000  0.59560000  1.0 -0.0008190108
C  C122  1  0.44880000  0.55830000  0.94680000  1.0 -0.1115550207
C  C123  1  0.48750000  0.58080000  0.89720000  1.0 0.0499826827
C  C124  1  0.65390000  0.70160000  0.96760000  1.0 -0.1419815103
C  C125  1  0.30770000  0.17390000  0.84910000  1.0 -0.2021527046
C  C126  1  0.65430000  0.01360000  0.63970000  1.0 -0.1015556225
C  C127  1  0.59310000  0.57360000  0.53840000  1.0 -0.2765642011
C  C128  1  0.60580000  0.06120000  0.01460000  1.0 -0.2717602903
S  S1  1  0.59079000  0.06740000  0.40798000  1.0 0.982546041
S  S2  1  0.49990000  0.42727000  0.22413000  1.0 0.9967915809
S  S3  1  0.40921000  0.93260000  0.59202000  1.0 0.982546041
S  S4  1  0.50010000  0.57273000  0.77587000  1.0 0.9967915809
N  N1  1  0.11070000  0.44700000  0.55640000  1.0 -0.2120963501
N  N2  1  0.70970000  0.98490000  0.08000000  1.0 -0.3813999498
N  N3  1  0.88810000  0.05070000  0.94000000  1.0 -0.2198790291
N  N4  1  0.44260000  0.62500000  0.46840000  1.0 -0.3207715059
N  N5  1  0.29710000  0.25580000  0.65580000  1.0 -0.3934659341
N  N6  1  0.71390000  0.22400000  0.81500000  1.0 -0.3934659341
N  N7  1  0.88500000  0.80860000  0.20170000  1.0 -0.2508958111
N  N8  1  0.10790000  0.70230000  0.31510000  1.0 -0.2120963501
N  N9  1  0.55650000  0.12060000  0.77860000  1.0 -0.3281864727
N  N10  1  0.29910000  0.51300000  0.41100000  1.0 -0.397197386
N  N11  1  0.54710000  0.89270000  0.05880000  1.0 -0.3281864727
N  N12  1  0.45680000  0.35250000  0.68360000  1.0 -0.3207715059
N  N13  1  0.88930000  0.55300000  0.44360000  1.0 -0.2120963501
N  N14  1  0.29030000  0.01510000  0.92000000  1.0 -0.3813999498
N  N15  1  0.11190000  0.94930000  0.06000000  1.0 -0.2198790291
N  N16  1  0.55740000  0.37500000  0.53160000  1.0 -0.3207715059
N  N17  1  0.70290000  0.74420000  0.34420000  1.0 -0.3934659341
N  N18  1  0.28610000  0.77600000  0.18500000  1.0 -0.3934659341
N  N19  1  0.11500000  0.19140000  0.79830000  1.0 -0.2508958111
N  N20  1  0.89210000  0.29770000  0.68490000  1.0 -0.2120963501
N  N21  1  0.44350000  0.87940000  0.22140000  1.0 -0.3281864727
N  N22  1  0.70090000  0.48700000  0.58900000  1.0 -0.397197386
N  N23  1  0.45290000  0.10730000  0.94120000  1.0 -0.3281864727
N  N24  1  0.54320000  0.64750000  0.31640000  1.0 -0.3207715059
O  O1  1  0.85720000  0.65520000  0.22110000  1.0 -0.4989759529
O  O2  1  0.94450000  0.31010000  0.40690000  1.0 -0.5591340665
O  O3  1  0.93620000  0.80240000  0.34400000  1.0 -0.6606759334
O  O4  1  0.13280000  0.10230000  0.03690000  1.0 -0.5490986312
O  O5  1  0.58410000  0.39690000  0.26590000  1.0 -0.5235234106
O  O6  1  0.86080000  0.40390000  0.46180000  1.0 -0.5369673574
O  O7  1  0.13390000  0.85540000  0.29960000  1.0 -0.5490986312
O  O8  1  0.43160000  0.48310000  0.25930000  1.0 -0.5591340665
O  O9  1  0.06190000  0.45360000  0.41610000  1.0 -0.654406091
O  O10  1  0.12220000  0.16900000  0.14150000  1.0 -0.5591340665
O  O11  1  0.93540000  0.04590000  0.07950000  1.0 -0.6668233479
O  O12  1  0.05840000  0.71100000  0.17940000  1.0 -0.6392367685
O  O13  1  0.03750000  0.94330000  0.34790000  1.0 -0.5083562935
O  O14  1  0.61700000  0.08160000  0.48080000  1.0 -0.5315598304
O  O15  1  0.64500000  0.01080000  0.36810000  1.0 -0.5315598304
O  O16  1  0.84860000  0.61890000  0.11050000  1.0 -0.1898492231
O  O17  1  0.88800000  0.58500000  0.12600000  1.0 -0.0786320099
O  O18  1  0.14280000  0.34480000  0.77890000  1.0 -0.4989759529
O  O19  1  0.05550000  0.68990000  0.59310000  1.0 -0.5591340665
O  O20  1  0.06380000  0.19760000  0.65600000  1.0 -0.6606759334
O  O21  1  0.86720000  0.89770000  0.96310000  1.0 -0.5490986312
O  O22  1  0.41590000  0.60310000  0.73410000  1.0 -0.5235234106
O  O23  1  0.13920000  0.59610000  0.53820000  1.0 -0.5369673574
O  O24  1  0.86610000  0.14460000  0.70040000  1.0 -0.5490986312
O  O25  1  0.56840000  0.51690000  0.74070000  1.0 -0.5591340665
O  O26  1  0.93810000  0.54640000  0.58390000  1.0 -0.654406091
O  O27  1  0.87780000  0.83100000  0.85850000  1.0 -0.5591340665
O  O28  1  0.06460000  0.95410000  0.92050000  1.0 -0.6668233479
O  O29  1  0.94160000  0.28900000  0.82060000  1.0 -0.6392367685
O  O30  1  0.96250000  0.05670000  0.65210000  1.0 -0.5083562935
O  O31  1  0.38300000  0.91840000  0.51920000  1.0 -0.5315598304
O  O32  1  0.35500000  0.98920000  0.63190000  1.0 -0.5315598304
O  O33  1  0.15140000  0.38110000  0.88950000  1.0 -0.1898492231
O  O34  1  0.11200000  0.41500000  0.87400000  1.0 -0.0727992261
