# DDEC6 charges by PACMAN v1.1 (https://github.com/mtap-research/PACMAN-charge/)
data_GESNOI_FSR_pacman
_symmetry_space_group_name_H-M   'P 1'
_cell_length_a   13.63090000
_cell_length_b   13.63090000
_cell_length_c   14.30300000
_cell_angle_alpha   66.83670000
_cell_angle_beta   113.16300000
_cell_angle_gamma   93.28880000
_symmetry_Int_Tables_number   1
_chemical_formula_structural   Nd2P5H32C18S2(NO6)4
_chemical_formula_sum   'Nd4 P10 H64 C36 S4 N8 O48'
_cell_volume   2231.38482970
_cell_formula_units_Z   2
loop_
 _symmetry_equiv_pos_site_id
 _symmetry_equiv_pos_as_xyz
  1  'x, y, z'
loop_
 _atom_site_type_symbol
 _atom_site_label
 _atom_site_symmetry_multiplicity
 _atom_site_fract_x
 _atom_site_fract_y
 _atom_site_fract_z
 _atom_site_occupancy
 _atom_site_charge
Nd  Nd1  1  0.84723000  0.84723000  0.00000000  1.0 2.2125098629
Nd  Nd2  1  0.15277000  0.15277000  0.00000000  1.0 2.2125098629
Nd  Nd3  1  0.10977000  0.89023000  0.25293000  1.0 2.18163871
Nd  Nd4  1  0.89023000  0.10977000  0.74707000  1.0 2.18163871
P  P1  1  0.02699000  0.64647000  0.20024000  1.0 1.2865815087
P  P2  1  0.64647000  0.02699000  0.79976000  1.0 1.2865815087
P  P3  1  0.97301000  0.35353000  0.79976000  1.0 1.2865815087
P  P4  1  0.35353000  0.97301000  0.20024000  1.0 1.2865815087
P  P5  1  0.74317000  0.74605000  0.22158000  1.0 1.3119332714
P  P6  1  0.74605000  0.74317000  0.77842000  1.0 1.3119332714
P  P7  1  0.25683000  0.25395000  0.77842000  1.0 1.3119332714
P  P8  1  0.25395000  0.25683000  0.22158000  1.0 1.3119332714
P  P9  1  0.92425000  0.07575000  0.04378000  1.0 1.2794008179
P  P10  1  0.07575000  0.92425000  0.95622000  1.0 1.2794008179
H  H1  1  0.83750000  0.47070000  0.38190000  1.0 0.1605787365
H  H2  1  0.47070000  0.83750000  0.61810000  1.0 0.1605787365
H  H3  1  0.16250000  0.52930000  0.61810000  1.0 0.1605787365
H  H4  1  0.52930000  0.16250000  0.38190000  1.0 0.1605787365
H  H5  1  0.94340000  0.39060000  0.45260000  1.0 0.1489345098
H  H6  1  0.39060000  0.94340000  0.54740000  1.0 0.1489345098
H  H7  1  0.05660000  0.60940000  0.54740000  1.0 0.1489345098
H  H8  1  0.60940000  0.05660000  0.45260000  1.0 0.1489345098
H  H9  1  0.12100000  0.46340000  0.48000000  1.0 0.1489345098
H  H10  1  0.46340000  0.12100000  0.52000000  1.0 0.1489345098
H  H11  1  0.87900000  0.53660000  0.52000000  1.0 0.1489345098
H  H12  1  0.53660000  0.87900000  0.48000000  1.0 0.1489345098
H  H13  1  0.12280000  0.58840000  0.42750000  1.0 0.1489345098
H  H14  1  0.58840000  0.12280000  0.57250000  1.0 0.1489345098
H  H15  1  0.87720000  0.41160000  0.57250000  1.0 0.1489345098
H  H16  1  0.41160000  0.87720000  0.42750000  1.0 0.1489345098
H  H17  1  0.99460000  0.47120000  0.29100000  1.0 0.1699186488
H  H18  1  0.47120000  0.99460000  0.70900000  1.0 0.1699186488
H  H19  1  0.00540000  0.52880000  0.70900000  1.0 0.1699186488
H  H20  1  0.52880000  0.00540000  0.29100000  1.0 0.1699186488
H  H21  1  0.88670000  0.54770000  0.22650000  1.0 0.1865536047
H  H22  1  0.54770000  0.88670000  0.77350000  1.0 0.1865536047
H  H23  1  0.11330000  0.45230000  0.77350000  1.0 0.1865536047
H  H24  1  0.45230000  0.11330000  0.22650000  1.0 0.1865536047
H  H25  1  0.54810000  0.04710000  0.11550000  1.0 0.1419724718
H  H26  1  0.04710000  0.54810000  0.88450000  1.0 0.1419724718
H  H27  1  0.45190000  0.95290000  0.88450000  1.0 0.1419724718
H  H28  1  0.95290000  0.45190000  0.11550000  1.0 0.1419724718
H  H29  1  0.64100000  0.08640000  0.07590000  1.0 0.1489345098
H  H30  1  0.08640000  0.64100000  0.92410000  1.0 0.1489345098
H  H31  1  0.35900000  0.91360000  0.92410000  1.0 0.1489345098
H  H32  1  0.91360000  0.35900000  0.07590000  1.0 0.1489345098
H  H33  1  0.52330000  0.81310000  0.06070000  1.0 0.1605787365
H  H34  1  0.81310000  0.52330000  0.93930000  1.0 0.1605787365
H  H35  1  0.47670000  0.18690000  0.93930000  1.0 0.1605787365
H  H36  1  0.18690000  0.47670000  0.06070000  1.0 0.1605787365
H  H37  1  0.47600000  0.87580000  0.10810000  1.0 0.1489345098
H  H38  1  0.87580000  0.47600000  0.89190000  1.0 0.1489345098
H  H39  1  0.52400000  0.12420000  0.89190000  1.0 0.1489345098
H  H40  1  0.12420000  0.52400000  0.10810000  1.0 0.1489345098
H  H41  1  0.74930000  0.92250000  0.20460000  1.0 0.1824990435
H  H42  1  0.92250000  0.74930000  0.79540000  1.0 0.1824990435
H  H43  1  0.25070000  0.07750000  0.79540000  1.0 0.1824990435
H  H44  1  0.07750000  0.25070000  0.20460000  1.0 0.1824990435
H  H45  1  0.66050000  0.87230000  0.24660000  1.0 0.1699186488
H  H46  1  0.87230000  0.66050000  0.75340000  1.0 0.1699186488
H  H47  1  0.33950000  0.12770000  0.75340000  1.0 0.1699186488
H  H48  1  0.12770000  0.33950000  0.24660000  1.0 0.1699186488
H  H49  1  0.65970000  0.34030000  0.07980000  1.0 0.1419724718
H  H50  1  0.34030000  0.65970000  0.92020000  1.0 0.1419724718
H  H51  1  0.64240000  0.35760000  0.90490000  1.0 0.1489345098
H  H52  1  0.35760000  0.64240000  0.09510000  1.0 0.1489345098
H  H53  1  0.75370000  0.24630000  0.89100000  1.0 0.1605787365
H  H54  1  0.24630000  0.75370000  0.10900000  1.0 0.1605787365
H  H55  1  0.89910000  0.10090000  0.22430000  1.0 0.1419724718
H  H56  1  0.10090000  0.89910000  0.77570000  1.0 0.1419724718
H  H57  1  0.93960000  0.61020000  0.36400000  1.0 0.29904294
H  H58  1  0.61020000  0.93960000  0.63600000  1.0 0.29904294
H  H59  1  0.06040000  0.38980000  0.63600000  1.0 0.29904294
H  H60  1  0.38980000  0.06040000  0.36400000  1.0 0.29904294
H  H61  1  0.63210000  0.94390000  0.02780000  1.0 0.29904294
H  H62  1  0.94390000  0.63210000  0.97220000  1.0 0.29904294
H  H63  1  0.36790000  0.05610000  0.97220000  1.0 0.29904294
H  H64  1  0.05610000  0.36790000  0.02780000  1.0 0.29904294
C  C1  1  0.91160000  0.46120000  0.43410000  1.0 -0.0913481481
C  C2  1  0.46120000  0.91160000  0.56590000  1.0 -0.0913481481
C  C3  1  0.08840000  0.53880000  0.56590000  1.0 -0.0913481481
C  C4  1  0.53880000  0.08840000  0.43410000  1.0 -0.0913481481
C  C5  1  0.08520000  0.53220000  0.46130000  1.0 -0.0816552864
C  C6  1  0.53220000  0.08520000  0.53870000  1.0 -0.0816552864
C  C7  1  0.91480000  0.46780000  0.53870000  1.0 -0.0816552864
C  C8  1  0.46780000  0.91480000  0.46130000  1.0 -0.0816552864
C  C9  1  0.96200000  0.54060000  0.27460000  1.0 -0.4119964839
C  C10  1  0.54060000  0.96200000  0.72540000  1.0 -0.4119964839
C  C11  1  0.03800000  0.45940000  0.72540000  1.0 -0.4119964839
C  C12  1  0.45940000  0.03800000  0.27460000  1.0 -0.4119964839
C  C13  1  0.57640000  0.05060000  0.06190000  1.0 -0.1125091986
C  C14  1  0.05060000  0.57640000  0.93810000  1.0 -0.1125091986
C  C15  1  0.42360000  0.94940000  0.93810000  1.0 -0.1125091986
C  C16  1  0.94940000  0.42360000  0.06190000  1.0 -0.1125091986
C  C17  1  0.50560000  0.88400000  0.05430000  1.0 -0.0913481481
C  C18  1  0.88400000  0.50560000  0.94570000  1.0 -0.0913481481
C  C19  1  0.49440000  0.11600000  0.94570000  1.0 -0.0913481481
C  C20  1  0.11600000  0.49440000  0.05430000  1.0 -0.0913481481
C  C21  1  0.69000000  0.87940000  0.19300000  1.0 -0.4042675273
C  C22  1  0.87940000  0.69000000  0.80700000  1.0 -0.4042675273
C  C23  1  0.31000000  0.12060000  0.80700000  1.0 -0.4042675273
C  C24  1  0.12060000  0.31000000  0.19300000  1.0 -0.4042675273
C  C25  1  0.78050000  0.21950000  0.16610000  1.0 -0.0981063919
C  C26  1  0.21950000  0.78050000  0.83390000  1.0 -0.0981063919
C  C27  1  0.70390000  0.29610000  0.07320000  1.0 -0.0569343475
C  C28  1  0.29610000  0.70390000  0.92680000  1.0 -0.0569343475
C  C29  1  0.69370000  0.30630000  0.96890000  1.0 -0.065160595
C  C30  1  0.30630000  0.69370000  0.03110000  1.0 -0.065160595
C  C31  1  0.76080000  0.23920000  0.96080000  1.0 -0.0292447434
C  C32  1  0.23920000  0.76080000  0.03920000  1.0 -0.0292447434
C  C33  1  0.83890000  0.16110000  0.05600000  1.0 -0.1348706262
C  C34  1  0.16110000  0.83890000  0.94400000  1.0 -0.1348706262
C  C35  1  0.84810000  0.15190000  0.15980000  1.0 -0.0569343475
C  C36  1  0.15190000  0.84810000  0.84020000  1.0 -0.0569343475
S  S1  1  0.76610000  0.17330000  0.30370000  1.0 0.5227350517
S  S2  1  0.17330000  0.76610000  0.69630000  1.0 0.5227350517
S  S3  1  0.23390000  0.82670000  0.69630000  1.0 0.5227350517
S  S4  1  0.82670000  0.23390000  0.30370000  1.0 0.5227350517
N  N1  1  0.97090000  0.54470000  0.38100000  1.0 0.0262651251
N  N2  1  0.54470000  0.97090000  0.61900000  1.0 0.0262651251
N  N3  1  0.02910000  0.45530000  0.61900000  1.0 0.0262651251
N  N4  1  0.45530000  0.02910000  0.38100000  1.0 0.0262651251
N  N5  1  0.60450000  0.93910000  0.07780000  1.0 0.0425126681
N  N6  1  0.93910000  0.60450000  0.92220000  1.0 0.0425126681
N  N7  1  0.39550000  0.06090000  0.92220000  1.0 0.0425126681
N  N8  1  0.06090000  0.39550000  0.07780000  1.0 0.0425126681
O  O1  1  0.13980000  0.60040000  0.23740000  1.0 -0.6574488209
O  O2  1  0.60040000  0.13980000  0.76260000  1.0 -0.6574488209
O  O3  1  0.86020000  0.39960000  0.76260000  1.0 -0.6574488209
O  O4  1  0.39960000  0.86020000  0.23740000  1.0 -0.6574488209
O  O5  1  0.95560000  0.67440000  0.07700000  1.0 -0.8315774874
O  O6  1  0.67440000  0.95560000  0.92300000  1.0 -0.8315774874
O  O7  1  0.04440000  0.32560000  0.92300000  1.0 -0.8315774874
O  O8  1  0.32560000  0.04440000  0.07700000  1.0 -0.8315774874
O  O9  1  0.01580000  0.74280000  0.22470000  1.0 -0.8700548785
O  O10  1  0.74280000  0.01580000  0.77530000  1.0 -0.8700548785
O  O11  1  0.98420000  0.25720000  0.77530000  1.0 -0.8700548785
O  O12  1  0.25720000  0.98420000  0.22470000  1.0 -0.8700548785
O  O13  1  0.65830000  0.67050000  0.23550000  1.0 -0.7507103906
O  O14  1  0.67050000  0.65830000  0.76450000  1.0 -0.7507103906
O  O15  1  0.34170000  0.32950000  0.76450000  1.0 -0.7507103906
O  O16  1  0.32950000  0.34170000  0.23550000  1.0 -0.7507103906
O  O17  1  0.84270000  0.71850000  0.32860000  1.0 -0.6806612091
O  O18  1  0.71850000  0.84270000  0.67140000  1.0 -0.6806612091
O  O19  1  0.15730000  0.28150000  0.67140000  1.0 -0.6806612091
O  O20  1  0.28150000  0.15730000  0.32860000  1.0 -0.6806612091
O  O21  1  0.76420000  0.75680000  0.12150000  1.0 -0.8622458951
O  O22  1  0.75680000  0.76420000  0.87850000  1.0 -0.8622458951
O  O23  1  0.23580000  0.24320000  0.87850000  1.0 -0.8622458951
O  O24  1  0.24320000  0.23580000  0.12150000  1.0 -0.8622458951
O  O25  1  0.89760000  0.10240000  0.92410000  1.0 -0.8700548785
O  O26  1  0.10240000  0.89760000  0.07590000  1.0 -0.8700548785
O  O27  1  0.90950000  0.95950000  0.10420000  1.0 -0.8700548785
O  O28  1  0.95950000  0.90950000  0.89580000  1.0 -0.8700548785
O  O29  1  0.09050000  0.04050000  0.89580000  1.0 -0.8700548785
O  O30  1  0.04050000  0.09050000  0.10420000  1.0 -0.8700548785
O  O31  1  0.72740000  0.06820000  0.32360000  1.0 -0.4119964839
O  O32  1  0.06820000  0.72740000  0.67640000  1.0 -0.4119964839
O  O33  1  0.27260000  0.93180000  0.67640000  1.0 -0.4119964839
O  O34  1  0.93180000  0.27260000  0.32360000  1.0 -0.4119964839
O  O35  1  0.67730000  0.23190000  0.28370000  1.0 -0.2416940258
O  O36  1  0.23190000  0.67730000  0.71630000  1.0 -0.2416940258
O  O37  1  0.32270000  0.76810000  0.71630000  1.0 -0.2416940258
O  O38  1  0.76810000  0.32270000  0.28370000  1.0 -0.2416940258
O  O39  1  0.87300000  0.12700000  0.38900000  1.0 -0.2639996784
O  O40  1  0.12700000  0.87300000  0.61100000  1.0 -0.266700186
O  O41  1  0.21570000  0.78430000  0.46040000  1.0 -0.4528292047
O  O42  1  0.78430000  0.21570000  0.53960000  1.0 -0.4528292047
O  O43  1  0.98670000  0.85930000  0.35310000  1.0 -0.2997138353
O  O44  1  0.85930000  0.98670000  0.64690000  1.0 -0.2997138353
O  O45  1  0.01330000  0.14070000  0.64690000  1.0 -0.2997138353
O  O46  1  0.14070000  0.01330000  0.35310000  1.0 -0.2997138353
O  O47  1  0.25400000  0.74600000  0.30700000  1.0 -0.3085690068
O  O48  1  0.74600000  0.25400000  0.69300000  1.0 -0.3085690068
