# DDEC6 charges by PACMAN v1.1 (https://github.com/mtap-research/PACMAN-charge/)
data_GEVXIQ_FSR_pacman
_symmetry_space_group_name_H-M   'P 1'
_cell_length_a   10.06620000
_cell_length_b   11.44920000
_cell_length_c   12.77460000
_cell_angle_alpha   108.73000000
_cell_angle_beta   96.94800000
_cell_angle_gamma   96.80200000
_symmetry_Int_Tables_number   1
_chemical_formula_structural   Gd2H19(C3O4)5
_chemical_formula_sum   'Gd4 H38 C30 O40'
_cell_volume   1364.55593242
_cell_formula_units_Z   2
loop_
 _symmetry_equiv_pos_site_id
 _symmetry_equiv_pos_as_xyz
  1  'x, y, z'
loop_
 _atom_site_type_symbol
 _atom_site_label
 _atom_site_symmetry_multiplicity
 _atom_site_fract_x
 _atom_site_fract_y
 _atom_site_fract_z
 _atom_site_occupancy
 _atom_site_charge
Gd  Gd1  1  0.06814000  0.07634000  0.38395000  1.0 1.9618098313
Gd  Gd2  1  0.93186000  0.92366000  0.61605000  1.0 1.9618098313
Gd  Gd3  1  0.45164000  0.59816000  0.75822000  1.0 1.9618098313
Gd  Gd4  1  0.54836000  0.40184000  0.24178000  1.0 1.9618098313
H  H1  1  0.13900000  0.55400000  0.62500000  1.0 0.1169785956
H  H2  1  0.86100000  0.44600000  0.37500000  1.0 0.1169785956
H  H3  1  0.76200000  0.32400000  0.68100000  1.0 0.1403736646
H  H4  1  0.23800000  0.67600000  0.31900000  1.0 0.1403736646
H  H5  1  0.02000000  0.30700000  0.89000000  1.0 0.1272153878
H  H6  1  0.98000000  0.69300000  0.11000000  1.0 0.1272153878
H  H7  1  0.82000000  0.94200000  0.25000000  1.0 0.3385699564
H  H8  1  0.18000000  0.05800000  0.75000000  1.0 0.3385699564
H  H9  1  0.81200000  0.90500000  0.34000000  1.0 0.3831833923
H  H10  1  0.18800000  0.09500000  0.66000000  1.0 0.3831833923
H  H11  1  0.06200000  0.06400000  0.15600000  1.0 0.2889513621
H  H12  1  0.93800000  0.93600000  0.84400000  1.0 0.2889513621
H  H13  1  0.09600000  0.96700000  0.15200000  1.0 0.3214404682
H  H14  1  0.90400000  0.03300000  0.84800000  1.0 0.3214404682
H  H15  1  0.34400000  0.01200000  0.35600000  1.0 0.3110304797
H  H16  1  0.65600000  0.98800000  0.64400000  1.0 0.3110304797
H  H17  1  0.33900000  0.08800000  0.44300000  1.0 0.2889513621
H  H18  1  0.66100000  0.91200000  0.55700000  1.0 0.2889513621
H  H19  1  0.37400000  0.58200000  0.53100000  1.0 0.3297536993
H  H20  1  0.62600000  0.41800000  0.46900000  1.0 0.3297536993
H  H21  1  0.35800000  0.67900000  0.58400000  1.0 0.2889513621
H  H22  1  0.64200000  0.32100000  0.41600000  1.0 0.2889513621
H  H23  1  0.26500000  0.76600000  0.84700000  1.0 0.3110304797
H  H24  1  0.73500000  0.23400000  0.15300000  1.0 0.3110304797
H  H25  1  0.24700000  0.76000000  0.74900000  1.0 0.29986423
H  H26  1  0.75300000  0.24000000  0.25100000  1.0 0.29986423
H  H27  1  0.63000000  0.79500000  0.72700000  1.0 0.29986423
H  H28  1  0.37000000  0.20500000  0.27300000  1.0 0.29986423
H  H29  1  0.59800000  0.84800000  0.80200000  1.0 0.29986423
H  H30  1  0.40200000  0.15200000  0.19800000  1.0 0.29986423
H  H31  1  0.57900000  0.75500000  0.97800000  1.0 0.3110304797
H  H32  1  0.42100000  0.24500000  0.02200000  1.0 0.3110304797
H  H33  1  0.46300000  0.72400000  0.98700000  1.0 0.3214404682
H  H34  1  0.53700000  0.27600000  0.01300000  1.0 0.3214404682
H  H35  1  0.57300000  0.41300000  0.84800000  1.0 0.3385699564
H  H36  1  0.42700000  0.58700000  0.15200000  1.0 0.3385699564
H  H37  1  0.45700000  0.39500000  0.82200000  1.0 0.2889513621
H  H38  1  0.54300000  0.60500000  0.17800000  1.0 0.2889513621
C  C1  1  0.93500000  0.17800000  0.62410000  1.0 0.6011193866
C  C2  1  0.06500000  0.82200000  0.37590000  1.0 0.6011193866
C  C3  1  0.95170000  0.31400000  0.63650000  1.0 -0.0105708659
C  C4  1  0.04830000  0.68600000  0.36350000  1.0 -0.0105708659
C  C5  1  0.06840000  0.38460000  0.62510000  1.0 -0.0582107374
C  C6  1  0.93160000  0.61540000  0.37490000  1.0 -0.0582107374
C  C7  1  0.19780000  0.33040000  0.60650000  1.0 0.6460060352
C  C8  1  0.80220000  0.66960000  0.39350000  1.0 0.6460060352
C  C9  1  0.06590000  0.50900000  0.63350000  1.0 -0.101643817
C  C10  1  0.93410000  0.49100000  0.36650000  1.0 -0.101643817
C  C11  1  0.95150000  0.56390000  0.65470000  1.0 -0.0366002372
C  C12  1  0.04850000  0.43610000  0.34530000  1.0 -0.0366002372
C  C13  1  0.94740000  0.69370000  0.65200000  1.0 0.5670683259
C  C14  1  0.05260000  0.30630000  0.34800000  1.0 0.5670683259
C  C15  1  0.83820000  0.49430000  0.67220000  1.0 -0.0033534634
C  C16  1  0.16180000  0.50570000  0.32780000  1.0 -0.0033534634
C  C17  1  0.71200000  0.54430000  0.70360000  1.0 0.5887261504
C  C18  1  0.28800000  0.45570000  0.29640000  1.0 0.5887261504
C  C19  1  0.83950000  0.37090000  0.66420000  1.0 -0.136743558
C  C20  1  0.16050000  0.62910000  0.33580000  1.0 -0.136743558
C  C21  1  0.22920000  0.46280000  0.88400000  1.0 0.6011193866
C  C22  1  0.77080000  0.53720000  0.11600000  1.0 0.6011193866
C  C23  1  0.11400000  0.48310000  0.94800000  1.0 -0.0504414042
C  C24  1  0.88600000  0.51690000  0.05200000  1.0 -0.0504414042
C  C25  1  0.10140000  0.60220000  0.01870000  1.0 -0.0189985367
C  C26  1  0.89860000  0.39780000  0.98130000  1.0 -0.0189985367
C  C27  1  0.21070000  0.71480000  0.04560000  1.0 0.5750675672
C  C28  1  0.78930000  0.28520000  0.95440000  1.0 0.5750675672
C  C29  1  0.01210000  0.38300000  0.93100000  1.0 -0.1157201356
C  C30  1  0.98790000  0.61700000  0.06900000  1.0 -0.1157201356
O  O1  1  0.92450000  0.09490000  0.52660000  1.0 -0.7285925871
O  O2  1  0.07550000  0.90510000  0.47340000  1.0 -0.7285925871
O  O3  1  0.92200000  0.14630000  0.70710000  1.0 -0.5995452785
O  O4  1  0.07800000  0.85370000  0.29290000  1.0 -0.5995452785
O  O5  1  0.18550000  0.21210000  0.56470000  1.0 -0.6736354059
O  O6  1  0.81450000  0.78790000  0.43530000  1.0 -0.6736354059
O  O7  1  0.30880000  0.40310000  0.63250000  1.0 -0.6108513525
O  O8  1  0.69120000  0.59690000  0.36750000  1.0 -0.6108513525
O  O9  1  0.05520000  0.76290000  0.65250000  1.0 -0.6280704365
O  O10  1  0.94480000  0.23710000  0.34750000  1.0 -0.6280704365
O  O11  1  0.83480000  0.73040000  0.64520000  1.0 -0.6175875193
O  O12  1  0.16520000  0.26960000  0.35480000  1.0 -0.6175875193
O  O13  1  0.71140000  0.61190000  0.80250000  1.0 -0.6108513525
O  O14  1  0.28860000  0.38810000  0.19750000  1.0 -0.6108513525
O  O15  1  0.60440000  0.50720000  0.63040000  1.0 -0.6280704365
O  O16  1  0.39560000  0.49280000  0.36960000  1.0 -0.6280704365
O  O17  1  0.28130000  0.55400000  0.85930000  1.0 -0.6736354059
O  O18  1  0.71870000  0.44600000  0.14070000  1.0 -0.6736354059
O  O19  1  0.26510000  0.35670000  0.85550000  1.0 -0.5323642915
O  O20  1  0.73490000  0.64330000  0.14450000  1.0 -0.5323642915
O  O21  1  0.17730000  0.80630000  0.02000000  1.0 -0.6108513525
O  O22  1  0.82270000  0.19370000  0.98000000  1.0 -0.6108513525
O  O23  1  0.32630000  0.71170000  0.09400000  1.0 -0.5716356313
O  O24  1  0.67370000  0.28830000  0.90600000  1.0 -0.5716356313
O  O25  1  0.83530000  0.96500000  0.30830000  1.0 -0.6420111632
O  O26  1  0.16470000  0.03500000  0.69170000  1.0 -0.6420111632
O  O27  1  0.07350000  0.02400000  0.18690000  1.0 -0.5995452785
O  O28  1  0.92650000  0.97600000  0.81310000  1.0 -0.5995452785
O  O29  1  0.29780000  0.05810000  0.39470000  1.0 -0.6280704365
O  O30  1  0.70220000  0.94190000  0.60530000  1.0 -0.6280704365
O  O31  1  0.36420000  0.62230000  0.58510000  1.0 -0.5716356313
O  O32  1  0.63580000  0.37770000  0.41490000  1.0 -0.5716356313
O  O33  1  0.29700000  0.75930000  0.79240000  1.0 -0.6420111632
O  O34  1  0.70300000  0.24070000  0.20760000  1.0 -0.6420111632
O  O35  1  0.57320000  0.79250000  0.75100000  1.0 -0.5946498638
O  O36  1  0.42680000  0.20750000  0.24900000  1.0 -0.5995452785
O  O37  1  0.51210000  0.72490000  0.95040000  1.0 -0.6108513525
O  O38  1  0.48790000  0.27510000  0.04960000  1.0 -0.6108513525
O  O39  1  0.51150000  0.42710000  0.81530000  1.0 -0.5995452785
O  O40  1  0.48850000  0.57290000  0.18470000  1.0 -0.5995452785
