# DDEC6 charges by PACMAN v1.1 (https://github.com/mtap-research/PACMAN-charge/)
data_GEWTEL_ASR_pacman
_symmetry_space_group_name_H-M   'P 1'
_cell_length_a   8.49240000
_cell_length_b   9.27930000
_cell_length_c   17.38400000
_cell_angle_alpha   93.71000000
_cell_angle_beta   98.07300000
_cell_angle_gamma   114.73300000
_symmetry_Int_Tables_number   1
_chemical_formula_structural   Co3H38C38S2(N4O7)2
_chemical_formula_sum   'Co3 H38 C38 S2 N8 O14'
_cell_volume   1220.25773411
_cell_formula_units_Z   1
loop_
 _symmetry_equiv_pos_site_id
 _symmetry_equiv_pos_as_xyz
  1  'x, y, z'
loop_
 _atom_site_type_symbol
 _atom_site_label
 _atom_site_symmetry_multiplicity
 _atom_site_fract_x
 _atom_site_fract_y
 _atom_site_fract_z
 _atom_site_occupancy
 _atom_site_charge
Co  Co1  1  0.52437000  0.32857000  0.74261000  1.0 0.9018841255
Co  Co2  1  0.47563000  0.67143000  0.25739000  1.0 0.9018841255
Co  Co3  1  0.00000000  0.50000000  0.00000000  1.0 1.0435163248
H  H1  1  0.90224000  0.46721000  0.71215000  1.0 0.2910241354
H  H2  1  0.09776000  0.53279000  0.28785000  1.0 0.2910241354
H  H3  1  0.86869000  0.71601000  0.31773000  1.0 0.2989665437
H  H4  1  0.13131000  0.28399000  0.68227000  1.0 0.2989665437
H  H5  1  0.00028000  0.91170000  0.58491000  1.0 0.1099650896
H  H6  1  0.99972000  0.08830000  0.41509000  1.0 0.1099650896
H  H7  1  0.80954000  0.90225000  0.58850000  1.0 0.1099650896
H  H8  1  0.19046000  0.09775000  0.41150000  1.0 0.1099650896
H  H9  1  0.44025000  0.55408000  0.55454000  1.0 0.1494545094
H  H10  1  0.55975000  0.44592000  0.44546000  1.0 0.1494545094
H  H11  1  0.51676000  0.72063000  0.61110000  1.0 0.1494545094
H  H12  1  0.48324000  0.27937000  0.38890000  1.0 0.1494545094
H  H13  1  0.41723000  0.55566000  0.64434000  1.0 0.138858941
H  H14  1  0.58277000  0.44434000  0.35566000  1.0 0.138858941
H  H15  1  0.19350000  0.68059000  0.70458000  1.0 0.1706471908
H  H16  1  0.80650000  0.31941000  0.29542000  1.0 0.1706471908
H  H17  1  0.19816000  0.82338000  0.65660000  1.0 0.156502569
H  H18  1  0.80184000  0.17662000  0.34340000  1.0 0.156502569
H  H19  1  0.16833000  0.65601000  0.61094000  1.0 0.1494545094
H  H20  1  0.83167000  0.34399000  0.38906000  1.0 0.1494545094
H  H21  1  0.50191000  0.89855000  0.41091000  1.0 0.1494545094
H  H22  1  0.49809000  0.10145000  0.58909000  1.0 0.1494545094
H  H23  1  0.57566000  0.91067000  0.50217000  1.0 0.1494545094
H  H24  1  0.42434000  0.08933000  0.49783000  1.0 0.1494545094
H  H25  1  0.43373000  0.74242000  0.45416000  1.0 0.1494545094
H  H26  1  0.56627000  0.25758000  0.54584000  1.0 0.1494545094
H  H27  1  0.05990000  0.63929000  0.46886000  1.0 0.1494545094
H  H28  1  0.94010000  0.36071000  0.53114000  1.0 0.1494545094
H  H29  1  0.16785000  0.82891000  0.49330000  1.0 0.1494545094
H  H30  1  0.83215000  0.17109000  0.50670000  1.0 0.1494545094
H  H31  1  0.13911000  0.75142000  0.40455000  1.0 0.1494545094
H  H32  1  0.86089000  0.24858000  0.59545000  1.0 0.1494545094
H  H33  1  0.52233000  0.88785000  0.77150000  1.0 0.138858941
H  H34  1  0.47767000  0.11215000  0.22850000  1.0 0.138858941
H  H35  1  0.04946000  0.08297000  0.77763000  1.0 0.1230201143
H  H36  1  0.95054000  0.91703000  0.22237000  1.0 0.1230201143
H  H37  1  0.06214000  0.85946000  0.82314000  1.0 0.138858941
H  H38  1  0.93786000  0.14054000  0.17686000  1.0 0.138858941
C  C1  1  0.66810000  0.59820000  0.63050000  1.0 0.2181899119
C  C2  1  0.33190000  0.40180000  0.36950000  1.0 0.2181899119
C  C3  1  0.83190000  0.69990000  0.61370000  1.0 -0.1075418996
C  C4  1  0.16810000  0.30010000  0.38630000  1.0 -0.1075418996
C  C5  1  0.94910000  0.64730000  0.65010000  1.0 0.19540851
C  C6  1  0.05090000  0.35270000  0.34990000  1.0 0.19540851
C  C7  1  0.68280000  0.80580000  0.43080000  1.0 0.2074529398
C  C8  1  0.31720000  0.19420000  0.56920000  1.0 0.2074529398
C  C9  1  0.82400000  0.80490000  0.48190000  1.0 -0.1075418996
C  C10  1  0.17600000  0.19510000  0.51810000  1.0 -0.1075418996
C  C11  1  0.91810000  0.76240000  0.43270000  1.0 0.1923583019
C  C12  1  0.08190000  0.23760000  0.56730000  1.0 0.1923583019
C  C13  1  0.87230000  0.84120000  0.57040000  1.0 -0.2190119308
C  C14  1  0.12770000  0.15880000  0.42960000  1.0 -0.2190119308
C  C15  1  0.49560000  0.60800000  0.60820000  1.0 -0.4889194389
C  C16  1  0.50440000  0.39200000  0.39180000  1.0 -0.4889194389
C  C17  1  0.14410000  0.70700000  0.65610000  1.0 -0.4889194389
C  C18  1  0.85590000  0.29300000  0.34390000  1.0 -0.4889194389
C  C19  1  0.53570000  0.84260000  0.45130000  1.0 -0.4889194389
C  C20  1  0.46430000  0.15740000  0.54870000  1.0 -0.4889194389
C  C21  1  0.08570000  0.74390000  0.45150000  1.0 -0.4889194389
C  C22  1  0.91430000  0.25610000  0.54850000  1.0 -0.4889194389
C  C23  1  0.82430000  0.60680000  0.86670000  1.0 0.6080941427
C  C24  1  0.17570000  0.39320000  0.13330000  1.0 0.6080941427
C  C25  1  0.80330000  0.74170000  0.83080000  1.0 -0.0368852597
C  C26  1  0.19670000  0.25830000  0.16920000  1.0 -0.0368852597
C  C27  1  0.64080000  0.75080000  0.81470000  1.0 -0.1075418996
C  C28  1  0.35920000  0.24920000  0.18530000  1.0 -0.1075418996
C  C29  1  0.63280000  0.88370000  0.78360000  1.0 -0.0994985905
C  C30  1  0.36720000  0.11630000  0.21640000  1.0 -0.0994985905
C  C31  1  0.78480000  0.00990000  0.77030000  1.0 -0.0173386988
C  C32  1  0.21520000  0.99010000  0.22970000  1.0 -0.0173386988
C  C33  1  0.94460000  0.99820000  0.78640000  1.0 -0.0994985905
C  C34  1  0.05540000  0.00180000  0.21360000  1.0 -0.0994985905
C  C35  1  0.95250000  0.86610000  0.81460000  1.0 -0.0994985905
C  C36  1  0.04750000  0.13390000  0.18540000  1.0 -0.0994985905
C  C37  1  0.77690000  0.16060000  0.74630000  1.0 0.5644894707
C  C38  1  0.22310000  0.83940000  0.25370000  1.0 0.5644894707
S  S1  1  0.44450000  0.60220000  0.83711000  1.0 1.1673741806
S  S2  1  0.55550000  0.39780000  0.16289000  1.0 1.1673741806
N  N1  1  0.68220000  0.49120000  0.67450000  1.0 -0.2777521741
N  N2  1  0.31780000  0.50880000  0.32550000  1.0 -0.2777521741
N  N3  1  0.85650000  0.52220000  0.68540000  1.0 -0.1396559161
N  N4  1  0.14350000  0.47780000  0.31460000  1.0 -0.1396559161
N  N5  1  0.68600000  0.76850000  0.35610000  1.0 -0.2777521741
N  N6  1  0.31400000  0.23150000  0.64390000  1.0 -0.2777521741
N  N7  1  0.83340000  0.74270000  0.35940000  1.0 -0.1396559161
N  N8  1  0.16660000  0.25730000  0.64060000  1.0 -0.1396559161
O  O1  1  0.72580000  0.46130000  0.84030000  1.0 -0.5619712007
O  O2  1  0.27420000  0.53870000  0.15970000  1.0 -0.5619712007
O  O3  1  0.94870000  0.64940000  0.92500000  1.0 -0.5252892208
O  O4  1  0.05130000  0.35060000  0.07500000  1.0 -0.5252892208
O  O5  1  0.62570000  0.15810000  0.72950000  1.0 -0.5792957079
O  O6  1  0.37430000  0.84190000  0.27050000  1.0 -0.5792957079
O  O7  1  0.92120000  0.27940000  0.74590000  1.0 -0.5517372024
O  O8  1  0.07880000  0.72060000  0.25410000  1.0 -0.5517372024
O  O9  1  0.38540000  0.46380000  0.77730000  1.0 -0.621841563
O  O10  1  0.61460000  0.53620000  0.22270000  1.0 -0.621841563
O  O11  1  0.48970000  0.56890000  0.91580000  1.0 -0.5118104946
O  O12  1  0.51030000  0.43110000  0.08420000  1.0 -0.5118104946
O  O13  1  0.31720000  0.66970000  0.83190000  1.0 -0.5619712007
O  O14  1  0.68280000  0.33030000  0.16810000  1.0 -0.5619712007
