# DDEC6 charges by PACMAN v1.1 (https://github.com/mtap-research/PACMAN-charge/)
data_GEYFIB_ASR_pacman
_symmetry_space_group_name_H-M   'P 1'
_cell_length_a   20.38830000
_cell_length_b   20.38830000
_cell_length_c   20.38830000
_cell_angle_alpha   54.95600000
_cell_angle_beta   54.95600000
_cell_angle_gamma   54.95600000
_symmetry_Int_Tables_number   1
_chemical_formula_structural   CuH15C24NO8
_chemical_formula_sum   'Cu6 H90 C144 N6 O48'
_cell_volume   5289.34524771
_cell_formula_units_Z   6
loop_
 _symmetry_equiv_pos_site_id
 _symmetry_equiv_pos_as_xyz
  1  'x, y, z'
loop_
 _atom_site_type_symbol
 _atom_site_label
 _atom_site_symmetry_multiplicity
 _atom_site_fract_x
 _atom_site_fract_y
 _atom_site_fract_z
 _atom_site_occupancy
 _atom_site_charge
Cu  Cu1  1  0.06642000  0.49846000  0.49846000  1.0 0.858277326
Cu  Cu2  1  0.49846000  0.06642000  0.49846000  1.0 0.858277326
Cu  Cu3  1  0.50154000  0.50154000  0.93358000  1.0 0.858277326
Cu  Cu4  1  0.49846000  0.49846000  0.06642000  1.0 0.858277326
Cu  Cu5  1  0.93358000  0.50154000  0.50154000  1.0 0.858277326
Cu  Cu6  1  0.50154000  0.93358000  0.50154000  1.0 0.858277326
H  H1  1  0.02820000  0.24050000  0.53340000  1.0 0.1223361035
H  H2  1  0.53340000  0.02820000  0.24050000  1.0 0.1223361035
H  H3  1  0.46660000  0.75950000  0.97180000  1.0 0.1223361035
H  H4  1  0.24050000  0.53340000  0.02820000  1.0 0.1223361035
H  H5  1  0.97180000  0.46660000  0.75950000  1.0 0.1223361035
H  H6  1  0.75950000  0.97180000  0.46660000  1.0 0.1223361035
H  H7  1  0.97180000  0.75950000  0.46660000  1.0 0.1223361035
H  H8  1  0.46660000  0.97180000  0.75950000  1.0 0.1223361035
H  H9  1  0.53340000  0.24050000  0.02820000  1.0 0.1223361035
H  H10  1  0.75950000  0.46660000  0.97180000  1.0 0.1223361035
H  H11  1  0.02820000  0.53340000  0.24050000  1.0 0.1223361035
H  H12  1  0.24050000  0.02820000  0.53340000  1.0 0.1223361035
H  H13  1  0.23060000  0.23060000  0.53290000  1.0 0.1069706706
H  H14  1  0.53290000  0.23060000  0.23060000  1.0 0.1069706706
H  H15  1  0.46710000  0.76940000  0.76940000  1.0 0.1069706706
H  H16  1  0.23060000  0.53290000  0.23060000  1.0 0.1069706706
H  H17  1  0.76940000  0.46710000  0.76940000  1.0 0.1069706706
H  H18  1  0.76940000  0.76940000  0.46710000  1.0 0.1069706706
H  H19  1  0.04640000  0.12940000  0.51330000  1.0 0.1487895501
H  H20  1  0.51330000  0.04640000  0.12940000  1.0 0.1487895501
H  H21  1  0.48670000  0.87060000  0.95360000  1.0 0.1487895501
H  H22  1  0.12940000  0.51330000  0.04640000  1.0 0.1487895501
H  H23  1  0.95360000  0.48670000  0.87060000  1.0 0.1487895501
H  H24  1  0.87060000  0.95360000  0.48670000  1.0 0.1487895501
H  H25  1  0.95360000  0.87060000  0.48670000  1.0 0.1487895501
H  H26  1  0.48670000  0.95360000  0.87060000  1.0 0.1487895501
H  H27  1  0.51330000  0.12940000  0.04640000  1.0 0.1487895501
H  H28  1  0.87060000  0.48670000  0.95360000  1.0 0.1487895501
H  H29  1  0.04640000  0.51330000  0.12940000  1.0 0.1487895501
H  H30  1  0.12940000  0.04640000  0.51330000  1.0 0.1487895501
H  H31  1  0.03620000  0.11430000  0.54680000  1.0 0.1292565303
H  H32  1  0.54680000  0.03620000  0.11430000  1.0 0.1292565303
H  H33  1  0.45320000  0.88570000  0.96380000  1.0 0.1292565303
H  H34  1  0.11430000  0.54680000  0.03620000  1.0 0.1292565303
H  H35  1  0.96380000  0.45320000  0.88570000  1.0 0.1292565303
H  H36  1  0.88570000  0.96380000  0.45320000  1.0 0.1292565303
H  H37  1  0.96380000  0.88570000  0.45320000  1.0 0.1292565303
H  H38  1  0.45320000  0.96380000  0.88570000  1.0 0.1292565303
H  H39  1  0.54680000  0.11430000  0.03620000  1.0 0.1292565303
H  H40  1  0.88570000  0.45320000  0.96380000  1.0 0.1292565303
H  H41  1  0.03620000  0.54680000  0.11430000  1.0 0.1292565303
H  H42  1  0.11430000  0.03620000  0.54680000  1.0 0.1292565303
H  H43  1  0.14590000  0.91310000  0.47900000  1.0 0.0349626593
H  H44  1  0.47900000  0.14590000  0.91310000  1.0 0.0349626593
H  H45  1  0.52100000  0.08690000  0.85410000  1.0 0.0349626593
H  H46  1  0.91310000  0.47900000  0.14590000  1.0 0.0349626593
H  H47  1  0.85410000  0.52100000  0.08690000  1.0 0.0349626593
H  H48  1  0.08690000  0.85410000  0.52100000  1.0 0.0349626593
H  H49  1  0.85410000  0.08690000  0.52100000  1.0 0.0349626593
H  H50  1  0.52100000  0.85410000  0.08690000  1.0 0.0349626593
H  H51  1  0.47900000  0.91310000  0.14590000  1.0 0.0349626593
H  H52  1  0.08690000  0.52100000  0.85410000  1.0 0.0349626593
H  H53  1  0.14590000  0.47900000  0.91310000  1.0 0.0349626593
H  H54  1  0.91310000  0.14590000  0.47900000  1.0 0.0349626593
H  H55  1  0.06760000  0.88000000  0.46030000  1.0 0.055520952
H  H56  1  0.46030000  0.06760000  0.88000000  1.0 0.055520952
H  H57  1  0.53970000  0.12000000  0.93240000  1.0 0.055520952
H  H58  1  0.88000000  0.46030000  0.06760000  1.0 0.055520952
H  H59  1  0.93240000  0.53970000  0.12000000  1.0 0.055520952
H  H60  1  0.12000000  0.93240000  0.53970000  1.0 0.055520952
H  H61  1  0.93240000  0.12000000  0.53970000  1.0 0.055520952
H  H62  1  0.53970000  0.93240000  0.12000000  1.0 0.055520952
H  H63  1  0.46030000  0.88000000  0.06760000  1.0 0.055520952
H  H64  1  0.12000000  0.53970000  0.93240000  1.0 0.055520952
H  H65  1  0.06760000  0.46030000  0.88000000  1.0 0.055520952
H  H66  1  0.88000000  0.06760000  0.46030000  1.0 0.055520952
H  H67  1  0.87630000  0.10860000  0.46480000  1.0 0.0397434004
H  H68  1  0.46480000  0.87630000  0.10860000  1.0 0.0397434004
H  H69  1  0.53520000  0.89140000  0.12370000  1.0 0.0397434004
H  H70  1  0.10860000  0.46480000  0.87630000  1.0 0.0397434004
H  H71  1  0.12370000  0.53520000  0.89140000  1.0 0.0397434004
H  H72  1  0.89140000  0.12370000  0.53520000  1.0 0.0397434004
H  H73  1  0.12370000  0.89140000  0.53520000  1.0 0.0397434004
H  H74  1  0.53520000  0.12370000  0.89140000  1.0 0.0397434004
H  H75  1  0.46480000  0.10860000  0.87630000  1.0 0.0397434004
H  H76  1  0.89140000  0.53520000  0.12370000  1.0 0.0397434004
H  H77  1  0.87630000  0.46480000  0.10860000  1.0 0.0397434004
H  H78  1  0.10860000  0.87630000  0.46480000  1.0 0.0397434004
H  H79  1  0.95460000  0.14170000  0.48350000  1.0 0.0483423946
H  H80  1  0.48350000  0.95460000  0.14170000  1.0 0.0483423946
H  H81  1  0.51650000  0.85830000  0.04540000  1.0 0.0483423946
H  H82  1  0.14170000  0.48350000  0.95460000  1.0 0.0483423946
H  H83  1  0.04540000  0.51650000  0.85830000  1.0 0.0483423946
H  H84  1  0.85830000  0.04540000  0.51650000  1.0 0.0483423946
H  H85  1  0.04540000  0.85830000  0.51650000  1.0 0.0483423946
H  H86  1  0.51650000  0.04540000  0.85830000  1.0 0.0483423946
H  H87  1  0.48350000  0.14170000  0.95460000  1.0 0.0483423946
H  H88  1  0.85830000  0.51650000  0.04540000  1.0 0.0483423946
H  H89  1  0.95460000  0.48350000  0.14170000  1.0 0.0483423946
H  H90  1  0.14170000  0.95460000  0.48350000  1.0 0.0483423946
C  C1  1  0.07522000  0.34154000  0.52543000  1.0 0.5757327827
C  C2  1  0.52543000  0.07522000  0.34154000  1.0 0.5757327827
C  C3  1  0.47457000  0.65846000  0.92478000  1.0 0.5757327827
C  C4  1  0.34154000  0.52543000  0.07522000  1.0 0.5757327827
C  C5  1  0.92478000  0.47457000  0.65846000  1.0 0.5757327827
C  C6  1  0.65846000  0.92478000  0.47457000  1.0 0.5757327827
C  C7  1  0.92478000  0.65846000  0.47457000  1.0 0.5757327827
C  C8  1  0.47457000  0.92478000  0.65846000  1.0 0.5757327827
C  C9  1  0.52543000  0.34154000  0.07522000  1.0 0.5757327827
C  C10  1  0.65846000  0.47457000  0.92478000  1.0 0.5757327827
C  C11  1  0.07522000  0.52543000  0.34154000  1.0 0.5757327827
C  C12  1  0.34154000  0.07522000  0.52543000  1.0 0.5757327827
C  C13  1  0.12234000  0.25012000  0.53050000  1.0 -0.0391563003
C  C14  1  0.53050000  0.12234000  0.25012000  1.0 -0.0391563003
C  C15  1  0.46950000  0.74988000  0.87766000  1.0 -0.0391563003
C  C16  1  0.25012000  0.53050000  0.12234000  1.0 -0.0391563003
C  C17  1  0.87766000  0.46950000  0.74988000  1.0 -0.0391563003
C  C18  1  0.74988000  0.87766000  0.46950000  1.0 -0.0391563003
C  C19  1  0.87766000  0.74988000  0.46950000  1.0 -0.0391563003
C  C20  1  0.46950000  0.87766000  0.74988000  1.0 -0.0391563003
C  C21  1  0.53050000  0.25012000  0.12234000  1.0 -0.0391563003
C  C22  1  0.74988000  0.46950000  0.87766000  1.0 -0.0391563003
C  C23  1  0.12234000  0.53050000  0.25012000  1.0 -0.0391563003
C  C24  1  0.25012000  0.12234000  0.53050000  1.0 -0.0391563003
C  C25  1  0.08460000  0.21130000  0.53140000  1.0 -0.2143449001
C  C26  1  0.53140000  0.08460000  0.21130000  1.0 -0.2155322083
C  C27  1  0.46860000  0.78870000  0.91540000  1.0 -0.2143449001
C  C28  1  0.21130000  0.53140000  0.08460000  1.0 -0.2143449001
C  C29  1  0.91540000  0.46860000  0.78870000  1.0 -0.2143449001
C  C30  1  0.78870000  0.91540000  0.46860000  1.0 -0.2143449001
C  C31  1  0.91540000  0.78870000  0.46860000  1.0 -0.2143449001
C  C32  1  0.46860000  0.91540000  0.78870000  1.0 -0.2143449001
C  C33  1  0.53140000  0.21130000  0.08460000  1.0 -0.2143449001
C  C34  1  0.78870000  0.46860000  0.91540000  1.0 -0.2143449001
C  C35  1  0.08460000  0.53140000  0.21130000  1.0 -0.2155322083
C  C36  1  0.21130000  0.08460000  0.53140000  1.0 -0.2143449001
C  C37  1  0.20536000  0.20536000  0.53150000  1.0 -0.0676090641
C  C38  1  0.53150000  0.20536000  0.20536000  1.0 -0.0676090641
C  C39  1  0.46850000  0.79464000  0.79464000  1.0 -0.0676090641
C  C40  1  0.20536000  0.53150000  0.20536000  1.0 -0.0676090641
C  C41  1  0.79464000  0.46850000  0.79464000  1.0 -0.0676090641
C  C42  1  0.79464000  0.79464000  0.46850000  1.0 -0.0676090641
C  C43  1  0.12910000  0.12910000  0.52940000  1.0 0.1381849996
C  C44  1  0.52940000  0.12910000  0.12910000  1.0 0.1381849996
C  C45  1  0.47060000  0.87090000  0.87090000  1.0 0.1292565303
C  C46  1  0.12910000  0.52940000  0.12910000  1.0 0.1292565303
C  C47  1  0.87090000  0.47060000  0.87090000  1.0 0.1292565303
C  C48  1  0.87090000  0.87090000  0.47060000  1.0 0.1292565303
C  C49  1  0.11270000  0.03610000  0.50360000  1.0 0.0397434004
C  C50  1  0.50360000  0.11270000  0.03610000  1.0 0.0397434004
C  C51  1  0.49640000  0.96390000  0.88730000  1.0 0.0397434004
C  C52  1  0.03610000  0.50360000  0.11270000  1.0 0.0397434004
C  C53  1  0.88730000  0.49640000  0.96390000  1.0 0.0397434004
C  C54  1  0.96390000  0.88730000  0.49640000  1.0 0.0397434004
C  C55  1  0.88730000  0.96390000  0.49640000  1.0 0.0397434004
C  C56  1  0.49640000  0.88730000  0.96390000  1.0 0.0397434004
C  C57  1  0.50360000  0.03610000  0.11270000  1.0 0.0397434004
C  C58  1  0.96390000  0.49640000  0.88730000  1.0 0.0397434004
C  C59  1  0.11270000  0.50360000  0.03610000  1.0 0.0397434004
C  C60  1  0.03610000  0.11270000  0.50360000  1.0 0.0397434004
C  C61  1  0.05800000  0.03070000  0.48310000  1.0 0.0078652776
C  C62  1  0.48310000  0.05800000  0.03070000  1.0 0.0078652776
C  C63  1  0.51690000  0.96930000  0.94200000  1.0 0.0078652776
C  C64  1  0.03070000  0.48310000  0.05800000  1.0 0.0078652776
C  C65  1  0.94200000  0.51690000  0.96930000  1.0 0.0078652776
C  C66  1  0.96930000  0.94200000  0.51690000  1.0 0.0078652776
C  C67  1  0.94200000  0.96930000  0.51690000  1.0 0.0078652776
C  C68  1  0.51690000  0.94200000  0.96930000  1.0 0.0078652776
C  C69  1  0.48310000  0.03070000  0.05800000  1.0 0.0078652776
C  C70  1  0.96930000  0.51690000  0.94200000  1.0 0.0078652776
C  C71  1  0.05800000  0.48310000  0.03070000  1.0 0.0078652776
C  C72  1  0.03070000  0.05800000  0.48310000  1.0 0.0078652776
C  C73  1  0.09190000  0.95230000  0.47620000  1.0 -0.0232971651
C  C74  1  0.47620000  0.09190000  0.95230000  1.0 -0.0311710682
C  C75  1  0.52380000  0.04770000  0.90810000  1.0 -0.0311710682
C  C76  1  0.95230000  0.47620000  0.09190000  1.0 -0.0232971651
C  C77  1  0.90810000  0.52380000  0.04770000  1.0 -0.0232971651
C  C78  1  0.04770000  0.90810000  0.52380000  1.0 -0.0232971651
C  C79  1  0.90810000  0.04770000  0.52380000  1.0 -0.0311710682
C  C80  1  0.52380000  0.90810000  0.04770000  1.0 -0.0232971651
C  C81  1  0.47620000  0.95230000  0.09190000  1.0 -0.0232971651
C  C82  1  0.04770000  0.52380000  0.90810000  1.0 -0.0232971651
C  C83  1  0.09190000  0.47620000  0.95230000  1.0 -0.0311710682
C  C84  1  0.95230000  0.09190000  0.47620000  1.0 -0.0232971651
C  C85  1  0.04490000  0.93250000  0.46500000  1.0 -0.0311710682
C  C86  1  0.46500000  0.04490000  0.93250000  1.0 -0.0311710682
C  C87  1  0.53500000  0.06750000  0.95510000  1.0 -0.0311710682
C  C88  1  0.93250000  0.46500000  0.04490000  1.0 -0.0311710682
C  C89  1  0.95510000  0.53500000  0.06750000  1.0 -0.0311710682
C  C90  1  0.06750000  0.95510000  0.53500000  1.0 -0.0311710682
C  C91  1  0.95510000  0.06750000  0.53500000  1.0 -0.0311710682
C  C92  1  0.53500000  0.95510000  0.06750000  1.0 -0.0311710682
C  C93  1  0.46500000  0.93250000  0.04490000  1.0 -0.0311710682
C  C94  1  0.06750000  0.53500000  0.95510000  1.0 -0.0311710682
C  C95  1  0.04490000  0.46500000  0.93250000  1.0 -0.0311710682
C  C96  1  0.93250000  0.04490000  0.46500000  1.0 -0.0311710682
C  C97  1  0.96420000  0.99100000  0.46070000  1.0 0.0078652776
C  C98  1  0.46070000  0.96420000  0.99100000  1.0 0.0078652776
C  C99  1  0.53930000  0.00900000  0.03580000  1.0 0.0078652776
C  C100  1  0.99100000  0.46070000  0.96420000  1.0 0.0078652776
C  C101  1  0.03580000  0.53930000  0.00900000  1.0 0.0078652776
C  C102  1  0.00900000  0.03580000  0.53930000  1.0 0.0078652776
C  C103  1  0.03580000  0.00900000  0.53930000  1.0 0.0078652776
C  C104  1  0.53930000  0.03580000  0.00900000  1.0 0.0078652776
C  C105  1  0.46070000  0.99100000  0.96420000  1.0 0.0078652776
C  C106  1  0.00900000  0.53930000  0.03580000  1.0 0.0078652776
C  C107  1  0.96420000  0.46070000  0.99100000  1.0 0.0078652776
C  C108  1  0.99100000  0.96420000  0.46070000  1.0 0.0078652776
C  C109  1  0.10310000  0.01880000  0.53740000  1.0 0.0483423946
C  C110  1  0.53740000  0.10310000  0.01880000  1.0 0.0483423946
C  C111  1  0.46260000  0.98120000  0.89690000  1.0 0.0483423946
C  C112  1  0.01880000  0.53740000  0.10310000  1.0 0.0483423946
C  C113  1  0.89690000  0.46260000  0.98120000  1.0 0.0483423946
C  C114  1  0.98120000  0.89690000  0.46260000  1.0 0.0483423946
C  C115  1  0.89690000  0.98120000  0.46260000  1.0 0.0483423946
C  C116  1  0.46260000  0.89690000  0.98120000  1.0 0.0483423946
C  C117  1  0.53740000  0.01880000  0.10310000  1.0 0.0483423946
C  C118  1  0.98120000  0.46260000  0.89690000  1.0 0.0483423946
C  C119  1  0.10310000  0.53740000  0.01880000  1.0 0.0483423946
C  C120  1  0.01880000  0.10310000  0.53740000  1.0 0.0483423946
C  C121  1  0.97730000  0.08930000  0.47880000  1.0 -0.0232971651
C  C122  1  0.47880000  0.97730000  0.08930000  1.0 -0.0232971651
C  C123  1  0.52120000  0.91070000  0.02270000  1.0 -0.0232971651
C  C124  1  0.08930000  0.47880000  0.97730000  1.0 -0.0311710682
C  C125  1  0.02270000  0.52120000  0.91070000  1.0 -0.0232971651
C  C126  1  0.91070000  0.02270000  0.52120000  1.0 -0.0232971651
C  C127  1  0.02270000  0.91070000  0.52120000  1.0 -0.0311710682
C  C128  1  0.52120000  0.02270000  0.91070000  1.0 -0.0232971651
C  C129  1  0.47880000  0.08930000  0.97730000  1.0 -0.0232971651
C  C130  1  0.91070000  0.52120000  0.02270000  1.0 -0.0232971651
C  C131  1  0.97730000  0.47880000  0.08930000  1.0 -0.0232971651
C  C132  1  0.08930000  0.97730000  0.47880000  1.0 -0.0232971651
C  C133  1  0.06970000  0.93060000  0.53240000  1.0 -0.0232971651
C  C134  1  0.53240000  0.06970000  0.93060000  1.0 -0.0232971651
C  C135  1  0.46760000  0.06940000  0.93030000  1.0 -0.0232971651
C  C136  1  0.93060000  0.53240000  0.06970000  1.0 -0.0232971651
C  C137  1  0.93030000  0.46760000  0.06940000  1.0 -0.0232971651
C  C138  1  0.06940000  0.93030000  0.46760000  1.0 -0.0232971651
C  C139  1  0.93030000  0.06940000  0.46760000  1.0 -0.0232971651
C  C140  1  0.46760000  0.93030000  0.06940000  1.0 -0.0232971651
C  C141  1  0.53240000  0.93060000  0.06970000  1.0 -0.0232971651
C  C142  1  0.06940000  0.46760000  0.93030000  1.0 -0.0232971651
C  C143  1  0.06970000  0.53240000  0.93060000  1.0 -0.0232971651
C  C144  1  0.93060000  0.06970000  0.53240000  1.0 -0.0232971651
N  N1  1  0.09109000  0.09109000  0.52660000  1.0 -0.230635916
N  N2  1  0.52660000  0.09109000  0.09109000  1.0 -0.230635916
N  N3  1  0.47340000  0.90891000  0.90891000  1.0 -0.230635916
N  N4  1  0.09109000  0.52660000  0.09109000  1.0 -0.230635916
N  N5  1  0.90891000  0.47340000  0.90891000  1.0 -0.230635916
N  N6  1  0.90891000  0.90891000  0.47340000  1.0 -0.230635916
O  O1  1  0.11441000  0.37522000  0.52018000  1.0 -0.5312052019
O  O2  1  0.52018000  0.11441000  0.37522000  1.0 -0.5312052019
O  O3  1  0.47982000  0.62478000  0.88559000  1.0 -0.5312052019
O  O4  1  0.37522000  0.52018000  0.11441000  1.0 -0.5312052019
O  O5  1  0.88559000  0.47982000  0.62478000  1.0 -0.5312052019
O  O6  1  0.62478000  0.88559000  0.47982000  1.0 -0.5312052019
O  O7  1  0.88559000  0.62478000  0.47982000  1.0 -0.5312052019
O  O8  1  0.47982000  0.88559000  0.62478000  1.0 -0.5312052019
O  O9  1  0.52018000  0.37522000  0.11441000  1.0 -0.5312052019
O  O10  1  0.62478000  0.47982000  0.88559000  1.0 -0.5312052019
O  O11  1  0.11441000  0.52018000  0.37522000  1.0 -0.5312052019
O  O12  1  0.37522000  0.11441000  0.52018000  1.0 -0.5312052019
O  O13  1  0.00115000  0.37794000  0.52457000  1.0 -0.5312052019
O  O14  1  0.52457000  0.00115000  0.37794000  1.0 -0.5312052019
O  O15  1  0.47543000  0.62206000  0.99885000  1.0 -0.5312052019
O  O16  1  0.37794000  0.52457000  0.00115000  1.0 -0.5312052019
O  O17  1  0.99885000  0.47543000  0.62206000  1.0 -0.5312052019
O  O18  1  0.62206000  0.99885000  0.47543000  1.0 -0.5312052019
O  O19  1  0.99885000  0.62206000  0.47543000  1.0 -0.5312052019
O  O20  1  0.47543000  0.99885000  0.62206000  1.0 -0.5312052019
O  O21  1  0.52457000  0.37794000  0.00115000  1.0 -0.5312052019
O  O22  1  0.62206000  0.47543000  0.99885000  1.0 -0.5312052019
O  O23  1  0.00115000  0.52457000  0.37794000  1.0 -0.5312052019
O  O24  1  0.37794000  0.00115000  0.52457000  1.0 -0.5312052019
O  O25  1  0.18750000  0.98340000  0.49930000  1.0 -0.1467855273
O  O26  1  0.49930000  0.18750000  0.98340000  1.0 -0.1467855273
O  O27  1  0.50070000  0.01660000  0.81250000  1.0 -0.1467855273
O  O28  1  0.98340000  0.49930000  0.18750000  1.0 -0.1467855273
O  O29  1  0.81250000  0.50070000  0.01660000  1.0 -0.1467855273
O  O30  1  0.01660000  0.81250000  0.50070000  1.0 -0.1467855273
O  O31  1  0.81250000  0.01660000  0.50070000  1.0 -0.1467855273
O  O32  1  0.50070000  0.81250000  0.01660000  1.0 -0.1467855273
O  O33  1  0.49930000  0.98340000  0.18750000  1.0 -0.1467855273
O  O34  1  0.01660000  0.50070000  0.81250000  1.0 -0.1467855273
O  O35  1  0.18750000  0.49930000  0.98340000  1.0 -0.1467855273
O  O36  1  0.98340000  0.18750000  0.49930000  1.0 -0.1467855273
O  O37  1  0.16190000  0.94720000  0.57450000  1.0 -0.0902240433
O  O38  1  0.57450000  0.16190000  0.94720000  1.0 -0.0902240433
O  O39  1  0.42550000  0.05280000  0.83810000  1.0 -0.0902240433
O  O40  1  0.94720000  0.57450000  0.16190000  1.0 -0.0902240433
O  O41  1  0.83810000  0.42550000  0.05280000  1.0 -0.0902240433
O  O42  1  0.05280000  0.83810000  0.42550000  1.0 -0.0902240433
O  O43  1  0.83810000  0.05280000  0.42550000  1.0 -0.0902240433
O  O44  1  0.42550000  0.83810000  0.05280000  1.0 -0.0902240433
O  O45  1  0.57450000  0.94720000  0.16190000  1.0 -0.0902240433
O  O46  1  0.05280000  0.42550000  0.83810000  1.0 -0.0902240433
O  O47  1  0.16190000  0.57450000  0.94720000  1.0 -0.0902240433
O  O48  1  0.94720000  0.16190000  0.57450000  1.0 -0.0902240433
