# DDEC6 charges by PACMAN v1.1 (https://github.com/mtap-research/PACMAN-charge/)
data_GEZFOI_ion_pacman
_symmetry_space_group_name_H-M   'P 1'
_cell_length_a   10.54150000
_cell_length_b   10.54150000
_cell_length_c   17.24650000
_cell_angle_alpha   70.79130000
_cell_angle_beta   109.20900000
_cell_angle_gamma   101.39000000
_symmetry_Int_Tables_number   1
_chemical_formula_structural   CdH18C21(NO)8
_chemical_formula_sum   'Cd2 H36 C42 N16 O16'
_cell_volume   1700.44989451
_cell_formula_units_Z   2
loop_
 _symmetry_equiv_pos_site_id
 _symmetry_equiv_pos_as_xyz
  1  'x, y, z'
loop_
 _atom_site_type_symbol
 _atom_site_label
 _atom_site_symmetry_multiplicity
 _atom_site_fract_x
 _atom_site_fract_y
 _atom_site_fract_z
 _atom_site_occupancy
 _atom_site_charge
Cd  Cd1  1  0.50000000  0.50000000  0.00000000  1.0 0.7730827325
Cd  Cd2  1  0.50000000  0.50000000  0.50000000  1.0 0.7730827325
H  H1  1  0.60480000  0.05200000  0.75440000  1.0 0.1419597945
H  H2  1  0.05200000  0.60480000  0.74560000  1.0 0.1419597945
H  H3  1  0.39520000  0.94800000  0.24560000  1.0 0.1419597945
H  H4  1  0.94800000  0.39520000  0.25440000  1.0 0.1419597945
H  H5  1  0.49650000  0.23930000  0.66530000  1.0 0.119699077
H  H6  1  0.23930000  0.49650000  0.83470000  1.0 0.119699077
H  H7  1  0.50350000  0.76070000  0.33470000  1.0 0.119699077
H  H8  1  0.76070000  0.50350000  0.16530000  1.0 0.119699077
H  H9  1  0.74090000  0.32850000  0.52240000  1.0 0.119699077
H  H10  1  0.32850000  0.74090000  0.97760000  1.0 0.119699077
H  H11  1  0.25910000  0.67150000  0.47760000  1.0 0.119699077
H  H12  1  0.67150000  0.25910000  0.02240000  1.0 0.119699077
H  H13  1  0.86160000  0.15080000  0.60870000  1.0 0.1419597945
H  H14  1  0.15080000  0.86160000  0.89130000  1.0 0.1419597945
H  H15  1  0.13840000  0.84920000  0.39130000  1.0 0.1419597945
H  H16  1  0.84920000  0.13840000  0.10870000  1.0 0.1419597945
H  H17  1  0.57150000  0.83870000  0.71460000  1.0 0.1454164677
H  H18  1  0.83870000  0.57150000  0.78540000  1.0 0.1454164677
H  H19  1  0.42850000  0.16130000  0.28540000  1.0 0.1454164677
H  H20  1  0.16130000  0.42850000  0.21460000  1.0 0.1454164677
H  H21  1  0.46990000  0.66930000  0.80740000  1.0 0.1099146784
H  H22  1  0.66930000  0.46990000  0.69260000  1.0 0.1099146784
H  H23  1  0.53010000  0.33070000  0.19260000  1.0 0.1099146784
H  H24  1  0.33070000  0.53010000  0.30740000  1.0 0.1099146784
H  H25  1  0.79650000  0.67350000  0.99990000  1.0 0.1018915841
H  H26  1  0.67350000  0.79650000  0.50010000  1.0 0.1018915841
H  H27  1  0.20350000  0.32650000  0.00010000  1.0 0.1018915841
H  H28  1  0.32650000  0.20350000  0.49990000  1.0 0.1018915841
H  H29  1  0.90710000  0.84730000  0.91170000  1.0 0.1419597945
H  H30  1  0.84730000  0.90710000  0.58830000  1.0 0.1419597945
H  H31  1  0.09290000  0.15270000  0.08830000  1.0 0.1419597945
H  H32  1  0.15270000  0.09290000  0.41170000  1.0 0.1419597945
H  H33  1  0.97380000  0.01480000  0.69870000  1.0 0.119699077
H  H34  1  0.01480000  0.97380000  0.80130000  1.0 0.119699077
H  H35  1  0.02620000  0.98520000  0.30130000  1.0 0.119699077
H  H36  1  0.98520000  0.02620000  0.19870000  1.0 0.119699077
C  C1  1  0.63590000  0.10810000  0.70720000  1.0 -0.2191897544
C  C2  1  0.10810000  0.63590000  0.79280000  1.0 -0.2191897544
C  C3  1  0.36410000  0.89190000  0.29280000  1.0 -0.2191897544
C  C4  1  0.89190000  0.36410000  0.20720000  1.0 -0.2191897544
C  C5  1  0.57150000  0.22050000  0.65330000  1.0 0.0927080505
C  C6  1  0.22050000  0.57150000  0.84670000  1.0 0.0927080505
C  C7  1  0.42850000  0.77950000  0.34670000  1.0 0.0927080505
C  C8  1  0.77950000  0.42850000  0.15330000  1.0 0.0927080505
C  C9  1  0.71390000  0.27250000  0.57120000  1.0 0.1018915841
C  C10  1  0.27250000  0.71390000  0.92880000  1.0 0.1018915841
C  C11  1  0.28610000  0.72750000  0.42880000  1.0 0.1018915841
C  C12  1  0.72750000  0.28610000  0.07120000  1.0 0.1018915841
C  C13  1  0.78560000  0.16520000  0.62160000  1.0 -0.2287629365
C  C14  1  0.16520000  0.78560000  0.87840000  1.0 -0.2287629365
C  C15  1  0.21440000  0.83480000  0.37840000  1.0 -0.2287629365
C  C16  1  0.83480000  0.21440000  0.12160000  1.0 -0.2287629365
C  C17  1  0.74720000  0.07700000  0.69200000  1.0 0.2216198885
C  C18  1  0.07700000  0.74720000  0.80800000  1.0 0.2216198885
C  C19  1  0.25280000  0.92300000  0.30800000  1.0 0.2216198885
C  C20  1  0.92300000  0.25280000  0.19200000  1.0 0.2216198885
C  C21  1  0.74970000  0.86210000  0.80300000  1.0 0.2096318447
C  C22  1  0.86210000  0.74970000  0.69700000  1.0 0.2096318447
C  C23  1  0.25030000  0.13790000  0.19700000  1.0 0.2096318447
C  C24  1  0.13790000  0.25030000  0.30300000  1.0 0.2096318447
C  C25  1  0.62000000  0.80740000  0.77330000  1.0 -0.2191897544
C  C26  1  0.80740000  0.62000000  0.72670000  1.0 -0.2191897544
C  C27  1  0.38000000  0.19260000  0.22670000  1.0 -0.2191897544
C  C28  1  0.19260000  0.38000000  0.27330000  1.0 -0.2191897544
C  C29  1  0.55960000  0.70620000  0.82920000  1.0 0.1099146784
C  C30  1  0.70620000  0.55960000  0.67080000  1.0 0.1099146784
C  C31  1  0.44040000  0.29380000  0.17080000  1.0 0.1099146784
C  C32  1  0.29380000  0.44040000  0.32920000  1.0 0.1099146784
C  C33  1  0.74940000  0.70900000  0.94130000  1.0 0.119699077
C  C34  1  0.70900000  0.74940000  0.55870000  1.0 0.119699077
C  C35  1  0.25060000  0.29100000  0.05870000  1.0 0.119699077
C  C36  1  0.29100000  0.25060000  0.44130000  1.0 0.119699077
C  C37  1  0.81710000  0.81250000  0.88870000  1.0 -0.2287629365
C  C38  1  0.81250000  0.81710000  0.61130000  1.0 -0.2287629365
C  C39  1  0.18290000  0.18750000  0.11130000  1.0 -0.2287629365
C  C40  1  0.18750000  0.18290000  0.38870000  1.0 -0.2287629365
C  C41  1  0.95080000  0.95080000  0.75000000  1.0 -0.0091947478
C  C42  1  0.04920000  0.04920000  0.25000000  1.0 -0.0091947478
N  N1  1  0.60830000  0.30490000  0.58520000  1.0 -0.2436464883
N  N2  1  0.30490000  0.60830000  0.91480000  1.0 -0.2436464883
N  N3  1  0.39170000  0.69510000  0.41480000  1.0 -0.2436464883
N  N4  1  0.69510000  0.39170000  0.08520000  1.0 -0.2436464883
N  N5  1  0.81290000  0.96270000  0.74600000  1.0 -0.1462054111
N  N6  1  0.96270000  0.81290000  0.75400000  1.0 -0.1462054111
N  N7  1  0.18710000  0.03730000  0.25400000  1.0 -0.1462054111
N  N8  1  0.03730000  0.18710000  0.24600000  1.0 -0.1462054111
N  N9  1  0.62310000  0.65870000  0.91290000  1.0 -0.2287629365
N  N10  1  0.65870000  0.62310000  0.58710000  1.0 -0.2287629365
N  N11  1  0.37690000  0.34130000  0.08710000  1.0 -0.2287629365
N  N12  1  0.34130000  0.37690000  0.41290000  1.0 -0.2287629365
N  N13  1  0.75430000  0.03290000  0.33590000  1.0 0.5863532417
N  N14  1  0.03290000  0.75430000  0.16410000  1.0 0.5863532417
N  N15  1  0.24570000  0.96710000  0.66410000  1.0 0.5863532417
N  N16  1  0.96710000  0.24570000  0.83590000  1.0 0.5863532417
O  O1  1  0.44670000  0.36550000  0.90840000  1.0 -0.5602427281
O  O2  1  0.36550000  0.44670000  0.59160000  1.0 -0.5602427281
O  O3  1  0.55330000  0.63450000  0.09160000  1.0 -0.5602427281
O  O4  1  0.63450000  0.55330000  0.40840000  1.0 -0.5602427281
O  O5  1  0.74690000  0.95010000  0.30140000  1.0 -0.303790257
O  O6  1  0.83770000  0.03650000  0.39700000  1.0 -0.2836182422
O  O7  1  0.67630000  0.11310000  0.30780000  1.0 -0.303790257
O  O8  1  0.95010000  0.74690000  0.19860000  1.0 -0.303790257
O  O9  1  0.03650000  0.83770000  0.10300000  1.0 -0.2836182422
O  O10  1  0.11310000  0.67630000  0.19220000  1.0 -0.303790257
O  O11  1  0.25310000  0.04990000  0.69860000  1.0 -0.303790257
O  O12  1  0.16230000  0.96350000  0.60300000  1.0 -0.2836182422
O  O13  1  0.32370000  0.88690000  0.69220000  1.0 -0.303790257
O  O14  1  0.04990000  0.25310000  0.80140000  1.0 -0.303790257
O  O15  1  0.96350000  0.16230000  0.89700000  1.0 -0.2836182422
O  O16  1  0.88690000  0.32370000  0.80780000  1.0 -0.303790257
