# DDEC6 charges by PACMAN v1.1 (https://github.com/mtap-research/PACMAN-charge/)
data_GEZVAM_ASR_pacman
_symmetry_space_group_name_H-M   'P 1'
_cell_length_a   10.96390000
_cell_length_b   10.14370000
_cell_length_c   13.19810000
_cell_angle_alpha   90.00000000
_cell_angle_beta   113.08300000
_cell_angle_gamma   90.00000000
_symmetry_Int_Tables_number   1
_chemical_formula_structural   NiH16C24(N3O2)2
_chemical_formula_sum   'Ni2 H32 C48 N12 O8'
_cell_volume   1350.30343385
_cell_formula_units_Z   2
loop_
 _symmetry_equiv_pos_site_id
 _symmetry_equiv_pos_as_xyz
  1  'x, y, z'
loop_
 _atom_site_type_symbol
 _atom_site_label
 _atom_site_symmetry_multiplicity
 _atom_site_fract_x
 _atom_site_fract_y
 _atom_site_fract_z
 _atom_site_occupancy
 _atom_site_charge
Ni  Ni1  1  0.23009000  0.02463000  0.35196000  1.0 0.6978880349
Ni  Ni2  1  0.73009000  0.97537000  0.35196000  1.0 0.6978880349
H  H1  1  0.10308000  0.14700000  0.49839000  1.0 0.1208579511
H  H2  1  0.25140000  0.56634000  0.37882000  1.0 0.1208579511
H  H3  1  0.11739000  0.13919000  0.67872000  1.0 0.1208579511
H  H4  1  0.35448000  0.89486000  0.03525000  1.0 0.1275017244
H  H5  1  0.89463000  0.72652000  0.19183000  1.0 0.1275017244
H  H6  1  0.38775000  0.84381000  0.73638000  1.0 0.1398464139
H  H7  1  0.36427000  0.89664000  0.21320000  1.0 0.1208579511
H  H8  1  0.93324000  0.32976000  0.22623000  1.0 0.1275017244
H  H9  1  0.09436000  0.17672000  0.14013000  1.0 0.1107065636
H  H10  1  0.08211000  0.18920000  0.95999000  1.0 0.1398464139
H  H11  1  0.36859000  0.86442000  0.55625000  1.0 0.1107065636
H  H12  1  0.51072000  0.53883000  0.02852000  1.0 0.1208579511
H  H13  1  0.30288000  0.50589000  0.88622000  1.0 0.1107065636
H  H14  1  0.27670000  0.34629000  0.75125000  1.0 0.1107065636
H  H15  1  0.45835000  0.21963000  0.75858000  1.0 0.1107065636
H  H16  1  0.66619000  0.25258000  0.90087000  1.0 0.1107065636
H  H17  1  0.60308000  0.85300000  0.49839000  1.0 0.1208579511
H  H18  1  0.75140000  0.43366000  0.37882000  1.0 0.1208579511
H  H19  1  0.61739000  0.86081000  0.67872000  1.0 0.1208579511
H  H20  1  0.85448000  0.10514000  0.03525000  1.0 0.1275017244
H  H21  1  0.39463000  0.27348000  0.19183000  1.0 0.1275017244
H  H22  1  0.88775000  0.15619000  0.73638000  1.0 0.1398464139
H  H23  1  0.86427000  0.10336000  0.21320000  1.0 0.1208579511
H  H24  1  0.43324000  0.67024000  0.22623000  1.0 0.1275017244
H  H25  1  0.59436000  0.82328000  0.14013000  1.0 0.1107065636
H  H26  1  0.58211000  0.81080000  0.95999000  1.0 0.1398464139
H  H27  1  0.86859000  0.13558000  0.55625000  1.0 0.1107065636
H  H28  1  0.01072000  0.46117000  0.02852000  1.0 0.1208579511
H  H29  1  0.80288000  0.49411000  0.88622000  1.0 0.1107065636
H  H30  1  0.77670000  0.65371000  0.75125000  1.0 0.1107065636
H  H31  1  0.95835000  0.78037000  0.75858000  1.0 0.1107065636
H  H32  1  0.16619000  0.74742000  0.90087000  1.0 0.1107065636
C  C1  1  0.16230000  0.08610000  0.54830000  1.0 0.1046604398
C  C2  1  0.21130000  0.03770000  0.97730000  1.0 0.1929459455
C  C3  1  0.18970000  0.31180000  0.35790000  1.0 0.5509671154
C  C4  1  0.08260000  0.66740000  0.28950000  1.0 -0.0119881374
C  C5  1  0.16010000  0.55650000  0.33310000  1.0 -0.1021062252
C  C6  1  0.10410000  0.43030000  0.30970000  1.0 -0.0169540076
C  C7  1  0.16860000  0.08090000  0.65490000  1.0 -0.2086117955
C  C8  1  0.14010000  0.80130000  0.31290000  1.0 0.5295400503
C  C9  1  0.29920000  0.95260000  0.05500000  1.0 -0.1985604979
C  C10  1  0.94860000  0.65120000  0.22100000  1.0 -0.1389026609
C  C11  1  0.32870000  0.90690000  0.68890000  1.0 -0.1985604979
C  C12  1  0.30400000  0.95410000  0.16030000  1.0 0.1208579511
C  C13  1  0.97140000  0.41530000  0.24150000  1.0 -0.1478393194
C  C14  1  0.89390000  0.52590000  0.19520000  1.0 0.1603928539
C  C15  1  0.25220000  0.98760000  0.72660000  1.0 0.2001075628
C  C16  1  0.14700000  0.11860000  0.11770000  1.0 0.0902318167
C  C17  1  0.13750000  0.12580000  0.00980000  1.0 -0.1985604979
C  C18  1  0.31710000  0.92020000  0.58190000  1.0 0.0902318167
C  C19  1  0.60800000  0.39880000  0.97810000  1.0 0.1603928539
C  C20  1  0.50010000  0.47400000  0.97370000  1.0 -0.1478393194
C  C21  1  0.37660000  0.45450000  0.88920000  1.0 -0.0807304996
C  C22  1  0.36110000  0.35970000  0.80900000  1.0 -0.0807304996
C  C23  1  0.46900000  0.28440000  0.81340000  1.0 -0.0807304996
C  C24  1  0.59240000  0.30400000  0.89790000  1.0 -0.1557449815
C  C25  1  0.66230000  0.91390000  0.54830000  1.0 0.1046604398
C  C26  1  0.71130000  0.96230000  0.97730000  1.0 0.1929459455
C  C27  1  0.68970000  0.68820000  0.35790000  1.0 0.5509671154
C  C28  1  0.58260000  0.33260000  0.28950000  1.0 -0.0119881374
C  C29  1  0.66010000  0.44350000  0.33310000  1.0 -0.1021062252
C  C30  1  0.60410000  0.56970000  0.30970000  1.0 -0.0169540076
C  C31  1  0.66860000  0.91910000  0.65490000  1.0 -0.2086117955
C  C32  1  0.64010000  0.19870000  0.31290000  1.0 0.5295400503
C  C33  1  0.79920000  0.04740000  0.05500000  1.0 -0.1985604979
C  C34  1  0.44860000  0.34880000  0.22100000  1.0 -0.1389026609
C  C35  1  0.82870000  0.09310000  0.68890000  1.0 -0.1985604979
C  C36  1  0.80400000  0.04590000  0.16030000  1.0 0.1208579511
C  C37  1  0.47140000  0.58470000  0.24150000  1.0 -0.1478393194
C  C38  1  0.39390000  0.47410000  0.19520000  1.0 0.1603928539
C  C39  1  0.75220000  0.01240000  0.72660000  1.0 0.2001075628
C  C40  1  0.64700000  0.88140000  0.11770000  1.0 0.0902318167
C  C41  1  0.63750000  0.87420000  0.00980000  1.0 -0.1985604979
C  C42  1  0.81710000  0.07980000  0.58190000  1.0 0.0902318167
C  C43  1  0.10800000  0.60120000  0.97810000  1.0 0.1603928539
C  C44  1  0.00010000  0.52600000  0.97370000  1.0 -0.1478393194
C  C45  1  0.87660000  0.54550000  0.88920000  1.0 -0.0807304996
C  C46  1  0.86110000  0.64030000  0.80900000  1.0 -0.0807304996
C  C47  1  0.96900000  0.71560000  0.81340000  1.0 -0.0807304996
C  C48  1  0.09240000  0.69600000  0.89790000  1.0 -0.1557449815
N  N1  1  0.23660000  0.00830000  0.51230000  1.0 -0.2086117955
N  N2  1  0.22740000  0.03310000  0.19190000  1.0 -0.2086117955
N  N3  1  0.19850000  0.05130000  0.86530000  1.0 -0.1132360682
N  N4  1  0.27080000  0.97420000  0.84000000  1.0 -0.1265828279
N  N5  1  0.75950000  0.52000000  0.11780000  1.0 -0.1132360682
N  N6  1  0.73590000  0.41070000  0.06540000  1.0 -0.1389026609
N  N7  1  0.73660000  0.99170000  0.51230000  1.0 -0.2086117955
N  N8  1  0.72740000  0.96690000  0.19190000  1.0 -0.2086117955
N  N9  1  0.69850000  0.94870000  0.86530000  1.0 -0.1132360682
N  N10  1  0.77080000  0.02580000  0.84000000  1.0 -0.1237523076
N  N11  1  0.25950000  0.48000000  0.11780000  1.0 -0.1132360682
N  N12  1  0.23590000  0.58930000  0.06540000  1.0 -0.1389026609
O  O1  1  0.06390000  0.89950000  0.29310000  1.0 -0.5067031798
O  O2  1  0.13540000  0.19970000  0.32730000  1.0 -0.5676832614
O  O3  1  0.26460000  0.81660000  0.35150000  1.0 -0.5275334534
O  O4  1  0.30750000  0.32870000  0.42360000  1.0 -0.551398289
O  O5  1  0.56390000  0.10050000  0.29310000  1.0 -0.5067031798
O  O6  1  0.63540000  0.80030000  0.32730000  1.0 -0.5676832614
O  O7  1  0.76460000  0.18340000  0.35150000  1.0 -0.5275334534
O  O8  1  0.80750000  0.67130000  0.42360000  1.0 -0.551398289
