# DDEC6 charges by PACMAN v1.1 (https://github.com/mtap-research/PACMAN-charge/)
data_GEZVOA_ASR_pacman
_symmetry_space_group_name_H-M   'P 1'
_cell_length_a   11.20010000
_cell_length_b   10.15540000
_cell_length_c   13.20720000
_cell_angle_alpha   90.00000000
_cell_angle_beta   113.92000000
_cell_angle_gamma   90.00000000
_symmetry_Int_Tables_number   1
_chemical_formula_structural   NiH16C24(N5O2)2
_chemical_formula_sum   'Ni2 H32 C48 N20 O8'
_cell_volume   1373.18587130
_cell_formula_units_Z   2
loop_
 _symmetry_equiv_pos_site_id
 _symmetry_equiv_pos_as_xyz
  1  'x, y, z'
loop_
 _atom_site_type_symbol
 _atom_site_label
 _atom_site_symmetry_multiplicity
 _atom_site_fract_x
 _atom_site_fract_y
 _atom_site_fract_z
 _atom_site_occupancy
 _atom_site_charge
Ni  Ni1  1  0.71871000  0.47378000  0.68788000  1.0 0.7243665246
Ni  Ni2  1  0.21871000  0.52622000  0.68788000  1.0 0.7243665246
H  H1  1  0.69770000  0.93240000  0.66085000  1.0 0.1376789895
H  H2  1  0.01541000  0.16564000  0.81076000  1.0 0.1219942519
H  H3  1  0.57998000  0.61197000  0.81494000  1.0 0.1219942519
H  H4  1  0.05220000  0.76876000  0.83259000  1.0 0.1267518935
H  H5  1  0.58219000  0.64932000  0.30079000  1.0 0.1095820226
H  H6  1  0.84406000  0.33698000  0.54681000  1.0 0.1267518935
H  H7  1  0.83913000  0.35037000  0.36836000  1.0 0.1219942519
H  H8  1  0.58985000  0.62733000  0.47901000  1.0 0.1095820226
H  H9  1  0.59316000  0.63214000  0.99428000  1.0 0.1219942519
H  H10  1  0.85449000  0.34476000  0.91120000  1.0 0.1095820226
H  H11  1  0.87132000  0.35738000  0.08911000  1.0 0.1095820226
H  H12  1  0.40977000  0.86798000  0.02065000  1.0 0.1095820226
H  H13  1  0.60072000  0.27297000  0.13830000  1.0 0.0724142728
H  H14  1  0.38360000  0.26042000  0.02522000  1.0 0.1219942519
H  H15  1  0.63262000  0.88131000  0.13701000  1.0 0.1008783331
H  H16  1  0.72756000  0.08821000  0.19410000  1.0 0.1095820226
H  H17  1  0.19770000  0.06760000  0.66085000  1.0 0.1376789895
H  H18  1  0.51541000  0.83436000  0.81076000  1.0 0.1219942519
H  H19  1  0.07998000  0.38803000  0.81494000  1.0 0.1219942519
H  H20  1  0.55220000  0.23124000  0.83259000  1.0 0.1267518935
H  H21  1  0.08219000  0.35068000  0.30079000  1.0 0.1095820226
H  H22  1  0.34406000  0.66302000  0.54681000  1.0 0.1267518935
H  H23  1  0.33913000  0.64963000  0.36836000  1.0 0.1219942519
H  H24  1  0.08985000  0.37267000  0.47901000  1.0 0.1095820226
H  H25  1  0.09316000  0.36786000  0.99428000  1.0 0.1219942519
H  H26  1  0.35449000  0.65524000  0.91120000  1.0 0.1095820226
H  H27  1  0.37132000  0.64262000  0.08911000  1.0 0.1095820226
H  H28  1  0.90977000  0.13202000  0.02065000  1.0 0.1095820226
H  H29  1  0.10072000  0.72703000  0.13830000  1.0 0.0724142728
H  H30  1  0.88360000  0.73958000  0.02522000  1.0 0.1219942519
H  H31  1  0.13262000  0.11869000  0.13701000  1.0 0.1008783331
H  H32  1  0.22756000  0.91179000  0.19410000  1.0 0.1095820226
C  C1  1  0.78860000  0.94210000  0.70450000  1.0 -0.1405328499
C  C2  1  0.75790000  0.18730000  0.68810000  1.0 0.5460943965
C  C3  1  0.84420000  0.06830000  0.72890000  1.0 -0.0015460715
C  C4  1  0.86660000  0.83150000  0.74410000  1.0 0.0054925378
C  C5  1  0.97710000  0.08060000  0.79370000  1.0 -0.2844529661
C  C6  1  0.80720000  0.69670000  0.72110000  1.0 0.5437683848
C  C7  1  0.64170000  0.56020000  0.87220000  1.0 0.1095820226
C  C8  1  0.99910000  0.84490000  0.80730000  1.0 -0.244755915
C  C9  1  0.63630000  0.58440000  0.34980000  1.0 -0.2983059647
C  C10  1  0.73450000  0.49260000  0.06150000  1.0 0.1376789895
C  C11  1  0.05470000  0.96890000  0.83380000  1.0 0.1219942519
C  C12  1  0.78970000  0.40080000  0.49660000  1.0 0.1219942519
C  C13  1  0.78780000  0.40870000  0.39050000  1.0 -0.2983059647
C  C14  1  0.64190000  0.57040000  0.45650000  1.0 0.0777937951
C  C15  1  0.64770000  0.57140000  0.97840000  1.0 -0.3064962538
C  C16  1  0.80030000  0.40540000  0.92780000  1.0 0.0594261301
C  C17  1  0.71010000  0.50300000  0.31800000  1.0 0.1738128749
C  C18  1  0.80980000  0.41170000  0.03390000  1.0 -0.2865426751
C  C19  1  0.37510000  0.06500000  0.01220000  1.0 0.1008783331
C  C20  1  0.44930000  0.95140000  0.04510000  1.0 -0.210216445
C  C21  1  0.56220000  0.18900000  0.11430000  1.0 -0.1141186493
C  C22  1  0.43340000  0.18180000  0.04750000  1.0 -0.210216445
C  C23  1  0.58150000  0.95900000  0.11380000  1.0 -0.1405328499
C  C24  1  0.63720000  0.08070000  0.14770000  1.0 -0.0885454553
C  C25  1  0.28860000  0.05790000  0.70450000  1.0 -0.1405328499
C  C26  1  0.25790000  0.81270000  0.68810000  1.0 0.5460943965
C  C27  1  0.34420000  0.93170000  0.72890000  1.0 -0.0015460715
C  C28  1  0.36660000  0.16850000  0.74410000  1.0 0.0054925378
C  C29  1  0.47710000  0.91940000  0.79370000  1.0 -0.2844529661
C  C30  1  0.30720000  0.30330000  0.72110000  1.0 0.5437683848
C  C31  1  0.14170000  0.43980000  0.87220000  1.0 0.1095820226
C  C32  1  0.49910000  0.15510000  0.80730000  1.0 -0.2458178314
C  C33  1  0.13630000  0.41560000  0.34980000  1.0 -0.2983059647
C  C34  1  0.23450000  0.50740000  0.06150000  1.0 0.1376789895
C  C35  1  0.55470000  0.03110000  0.83380000  1.0 0.1219942519
C  C36  1  0.28970000  0.59920000  0.49660000  1.0 0.1219942519
C  C37  1  0.28780000  0.59130000  0.39050000  1.0 -0.2983059647
C  C38  1  0.14190000  0.42960000  0.45650000  1.0 0.0777937951
C  C39  1  0.14770000  0.42860000  0.97840000  1.0 -0.3064962538
C  C40  1  0.30030000  0.59460000  0.92780000  1.0 0.0594261301
C  C41  1  0.21010000  0.49700000  0.31800000  1.0 0.1738128749
C  C42  1  0.30980000  0.58830000  0.03390000  1.0 -0.2865426751
C  C43  1  0.87510000  0.93500000  0.01220000  1.0 0.1008783331
C  C44  1  0.94930000  0.04860000  0.04510000  1.0 -0.2043562295
C  C45  1  0.06220000  0.81100000  0.11430000  1.0 -0.1141186493
C  C46  1  0.93340000  0.81820000  0.04750000  1.0 -0.210216445
C  C47  1  0.08150000  0.04100000  0.11380000  1.0 -0.1405328499
C  C48  1  0.13720000  0.91930000  0.14770000  1.0 -0.0885454553
N  N1  1  0.71720000  0.48020000  0.52990000  1.0 -0.219924471
N  N2  1  0.71960000  0.47930000  0.84720000  1.0 -0.210216445
N  N3  1  0.76700000  0.47020000  0.17810000  1.0 0.0381748545
N  N4  1  0.19070000  0.96340000  0.90200000  1.0 0.157120162
N  N5  1  0.23770000  0.07350000  0.94080000  1.0 -0.0130528413
N  N6  1  0.68490000  0.53300000  0.20090000  1.0 0.0594261301
N  N7  1  0.75070000  0.45940000  0.22500000  1.0 0.0594261301
N  N8  1  0.69700000  0.54500000  0.15900000  1.0 0.0777937951
N  N9  1  0.26700000  0.94500000  0.95100000  1.0 0.0381748545
N  N10  1  0.18300000  0.03100000  0.90300000  1.0 0.2014556018
N  N11  1  0.21720000  0.51980000  0.52990000  1.0 -0.219924471
N  N12  1  0.21960000  0.52070000  0.84720000  1.0 -0.210216445
N  N13  1  0.26700000  0.52980000  0.17810000  1.0 0.0381748545
N  N14  1  0.69070000  0.03660000  0.90200000  1.0 0.154450619
N  N15  1  0.73770000  0.92650000  0.94080000  1.0 -0.0130528413
N  N16  1  0.18490000  0.46700000  0.20090000  1.0 0.0594261301
N  N17  1  0.25070000  0.54060000  0.22500000  1.0 0.0594261301
N  N18  1  0.19700000  0.45500000  0.15900000  1.0 0.0777937951
N  N19  1  0.76700000  0.05500000  0.95100000  1.0 0.0381748545
N  N20  1  0.68300000  0.96900000  0.90300000  1.0 0.2014556018
O  O1  1  0.88380000  0.59730000  0.74390000  1.0 -0.5078923019
O  O2  1  0.68550000  0.68210000  0.68060000  1.0 -0.5210842105
O  O3  1  0.81220000  0.29810000  0.72230000  1.0 -0.5566999825
O  O4  1  0.64130000  0.17010000  0.62510000  1.0 -0.5340184184
O  O5  1  0.38380000  0.40270000  0.74390000  1.0 -0.5078923019
O  O6  1  0.18550000  0.31790000  0.68060000  1.0 -0.5210842105
O  O7  1  0.31220000  0.70190000  0.72230000  1.0 -0.5566999825
O  O8  1  0.14130000  0.82990000  0.62510000  1.0 -0.5340184184
