# DDEC6 charges by PACMAN v1.1 (https://github.com/mtap-research/PACMAN-charge/)
data_GEZWER_ASR_pacman
_symmetry_space_group_name_H-M   'P 1'
_cell_length_a   11.15390000
_cell_length_b   10.20700000
_cell_length_c   11.43240000
_cell_angle_alpha   90.00000000
_cell_angle_beta   95.08800000
_cell_angle_gamma   90.00000000
_symmetry_Int_Tables_number   1
_chemical_formula_structural   NiH24C34(N2O)4
_chemical_formula_sum   'Ni2 H48 C68 N16 O8'
_cell_volume   1296.42567956
_cell_formula_units_Z   2
loop_
 _symmetry_equiv_pos_site_id
 _symmetry_equiv_pos_as_xyz
  1  'x, y, z'
loop_
 _atom_site_type_symbol
 _atom_site_label
 _atom_site_symmetry_multiplicity
 _atom_site_fract_x
 _atom_site_fract_y
 _atom_site_fract_z
 _atom_site_occupancy
 _atom_site_charge
Ni  Ni1  1  0.64709000  0.03362000  0.81813000  1.0 0.5601505932
Ni  Ni2  1  0.14709000  0.96638000  0.81813000  1.0 0.5601505932
H  H1  1  0.66344000  0.57625000  0.84443000  1.0 0.1302856651
H  H2  1  0.16344000  0.42375000  0.84443000  1.0 0.1302856651
H  H3  1  0.41148000  0.34274000  0.67715000  1.0 0.117077924
H  H4  1  0.91148000  0.65726000  0.67715000  1.0 0.117077924
H  H5  1  0.37025000  0.73491000  0.66188000  1.0 0.1302856651
H  H6  1  0.87025000  0.26509000  0.66188000  1.0 0.1302856651
H  H7  1  0.10715000  0.25584000  0.46884000  1.0 0.1302856651
H  H8  1  0.60715000  0.74416000  0.46884000  1.0 0.1302856651
H  H9  1  0.92697000  0.25236000  0.34283000  1.0 0.1092990792
H  H10  1  0.42697000  0.74764000  0.34283000  1.0 0.1092990792
H  H11  1  0.83841000  0.43535000  0.26778000  1.0 0.1302856651
H  H12  1  0.33841000  0.56465000  0.26778000  1.0 0.1302856651
H  H13  1  0.10386000  0.64460000  0.44864000  1.0 0.1029566946
H  H14  1  0.60386000  0.35540000  0.44864000  1.0 0.1029566946
H  H15  1  0.91088000  0.63916000  0.32378000  1.0 0.1092990792
H  H16  1  0.41088000  0.36084000  0.32378000  1.0 0.1092990792
H  H17  1  0.22092000  0.05532000  0.07022000  1.0 0.0534367186
H  H18  1  0.72092000  0.94468000  0.07022000  1.0 0.0534367186
H  H19  1  0.14885000  0.05885000  0.25628000  1.0 0.0799692733
H  H20  1  0.64885000  0.94115000  0.25628000  1.0 0.0799692733
H  H21  1  0.85985000  0.84346000  0.13214000  1.0 0.1029566946
H  H22  1  0.35985000  0.15654000  0.13214000  1.0 0.1029566946
H  H23  1  0.93192000  0.83993000  0.94608000  1.0 0.1029566946
H  H24  1  0.43192000  0.16007000  0.94608000  1.0 0.1029566946
H  H25  1  0.67583000  0.11140000  0.38009000  1.0 0.0799692733
H  H26  1  0.17583000  0.88860000  0.38009000  1.0 0.0799692733
H  H27  1  0.59922000  0.14030000  0.56237000  1.0 0.0698531062
H  H28  1  0.09922000  0.85970000  0.56237000  1.0 0.0698531062
H  H29  1  0.84802000  0.88663000  0.71012000  1.0 0.0799692733
H  H30  1  0.34802000  0.11337000  0.71012000  1.0 0.0799692733
H  H31  1  0.92463000  0.85773000  0.52784000  1.0 0.1092990792
H  H32  1  0.42463000  0.14227000  0.52784000  1.0 0.1092990792
H  H33  1  0.15260000  0.11813000  0.04336000  1.0 0.0636952914
H  H34  1  0.65260000  0.88187000  0.04336000  1.0 0.0636952914
H  H35  1  0.05359000  0.11844000  0.21545000  1.0 0.0799692733
H  H36  1  0.55359000  0.88156000  0.21545000  1.0 0.0799692733
H  H37  1  0.86894000  0.79297000  0.10435000  1.0 0.0914487119
H  H38  1  0.36894000  0.20703000  0.10435000  1.0 0.0914487119
H  H39  1  0.96795000  0.79266000  0.93226000  1.0 0.0698531062
H  H40  1  0.46795000  0.20734000  0.93226000  1.0 0.0698531062
H  H41  1  0.73641000  0.16448000  0.40538000  1.0 0.0914487119
H  H42  1  0.23641000  0.83552000  0.40538000  1.0 0.0914487119
H  H43  1  0.65238000  0.18408000  0.58499000  1.0 0.0799692733
H  H44  1  0.15238000  0.81592000  0.58499000  1.0 0.0799692733
H  H45  1  0.80113000  0.83652000  0.69007000  1.0 0.0698531062
H  H46  1  0.30113000  0.16348000  0.69007000  1.0 0.0698531062
H  H47  1  0.88515000  0.81693000  0.51047000  1.0 0.1029566946
H  H48  1  0.38515000  0.18307000  0.51047000  1.0 0.1029566946
C  C1  1  0.58950000  0.56620000  0.79730000  1.0 -0.1097678396
C  C2  1  0.08950000  0.43380000  0.79730000  1.0 -0.1097678396
C  C3  1  0.61580000  0.32210000  0.80980000  1.0 0.5333203968
C  C4  1  0.11580000  0.67790000  0.80980000  1.0 0.5333203968
C  C5  1  0.52500000  0.67530000  0.75890000  1.0 0.0219815314
C  C6  1  0.02500000  0.32470000  0.75890000  1.0 0.0219815314
C  C7  1  0.37380000  0.53920000  0.65750000  1.0 0.1468487378
C  C8  1  0.87380000  0.46080000  0.65750000  1.0 0.1468487378
C  C9  1  0.54700000  0.44090000  0.76750000  1.0 -0.0103693608
C  C10  1  0.04700000  0.55910000  0.76750000  1.0 -0.0103693608
C  C11  1  0.56980000  0.80920000  0.78730000  1.0 0.4884274003
C  C12  1  0.06980000  0.19080000  0.78730000  1.0 0.4884274003
C  C13  1  0.44060000  0.42780000  0.69810000  1.0 -0.1994163397
C  C14  1  0.94060000  0.57220000  0.69810000  1.0 -0.1994163397
C  C15  1  0.41520000  0.65980000  0.68810000  1.0 -0.1425895843
C  C16  1  0.91520000  0.34020000  0.68810000  1.0 -0.1425895843
C  C17  1  0.11900000  0.44770000  0.46640000  1.0 0.1370743212
C  C18  1  0.61900000  0.55230000  0.46640000  1.0 0.1370743212
C  C19  1  0.07130000  0.33500000  0.43940000  1.0 -0.1532398167
C  C20  1  0.57130000  0.66500000  0.43940000  1.0 -0.1532398167
C  C21  1  0.96280000  0.33450000  0.36370000  1.0 -0.104468495
C  C22  1  0.46280000  0.66550000  0.36370000  1.0 -0.104468495
C  C23  1  0.90880000  0.44280000  0.32060000  1.0 -0.0861800819
C  C24  1  0.40880000  0.55720000  0.32060000  1.0 -0.0861800819
C  C25  1  0.06670000  0.56340000  0.42700000  1.0 -0.169232935
C  C26  1  0.56670000  0.43660000  0.42700000  1.0 -0.169232935
C  C27  1  0.95130000  0.56120000  0.35000000  1.0 -0.0800957668
C  C28  1  0.45130000  0.43880000  0.35000000  1.0 -0.0800957668
C  C29  1  0.14760000  0.01230000  0.08280000  1.0 0.0636952914
C  C30  1  0.64760000  0.98770000  0.08280000  1.0 0.0636952914
C  C31  1  0.10480000  0.01440000  0.19330000  1.0 -0.0861800819
C  C32  1  0.60480000  0.98560000  0.19330000  1.0 -0.0861800819
C  C33  1  0.99760000  0.95150000  0.21170000  1.0 0.0799692733
C  C34  1  0.49760000  0.04850000  0.21170000  1.0 0.0799692733
C  C35  1  0.93310000  0.88650000  0.11960000  1.0 -0.0711505987
C  C36  1  0.43310000  0.11350000  0.11960000  1.0 -0.0711505987
C  C37  1  0.97600000  0.88440000  0.00900000  1.0 0.0799692733
C  C38  1  0.47600000  0.11560000  0.00900000  1.0 0.0799692733
C  C39  1  0.80740000  0.98180000  0.43680000  1.0 0.0698531062
C  C40  1  0.30740000  0.01820000  0.43680000  1.0 0.0698531062
C  C41  1  0.71080000  0.06580000  0.44710000  1.0 -0.0214811781
C  C42  1  0.21080000  0.93420000  0.44710000  1.0 -0.0214811781
C  C43  1  0.66530000  0.08290000  0.55540000  1.0 0.0636952914
C  C44  1  0.16530000  0.91710000  0.55540000  1.0 0.0636952914
C  C45  1  0.81310000  0.93230000  0.64310000  1.0 0.1092990792
C  C46  1  0.31310000  0.06770000  0.64310000  1.0 0.1092990792
C  C47  1  0.85860000  0.91510000  0.53480000  1.0 -0.1581943374
C  C48  1  0.35860000  0.08490000  0.53480000  1.0 -0.1581943374
C  C49  1  0.09500000  0.05210000  0.05570000  1.0 0.1029566946
C  C50  1  0.59500000  0.94790000  0.05570000  1.0 0.1029566946
C  C51  1  0.03620000  0.05230000  0.15800000  1.0 -0.0644154328
C  C52  1  0.53620000  0.94770000  0.15800000  1.0 -0.0644154328
C  C53  1  0.95200000  0.95570000  0.17610000  1.0 0.0914487119
C  C54  1  0.45200000  0.04430000  0.17610000  1.0 0.0914487119
C  C55  1  0.92650000  0.85900000  0.09200000  1.0 -0.1223249737
C  C56  1  0.42650000  0.14100000  0.09200000  1.0 -0.1223249737
C  C57  1  0.98530000  0.85880000  0.98970000  1.0 0.1029566946
C  C58  1  0.48530000  0.14120000  0.98970000  1.0 0.1029566946
C  C59  1  0.81870000  0.98890000  0.44100000  1.0 0.0799692733
C  C60  1  0.31870000  0.01110000  0.44100000  1.0 0.0799692733
C  C61  1  0.74950000  0.09790000  0.46320000  1.0 -0.0214811781
C  C62  1  0.24950000  0.90210000  0.46320000  1.0 -0.0214811781
C  C63  1  0.69960000  0.10950000  0.56990000  1.0 0.0799692733
C  C64  1  0.19960000  0.89050000  0.56990000  1.0 0.0799692733
C  C65  1  0.78800000  0.90310000  0.63230000  1.0 0.0914487119
C  C66  1  0.28800000  0.09690000  0.63230000  1.0 0.0914487119
C  C67  1  0.83790000  0.89150000  0.52560000  1.0 -0.169232935
C  C68  1  0.33790000  0.10850000  0.52560000  1.0 -0.169232935
N  N1  1  0.26060000  0.54640000  0.57930000  1.0 -0.0800957668
N  N2  1  0.76060000  0.45360000  0.57930000  1.0 -0.0711505987
N  N3  1  0.23160000  0.44070000  0.54830000  1.0 -0.0800957668
N  N4  1  0.73160000  0.55930000  0.54830000  1.0 -0.0800957668
N  N5  1  0.08320000  0.94730000  0.99070000  1.0 -0.2211300585
N  N6  1  0.58320000  0.05270000  0.99070000  1.0 -0.2211300585
N  N7  1  0.71640000  0.01620000  0.65340000  1.0 -0.2310233924
N  N8  1  0.21640000  0.98380000  0.65340000  1.0 -0.2310233924
N  N9  1  0.94600000  0.95470000  0.31640000  1.0 -0.1581943374
N  N10  1  0.44600000  0.04530000  0.31640000  1.0 -0.1581943374
N  N11  1  0.85800000  0.97600000  0.32710000  1.0 -0.1425895843
N  N12  1  0.35800000  0.02400000  0.32710000  1.0 -0.1425895843
N  N13  1  0.06960000  0.95540000  0.97160000  1.0 -0.2357935611
N  N14  1  0.56960000  0.04460000  0.97160000  1.0 -0.2310233924
N  N15  1  0.71890000  0.01210000  0.65440000  1.0 -0.2310233924
N  N16  1  0.21890000  0.98790000  0.65440000  1.0 -0.2310233924
O  O1  1  0.50390000  0.90860000  0.75870000  1.0 -0.4843614105
O  O2  1  0.00390000  0.09140000  0.75870000  1.0 -0.4843614105
O  O3  1  0.67380000  0.82660000  0.84000000  1.0 -0.4956236485
O  O4  1  0.17380000  0.17340000  0.84000000  1.0 -0.4956236485
O  O5  1  0.57880000  0.21250000  0.77010000  1.0 -0.5244172517
O  O6  1  0.07880000  0.78750000  0.77010000  1.0 -0.5260780159
O  O7  1  0.70900000  0.33670000  0.88260000  1.0 -0.5422715548
O  O8  1  0.20900000  0.66330000  0.88260000  1.0 -0.5422715548
