# DDEC6 charges by PACMAN v1.1 (https://github.com/mtap-research/PACMAN-charge/)
data_GEZYUH_ASR_pacman
_symmetry_space_group_name_H-M   'P 1'
_cell_length_a   13.45780000
_cell_length_b   13.45780000
_cell_length_c   27.69280000
_cell_angle_alpha   90.00000000
_cell_angle_beta   90.00000000
_cell_angle_gamma   120.00000000
_symmetry_Int_Tables_number   1
_chemical_formula_structural   V9P17H23O54
_chemical_formula_sum   'V18 P34 H46 O108'
_cell_volume   4343.55815506
_cell_formula_units_Z   2
loop_
 _symmetry_equiv_pos_site_id
 _symmetry_equiv_pos_as_xyz
  1  'x, y, z'
loop_
 _atom_site_type_symbol
 _atom_site_label
 _atom_site_symmetry_multiplicity
 _atom_site_fract_x
 _atom_site_fract_y
 _atom_site_fract_z
 _atom_site_occupancy
 _atom_site_charge
V  V1  1  0.00000000  0.00000000  0.50000000  1.0 1.8664807047
V  V2  1  0.00000000  0.00000000  0.00000000  1.0 1.8649359907
V  V3  1  0.29268000  0.85809000  0.52647000  1.0 1.7773533131
V  V4  1  0.70732000  0.14191000  0.02647000  1.0 1.7773533131
V  V5  1  0.14191000  0.43459000  0.52647000  1.0 1.7773533131
V  V6  1  0.85809000  0.56541000  0.02647000  1.0 1.7773533131
V  V7  1  0.56541000  0.70732000  0.52647000  1.0 1.7773533131
V  V8  1  0.43459000  0.29268000  0.02647000  1.0 1.7773533131
V  V9  1  0.70732000  0.14191000  0.47353000  1.0 1.7773533131
V  V10  1  0.29268000  0.85809000  0.97353000  1.0 1.7773533131
V  V11  1  0.85809000  0.56541000  0.47353000  1.0 1.7773533131
V  V12  1  0.14191000  0.43459000  0.97353000  1.0 1.7773533131
V  V13  1  0.43459000  0.29268000  0.47353000  1.0 1.7773533131
V  V14  1  0.56541000  0.70732000  0.97353000  1.0 1.7773533131
V  V15  1  0.00000000  0.00000000  0.66396000  1.0 1.808081534
V  V16  1  0.00000000  0.00000000  0.16396000  1.0 1.808081534
V  V17  1  0.00000000  0.00000000  0.33604000  1.0 1.808081534
V  V18  1  0.00000000  0.00000000  0.83604000  1.0 1.808081534
P  P1  1  0.16220000  0.97502000  0.58422000  1.0 1.2657672999
P  P2  1  0.83780000  0.02498000  0.08422000  1.0 1.2647991146
P  P3  1  0.02498000  0.18718000  0.58422000  1.0 1.2657672999
P  P4  1  0.97502000  0.81282000  0.08422000  1.0 1.2657672999
P  P5  1  0.81282000  0.83780000  0.58422000  1.0 1.2657672999
P  P6  1  0.18718000  0.16220000  0.08422000  1.0 1.2657672999
P  P7  1  0.83780000  0.02498000  0.41578000  1.0 1.2657672999
P  P8  1  0.16220000  0.97502000  0.91578000  1.0 1.2657672999
P  P9  1  0.97502000  0.81282000  0.41578000  1.0 1.2657672999
P  P10  1  0.02498000  0.18718000  0.91578000  1.0 1.2657672999
P  P11  1  0.18718000  0.16220000  0.41578000  1.0 1.2657672999
P  P12  1  0.81282000  0.83780000  0.91578000  1.0 1.2657672999
P  P13  1  0.12733000  0.63089000  0.46359000  1.0 1.2398889428
P  P14  1  0.87267000  0.36911000  0.96359000  1.0 1.2398889428
P  P15  1  0.36911000  0.49644000  0.46359000  1.0 1.2398889428
P  P16  1  0.63089000  0.50356000  0.96359000  1.0 1.2398889428
P  P17  1  0.50356000  0.87267000  0.46359000  1.0 1.2398889428
P  P18  1  0.49644000  0.12733000  0.96359000  1.0 1.2398889428
P  P19  1  0.87267000  0.36911000  0.53641000  1.0 1.2398889428
P  P20  1  0.12733000  0.63089000  0.03641000  1.0 1.2398889428
P  P21  1  0.63089000  0.50356000  0.53641000  1.0 1.2398889428
P  P22  1  0.36911000  0.49644000  0.03641000  1.0 1.2398889428
P  P23  1  0.49644000  0.12733000  0.53641000  1.0 1.2398889428
P  P24  1  0.50356000  0.87267000  0.03641000  1.0 1.2398889428
P  P25  1  0.33333333  0.66666667  0.58968000  1.0 1.3153840269
P  P26  1  0.66666667  0.33333333  0.08968000  1.0 1.3153840269
P  P27  1  0.66666667  0.33333333  0.41032000  1.0 1.3153840269
P  P28  1  0.33333333  0.66666667  0.91032000  1.0 1.3153840269
P  P29  1  0.19134000  0.06211000  0.75000000  1.0 1.1484303241
P  P30  1  0.80866000  0.93789000  0.25000000  1.0 1.1484303241
P  P31  1  0.93789000  0.12923000  0.75000000  1.0 1.1484303241
P  P32  1  0.06211000  0.87077000  0.25000000  1.0 1.1484303241
P  P33  1  0.87077000  0.80866000  0.75000000  1.0 1.1484303241
P  P34  1  0.12923000  0.19134000  0.25000000  1.0 1.1484303241
H  H1  1  0.33270000  0.20990000  0.75000000  1.0 0.4136057412
H  H2  1  0.66730000  0.79010000  0.25000000  1.0 0.4136057412
H  H3  1  0.79010000  0.12280000  0.75000000  1.0 0.4136057412
H  H4  1  0.20990000  0.87720000  0.25000000  1.0 0.4136057412
H  H5  1  0.87720000  0.66730000  0.75000000  1.0 0.4136057412
H  H6  1  0.12280000  0.33270000  0.25000000  1.0 0.4136057412
H  H7  1  0.26000000  0.06000000  0.60480000  1.0 -0.0893349623
H  H8  1  0.74000000  0.94000000  0.10480000  1.0 -0.0893349623
H  H9  1  0.94000000  0.20000000  0.60480000  1.0 -0.0893349623
H  H10  1  0.06000000  0.80000000  0.10480000  1.0 -0.0893349623
H  H11  1  0.80000000  0.74000000  0.60480000  1.0 -0.0893349623
H  H12  1  0.20000000  0.26000000  0.10480000  1.0 -0.0893349623
H  H13  1  0.74000000  0.94000000  0.39520000  1.0 -0.0893349623
H  H14  1  0.26000000  0.06000000  0.89520000  1.0 -0.0893349623
H  H15  1  0.06000000  0.80000000  0.39520000  1.0 -0.0893349623
H  H16  1  0.94000000  0.20000000  0.89520000  1.0 -0.0893349623
H  H17  1  0.20000000  0.26000000  0.39520000  1.0 -0.0893349623
H  H18  1  0.80000000  0.74000000  0.89520000  1.0 -0.0893349623
H  H19  1  0.18700000  0.68200000  0.42490000  1.0 -0.0893349623
H  H20  1  0.81300000  0.31800000  0.92490000  1.0 -0.0893349623
H  H21  1  0.31800000  0.50500000  0.42490000  1.0 -0.0893349623
H  H22  1  0.68200000  0.49500000  0.92490000  1.0 -0.0893349623
H  H23  1  0.49500000  0.81300000  0.42490000  1.0 -0.0893349623
H  H24  1  0.50500000  0.18700000  0.92490000  1.0 -0.0893349623
H  H25  1  0.81300000  0.31800000  0.57510000  1.0 -0.0893349623
H  H26  1  0.18700000  0.68200000  0.07510000  1.0 -0.0893349623
H  H27  1  0.68200000  0.49500000  0.57510000  1.0 -0.0893349623
H  H28  1  0.31800000  0.50500000  0.07510000  1.0 -0.0893349623
H  H29  1  0.50500000  0.18700000  0.57510000  1.0 -0.0893349623
H  H30  1  0.49500000  0.81300000  0.07510000  1.0 -0.0893349623
H  H31  1  0.33333333  0.66666667  0.63670000  1.0 -0.19063412
H  H32  1  0.66666667  0.33333333  0.13670000  1.0 -0.19063412
H  H33  1  0.66666667  0.33333333  0.36330000  1.0 -0.19063412
H  H34  1  0.33333333  0.66666667  0.86330000  1.0 -0.19063412
H  H35  1  0.17800000  0.95910000  0.75000000  1.0 -0.1368594005
H  H36  1  0.82200000  0.04090000  0.25000000  1.0 -0.1368594005
H  H37  1  0.04090000  0.21890000  0.75000000  1.0 -0.1368594005
H  H38  1  0.95910000  0.78110000  0.25000000  1.0 -0.1368594005
H  H39  1  0.78110000  0.82200000  0.75000000  1.0 -0.1368594005
H  H40  1  0.21890000  0.17800000  0.25000000  1.0 -0.1368594005
H  H41  1  0.13540000  0.89840000  0.75000000  1.0 0.3154603308
H  H42  1  0.86460000  0.10160000  0.25000000  1.0 0.3154603308
H  H43  1  0.10160000  0.23700000  0.75000000  1.0 0.3154603308
H  H44  1  0.89840000  0.76300000  0.25000000  1.0 0.3154603308
H  H45  1  0.76300000  0.86460000  0.75000000  1.0 0.3154603308
H  H46  1  0.23700000  0.13540000  0.25000000  1.0 0.3154603308
O  O1  1  0.15100000  0.71840000  0.50314000  1.0 -0.7292090331
O  O2  1  0.84900000  0.28160000  0.00314000  1.0 -0.7292090331
O  O3  1  0.28160000  0.43260000  0.50314000  1.0 -0.7292090331
O  O4  1  0.71840000  0.56740000  0.00314000  1.0 -0.7292090331
O  O5  1  0.56740000  0.84900000  0.50314000  1.0 -0.7292090331
O  O6  1  0.43260000  0.15100000  0.00314000  1.0 -0.7292090331
O  O7  1  0.84900000  0.28160000  0.49686000  1.0 -0.7292090331
O  O8  1  0.15100000  0.71840000  0.99686000  1.0 -0.7292090331
O  O9  1  0.71840000  0.56740000  0.49686000  1.0 -0.7292090331
O  O10  1  0.28160000  0.43260000  0.99686000  1.0 -0.7292090331
O  O11  1  0.43260000  0.15100000  0.49686000  1.0 -0.7292090331
O  O12  1  0.56740000  0.84900000  0.99686000  1.0 -0.7292090331
O  O13  1  0.16790000  0.54780000  0.47575000  1.0 -0.73712794
O  O14  1  0.83210000  0.45220000  0.97575000  1.0 -0.73712794
O  O15  1  0.45220000  0.62010000  0.47575000  1.0 -0.73712794
O  O16  1  0.54780000  0.37990000  0.97575000  1.0 -0.73712794
O  O17  1  0.37990000  0.83210000  0.47575000  1.0 -0.73712794
O  O18  1  0.62010000  0.16790000  0.97575000  1.0 -0.73712794
O  O19  1  0.83210000  0.45220000  0.52425000  1.0 -0.73712794
O  O20  1  0.16790000  0.54780000  0.02425000  1.0 -0.73712794
O  O21  1  0.54780000  0.37990000  0.52425000  1.0 -0.73712794
O  O22  1  0.45220000  0.62010000  0.02425000  1.0 -0.73712794
O  O23  1  0.62010000  0.16790000  0.52425000  1.0 -0.73712794
O  O24  1  0.37990000  0.83210000  0.02425000  1.0 -0.73712794
O  O25  1  0.00080000  0.57040000  0.44996000  1.0 -0.73712794
O  O26  1  0.99920000  0.42960000  0.94996000  1.0 -0.73712794
O  O27  1  0.42960000  0.43040000  0.44996000  1.0 -0.73712794
O  O28  1  0.57040000  0.56960000  0.94996000  1.0 -0.73712794
O  O29  1  0.56960000  0.99920000  0.44996000  1.0 -0.73712794
O  O30  1  0.43040000  0.00080000  0.94996000  1.0 -0.73712794
O  O31  1  0.99920000  0.42960000  0.55004000  1.0 -0.73712794
O  O32  1  0.00080000  0.57040000  0.05004000  1.0 -0.73712794
O  O33  1  0.57040000  0.56960000  0.55004000  1.0 -0.73712794
O  O34  1  0.42960000  0.43040000  0.05004000  1.0 -0.73712794
O  O35  1  0.43040000  0.00080000  0.55004000  1.0 -0.73712794
O  O36  1  0.56960000  0.99920000  0.05004000  1.0 -0.73712794
O  O37  1  0.18720000  0.88000000  0.56994000  1.0 -0.7001677786
O  O38  1  0.81280000  0.12000000  0.06994000  1.0 -0.7001677786
O  O39  1  0.12000000  0.30720000  0.56994000  1.0 -0.7001677786
O  O40  1  0.88000000  0.69280000  0.06994000  1.0 -0.7001677786
O  O41  1  0.69280000  0.81280000  0.56994000  1.0 -0.7001677786
O  O42  1  0.30720000  0.18720000  0.06994000  1.0 -0.7001677786
O  O43  1  0.81280000  0.12000000  0.43006000  1.0 -0.7001677786
O  O44  1  0.18720000  0.88000000  0.93006000  1.0 -0.7001677786
O  O45  1  0.88000000  0.69280000  0.43006000  1.0 -0.7001677786
O  O46  1  0.12000000  0.30720000  0.93006000  1.0 -0.7001677786
O  O47  1  0.30720000  0.18720000  0.43006000  1.0 -0.7001677786
O  O48  1  0.69280000  0.81280000  0.93006000  1.0 -0.7001677786
O  O49  1  0.32450000  0.77220000  0.57655000  1.0 -0.7292090331
O  O50  1  0.67550000  0.22780000  0.07655000  1.0 -0.7292090331
O  O51  1  0.22780000  0.55230000  0.57655000  1.0 -0.7292090331
O  O52  1  0.77220000  0.44770000  0.07655000  1.0 -0.7292090331
O  O53  1  0.44770000  0.67550000  0.57655000  1.0 -0.7292090331
O  O54  1  0.55230000  0.32450000  0.07655000  1.0 -0.7292090331
O  O55  1  0.67550000  0.22780000  0.42345000  1.0 -0.7292090331
O  O56  1  0.32450000  0.77220000  0.92345000  1.0 -0.7292090331
O  O57  1  0.77220000  0.44770000  0.42345000  1.0 -0.7292090331
O  O58  1  0.22780000  0.55230000  0.92345000  1.0 -0.7292090331
O  O59  1  0.55230000  0.32450000  0.42345000  1.0 -0.7292090331
O  O60  1  0.44770000  0.67550000  0.92345000  1.0 -0.7292090331
O  O61  1  0.14250000  0.07730000  0.70448000  1.0 -0.7239310335
O  O62  1  0.85750000  0.92270000  0.20448000  1.0 -0.7239310335
O  O63  1  0.92270000  0.06520000  0.70448000  1.0 -0.7239310335
O  O64  1  0.07730000  0.93480000  0.20448000  1.0 -0.7239310335
O  O65  1  0.93480000  0.85750000  0.70448000  1.0 -0.7239310335
O  O66  1  0.06520000  0.14250000  0.20448000  1.0 -0.7239310335
O  O67  1  0.85750000  0.92270000  0.29552000  1.0 -0.7239310335
O  O68  1  0.14250000  0.07730000  0.79552000  1.0 -0.7239310335
O  O69  1  0.07730000  0.93480000  0.29552000  1.0 -0.7239310335
O  O70  1  0.92270000  0.06520000  0.79552000  1.0 -0.7239310335
O  O71  1  0.06520000  0.14250000  0.29552000  1.0 -0.7239310335
O  O72  1  0.93480000  0.85750000  0.79552000  1.0 -0.7239310335
O  O73  1  0.06950000  0.92830000  0.62252000  1.0 -0.7239310335
O  O74  1  0.93050000  0.07170000  0.12252000  1.0 -0.7239310335
O  O75  1  0.07170000  0.14120000  0.62252000  1.0 -0.7239310335
O  O76  1  0.92830000  0.85880000  0.12252000  1.0 -0.7239310335
O  O77  1  0.85880000  0.93050000  0.62252000  1.0 -0.7239310335
O  O78  1  0.14120000  0.06950000  0.12252000  1.0 -0.7239310335
O  O79  1  0.93050000  0.07170000  0.37748000  1.0 -0.7239310335
O  O80  1  0.06950000  0.92830000  0.87748000  1.0 -0.7239310335
O  O81  1  0.92830000  0.85880000  0.37748000  1.0 -0.7292090331
O  O82  1  0.07170000  0.14120000  0.87748000  1.0 -0.7239310335
O  O83  1  0.14120000  0.06950000  0.37748000  1.0 -0.7239310335
O  O84  1  0.85880000  0.93050000  0.87748000  1.0 -0.7239310335
O  O85  1  0.13670000  0.02860000  0.54065000  1.0 -0.73712794
O  O86  1  0.86330000  0.97140000  0.04065000  1.0 -0.73712794
O  O87  1  0.97140000  0.10810000  0.54065000  1.0 -0.73712794
O  O88  1  0.02860000  0.89190000  0.04065000  1.0 -0.73712794
O  O89  1  0.89190000  0.86330000  0.54065000  1.0 -0.73712794
O  O90  1  0.10810000  0.13670000  0.04065000  1.0 -0.73712794
O  O91  1  0.86330000  0.97140000  0.45935000  1.0 -0.73712794
O  O92  1  0.13670000  0.02860000  0.95935000  1.0 -0.73712794
O  O93  1  0.02860000  0.89190000  0.45935000  1.0 -0.73712794
O  O94  1  0.97140000  0.10810000  0.95935000  1.0 -0.73712794
O  O95  1  0.10810000  0.13670000  0.45935000  1.0 -0.73712794
O  O96  1  0.89190000  0.86330000  0.95935000  1.0 -0.73712794
O  O97  1  0.31960000  0.14350000  0.75000000  1.0 -0.4609006082
O  O98  1  0.68040000  0.85650000  0.25000000  1.0 -0.4609006082
O  O99  1  0.85650000  0.17610000  0.75000000  1.0 -0.4609006082
O  O100  1  0.14350000  0.82390000  0.25000000  1.0 -0.4609006082
O  O101  1  0.82390000  0.68040000  0.75000000  1.0 -0.4609006082
O  O102  1  0.17610000  0.31960000  0.25000000  1.0 -0.4609006082
O  O103  1  0.20000000  0.95500000  0.75000000  1.0 -0.4288348987
O  O104  1  0.80000000  0.04500000  0.25000000  1.0 -0.4288348987
O  O105  1  0.04500000  0.24500000  0.75000000  1.0 -0.4288348987
O  O106  1  0.95500000  0.75500000  0.25000000  1.0 -0.4288348987
O  O107  1  0.75500000  0.80000000  0.75000000  1.0 -0.4288348987
O  O108  1  0.24500000  0.20000000  0.25000000  1.0 -0.4288348987
