# DDEC6 charges by PACMAN v1.1 (https://github.com/mtap-research/PACMAN-charge/)
data_GEZYOB_ASR_pacman
_symmetry_space_group_name_H-M   'P 1'
_cell_length_a   13.41250000
_cell_length_b   13.41250000
_cell_length_c   27.80030000
_cell_angle_alpha   90.00000000
_cell_angle_beta   90.00000000
_cell_angle_gamma   120.00000000
_symmetry_Int_Tables_number   1
_chemical_formula_structural   V9P17H26O57
_chemical_formula_sum   'V18 P34 H52 O114'
_cell_volume   4331.11369231
_cell_formula_units_Z   2
loop_
 _symmetry_equiv_pos_site_id
 _symmetry_equiv_pos_as_xyz
  1  'x, y, z'
loop_
 _atom_site_type_symbol
 _atom_site_label
 _atom_site_symmetry_multiplicity
 _atom_site_fract_x
 _atom_site_fract_y
 _atom_site_fract_z
 _atom_site_occupancy
 _atom_site_charge
V  V1  1  0.00000000  0.00000000  0.50000000  1.0 1.8321450375
V  V2  1  0.00000000  0.00000000  0.00000000  1.0 1.8321450375
V  V3  1  0.29251000  0.85685000  0.52686000  1.0 1.8560424171
V  V4  1  0.70749000  0.14315000  0.02686000  1.0 1.8560424171
V  V5  1  0.14315000  0.43566000  0.52686000  1.0 1.8560424171
V  V6  1  0.85685000  0.56434000  0.02686000  1.0 1.8560424171
V  V7  1  0.56434000  0.70749000  0.52686000  1.0 1.8560424171
V  V8  1  0.43566000  0.29251000  0.02686000  1.0 1.8560424171
V  V9  1  0.70749000  0.14315000  0.47314000  1.0 1.8560424171
V  V10  1  0.29251000  0.85685000  0.97314000  1.0 1.8560424171
V  V11  1  0.85685000  0.56434000  0.47314000  1.0 1.8560424171
V  V12  1  0.14315000  0.43566000  0.97314000  1.0 1.8560424171
V  V13  1  0.43566000  0.29251000  0.47314000  1.0 1.8560424171
V  V14  1  0.56434000  0.70749000  0.97314000  1.0 1.8560424171
V  V15  1  0.00000000  0.00000000  0.66429000  1.0 1.8120977602
V  V16  1  0.00000000  0.00000000  0.16429000  1.0 1.8120977602
V  V17  1  0.00000000  0.00000000  0.33571000  1.0 1.8120977602
V  V18  1  0.00000000  0.00000000  0.83571000  1.0 1.8120977602
P  P1  1  0.16281000  0.97533000  0.58404000  1.0 1.240549805
P  P2  1  0.83719000  0.02467000  0.08404000  1.0 1.240549805
P  P3  1  0.02467000  0.18748000  0.58404000  1.0 1.240549805
P  P4  1  0.97533000  0.81252000  0.08404000  1.0 1.240549805
P  P5  1  0.81252000  0.83719000  0.58404000  1.0 1.240549805
P  P6  1  0.18748000  0.16281000  0.08404000  1.0 1.240549805
P  P7  1  0.83719000  0.02467000  0.41596000  1.0 1.240549805
P  P8  1  0.16281000  0.97533000  0.91596000  1.0 1.240549805
P  P9  1  0.97533000  0.81252000  0.41596000  1.0 1.240549805
P  P10  1  0.02467000  0.18748000  0.91596000  1.0 1.240549805
P  P11  1  0.18748000  0.16281000  0.41596000  1.0 1.240549805
P  P12  1  0.81252000  0.83719000  0.91596000  1.0 1.240549805
P  P13  1  0.12690000  0.63024000  0.46386000  1.0 1.2572924318
P  P14  1  0.87310000  0.36976000  0.96386000  1.0 1.2572924318
P  P15  1  0.36976000  0.49666000  0.46386000  1.0 1.2572924318
P  P16  1  0.63024000  0.50334000  0.96386000  1.0 1.2572924318
P  P17  1  0.50334000  0.87310000  0.46386000  1.0 1.2572924318
P  P18  1  0.49666000  0.12690000  0.96386000  1.0 1.2572924318
P  P19  1  0.87310000  0.36976000  0.53614000  1.0 1.2572924318
P  P20  1  0.12690000  0.63024000  0.03614000  1.0 1.2572924318
P  P21  1  0.63024000  0.50334000  0.53614000  1.0 1.2572924318
P  P22  1  0.36976000  0.49666000  0.03614000  1.0 1.2572924318
P  P23  1  0.49666000  0.12690000  0.53614000  1.0 1.2572924318
P  P24  1  0.50334000  0.87310000  0.03614000  1.0 1.2572924318
P  P25  1  0.33333333  0.66666667  0.58962000  1.0 1.3701246403
P  P26  1  0.66666667  0.33333333  0.08962000  1.0 1.3701246403
P  P27  1  0.66666667  0.33333333  0.41038000  1.0 1.3701246403
P  P28  1  0.33333333  0.66666667  0.91038000  1.0 1.3701246403
P  P29  1  0.19121000  0.06594000  0.75000000  1.0 1.2864013336
P  P30  1  0.80879000  0.93406000  0.25000000  1.0 1.2864013336
P  P31  1  0.93406000  0.12527000  0.75000000  1.0 1.2864013336
P  P32  1  0.06594000  0.87473000  0.25000000  1.0 1.2864013336
P  P33  1  0.87473000  0.80879000  0.75000000  1.0 1.2864013336
P  P34  1  0.12527000  0.19121000  0.25000000  1.0 1.2864013336
H  H1  1  0.35560000  0.11470000  0.75000000  1.0 0.3797718457
H  H2  1  0.64440000  0.88530000  0.25000000  1.0 0.3797718457
H  H3  1  0.88530000  0.24090000  0.75000000  1.0 0.3797718457
H  H4  1  0.11470000  0.75910000  0.25000000  1.0 0.3797718457
H  H5  1  0.75910000  0.64440000  0.75000000  1.0 0.3797718457
H  H6  1  0.24090000  0.35560000  0.25000000  1.0 0.3797718457
H  H7  1  0.19400000  0.96400000  0.75000000  1.0 -0.1676691302
H  H8  1  0.80600000  0.03600000  0.25000000  1.0 -0.1676691302
H  H9  1  0.03600000  0.23000000  0.75000000  1.0 -0.1676691302
H  H10  1  0.96400000  0.77000000  0.25000000  1.0 -0.1676691302
H  H11  1  0.77000000  0.80600000  0.75000000  1.0 -0.1676691302
H  H12  1  0.23000000  0.19400000  0.25000000  1.0 -0.1676691302
H  H13  1  0.16500000  0.67400000  0.41980000  1.0 -0.0705365069
H  H14  1  0.83500000  0.32600000  0.91980000  1.0 -0.0705365069
H  H15  1  0.32600000  0.49100000  0.41980000  1.0 -0.0705365069
H  H16  1  0.67400000  0.50900000  0.91980000  1.0 -0.0705365069
H  H17  1  0.50900000  0.83500000  0.41980000  1.0 -0.0705365069
H  H18  1  0.49100000  0.16500000  0.91980000  1.0 -0.0705365069
H  H19  1  0.83500000  0.32600000  0.58020000  1.0 -0.0705365069
H  H20  1  0.16500000  0.67400000  0.08020000  1.0 -0.0705365069
H  H21  1  0.67400000  0.50900000  0.58020000  1.0 -0.0705365069
H  H22  1  0.32600000  0.49100000  0.08020000  1.0 -0.0705365069
H  H23  1  0.49100000  0.16500000  0.58020000  1.0 -0.0705365069
H  H24  1  0.50900000  0.83500000  0.08020000  1.0 -0.0705365069
H  H25  1  0.25900000  0.06000000  0.60390000  1.0 -0.0825212874
H  H26  1  0.74100000  0.94000000  0.10390000  1.0 -0.0825212874
H  H27  1  0.94000000  0.19900000  0.60390000  1.0 -0.0825212874
H  H28  1  0.06000000  0.80100000  0.10390000  1.0 -0.0825212874
H  H29  1  0.80100000  0.74100000  0.60390000  1.0 -0.0825212874
H  H30  1  0.19900000  0.25900000  0.10390000  1.0 -0.0825212874
H  H31  1  0.74100000  0.94000000  0.39610000  1.0 -0.0825212874
H  H32  1  0.25900000  0.06000000  0.89610000  1.0 -0.0825212874
H  H33  1  0.06000000  0.80100000  0.39610000  1.0 -0.0825212874
H  H34  1  0.94000000  0.19900000  0.89610000  1.0 -0.0825212874
H  H35  1  0.19900000  0.25900000  0.39610000  1.0 -0.0825212874
H  H36  1  0.80100000  0.74100000  0.89610000  1.0 -0.0825212874
H  H37  1  0.33333333  0.66666667  0.63840000  1.0 -0.2169502058
H  H38  1  0.66666667  0.33333333  0.13840000  1.0 -0.2169502058
H  H39  1  0.66666667  0.33333333  0.36160000  1.0 -0.2169502058
H  H40  1  0.33333333  0.66666667  0.86160000  1.0 -0.2169502058
H  H41  1  0.19000000  0.93500000  0.47300000  1.0 0.4323009771
H  H42  1  0.81000000  0.06500000  0.97300000  1.0 0.4323009771
H  H43  1  0.06500000  0.25500000  0.47300000  1.0 0.4323009771
H  H44  1  0.93500000  0.74500000  0.97300000  1.0 0.4323009771
H  H45  1  0.74500000  0.81000000  0.47300000  1.0 0.4323009771
H  H46  1  0.25500000  0.19000000  0.97300000  1.0 0.4323009771
H  H47  1  0.81000000  0.06500000  0.52700000  1.0 0.4323009771
H  H48  1  0.19000000  0.93500000  0.02700000  1.0 0.4323009771
H  H49  1  0.93500000  0.74500000  0.52700000  1.0 0.4323009771
H  H50  1  0.06500000  0.25500000  0.02700000  1.0 0.4323009771
H  H51  1  0.25500000  0.19000000  0.52700000  1.0 0.4323009771
H  H52  1  0.74500000  0.81000000  0.02700000  1.0 0.4323009771
O  O1  1  0.15020000  0.71700000  0.50377000  1.0 -0.6944886424
O  O2  1  0.84980000  0.28300000  0.00377000  1.0 -0.6944886424
O  O3  1  0.28300000  0.43320000  0.50377000  1.0 -0.6944886424
O  O4  1  0.71700000  0.56680000  0.00377000  1.0 -0.6944886424
O  O5  1  0.56680000  0.84980000  0.50377000  1.0 -0.6944886424
O  O6  1  0.43320000  0.15020000  0.00377000  1.0 -0.6944886424
O  O7  1  0.84980000  0.28300000  0.49623000  1.0 -0.6996647779
O  O8  1  0.15020000  0.71700000  0.99623000  1.0 -0.6944886424
O  O9  1  0.71700000  0.56680000  0.49623000  1.0 -0.6944886424
O  O10  1  0.28300000  0.43320000  0.99623000  1.0 -0.6996647779
O  O11  1  0.43320000  0.15020000  0.49623000  1.0 -0.6944886424
O  O12  1  0.56680000  0.84980000  0.99623000  1.0 -0.6944886424
O  O13  1  0.16820000  0.54710000  0.47567000  1.0 -0.7260249384
O  O14  1  0.83180000  0.45290000  0.97567000  1.0 -0.7260249384
O  O15  1  0.45290000  0.62110000  0.47567000  1.0 -0.7260249384
O  O16  1  0.54710000  0.37890000  0.97567000  1.0 -0.7260249384
O  O17  1  0.37890000  0.83180000  0.47567000  1.0 -0.7260249384
O  O18  1  0.62110000  0.16820000  0.97567000  1.0 -0.7260249384
O  O19  1  0.83180000  0.45290000  0.52433000  1.0 -0.7260249384
O  O20  1  0.16820000  0.54710000  0.02433000  1.0 -0.7260249384
O  O21  1  0.54710000  0.37890000  0.52433000  1.0 -0.7260249384
O  O22  1  0.45290000  0.62110000  0.02433000  1.0 -0.7260249384
O  O23  1  0.62110000  0.16820000  0.52433000  1.0 -0.7260249384
O  O24  1  0.37890000  0.83180000  0.02433000  1.0 -0.7260249384
O  O25  1  0.00050000  0.56970000  0.45009000  1.0 -0.6996647779
O  O26  1  0.99950000  0.43030000  0.95009000  1.0 -0.6996647779
O  O27  1  0.43030000  0.43080000  0.45009000  1.0 -0.6996647779
O  O28  1  0.56970000  0.56920000  0.95009000  1.0 -0.6996647779
O  O29  1  0.56920000  0.99950000  0.45009000  1.0 -0.6996647779
O  O30  1  0.43080000  0.00050000  0.95009000  1.0 -0.6996647779
O  O31  1  0.99950000  0.43030000  0.54991000  1.0 -0.6996647779
O  O32  1  0.00050000  0.56970000  0.04991000  1.0 -0.6996647779
O  O33  1  0.56970000  0.56920000  0.54991000  1.0 -0.6996647779
O  O34  1  0.43030000  0.43080000  0.04991000  1.0 -0.6996647779
O  O35  1  0.43080000  0.00050000  0.54991000  1.0 -0.6996647779
O  O36  1  0.56920000  0.99950000  0.04991000  1.0 -0.6996647779
O  O37  1  0.18660000  0.87960000  0.56980000  1.0 -0.6803467848
O  O38  1  0.81340000  0.12040000  0.06980000  1.0 -0.6803467848
O  O39  1  0.12040000  0.30700000  0.56980000  1.0 -0.6803467848
O  O40  1  0.87960000  0.69300000  0.06980000  1.0 -0.6803467848
O  O41  1  0.69300000  0.81340000  0.56980000  1.0 -0.6803467848
O  O42  1  0.30700000  0.18660000  0.06980000  1.0 -0.6803467848
O  O43  1  0.81340000  0.12040000  0.43020000  1.0 -0.6803467848
O  O44  1  0.18660000  0.87960000  0.93020000  1.0 -0.6803467848
O  O45  1  0.87960000  0.69300000  0.43020000  1.0 -0.6803467848
O  O46  1  0.12040000  0.30700000  0.93020000  1.0 -0.6803467848
O  O47  1  0.30700000  0.18660000  0.43020000  1.0 -0.6803467848
O  O48  1  0.69300000  0.81340000  0.93020000  1.0 -0.6803467848
O  O49  1  0.32600000  0.77260000  0.57592000  1.0 -0.7171435483
O  O50  1  0.67400000  0.22740000  0.07592000  1.0 -0.7171435483
O  O51  1  0.22740000  0.55340000  0.57592000  1.0 -0.7171435483
O  O52  1  0.77260000  0.44660000  0.07592000  1.0 -0.7171435483
O  O53  1  0.44660000  0.67400000  0.57592000  1.0 -0.7171435483
O  O54  1  0.55340000  0.32600000  0.07592000  1.0 -0.7171435483
O  O55  1  0.67400000  0.22740000  0.42408000  1.0 -0.7171435483
O  O56  1  0.32600000  0.77260000  0.92408000  1.0 -0.7171435483
O  O57  1  0.77260000  0.44660000  0.42408000  1.0 -0.7171435483
O  O58  1  0.22740000  0.55340000  0.92408000  1.0 -0.7171435483
O  O59  1  0.55340000  0.32600000  0.42408000  1.0 -0.7171435483
O  O60  1  0.44660000  0.67400000  0.92408000  1.0 -0.7171435483
O  O61  1  0.25800000  0.94740000  0.47394000  1.0 -0.7502505758
O  O62  1  0.74200000  0.05260000  0.97394000  1.0 -0.7502505758
O  O63  1  0.05260000  0.31060000  0.47394000  1.0 -0.7502505758
O  O64  1  0.94740000  0.68940000  0.97394000  1.0 -0.7502505758
O  O65  1  0.68940000  0.74200000  0.47394000  1.0 -0.7502505758
O  O66  1  0.31060000  0.25800000  0.97394000  1.0 -0.7502505758
O  O67  1  0.74200000  0.05260000  0.52606000  1.0 -0.7502505758
O  O68  1  0.25800000  0.94740000  0.02606000  1.0 -0.7502505758
O  O69  1  0.94740000  0.68940000  0.52606000  1.0 -0.7502505758
O  O70  1  0.05260000  0.31060000  0.02606000  1.0 -0.7502505758
O  O71  1  0.31060000  0.25800000  0.52606000  1.0 -0.7502505758
O  O72  1  0.68940000  0.74200000  0.02606000  1.0 -0.7502505758
O  O73  1  0.14120000  0.08070000  0.70447000  1.0 -0.7391331671
O  O74  1  0.85880000  0.91930000  0.20447000  1.0 -0.7391331671
O  O75  1  0.91930000  0.06050000  0.70447000  1.0 -0.7391331671
O  O76  1  0.08070000  0.93950000  0.20447000  1.0 -0.7391331671
O  O77  1  0.93950000  0.85880000  0.70447000  1.0 -0.7391331671
O  O78  1  0.06050000  0.14120000  0.20447000  1.0 -0.7391331671
O  O79  1  0.85880000  0.91930000  0.29553000  1.0 -0.7391331671
O  O80  1  0.14120000  0.08070000  0.79553000  1.0 -0.7391331671
O  O81  1  0.08070000  0.93950000  0.29553000  1.0 -0.7391331671
O  O82  1  0.91930000  0.06050000  0.79553000  1.0 -0.7391331671
O  O83  1  0.06050000  0.14120000  0.29553000  1.0 -0.7391331671
O  O84  1  0.93950000  0.85880000  0.79553000  1.0 -0.7391331671
O  O85  1  0.07130000  0.92960000  0.62249000  1.0 -0.7062376716
O  O86  1  0.92870000  0.07040000  0.12249000  1.0 -0.7062376716
O  O87  1  0.07040000  0.14170000  0.62249000  1.0 -0.7062376716
O  O88  1  0.92960000  0.85830000  0.12249000  1.0 -0.7062376716
O  O89  1  0.85830000  0.92870000  0.62249000  1.0 -0.7062376716
O  O90  1  0.14170000  0.07130000  0.12249000  1.0 -0.7062376716
O  O91  1  0.92870000  0.07040000  0.37751000  1.0 -0.7062376716
O  O92  1  0.07130000  0.92960000  0.87751000  1.0 -0.7062376716
O  O93  1  0.92960000  0.85830000  0.37751000  1.0 -0.7062376716
O  O94  1  0.07040000  0.14170000  0.87751000  1.0 -0.7062376716
O  O95  1  0.14170000  0.07130000  0.37751000  1.0 -0.7062376716
O  O96  1  0.85830000  0.92870000  0.87751000  1.0 -0.7062376716
O  O97  1  0.13640000  0.02860000  0.54050000  1.0 -0.7171435483
O  O98  1  0.86360000  0.97140000  0.04050000  1.0 -0.7171435483
O  O99  1  0.97140000  0.10780000  0.54050000  1.0 -0.7171435483
O  O100  1  0.02860000  0.89220000  0.04050000  1.0 -0.7171435483
O  O101  1  0.89220000  0.86360000  0.54050000  1.0 -0.7171435483
O  O102  1  0.10780000  0.13640000  0.04050000  1.0 -0.7171435483
O  O103  1  0.86360000  0.97140000  0.45950000  1.0 -0.7171435483
O  O104  1  0.13640000  0.02860000  0.95950000  1.0 -0.7171435483
O  O105  1  0.02860000  0.89220000  0.45950000  1.0 -0.7171435483
O  O106  1  0.97140000  0.10780000  0.95950000  1.0 -0.7171435483
O  O107  1  0.10780000  0.13640000  0.45950000  1.0 -0.7171435483
O  O108  1  0.89220000  0.86360000  0.95950000  1.0 -0.7171435483
O  O109  1  0.32090000  0.15060000  0.75000000  1.0 -0.4897301771
O  O110  1  0.67910000  0.84940000  0.25000000  1.0 -0.4897301771
O  O111  1  0.84940000  0.17030000  0.75000000  1.0 -0.4897301771
O  O112  1  0.15060000  0.82970000  0.25000000  1.0 -0.4897301771
O  O113  1  0.82970000  0.67910000  0.75000000  1.0 -0.4897301771
O  O114  1  0.17030000  0.32090000  0.25000000  1.0 -0.4897301771
