# DDEC6 charges by PACMAN v1.1 (https://github.com/mtap-research/PACMAN-charge/)
data_GEZZAO_FSR_pacman
_symmetry_space_group_name_H-M   'P 1'
_cell_length_a   13.41070000
_cell_length_b   13.41070000
_cell_length_c   27.56780000
_cell_angle_alpha   90.00000000
_cell_angle_beta   90.00000000
_cell_angle_gamma   120.00000000
_symmetry_Int_Tables_number   1
_chemical_formula_structural   V9P20(H8O11)7
_chemical_formula_sum   'V18 P40 H112 O154'
_cell_volume   4293.73894077
_cell_formula_units_Z   2
loop_
 _symmetry_equiv_pos_site_id
 _symmetry_equiv_pos_as_xyz
  1  'x, y, z'
loop_
 _atom_site_type_symbol
 _atom_site_label
 _atom_site_symmetry_multiplicity
 _atom_site_fract_x
 _atom_site_fract_y
 _atom_site_fract_z
 _atom_site_occupancy
 _atom_site_charge
V  V1  1  0.00000000  0.00000000  0.50000000  1.0 1.7976691621
V  V2  1  0.00000000  0.00000000  0.00000000  1.0 1.7976691621
V  V3  1  0.29205000  0.85656000  0.52727000  1.0 1.7878440815
V  V4  1  0.70795000  0.14344000  0.02727000  1.0 1.7878440815
V  V5  1  0.14344000  0.43549000  0.52727000  1.0 1.7878440815
V  V6  1  0.85656000  0.56451000  0.02727000  1.0 1.7878440815
V  V7  1  0.56451000  0.70795000  0.52727000  1.0 1.7878440815
V  V8  1  0.43549000  0.29205000  0.02727000  1.0 1.7878440815
V  V9  1  0.70795000  0.14344000  0.47273000  1.0 1.7878440815
V  V10  1  0.29205000  0.85656000  0.97273000  1.0 1.7878440815
V  V11  1  0.85656000  0.56451000  0.47273000  1.0 1.7878440815
V  V12  1  0.14344000  0.43549000  0.97273000  1.0 1.7878440815
V  V13  1  0.43549000  0.29205000  0.47273000  1.0 1.7878440815
V  V14  1  0.56451000  0.70795000  0.97273000  1.0 1.7878440815
V  V15  1  0.00000000  0.00000000  0.66457000  1.0 1.6055645841
V  V16  1  0.00000000  0.00000000  0.16457000  1.0 1.6055645841
V  V17  1  0.00000000  0.00000000  0.33543000  1.0 1.6055645841
V  V18  1  0.00000000  0.00000000  0.83543000  1.0 1.6055645841
P  P1  1  0.16072000  0.97361000  0.58504000  1.0 1.2108163235
P  P2  1  0.83928000  0.02639000  0.08504000  1.0 1.2108163235
P  P3  1  0.02639000  0.18711000  0.58504000  1.0 1.2108163235
P  P4  1  0.97361000  0.81289000  0.08504000  1.0 1.2108163235
P  P5  1  0.81289000  0.83928000  0.58504000  1.0 1.2108163235
P  P6  1  0.18711000  0.16072000  0.08504000  1.0 1.2108163235
P  P7  1  0.83928000  0.02639000  0.41496000  1.0 1.2108163235
P  P8  1  0.16072000  0.97361000  0.91496000  1.0 1.2108163235
P  P9  1  0.97361000  0.81289000  0.41496000  1.0 1.2108163235
P  P10  1  0.02639000  0.18711000  0.91496000  1.0 1.2108163235
P  P11  1  0.18711000  0.16072000  0.41496000  1.0 1.2108163235
P  P12  1  0.81289000  0.83928000  0.91496000  1.0 1.2108163235
P  P13  1  0.12631000  0.63004000  0.46384000  1.0 1.2366757292
P  P14  1  0.87369000  0.36996000  0.96384000  1.0 1.2342545885
P  P15  1  0.36996000  0.49627000  0.46384000  1.0 1.2342545885
P  P16  1  0.63004000  0.50373000  0.96384000  1.0 1.2366757292
P  P17  1  0.50373000  0.87369000  0.46384000  1.0 1.2342545885
P  P18  1  0.49627000  0.12631000  0.96384000  1.0 1.2366757292
P  P19  1  0.87369000  0.36996000  0.53616000  1.0 1.2342545885
P  P20  1  0.12631000  0.63004000  0.03616000  1.0 1.2366757292
P  P21  1  0.63004000  0.50373000  0.53616000  1.0 1.2366757292
P  P22  1  0.36996000  0.49627000  0.03616000  1.0 1.2342545885
P  P23  1  0.49627000  0.12631000  0.53616000  1.0 1.2366757292
P  P24  1  0.50373000  0.87369000  0.03616000  1.0 1.2342545885
P  P25  1  0.33333333  0.66666667  0.59128000  1.0 1.2710484164
P  P26  1  0.66666667  0.33333333  0.09128000  1.0 1.2710484164
P  P27  1  0.66666667  0.33333333  0.40872000  1.0 1.2710484164
P  P28  1  0.33333333  0.66666667  0.90872000  1.0 1.2710484164
P  P29  1  0.19420000  0.05690000  0.75000000  1.0 0.4917966026
P  P30  1  0.80580000  0.94310000  0.25000000  1.0 0.4917966026
P  P31  1  0.94310000  0.13730000  0.75000000  1.0 0.4917966026
P  P32  1  0.05690000  0.86270000  0.25000000  1.0 0.4917966026
P  P33  1  0.86270000  0.80580000  0.75000000  1.0 0.4917966026
P  P34  1  0.13730000  0.19420000  0.25000000  1.0 0.4917966026
P  P35  1  0.20090000  0.12320000  0.75000000  1.0 0.5511280395
P  P36  1  0.79910000  0.87680000  0.25000000  1.0 0.5511280395
P  P37  1  0.87680000  0.07770000  0.75000000  1.0 0.5511280395
P  P38  1  0.12320000  0.92230000  0.25000000  1.0 0.5511280395
P  P39  1  0.92230000  0.79910000  0.75000000  1.0 0.5511280395
P  P40  1  0.07770000  0.20090000  0.25000000  1.0 0.5511280395
H  H1  1  0.14120000  0.89000000  0.75000000  1.0 0.3322677411
H  H2  1  0.85880000  0.11000000  0.25000000  1.0 0.3322677411
H  H3  1  0.11000000  0.25120000  0.75000000  1.0 0.3322677411
H  H4  1  0.89000000  0.74880000  0.25000000  1.0 0.3322677411
H  H5  1  0.74880000  0.85880000  0.75000000  1.0 0.3322677411
H  H6  1  0.25120000  0.14120000  0.25000000  1.0 0.3322677411
H  H7  1  0.33350000  0.20810000  0.75000000  1.0 0.2225536851
H  H8  1  0.66650000  0.79190000  0.25000000  1.0 0.2225536851
H  H9  1  0.79190000  0.12540000  0.75000000  1.0 0.2225536851
H  H10  1  0.20810000  0.87460000  0.25000000  1.0 0.2225536851
H  H11  1  0.87460000  0.66650000  0.75000000  1.0 0.2225536851
H  H12  1  0.12540000  0.33350000  0.25000000  1.0 0.2225536851
H  H13  1  0.25240000  0.05610000  0.60540000  1.0 -0.1283610701
H  H14  1  0.74760000  0.94390000  0.10540000  1.0 -0.1283610701
H  H15  1  0.94390000  0.19630000  0.60540000  1.0 -0.1283610701
H  H16  1  0.05610000  0.80370000  0.10540000  1.0 -0.1283610701
H  H17  1  0.80370000  0.74760000  0.60540000  1.0 -0.1283610701
H  H18  1  0.19630000  0.25240000  0.10540000  1.0 -0.1283610701
H  H19  1  0.74760000  0.94390000  0.39460000  1.0 -0.1283610701
H  H20  1  0.25240000  0.05610000  0.89460000  1.0 -0.1283610701
H  H21  1  0.05610000  0.80370000  0.39460000  1.0 -0.1283610701
H  H22  1  0.94390000  0.19630000  0.89460000  1.0 -0.1283610701
H  H23  1  0.19630000  0.25240000  0.39460000  1.0 -0.1283610701
H  H24  1  0.80370000  0.74760000  0.89460000  1.0 -0.1283610701
H  H25  1  0.33333333  0.66666667  0.63850000  1.0 -0.325533579
H  H26  1  0.66666667  0.33333333  0.13850000  1.0 -0.3231635195
H  H27  1  0.66666667  0.33333333  0.36150000  1.0 -0.3231635195
H  H28  1  0.33333333  0.66666667  0.86150000  1.0 -0.325533579
H  H29  1  0.29500000  0.97400000  0.44840000  1.0 0.4230329491
H  H30  1  0.70500000  0.02600000  0.94840000  1.0 0.4230329491
H  H31  1  0.02600000  0.32100000  0.44840000  1.0 0.4230329491
H  H32  1  0.97400000  0.67900000  0.94840000  1.0 0.4230329491
H  H33  1  0.67900000  0.70500000  0.44840000  1.0 0.4230329491
H  H34  1  0.32100000  0.29500000  0.94840000  1.0 0.4230329491
H  H35  1  0.70500000  0.02600000  0.55160000  1.0 0.4230329491
H  H36  1  0.29500000  0.97400000  0.05160000  1.0 0.4230329491
H  H37  1  0.97400000  0.67900000  0.55160000  1.0 0.4230329491
H  H38  1  0.02600000  0.32100000  0.05160000  1.0 0.4230329491
H  H39  1  0.32100000  0.29500000  0.55160000  1.0 0.4230329491
H  H40  1  0.67900000  0.70500000  0.05160000  1.0 0.4230329491
H  H41  1  0.19300000  0.94300000  0.47100000  1.0 0.4094104591
H  H42  1  0.80700000  0.05700000  0.97100000  1.0 0.4094104591
H  H43  1  0.05700000  0.25000000  0.47100000  1.0 0.4094104591
H  H44  1  0.94300000  0.75000000  0.97100000  1.0 0.4094104591
H  H45  1  0.75000000  0.80700000  0.47100000  1.0 0.4094104591
H  H46  1  0.25000000  0.19300000  0.97100000  1.0 0.4094104591
H  H47  1  0.80700000  0.05700000  0.52900000  1.0 0.4094104591
H  H48  1  0.19300000  0.94300000  0.02900000  1.0 0.4094104591
H  H49  1  0.94300000  0.75000000  0.52900000  1.0 0.4094104591
H  H50  1  0.05700000  0.25000000  0.02900000  1.0 0.4094104591
H  H51  1  0.25000000  0.19300000  0.52900000  1.0 0.4094104591
H  H52  1  0.75000000  0.80700000  0.02900000  1.0 0.4094104591
H  H53  1  0.17510000  0.74150000  0.41060000  1.0 0.2599987609
H  H54  1  0.82490000  0.25850000  0.91060000  1.0 0.2599987609
H  H55  1  0.25850000  0.43360000  0.41060000  1.0 0.2599987609
H  H56  1  0.74150000  0.56640000  0.91060000  1.0 0.2599987609
H  H57  1  0.56640000  0.82490000  0.41060000  1.0 0.2599987609
H  H58  1  0.43360000  0.17510000  0.91060000  1.0 0.2599987609
H  H59  1  0.82490000  0.25850000  0.58940000  1.0 0.2599987609
H  H60  1  0.17510000  0.74150000  0.08940000  1.0 0.2599987609
H  H61  1  0.74150000  0.56640000  0.58940000  1.0 0.2599987609
H  H62  1  0.25850000  0.43360000  0.08940000  1.0 0.2599987609
H  H63  1  0.43360000  0.17510000  0.58940000  1.0 0.2599987609
H  H64  1  0.56640000  0.82490000  0.08940000  1.0 0.2599987609
H  H65  1  0.31780000  0.10010000  0.59160000  1.0 0.2276275172
H  H66  1  0.68220000  0.89990000  0.09160000  1.0 0.2276275172
H  H67  1  0.89990000  0.21770000  0.59160000  1.0 0.2276275172
H  H68  1  0.10010000  0.78230000  0.09160000  1.0 0.2276275172
H  H69  1  0.78230000  0.68220000  0.59160000  1.0 0.2276275172
H  H70  1  0.21770000  0.31780000  0.09160000  1.0 0.2276275172
H  H71  1  0.68220000  0.89990000  0.40840000  1.0 0.2276275172
H  H72  1  0.31780000  0.10010000  0.90840000  1.0 0.2276275172
H  H73  1  0.10010000  0.78230000  0.40840000  1.0 0.2276275172
H  H74  1  0.89990000  0.21770000  0.90840000  1.0 0.2276275172
H  H75  1  0.21770000  0.31780000  0.40840000  1.0 0.2276275172
H  H76  1  0.78230000  0.68220000  0.90840000  1.0 0.2276275172
H  H77  1  0.33790000  0.61140000  0.65570000  1.0 0.2276275172
H  H78  1  0.66210000  0.38860000  0.15570000  1.0 0.2225536851
H  H79  1  0.38860000  0.72650000  0.65570000  1.0 0.2276275172
H  H80  1  0.61140000  0.27350000  0.15570000  1.0 0.2225536851
H  H81  1  0.27350000  0.66210000  0.65570000  1.0 0.2276275172
H  H82  1  0.72650000  0.33790000  0.15570000  1.0 0.2225536851
H  H83  1  0.66210000  0.38860000  0.34430000  1.0 0.2225536851
H  H84  1  0.33790000  0.61140000  0.84430000  1.0 0.2276275172
H  H85  1  0.61140000  0.27350000  0.34430000  1.0 0.2225536851
H  H86  1  0.38860000  0.72650000  0.84430000  1.0 0.2276275172
H  H87  1  0.72650000  0.33790000  0.34430000  1.0 0.2225536851
H  H88  1  0.27350000  0.66210000  0.84430000  1.0 0.2276275172
H  H89  1  0.16460000  0.25660000  0.75000000  1.0 0.3322677411
H  H90  1  0.83540000  0.74340000  0.25000000  1.0 0.3322677411
H  H91  1  0.74340000  0.90800000  0.75000000  1.0 0.3322677411
H  H92  1  0.25660000  0.09200000  0.25000000  1.0 0.3322677411
H  H93  1  0.09200000  0.83540000  0.75000000  1.0 0.3322677411
H  H94  1  0.90800000  0.16460000  0.25000000  1.0 0.3322677411
H  H95  1  0.31880000  0.07930000  0.75000000  1.0 0.2442948419
H  H96  1  0.68120000  0.92070000  0.25000000  1.0 0.2462763387
H  H97  1  0.92070000  0.23950000  0.75000000  1.0 0.2462763387
H  H98  1  0.07930000  0.76050000  0.25000000  1.0 0.2462763387
H  H99  1  0.76050000  0.68120000  0.75000000  1.0 0.2462763387
H  H100  1  0.23950000  0.31880000  0.25000000  1.0 0.2442948419
H  H101  1  0.18400000  0.68900000  0.42610000  1.0 -0.138071269
H  H102  1  0.81600000  0.31100000  0.92610000  1.0 -0.138071269
H  H103  1  0.31100000  0.49500000  0.42610000  1.0 -0.138071269
H  H104  1  0.68900000  0.50500000  0.92610000  1.0 -0.138071269
H  H105  1  0.50500000  0.81600000  0.42610000  1.0 -0.138071269
H  H106  1  0.49500000  0.18400000  0.92610000  1.0 -0.138071269
H  H107  1  0.81600000  0.31100000  0.57390000  1.0 -0.138071269
H  H108  1  0.18400000  0.68900000  0.07390000  1.0 -0.138071269
H  H109  1  0.68900000  0.50500000  0.57390000  1.0 -0.138071269
H  H110  1  0.31100000  0.49500000  0.07390000  1.0 -0.138071269
H  H111  1  0.49500000  0.18400000  0.57390000  1.0 -0.138071269
H  H112  1  0.50500000  0.81600000  0.07390000  1.0 -0.138071269
O  O1  1  0.20550000  0.94730000  0.75000000  1.0 -0.421685065
O  O2  1  0.79450000  0.05270000  0.25000000  1.0 -0.421685065
O  O3  1  0.05270000  0.25820000  0.75000000  1.0 -0.421685065
O  O4  1  0.94730000  0.74180000  0.25000000  1.0 -0.421685065
O  O5  1  0.74180000  0.79450000  0.75000000  1.0 -0.421685065
O  O6  1  0.25820000  0.20550000  0.25000000  1.0 -0.421685065
O  O7  1  0.14950000  0.71620000  0.50424000  1.0 -0.6590055553
O  O8  1  0.85050000  0.28380000  0.00424000  1.0 -0.6590055553
O  O9  1  0.28380000  0.43330000  0.50424000  1.0 -0.6590055553
O  O10  1  0.71620000  0.56670000  0.00424000  1.0 -0.6590055553
O  O11  1  0.56670000  0.85050000  0.50424000  1.0 -0.6590055553
O  O12  1  0.43330000  0.14950000  0.00424000  1.0 -0.6590055553
O  O13  1  0.85050000  0.28380000  0.49576000  1.0 -0.6590055553
O  O14  1  0.14950000  0.71620000  0.99576000  1.0 -0.6590055553
O  O15  1  0.71620000  0.56670000  0.49576000  1.0 -0.6590055553
O  O16  1  0.28380000  0.43330000  0.99576000  1.0 -0.6590055553
O  O17  1  0.43330000  0.14950000  0.49576000  1.0 -0.6590055553
O  O18  1  0.56670000  0.85050000  0.99576000  1.0 -0.6590055553
O  O19  1  0.16890000  0.54750000  0.47584000  1.0 -0.6590055553
O  O20  1  0.83110000  0.45250000  0.97584000  1.0 -0.6590055553
O  O21  1  0.45250000  0.62140000  0.47584000  1.0 -0.6590055553
O  O22  1  0.54750000  0.37860000  0.97584000  1.0 -0.6590055553
O  O23  1  0.37860000  0.83110000  0.47584000  1.0 -0.6590055553
O  O24  1  0.62140000  0.16890000  0.97584000  1.0 -0.6590055553
O  O25  1  0.83110000  0.45250000  0.52416000  1.0 -0.6590055553
O  O26  1  0.16890000  0.54750000  0.02416000  1.0 -0.6590055553
O  O27  1  0.54750000  0.37860000  0.52416000  1.0 -0.6590055553
O  O28  1  0.45250000  0.62140000  0.02416000  1.0 -0.6590055553
O  O29  1  0.62140000  0.16890000  0.52416000  1.0 -0.6590055553
O  O30  1  0.37860000  0.83110000  0.02416000  1.0 -0.6590055553
O  O31  1  0.00000000  0.56860000  0.44972000  1.0 -0.6909107121
O  O32  1  0.00000000  0.43140000  0.94972000  1.0 -0.6909107121
O  O33  1  0.43140000  0.43140000  0.44972000  1.0 -0.6909107121
O  O34  1  0.56860000  0.56860000  0.94972000  1.0 -0.6909107121
O  O35  1  0.56860000  0.00000000  0.44972000  1.0 -0.6909107121
O  O36  1  0.43140000  0.00000000  0.94972000  1.0 -0.6909107121
O  O37  1  0.00000000  0.43140000  0.55028000  1.0 -0.6909107121
O  O38  1  0.00000000  0.56860000  0.05028000  1.0 -0.6909107121
O  O39  1  0.56860000  0.56860000  0.55028000  1.0 -0.6909107121
O  O40  1  0.43140000  0.43140000  0.05028000  1.0 -0.6909107121
O  O41  1  0.43140000  0.00000000  0.55028000  1.0 -0.6909107121
O  O42  1  0.56860000  0.00000000  0.05028000  1.0 -0.6909107121
O  O43  1  0.18790000  0.87980000  0.57110000  1.0 -0.6473995648
O  O44  1  0.81210000  0.12020000  0.07110000  1.0 -0.6473995648
O  O45  1  0.12020000  0.30810000  0.57110000  1.0 -0.6473995648
O  O46  1  0.87980000  0.69190000  0.07110000  1.0 -0.6473995648
O  O47  1  0.69190000  0.81210000  0.57110000  1.0 -0.6473995648
O  O48  1  0.30810000  0.18790000  0.07110000  1.0 -0.6473995648
O  O49  1  0.81210000  0.12020000  0.42890000  1.0 -0.6473995648
O  O50  1  0.18790000  0.87980000  0.92890000  1.0 -0.6473995648
O  O51  1  0.87980000  0.69190000  0.42890000  1.0 -0.6473995648
O  O52  1  0.12020000  0.30810000  0.92890000  1.0 -0.6473995648
O  O53  1  0.30810000  0.18790000  0.42890000  1.0 -0.6473995648
O  O54  1  0.69190000  0.81210000  0.92890000  1.0 -0.6473995648
O  O55  1  0.32470000  0.77130000  0.57724000  1.0 -0.6436316373
O  O56  1  0.67530000  0.22870000  0.07724000  1.0 -0.6436316373
O  O57  1  0.22870000  0.55340000  0.57724000  1.0 -0.6436316373
O  O58  1  0.77130000  0.44660000  0.07724000  1.0 -0.6436316373
O  O59  1  0.44660000  0.67530000  0.57724000  1.0 -0.6436316373
O  O60  1  0.55340000  0.32470000  0.07724000  1.0 -0.6436316373
O  O61  1  0.67530000  0.22870000  0.42276000  1.0 -0.6436316373
O  O62  1  0.32470000  0.77130000  0.92276000  1.0 -0.6436316373
O  O63  1  0.77130000  0.44660000  0.42276000  1.0 -0.6436316373
O  O64  1  0.22870000  0.55340000  0.92276000  1.0 -0.6436316373
O  O65  1  0.55340000  0.32470000  0.42276000  1.0 -0.6436316373
O  O66  1  0.44660000  0.67530000  0.92276000  1.0 -0.6436316373
O  O67  1  0.25670000  0.94530000  0.47402000  1.0 -0.6725841465
O  O68  1  0.74330000  0.05470000  0.97402000  1.0 -0.6725841465
O  O69  1  0.05470000  0.31140000  0.47402000  1.0 -0.6725841465
O  O70  1  0.94530000  0.68860000  0.97402000  1.0 -0.6725841465
O  O71  1  0.68860000  0.74330000  0.47402000  1.0 -0.6725841465
O  O72  1  0.31140000  0.25670000  0.97402000  1.0 -0.6725841465
O  O73  1  0.74330000  0.05470000  0.52598000  1.0 -0.6725841465
O  O74  1  0.25670000  0.94530000  0.02598000  1.0 -0.6725841465
O  O75  1  0.94530000  0.68860000  0.52598000  1.0 -0.6725841465
O  O76  1  0.05470000  0.31140000  0.02598000  1.0 -0.6725841465
O  O77  1  0.31140000  0.25670000  0.52598000  1.0 -0.6725841465
O  O78  1  0.68860000  0.74330000  0.02598000  1.0 -0.6725841465
O  O79  1  0.14380000  0.07140000  0.70438000  1.0 -0.5722589296
O  O80  1  0.85620000  0.92860000  0.20438000  1.0 -0.5722589296
O  O81  1  0.92860000  0.07240000  0.70438000  1.0 -0.5722589296
O  O82  1  0.07140000  0.92760000  0.20438000  1.0 -0.5722589296
O  O83  1  0.92760000  0.85620000  0.70438000  1.0 -0.5722589296
O  O84  1  0.07240000  0.14380000  0.20438000  1.0 -0.5722589296
O  O85  1  0.85620000  0.92860000  0.29562000  1.0 -0.5722589296
O  O86  1  0.14380000  0.07140000  0.79562000  1.0 -0.5722589296
O  O87  1  0.07140000  0.92760000  0.29562000  1.0 -0.5722589296
O  O88  1  0.92860000  0.07240000  0.79562000  1.0 -0.5722589296
O  O89  1  0.07240000  0.14380000  0.29562000  1.0 -0.5722589296
O  O90  1  0.92760000  0.85620000  0.79562000  1.0 -0.5722589296
O  O91  1  0.06560000  0.92530000  0.62269000  1.0 -0.6336595965
O  O92  1  0.93440000  0.07470000  0.12269000  1.0 -0.6336595965
O  O93  1  0.07470000  0.14030000  0.62269000  1.0 -0.6336595965
O  O94  1  0.92530000  0.85970000  0.12269000  1.0 -0.6336595965
O  O95  1  0.85970000  0.93440000  0.62269000  1.0 -0.6336595965
O  O96  1  0.14030000  0.06560000  0.12269000  1.0 -0.6336595965
O  O97  1  0.93440000  0.07470000  0.37731000  1.0 -0.6336595965
O  O98  1  0.06560000  0.92530000  0.87731000  1.0 -0.6336595965
O  O99  1  0.92530000  0.85970000  0.37731000  1.0 -0.6336595965
O  O100  1  0.07470000  0.14030000  0.87731000  1.0 -0.6336595965
O  O101  1  0.14030000  0.06560000  0.37731000  1.0 -0.6336595965
O  O102  1  0.85970000  0.93440000  0.87731000  1.0 -0.6336595965
O  O103  1  0.13610000  0.02660000  0.54056000  1.0 -0.6909107121
O  O104  1  0.86390000  0.97340000  0.04056000  1.0 -0.6909107121
O  O105  1  0.97340000  0.10950000  0.54056000  1.0 -0.6909107121
O  O106  1  0.02660000  0.89050000  0.04056000  1.0 -0.6909107121
O  O107  1  0.89050000  0.86390000  0.54056000  1.0 -0.6909107121
O  O108  1  0.10950000  0.13610000  0.04056000  1.0 -0.6909107121
O  O109  1  0.86390000  0.97340000  0.45944000  1.0 -0.6909107121
O  O110  1  0.13610000  0.02660000  0.95944000  1.0 -0.6909107121
O  O111  1  0.02660000  0.89050000  0.45944000  1.0 -0.6909107121
O  O112  1  0.97340000  0.10950000  0.95944000  1.0 -0.6909107121
O  O113  1  0.10950000  0.13610000  0.45944000  1.0 -0.6909107121
O  O114  1  0.89050000  0.86390000  0.95944000  1.0 -0.6909107121
O  O115  1  0.32280000  0.14230000  0.75000000  1.0 -0.3777803483
O  O116  1  0.67720000  0.85770000  0.25000000  1.0 -0.3777803483
O  O117  1  0.85770000  0.18050000  0.75000000  1.0 -0.3777803483
O  O118  1  0.14230000  0.81950000  0.25000000  1.0 -0.3777803483
O  O119  1  0.81950000  0.67720000  0.75000000  1.0 -0.3777803483
O  O120  1  0.18050000  0.32280000  0.25000000  1.0 -0.3777803483
O  O121  1  0.19450000  0.69500000  0.41890000  1.0 -0.5339017811
O  O122  1  0.80550000  0.30500000  0.91890000  1.0 -0.5339017811
O  O123  1  0.30500000  0.49950000  0.41890000  1.0 -0.5339017811
O  O124  1  0.69500000  0.50050000  0.91890000  1.0 -0.5339017811
O  O125  1  0.50050000  0.80550000  0.41890000  1.0 -0.5339017811
O  O126  1  0.49950000  0.19450000  0.91890000  1.0 -0.5339017811
O  O127  1  0.80550000  0.30500000  0.58110000  1.0 -0.5339017811
O  O128  1  0.19450000  0.69500000  0.08110000  1.0 -0.5339017811
O  O129  1  0.69500000  0.50050000  0.58110000  1.0 -0.5339017811
O  O130  1  0.30500000  0.49950000  0.08110000  1.0 -0.5339017811
O  O131  1  0.49950000  0.19450000  0.58110000  1.0 -0.5339017811
O  O132  1  0.50050000  0.80550000  0.08110000  1.0 -0.5339017811
O  O133  1  0.26310000  0.07040000  0.61040000  1.0 -0.5574424964
O  O134  1  0.73690000  0.92960000  0.11040000  1.0 -0.5574424964
O  O135  1  0.92960000  0.19270000  0.61040000  1.0 -0.5574424964
O  O136  1  0.07040000  0.80730000  0.11040000  1.0 -0.5574424964
O  O137  1  0.80730000  0.73690000  0.61040000  1.0 -0.5574424964
O  O138  1  0.19270000  0.26310000  0.11040000  1.0 -0.5574424964
O  O139  1  0.73690000  0.92960000  0.38960000  1.0 -0.5574424964
O  O140  1  0.26310000  0.07040000  0.88960000  1.0 -0.5574424964
O  O141  1  0.07040000  0.80730000  0.38960000  1.0 -0.5574424964
O  O142  1  0.92960000  0.19270000  0.88960000  1.0 -0.5574424964
O  O143  1  0.19270000  0.26310000  0.38960000  1.0 -0.5574424964
O  O144  1  0.80730000  0.73690000  0.88960000  1.0 -0.5574424964
O  O145  1  0.33333333  0.66666667  0.64580000  1.0 -0.5020268661
O  O146  1  0.66666667  0.33333333  0.14580000  1.0 -0.5020268661
O  O147  1  0.66666667  0.33333333  0.35420000  1.0 -0.5020268661
O  O148  1  0.33333333  0.66666667  0.85420000  1.0 -0.5020268661
O  O149  1  0.22600000  0.25700000  0.75000000  1.0 -0.4464979969
O  O150  1  0.77400000  0.74300000  0.25000000  1.0 -0.4464979969
O  O151  1  0.74300000  0.96900000  0.75000000  1.0 -0.4464979969
O  O152  1  0.25700000  0.03100000  0.25000000  1.0 -0.4464979969
O  O153  1  0.03100000  0.77400000  0.75000000  1.0 -0.4464979969
O  O154  1  0.96900000  0.22600000  0.25000000  1.0 -0.4464979969
