# DDEC6 charges by PACMAN v1.1 (https://github.com/mtap-research/PACMAN-charge/)
data_GIBWAT_ASR_pacman
_symmetry_space_group_name_H-M   'P 1'
_cell_length_a   11.87250000
_cell_length_b   12.81790000
_cell_length_c   16.70450000
_cell_angle_alpha   93.20000000
_cell_angle_beta   104.41700000
_cell_angle_gamma   101.93700000
_symmetry_Int_Tables_number   1
_chemical_formula_structural   Sm3H44(C4O)22
_chemical_formula_sum   'Sm3 H44 C88 O22'
_cell_volume   2393.30773685
_cell_formula_units_Z   1
loop_
 _symmetry_equiv_pos_site_id
 _symmetry_equiv_pos_as_xyz
  1  'x, y, z'
loop_
 _atom_site_type_symbol
 _atom_site_label
 _atom_site_symmetry_multiplicity
 _atom_site_fract_x
 _atom_site_fract_y
 _atom_site_fract_z
 _atom_site_occupancy
 _atom_site_charge
Sm  Sm1  1  0.35783000  0.57740000  0.50241000  1.0 2.0847457355
Sm  Sm2  1  0.64217000  0.42260000  0.49759000  1.0 2.0860463088
Sm  Sm3  1  0.00000000  0.50000000  0.50000000  1.0 1.5829773849
H  H1  1  0.39738000  0.59816000  0.71584000  1.0 0.1108509626
H  H2  1  0.16596000  0.77135000  0.75468000  1.0 0.1042334145
H  H3  1  0.53330000  0.68157000  0.83929000  1.0 0.1108509626
H  H4  1  0.30188000  0.85476000  0.87813000  1.0 0.1108509626
H  H5  1  0.46284000  0.73359000  0.01954000  1.0 0.1185494111
H  H6  1  0.55973000  0.93529000  0.81815000  1.0 0.1108509626
H  H7  1  0.71456000  0.06973000  0.81062000  1.0 0.1108509626
H  H8  1  0.73820000  0.70402000  0.18213000  1.0 0.1108509626
H  H9  1  0.46882000  0.84633000  0.18919000  1.0 0.1108509626
H  H10  1  0.81143000  0.93221000  0.21637000  1.0 0.1108509626
H  H11  1  0.71588000  0.62362000  0.30000000  1.0 0.1185494111
H  H12  1  0.44650000  0.76593000  0.30705000  1.0 0.1108509626
H  H13  1  0.96055000  0.07579000  0.21006000  1.0 0.1108509626
H  H14  1  0.05299000  0.27915000  0.00579000  1.0 0.1185494111
H  H15  1  0.75127000  0.29032000  0.85262000  1.0 0.1185494111
H  H16  1  0.05142000  0.19927000  0.84072000  1.0 0.1185494111
H  H17  1  0.19621000  0.12180000  0.14381000  1.0 0.1108509626
H  H18  1  0.02283000  0.34432000  0.19527000  1.0 0.1185494111
H  H19  1  0.74954000  0.37188000  0.73191000  1.0 0.1108509626
H  H20  1  0.04968000  0.28083000  0.72001000  1.0 0.1108509626
H  H21  1  0.35035000  0.19026000  0.26246000  1.0 0.1108509626
H  H22  1  0.17697000  0.41278000  0.31392000  1.0 0.1042334145
H  H23  1  0.60262000  0.40184000  0.28416000  1.0 0.1108509626
H  H24  1  0.83404000  0.22865000  0.24532000  1.0 0.1042334145
H  H25  1  0.46670000  0.31843000  0.16071000  1.0 0.1108509626
H  H26  1  0.69812000  0.14524000  0.12187000  1.0 0.1108509626
H  H27  1  0.53716000  0.26641000  0.98046000  1.0 0.1185494111
H  H28  1  0.44027000  0.06471000  0.18185000  1.0 0.1108509626
H  H29  1  0.28544000  0.93027000  0.18938000  1.0 0.1108509626
H  H30  1  0.26180000  0.29598000  0.81787000  1.0 0.1108509626
H  H31  1  0.53118000  0.15367000  0.81081000  1.0 0.1108509626
H  H32  1  0.18857000  0.06779000  0.78363000  1.0 0.1108509626
H  H33  1  0.28412000  0.37638000  0.70000000  1.0 0.1185494111
H  H34  1  0.55350000  0.23407000  0.69295000  1.0 0.1108509626
H  H35  1  0.03945000  0.92421000  0.78994000  1.0 0.1108509626
H  H36  1  0.94701000  0.72085000  0.99421000  1.0 0.1185494111
H  H37  1  0.24873000  0.70968000  0.14738000  1.0 0.1108509626
H  H38  1  0.94858000  0.80073000  0.15928000  1.0 0.1185494111
H  H39  1  0.80379000  0.87820000  0.85619000  1.0 0.1108509626
H  H40  1  0.97717000  0.65568000  0.80473000  1.0 0.1185494111
H  H41  1  0.25046000  0.62812000  0.26809000  1.0 0.1108509626
H  H42  1  0.95032000  0.71917000  0.27999000  1.0 0.1108509626
H  H43  1  0.64965000  0.80974000  0.73754000  1.0 0.1108509626
H  H44  1  0.82303000  0.58722000  0.68608000  1.0 0.1042334145
C  C1  1  0.18140000  0.62900000  0.64370000  1.0 0.5117125218
C  C2  1  0.26820000  0.67650000  0.72300000  1.0 -0.0511753796
C  C3  1  0.37820000  0.64960000  0.74840000  1.0 -0.0787203493
C  C4  1  0.23960000  0.75340000  0.77160000  1.0 -0.0887562273
C  C5  1  0.45970000  0.69960000  0.82230000  1.0 -0.150578132
C  C6  1  0.32100000  0.80330000  0.84560000  1.0 -0.1599334067
C  C7  1  0.43110000  0.77640000  0.87090000  1.0 0.0806885479
C  C8  1  0.52700000  0.83450000  0.94910000  1.0 0.0256690612
C  C9  1  0.52500000  0.79140000  0.01910000  1.0 -0.1796096186
C  C10  1  0.61830000  0.92040000  0.94270000  1.0 0.0194047004
C  C11  1  0.61690000  0.83360000  0.09440000  1.0 0.0131378114
C  C12  1  0.71290000  0.96290000  0.01620000  1.0 -0.0152470464
C  C13  1  0.62100000  0.96370000  0.86580000  1.0 -0.150578132
C  C14  1  0.60570000  0.78310000  0.17400000  1.0 0.0806885479
C  C15  1  0.71160000  0.91880000  0.09220000  1.0 0.0194047004
C  C16  1  0.80630000  0.04920000  0.01140000  1.0 -0.0152470464
C  C17  1  0.71100000  0.04490000  0.86140000  1.0 -0.1599334067
C  C18  1  0.67970000  0.71640000  0.20720000  1.0 -0.1672339086
C  C19  1  0.51830000  0.80170000  0.21140000  1.0 -0.1672339086
C  C20  1  0.80990000  0.96180000  0.16660000  1.0 -0.1599334067
C  C21  1  0.80440000  0.09400000  0.93880000  1.0 0.0194047004
C  C22  1  0.90210000  0.08930000  0.08800000  1.0 0.0194047004
C  C23  1  0.66640000  0.66830000  0.27780000  1.0 -0.0887562273
C  C24  1  0.50500000  0.75350000  0.28200000  1.0 -0.0991107158
C  C25  1  0.89990000  0.04660000  0.16230000  1.0 -0.150578132
C  C26  1  0.90010000  0.18310000  0.93550000  1.0 0.0194047004
C  C27  1  0.99210000  0.17830000  0.08170000  1.0 0.0194047004
C  C28  1  0.57900000  0.68680000  0.31520000  1.0 -0.0511753796
C  C29  1  0.90150000  0.23670000  0.85860000  1.0 0.0806885479
C  C30  1  0.99100000  0.22210000  0.00730000  1.0 -0.1876889462
C  C31  1  0.09420000  0.22630000  0.15780000  1.0 0.0741970879
C  C32  1  0.55200000  0.62700000  0.38380000  1.0 0.6490778332
C  C33  1  0.81110000  0.28840000  0.82600000  1.0 -0.150578132
C  C34  1  0.99090000  0.23390000  0.81890000  1.0 -0.1599334067
C  C35  1  0.19240000  0.18010000  0.17790000  1.0 -0.1599334067
C  C36  1  0.08850000  0.31340000  0.20870000  1.0 -0.150578132
C  C37  1  0.81000000  0.33730000  0.75370000  1.0 -0.0887562273
C  C38  1  0.98990000  0.28270000  0.74660000  1.0 -0.0652082855
C  C39  1  0.28470000  0.22110000  0.24900000  1.0 -0.0991107158
C  C40  1  0.18080000  0.35450000  0.27980000  1.0 -0.0991107158
C  C41  1  0.89900000  0.33440000  0.71400000  1.0 -0.0887562273
C  C42  1  0.27890000  0.30830000  0.29990000  1.0 -0.0250605414
C  C43  1  0.88000000  0.37900000  0.63700000  1.0 0.5587575143
C  C44  1  0.38200000  0.36100000  0.37450000  1.0 0.6344136899
C  C45  1  0.81860000  0.37100000  0.35630000  1.0 0.5117125218
C  C46  1  0.73180000  0.32350000  0.27700000  1.0 -0.0511753796
C  C47  1  0.62180000  0.35040000  0.25160000  1.0 -0.0787203493
C  C48  1  0.76040000  0.24660000  0.22840000  1.0 -0.0887562273
C  C49  1  0.54030000  0.30040000  0.17770000  1.0 -0.150578132
C  C50  1  0.67900000  0.19670000  0.15440000  1.0 -0.1599334067
C  C51  1  0.56890000  0.22360000  0.12910000  1.0 0.0806885479
C  C52  1  0.47300000  0.16550000  0.05090000  1.0 0.0256690612
C  C53  1  0.47500000  0.20860000  0.98090000  1.0 -0.1796096186
C  C54  1  0.38170000  0.07960000  0.05730000  1.0 0.0194047004
C  C55  1  0.38310000  0.16640000  0.90560000  1.0 0.0131378114
C  C56  1  0.28710000  0.03710000  0.98380000  1.0 -0.0143346465
C  C57  1  0.37900000  0.03630000  0.13420000  1.0 -0.150578132
C  C58  1  0.39430000  0.21690000  0.82600000  1.0 0.0806885479
C  C59  1  0.28840000  0.08120000  0.90780000  1.0 0.0194047004
C  C60  1  0.19370000  0.95080000  0.98860000  1.0 -0.0152470464
C  C61  1  0.28900000  0.95510000  0.13860000  1.0 -0.1599334067
C  C62  1  0.32030000  0.28360000  0.79280000  1.0 -0.1599334067
C  C63  1  0.48170000  0.19830000  0.78860000  1.0 -0.1672339086
C  C64  1  0.19010000  0.03820000  0.83340000  1.0 -0.1599334067
C  C65  1  0.19560000  0.90600000  0.06120000  1.0 0.0194047004
C  C66  1  0.09790000  0.91070000  0.91200000  1.0 0.0194047004
C  C67  1  0.33360000  0.33170000  0.72220000  1.0 -0.0887562273
C  C68  1  0.49500000  0.24650000  0.71800000  1.0 -0.0991107158
C  C69  1  0.10010000  0.95340000  0.83770000  1.0 -0.150578132
C  C70  1  0.09990000  0.81690000  0.06450000  1.0 0.0194047004
C  C71  1  0.00790000  0.82170000  0.91830000  1.0 0.0194047004
C  C72  1  0.42100000  0.31320000  0.68480000  1.0 -0.0511753796
C  C73  1  0.09850000  0.76330000  0.14140000  1.0 0.0806885479
C  C74  1  0.00900000  0.77790000  0.99270000  1.0 -0.1876889462
C  C75  1  0.90580000  0.77370000  0.84220000  1.0 0.0741970879
C  C76  1  0.44800000  0.37300000  0.61620000  1.0 0.6490778332
C  C77  1  0.18890000  0.71160000  0.17400000  1.0 -0.150578132
C  C78  1  0.00910000  0.76610000  0.18110000  1.0 -0.1599334067
C  C79  1  0.80760000  0.81990000  0.82210000  1.0 -0.1599334067
C  C80  1  0.91150000  0.68660000  0.79130000  1.0 -0.150578132
C  C81  1  0.19000000  0.66270000  0.24630000  1.0 -0.0887562273
C  C82  1  0.01010000  0.71730000  0.25340000  1.0 -0.0652082855
C  C83  1  0.71530000  0.77890000  0.75100000  1.0 -0.0991107158
C  C84  1  0.81920000  0.64550000  0.72020000  1.0 -0.0991107158
C  C85  1  0.10100000  0.66560000  0.28600000  1.0 -0.0887562273
C  C86  1  0.72110000  0.69170000  0.70010000  1.0 -0.0250605414
C  C87  1  0.12000000  0.62100000  0.36300000  1.0 0.5587575143
C  C88  1  0.61800000  0.63900000  0.62550000  1.0 0.6344136899
O  O1  1  0.21640000  0.58700000  0.58600000  1.0 -0.6558804209
O  O2  1  0.07900000  0.57800000  0.64940000  1.0 -0.2677186573
O  O3  1  0.87300000  0.63500000  0.49400000  1.0 0.0509429821
O  O4  1  0.95900000  0.38400000  0.60450000  1.0 -0.4573847646
O  O5  1  0.48450000  0.65500000  0.42200000  1.0 -0.6515986219
O  O6  1  0.61660000  0.55800000  0.40880000  1.0 -0.7249090964
O  O7  1  0.47600000  0.31700000  0.38670000  1.0 -0.698778748
O  O8  1  0.62610000  0.56380000  0.58110000  1.0 -0.6858363444
O  O9  1  0.81100000  0.42200000  0.59980000  1.0 -0.5044562811
O  O10  1  0.08500000  0.65500000  0.60700000  1.0 -0.2213236088
O  O11  1  0.83800000  0.58900000  0.52600000  1.0 -0.150578132
O  O12  1  0.78360000  0.41300000  0.41400000  1.0 -0.6515986219
O  O13  1  0.92100000  0.42200000  0.35060000  1.0 -0.2677186573
O  O14  1  0.12700000  0.36500000  0.50600000  1.0 0.0509429821
O  O15  1  0.04100000  0.61600000  0.39550000  1.0 -0.4573847646
O  O16  1  0.51550000  0.34500000  0.57800000  1.0 -0.6515986219
O  O17  1  0.38340000  0.44200000  0.59120000  1.0 -0.7249090964
O  O18  1  0.52400000  0.68300000  0.61330000  1.0 -0.698778748
O  O19  1  0.37390000  0.43620000  0.41890000  1.0 -0.6858363444
O  O20  1  0.18900000  0.57800000  0.40020000  1.0 -0.5052205319
O  O21  1  0.91500000  0.34500000  0.39300000  1.0 -0.2213236088
O  O22  1  0.16200000  0.41100000  0.47400000  1.0 -0.150578132
