# DDEC6 charges by PACMAN v1.1 (https://github.com/mtap-research/PACMAN-charge/)
data_GICGOR_ASR_pacman
_symmetry_space_group_name_H-M   'P 1'
_cell_length_a   11.49290000
_cell_length_b   11.49290000
_cell_length_c   25.25830000
_cell_angle_alpha   90.00000000
_cell_angle_beta   90.00000000
_cell_angle_gamma   129.73000000
_symmetry_Int_Tables_number   1
_chemical_formula_structural   CuH16C27(NO)4
_chemical_formula_sum   'Cu4 H64 C108 N16 O16'
_cell_volume   2565.82135494
_cell_formula_units_Z   4
loop_
 _symmetry_equiv_pos_site_id
 _symmetry_equiv_pos_as_xyz
  1  'x, y, z'
loop_
 _atom_site_type_symbol
 _atom_site_label
 _atom_site_symmetry_multiplicity
 _atom_site_fract_x
 _atom_site_fract_y
 _atom_site_fract_z
 _atom_site_occupancy
 _atom_site_charge
Cu  Cu1  1  0.12555000  0.12555000  0.51746000  1.0 0.7235044338
Cu  Cu2  1  0.37445000  0.37445000  0.01746000  1.0 0.7235044338
Cu  Cu3  1  0.62555000  0.62555000  0.98254000  1.0 0.7235044338
Cu  Cu4  1  0.87445000  0.87445000  0.48254000  1.0 0.7235044338
H  H1  1  0.10410000  0.80390000  0.36120000  1.0 0.0901374963
H  H2  1  0.59990000  0.25270000  0.34080000  1.0 0.098201089
H  H3  1  0.44150000  0.23330000  0.40480000  1.0 0.1050112046
H  H4  1  0.17950000  0.72610000  0.26700000  1.0 0.098201089
H  H5  1  0.00540000  0.75880000  0.35490000  1.0 0.0901374963
H  H6  1  0.10740000  0.72140000  0.28410000  1.0 0.0826046769
H  H7  1  0.52970000  0.07450000  0.33360000  1.0 0.0826046769
H  H8  1  0.41890000  0.11690000  0.40330000  1.0 0.098201089
H  H9  1  0.39590000  0.69610000  0.86120000  1.0 0.0901374963
H  H10  1  0.90010000  0.24730000  0.84080000  1.0 0.098201089
H  H11  1  0.05850000  0.26670000  0.90480000  1.0 0.1050112046
H  H12  1  0.32050000  0.77390000  0.76700000  1.0 0.098201089
H  H13  1  0.49460000  0.74120000  0.85490000  1.0 0.0901374963
H  H14  1  0.39260000  0.77860000  0.78410000  1.0 0.0826046769
H  H15  1  0.97030000  0.42550000  0.83360000  1.0 0.0826046769
H  H16  1  0.08110000  0.38310000  0.90330000  1.0 0.098201089
H  H17  1  0.30390000  0.60410000  0.13880000  1.0 0.0901374963
H  H18  1  0.75270000  0.09990000  0.15920000  1.0 0.098201089
H  H19  1  0.73330000  0.94150000  0.09520000  1.0 0.098201089
H  H20  1  0.22610000  0.67950000  0.23300000  1.0 0.098201089
H  H21  1  0.25880000  0.50540000  0.14510000  1.0 0.0901374963
H  H22  1  0.22140000  0.60740000  0.21590000  1.0 0.0826046769
H  H23  1  0.57450000  0.02970000  0.16640000  1.0 0.0826046769
H  H24  1  0.61690000  0.91890000  0.09670000  1.0 0.098201089
H  H25  1  0.19610000  0.89590000  0.63880000  1.0 0.0901374963
H  H26  1  0.74730000  0.40010000  0.65920000  1.0 0.098201089
H  H27  1  0.76670000  0.55850000  0.59520000  1.0 0.098201089
H  H28  1  0.27390000  0.82050000  0.73300000  1.0 0.098201089
H  H29  1  0.24120000  0.99460000  0.64510000  1.0 0.0901374963
H  H30  1  0.27860000  0.89260000  0.71590000  1.0 0.0826046769
H  H31  1  0.92550000  0.47030000  0.66640000  1.0 0.0826046769
H  H32  1  0.88310000  0.58110000  0.59670000  1.0 0.098201089
H  H33  1  0.89590000  0.19610000  0.63880000  1.0 0.0901374963
H  H34  1  0.40010000  0.74730000  0.65920000  1.0 0.098201089
H  H35  1  0.55850000  0.76670000  0.59520000  1.0 0.098201089
H  H36  1  0.82050000  0.27390000  0.73300000  1.0 0.098201089
H  H37  1  0.99460000  0.24120000  0.64510000  1.0 0.0901374963
H  H38  1  0.89260000  0.27860000  0.71590000  1.0 0.0826046769
H  H39  1  0.47030000  0.92550000  0.66640000  1.0 0.0826046769
H  H40  1  0.58110000  0.88310000  0.59670000  1.0 0.098201089
H  H41  1  0.60410000  0.30390000  0.13880000  1.0 0.0901374963
H  H42  1  0.09990000  0.75270000  0.15920000  1.0 0.098201089
H  H43  1  0.94150000  0.73330000  0.09520000  1.0 0.098201089
H  H44  1  0.67950000  0.22610000  0.23300000  1.0 0.098201089
H  H45  1  0.50540000  0.25880000  0.14510000  1.0 0.0901374963
H  H46  1  0.60740000  0.22140000  0.21590000  1.0 0.0826046769
H  H47  1  0.02970000  0.57450000  0.16640000  1.0 0.0826046769
H  H48  1  0.91890000  0.61690000  0.09670000  1.0 0.098201089
H  H49  1  0.69610000  0.39590000  0.86120000  1.0 0.0901374963
H  H50  1  0.24730000  0.90010000  0.84080000  1.0 0.098201089
H  H51  1  0.26670000  0.05850000  0.90480000  1.0 0.1050112046
H  H52  1  0.77390000  0.32050000  0.76700000  1.0 0.098201089
H  H53  1  0.74120000  0.49460000  0.85490000  1.0 0.0901374963
H  H54  1  0.77860000  0.39260000  0.78410000  1.0 0.0826046769
H  H55  1  0.42550000  0.97030000  0.83360000  1.0 0.0826046769
H  H56  1  0.38310000  0.08110000  0.90330000  1.0 0.098201089
H  H57  1  0.80390000  0.10410000  0.36120000  1.0 0.0901374963
H  H58  1  0.25270000  0.59990000  0.34080000  1.0 0.098201089
H  H59  1  0.23330000  0.44150000  0.40480000  1.0 0.1050112046
H  H60  1  0.72610000  0.17950000  0.26700000  1.0 0.098201089
H  H61  1  0.75880000  0.00540000  0.35490000  1.0 0.0901374963
H  H62  1  0.72140000  0.10740000  0.28410000  1.0 0.0826046769
H  H63  1  0.07450000  0.52970000  0.33360000  1.0 0.0826046769
H  H64  1  0.11690000  0.41890000  0.40330000  1.0 0.098201089
C  C1  1  0.14780000  0.98480000  0.43220000  1.0 0.4193659671
C  C2  1  0.25670000  0.01690000  0.38950000  1.0 0.0274271934
C  C3  1  0.20220000  0.89800000  0.35560000  1.0 0.0007076502
C  C4  1  0.28980000  0.91360000  0.31250000  1.0 0.0381459542
C  C5  1  0.42690000  0.05650000  0.30370000  1.0 -0.0339549979
C  C6  1  0.49490000  0.16810000  0.34190000  1.0 -0.1616474256
C  C7  1  0.40300000  0.15060000  0.38180000  1.0 -0.1419230007
C  C8  1  0.20100000  0.93920000  0.38720000  1.0 0.0197118859
C  C9  1  0.11220000  0.82500000  0.35070000  1.0 -0.12017291
C  C10  1  0.17210000  0.80250000  0.30810000  1.0 -0.0871626093
C  C11  1  0.32620000  0.89900000  0.30110000  1.0 0.0901374963
C  C12  1  0.42300000  0.01300000  0.33700000  1.0 -0.0871626093
C  C13  1  0.35530000  0.03450000  0.37970000  1.0 0.0274271934
C  C14  1  0.35220000  0.51520000  0.93220000  1.0 0.4193659671
C  C15  1  0.24330000  0.48310000  0.88950000  1.0 0.0274271934
C  C16  1  0.29780000  0.60200000  0.85560000  1.0 -0.000694065
C  C17  1  0.21020000  0.58640000  0.81250000  1.0 0.0381459542
C  C18  1  0.07310000  0.44350000  0.80370000  1.0 -0.0339549979
C  C19  1  0.00510000  0.33190000  0.84190000  1.0 -0.1616474256
C  C20  1  0.09700000  0.34940000  0.88180000  1.0 -0.1419230007
C  C21  1  0.29900000  0.56080000  0.88720000  1.0 0.0197118859
C  C22  1  0.38780000  0.67500000  0.85070000  1.0 -0.12017291
C  C23  1  0.32790000  0.69750000  0.80810000  1.0 -0.0871626093
C  C24  1  0.17380000  0.60100000  0.80110000  1.0 0.0901374963
C  C25  1  0.07700000  0.48700000  0.83700000  1.0 -0.0871626093
C  C26  1  0.14470000  0.46550000  0.87970000  1.0 0.0274271934
C  C27  1  0.48480000  0.64780000  0.06780000  1.0 0.4193659671
C  C28  1  0.51690000  0.75670000  0.11050000  1.0 0.0274271934
C  C29  1  0.39800000  0.70220000  0.14440000  1.0 0.0007076502
C  C30  1  0.41360000  0.78980000  0.18750000  1.0 0.0381459542
C  C31  1  0.55650000  0.92690000  0.19630000  1.0 -0.0339549979
C  C32  1  0.66810000  0.99490000  0.15810000  1.0 -0.1616474256
C  C33  1  0.65060000  0.90300000  0.11820000  1.0 -0.1419230007
C  C34  1  0.43920000  0.70100000  0.11280000  1.0 0.0197118859
C  C35  1  0.32500000  0.61220000  0.14930000  1.0 -0.12017291
C  C36  1  0.30250000  0.67210000  0.19190000  1.0 -0.0871626093
C  C37  1  0.39900000  0.82620000  0.19890000  1.0 0.0901374963
C  C38  1  0.51300000  0.92300000  0.16300000  1.0 -0.0871626093
C  C39  1  0.53450000  0.85530000  0.12030000  1.0 0.0274271934
C  C40  1  0.01520000  0.85220000  0.56780000  1.0 0.4193659671
C  C41  1  0.98310000  0.74330000  0.61050000  1.0 0.0274271934
C  C42  1  0.10200000  0.79780000  0.64440000  1.0 -0.000694065
C  C43  1  0.08640000  0.71020000  0.68750000  1.0 0.0381459542
C  C44  1  0.94350000  0.57310000  0.69630000  1.0 -0.0339549979
C  C45  1  0.83190000  0.50510000  0.65810000  1.0 -0.1616474256
C  C46  1  0.84940000  0.59700000  0.61820000  1.0 -0.1419230007
C  C47  1  0.06080000  0.79900000  0.61280000  1.0 0.0197118859
C  C48  1  0.17500000  0.88780000  0.64930000  1.0 -0.12017291
C  C49  1  0.19750000  0.82790000  0.69190000  1.0 -0.0871626093
C  C50  1  0.10100000  0.67380000  0.69890000  1.0 0.0901374963
C  C51  1  0.98700000  0.57700000  0.66300000  1.0 -0.0871626093
C  C52  1  0.96550000  0.64470000  0.62030000  1.0 0.0274271934
C  C53  1  0.85220000  0.01520000  0.56780000  1.0 0.4193659671
C  C54  1  0.74330000  0.98310000  0.61050000  1.0 0.0274271934
C  C55  1  0.79780000  0.10200000  0.64440000  1.0 -0.000694065
C  C56  1  0.71020000  0.08640000  0.68750000  1.0 0.0381459542
C  C57  1  0.57310000  0.94350000  0.69630000  1.0 -0.0339549979
C  C58  1  0.50510000  0.83190000  0.65810000  1.0 -0.1616474256
C  C59  1  0.59700000  0.84940000  0.61820000  1.0 -0.1419230007
C  C60  1  0.79900000  0.06080000  0.61280000  1.0 0.0197118859
C  C61  1  0.88780000  0.17500000  0.64930000  1.0 -0.12017291
C  C62  1  0.82790000  0.19750000  0.69190000  1.0 -0.0871626093
C  C63  1  0.67380000  0.10100000  0.69890000  1.0 0.0901374963
C  C64  1  0.57700000  0.98700000  0.66300000  1.0 -0.0871626093
C  C65  1  0.64470000  0.96550000  0.62030000  1.0 0.0274271934
C  C66  1  0.64780000  0.48480000  0.06780000  1.0 0.4193659671
C  C67  1  0.75670000  0.51690000  0.11050000  1.0 0.0274271934
C  C68  1  0.70220000  0.39800000  0.14440000  1.0 0.0007076502
C  C69  1  0.78980000  0.41360000  0.18750000  1.0 0.0381459542
C  C70  1  0.92690000  0.55650000  0.19630000  1.0 -0.0339549979
C  C71  1  0.99490000  0.66810000  0.15810000  1.0 -0.1616474256
C  C72  1  0.90300000  0.65060000  0.11820000  1.0 -0.1419230007
C  C73  1  0.70100000  0.43920000  0.11280000  1.0 0.0197118859
C  C74  1  0.61220000  0.32500000  0.14930000  1.0 -0.12017291
C  C75  1  0.67210000  0.30250000  0.19190000  1.0 -0.0871626093
C  C76  1  0.82620000  0.39900000  0.19890000  1.0 0.0901374963
C  C77  1  0.92300000  0.51300000  0.16300000  1.0 -0.0871626093
C  C78  1  0.85530000  0.53450000  0.12030000  1.0 0.0274271934
C  C79  1  0.51520000  0.35220000  0.93220000  1.0 0.4193659671
C  C80  1  0.48310000  0.24330000  0.88950000  1.0 0.0274271934
C  C81  1  0.60200000  0.29780000  0.85560000  1.0 -0.000694065
C  C82  1  0.58640000  0.21020000  0.81250000  1.0 0.0381459542
C  C83  1  0.44350000  0.07310000  0.80370000  1.0 -0.0339549979
C  C84  1  0.33190000  0.00510000  0.84190000  1.0 -0.1616474256
C  C85  1  0.34940000  0.09700000  0.88180000  1.0 -0.1419230007
C  C86  1  0.56080000  0.29900000  0.88720000  1.0 0.0197118859
C  C87  1  0.67500000  0.38780000  0.85070000  1.0 -0.12017291
C  C88  1  0.69750000  0.32790000  0.80810000  1.0 -0.0871626093
C  C89  1  0.60100000  0.17380000  0.80110000  1.0 0.0901374963
C  C90  1  0.48700000  0.07700000  0.83700000  1.0 -0.0871626093
C  C91  1  0.46550000  0.14470000  0.87970000  1.0 0.0274271934
C  C92  1  0.98480000  0.14780000  0.43220000  1.0 0.4193659671
C  C93  1  0.01690000  0.25670000  0.38950000  1.0 0.0274271934
C  C94  1  0.89800000  0.20220000  0.35560000  1.0 0.0007076502
C  C95  1  0.91360000  0.28980000  0.31250000  1.0 0.0381459542
C  C96  1  0.05650000  0.42690000  0.30370000  1.0 -0.0339549979
C  C97  1  0.16810000  0.49490000  0.34190000  1.0 -0.1616474256
C  C98  1  0.15060000  0.40300000  0.38180000  1.0 -0.1419230007
C  C99  1  0.93920000  0.20100000  0.38720000  1.0 0.0197118859
C  C100  1  0.82500000  0.11220000  0.35070000  1.0 -0.12017291
C  C101  1  0.80250000  0.17210000  0.30810000  1.0 -0.0871626093
C  C102  1  0.89900000  0.32620000  0.30110000  1.0 0.0901374963
C  C103  1  0.01300000  0.42300000  0.33700000  1.0 -0.0871626093
C  C104  1  0.03450000  0.35530000  0.37970000  1.0 0.0274271934
C  C105  1  0.39550000  0.89550000  0.25000000  1.0 0.133526197
C  C106  1  0.10450000  0.60450000  0.75000000  1.0 0.133526197
C  C107  1  0.60450000  0.10450000  0.75000000  1.0 0.133526197
C  C108  1  0.89550000  0.39550000  0.25000000  1.0 0.133526197
N  N1  1  0.50120000  0.03620000  0.26520000  1.0 -0.1099774098
N  N2  1  0.26370000  0.81770000  0.27410000  1.0 -0.1290400444
N  N3  1  0.99880000  0.46380000  0.76520000  1.0 -0.1099774098
N  N4  1  0.23630000  0.68230000  0.77410000  1.0 -0.1290400444
N  N5  1  0.53620000  0.00120000  0.23480000  1.0 -0.1099774098
N  N6  1  0.31770000  0.76370000  0.22590000  1.0 -0.1290400444
N  N7  1  0.96380000  0.49880000  0.73480000  1.0 -0.1099774098
N  N8  1  0.18230000  0.73630000  0.72590000  1.0 -0.1290400444
N  N9  1  0.49880000  0.96380000  0.73480000  1.0 -0.1099774098
N  N10  1  0.73630000  0.18230000  0.72590000  1.0 -0.1290400444
N  N11  1  0.00120000  0.53620000  0.23480000  1.0 -0.1099774098
N  N12  1  0.76370000  0.31770000  0.22590000  1.0 -0.1290400444
N  N13  1  0.46380000  0.99880000  0.76520000  1.0 -0.1099774098
N  N14  1  0.68230000  0.23630000  0.77410000  1.0 -0.1290400444
N  N15  1  0.03620000  0.50120000  0.26520000  1.0 -0.1099774098
N  N16  1  0.81770000  0.26370000  0.27410000  1.0 -0.1290400444
O  O1  1  0.22300000  0.09260000  0.46337000  1.0 -0.4486097746
O  O2  1  0.00750000  0.87730000  0.43357000  1.0 -0.4727807768
O  O3  1  0.27700000  0.40740000  0.96337000  1.0 -0.4486097746
O  O4  1  0.49250000  0.62270000  0.93357000  1.0 -0.4727807768
O  O5  1  0.59260000  0.72300000  0.03663000  1.0 -0.4486097746
O  O6  1  0.37730000  0.50750000  0.06643000  1.0 -0.4727807768
O  O7  1  0.90740000  0.77700000  0.53663000  1.0 -0.4486097746
O  O8  1  0.12270000  0.99250000  0.56643000  1.0 -0.4727807768
O  O9  1  0.77700000  0.90740000  0.53663000  1.0 -0.4486097746
O  O10  1  0.99250000  0.12270000  0.56643000  1.0 -0.4727807768
O  O11  1  0.72300000  0.59260000  0.03663000  1.0 -0.4486097746
O  O12  1  0.50750000  0.37730000  0.06643000  1.0 -0.4727807768
O  O13  1  0.40740000  0.27700000  0.96337000  1.0 -0.4486097746
O  O14  1  0.62270000  0.49250000  0.93357000  1.0 -0.4727807768
O  O15  1  0.09260000  0.22300000  0.46337000  1.0 -0.4486097746
O  O16  1  0.87730000  0.00750000  0.43357000  1.0 -0.4727807768
