# DDEC6 charges by PACMAN v1.1 (https://github.com/mtap-research/PACMAN-charge/)
data_GIDCUU_FSR_pacman
_symmetry_space_group_name_H-M   'P 1'
_cell_length_a   18.79360000
_cell_length_b   18.79360000
_cell_length_c   13.09330000
_cell_angle_alpha   71.83070000
_cell_angle_beta   108.16900000
_cell_angle_gamma   129.93600000
_symmetry_Int_Tables_number   1
_chemical_formula_structural   ZnH10C14SNO4
_chemical_formula_sum   'Zn8 H80 C112 S8 N8 O32'
_cell_volume   3329.32343330
_cell_formula_units_Z   8
loop_
 _symmetry_equiv_pos_site_id
 _symmetry_equiv_pos_as_xyz
  1  'x, y, z'
loop_
 _atom_site_type_symbol
 _atom_site_label
 _atom_site_symmetry_multiplicity
 _atom_site_fract_x
 _atom_site_fract_y
 _atom_site_fract_z
 _atom_site_occupancy
 _atom_site_charge
Zn  Zn1  1  0.92490000  0.51812000  0.14308000  1.0 0.8548442325
Zn  Zn2  1  0.89102000  0.66480000  0.06901000  1.0 0.800344055
Zn  Zn3  1  0.48188000  0.07510000  0.64308000  1.0 0.8548442325
Zn  Zn4  1  0.33520000  0.10898000  0.56901000  1.0 0.800344055
Zn  Zn5  1  0.51812000  0.92490000  0.35692000  1.0 0.8548442325
Zn  Zn6  1  0.66480000  0.89102000  0.43099000  1.0 0.800344055
Zn  Zn7  1  0.07510000  0.48188000  0.85692000  1.0 0.8548442325
Zn  Zn8  1  0.10898000  0.33520000  0.93099000  1.0 0.800344055
H  H1  1  0.61580000  0.48480000  0.20790000  1.0 0.1302308119
H  H2  1  0.48930000  0.35330000  0.31450000  1.0 0.1168420241
H  H3  1  0.18090000  0.68790000  0.37000000  1.0 0.1365812621
H  H4  1  0.31260000  0.81200000  0.47990000  1.0 0.1302308119
H  H5  1  0.06880000  0.49960000  0.13970000  1.0 0.1168420241
H  H6  1  0.11500000  0.40400000  0.22090000  1.0 0.1302308119
H  H7  1  0.89360000  0.23620000  0.38410000  1.0 0.1302308119
H  H8  1  0.85430000  0.33770000  0.30160000  1.0 0.1168420241
H  H9  1  0.98890000  0.18890000  0.40680000  1.0 0.1069115023
H  H10  1  0.09440000  0.28040000  0.42870000  1.0 0.1069115023
H  H11  1  0.01370000  0.17250000  0.26130000  1.0 0.1022793888
H  H12  1  0.10560000  0.27920000  0.24610000  1.0 0.1069115023
H  H13  1  0.03720000  0.05680000  0.35890000  1.0 0.0531488447
H  H14  1  0.13440000  0.01600000  0.45750000  1.0 0.0618019794
H  H15  1  0.24760000  0.32380000  0.40590000  1.0 0.1022793888
H  H16  1  0.33900000  0.27520000  0.51550000  1.0 0.0914501121
H  H17  1  0.02860000  0.06180000  0.44790000  1.0 0.0618019794
H  H18  1  0.13160000  0.02480000  0.53710000  1.0 0.0618019794
H  H19  1  0.24410000  0.30110000  0.30650000  1.0 0.0914501121
H  H20  1  0.34260000  0.26500000  0.41570000  1.0 0.0746935657
H  H21  1  0.51520000  0.38420000  0.70790000  1.0 0.1302308119
H  H22  1  0.64670000  0.51070000  0.81450000  1.0 0.1168420241
H  H23  1  0.31210000  0.81910000  0.87000000  1.0 0.1365812621
H  H24  1  0.18800000  0.68740000  0.97990000  1.0 0.1302308119
H  H25  1  0.50040000  0.93120000  0.63970000  1.0 0.1168420241
H  H26  1  0.59600000  0.88500000  0.72090000  1.0 0.1302308119
H  H27  1  0.76380000  0.10640000  0.88410000  1.0 0.1302308119
H  H28  1  0.66230000  0.14570000  0.80160000  1.0 0.1168420241
H  H29  1  0.81110000  0.01110000  0.90680000  1.0 0.1069115023
H  H30  1  0.71960000  0.90560000  0.92870000  1.0 0.1069115023
H  H31  1  0.82750000  0.98630000  0.76130000  1.0 0.1022793888
H  H32  1  0.72080000  0.89440000  0.74610000  1.0 0.1069115023
H  H33  1  0.94320000  0.96280000  0.85890000  1.0 0.0531488447
H  H34  1  0.98400000  0.86560000  0.95750000  1.0 0.0618019794
H  H35  1  0.67620000  0.75240000  0.90590000  1.0 0.1022793888
H  H36  1  0.72480000  0.66100000  0.01550000  1.0 0.0914501121
H  H37  1  0.93820000  0.97140000  0.94790000  1.0 0.0618019794
H  H38  1  0.97520000  0.86840000  0.03710000  1.0 0.0618019794
H  H39  1  0.69890000  0.75590000  0.80650000  1.0 0.0914501121
H  H40  1  0.73500000  0.65740000  0.91570000  1.0 0.0746935657
H  H41  1  0.48480000  0.61580000  0.29210000  1.0 0.1302308119
H  H42  1  0.35330000  0.48930000  0.18550000  1.0 0.1168420241
H  H43  1  0.68790000  0.18090000  0.13000000  1.0 0.1365812621
H  H44  1  0.81200000  0.31260000  0.02010000  1.0 0.1302308119
H  H45  1  0.49960000  0.06880000  0.36030000  1.0 0.1168420241
H  H46  1  0.40400000  0.11500000  0.27910000  1.0 0.1302308119
H  H47  1  0.23620000  0.89360000  0.11590000  1.0 0.1302308119
H  H48  1  0.33770000  0.85430000  0.19840000  1.0 0.1168420241
H  H49  1  0.18890000  0.98890000  0.09320000  1.0 0.1069115023
H  H50  1  0.28040000  0.09440000  0.07130000  1.0 0.1069115023
H  H51  1  0.17250000  0.01370000  0.23870000  1.0 0.1022793888
H  H52  1  0.27920000  0.10560000  0.25390000  1.0 0.1069115023
H  H53  1  0.05680000  0.03720000  0.14110000  1.0 0.0531488447
H  H54  1  0.01600000  0.13440000  0.04250000  1.0 0.0618019794
H  H55  1  0.32380000  0.24760000  0.09410000  1.0 0.1022793888
H  H56  1  0.27520000  0.33900000  0.98450000  1.0 0.0914501121
H  H57  1  0.06180000  0.02860000  0.05210000  1.0 0.0618019794
H  H58  1  0.02480000  0.13160000  0.96290000  1.0 0.0618019794
H  H59  1  0.30110000  0.24410000  0.19350000  1.0 0.0914501121
H  H60  1  0.26500000  0.34260000  0.08430000  1.0 0.0746935657
H  H61  1  0.38420000  0.51520000  0.79210000  1.0 0.1302308119
H  H62  1  0.51070000  0.64670000  0.68550000  1.0 0.1168420241
H  H63  1  0.81910000  0.31210000  0.63000000  1.0 0.1365812621
H  H64  1  0.68740000  0.18800000  0.52010000  1.0 0.1302308119
H  H65  1  0.93120000  0.50040000  0.86030000  1.0 0.1168420241
H  H66  1  0.88500000  0.59600000  0.77910000  1.0 0.1302308119
H  H67  1  0.10640000  0.76380000  0.61590000  1.0 0.1302308119
H  H68  1  0.14570000  0.66230000  0.69840000  1.0 0.1168420241
H  H69  1  0.01110000  0.81110000  0.59320000  1.0 0.1069115023
H  H70  1  0.90560000  0.71960000  0.57130000  1.0 0.1069115023
H  H71  1  0.98630000  0.82750000  0.73870000  1.0 0.1022793888
H  H72  1  0.89440000  0.72080000  0.75390000  1.0 0.1069115023
H  H73  1  0.96280000  0.94320000  0.64110000  1.0 0.0531488447
H  H74  1  0.86560000  0.98400000  0.54250000  1.0 0.0618019794
H  H75  1  0.75240000  0.67620000  0.59410000  1.0 0.1022793888
H  H76  1  0.66100000  0.72480000  0.48450000  1.0 0.0914501121
H  H77  1  0.97140000  0.93820000  0.55210000  1.0 0.0618019794
H  H78  1  0.86840000  0.97520000  0.46290000  1.0 0.0618019794
H  H79  1  0.75590000  0.69890000  0.69350000  1.0 0.0914501121
H  H80  1  0.65740000  0.73500000  0.58430000  1.0 0.0746935657
C  C1  1  0.76692000  0.48592000  0.20697000  1.0 0.6014011404
C  C2  1  0.68136000  0.42196000  0.25954000  1.0 -0.1097313944
C  C3  1  0.61418000  0.43268000  0.25070000  1.0 -0.1295270869
C  C4  1  0.54221000  0.35787000  0.31220000  1.0 -0.1370285848
C  C5  1  0.55712000  0.29262000  0.36835000  1.0 -0.1200703052
C  C6  1  0.50088000  0.21006000  0.44892000  1.0 0.5817795894
C  C7  1  0.02623000  0.68723000  0.26046000  1.0 0.5886487565
C  C8  1  0.11115000  0.74499000  0.33807000  1.0 -0.0996950081
C  C9  1  0.18216000  0.73630000  0.38134000  1.0 -0.1200703052
C  C10  1  0.25731000  0.80695000  0.44457000  1.0 -0.1200703052
C  C11  1  0.24127000  0.86749000  0.44896000  1.0 -0.1097313944
C  C12  1  0.30475000  0.95067000  0.50556000  1.0 0.5817795894
C  C13  1  0.03325000  0.44587000  0.19068000  1.0 0.1069115023
C  C14  1  0.06086000  0.38880000  0.23861000  1.0 -0.1875012093
C  C15  1  0.00988000  0.30932000  0.31264000  1.0 0.1816097064
C  C16  1  0.93120000  0.29044000  0.33489000  1.0 -0.2042726377
C  C17  1  0.90785000  0.35113000  0.28488000  1.0 0.1069115023
C  C18  1  0.04113000  0.24807000  0.37090000  1.0 -0.2208464654
C  C19  1  0.07040000  0.22380000  0.30070000  1.0 -0.3119256595
C  C20  1  0.13110000  0.19330000  0.36710000  1.0 0.0773656047
C  C21  1  0.10002000  0.10398000  0.38680000  1.0 -0.0668246136
C  C22  1  0.15839000  0.07981000  0.44720000  1.0 0.024443597
C  C23  1  0.22318000  0.25982000  0.41620000  1.0 -0.0383992992
C  C24  1  0.27813000  0.23107000  0.47990000  1.0 0.0022633098
C  C25  1  0.09280000  0.10420000  0.43900000  1.0 -0.0668246136
C  C26  1  0.15620000  0.08480000  0.49380000  1.0 0.0367864347
C  C27  1  0.21900000  0.24520000  0.35830000  1.0 -0.0996950081
C  C28  1  0.27760000  0.22220000  0.42140000  1.0 0.0022633098
C  C29  1  0.51408000  0.23308000  0.70697000  1.0 0.6014011404
C  C30  1  0.57804000  0.31864000  0.75954000  1.0 -0.1097313944
C  C31  1  0.56732000  0.38582000  0.75070000  1.0 -0.1295270869
C  C32  1  0.64213000  0.45779000  0.81220000  1.0 -0.1370285848
C  C33  1  0.70738000  0.44288000  0.86835000  1.0 -0.1200703052
C  C34  1  0.78994000  0.49912000  0.94892000  1.0 0.5817795894
C  C35  1  0.31277000  0.97377000  0.76046000  1.0 0.5886487565
C  C36  1  0.25501000  0.88885000  0.83807000  1.0 -0.0996950081
C  C37  1  0.26370000  0.81784000  0.88134000  1.0 -0.1200703052
C  C38  1  0.19305000  0.74269000  0.94457000  1.0 -0.1200703052
C  C39  1  0.13251000  0.75873000  0.94896000  1.0 -0.1097313944
C  C40  1  0.04933000  0.69525000  0.00556000  1.0 0.5817795894
C  C41  1  0.55413000  0.96675000  0.69068000  1.0 0.1069115023
C  C42  1  0.61120000  0.93914000  0.73861000  1.0 -0.1875012093
C  C43  1  0.69068000  0.99012000  0.81264000  1.0 0.1816097064
C  C44  1  0.70956000  0.06880000  0.83489000  1.0 -0.2042726377
C  C45  1  0.64887000  0.09215000  0.78488000  1.0 0.1069115023
C  C46  1  0.75193000  0.95887000  0.87090000  1.0 -0.2208464654
C  C47  1  0.77620000  0.92960000  0.80070000  1.0 -0.3119256595
C  C48  1  0.80670000  0.86890000  0.86710000  1.0 0.0773656047
C  C49  1  0.89602000  0.89998000  0.88680000  1.0 -0.0668246136
C  C50  1  0.92019000  0.84161000  0.94720000  1.0 0.024443597
C  C51  1  0.74018000  0.77682000  0.91620000  1.0 -0.0383992992
C  C52  1  0.76893000  0.72187000  0.97990000  1.0 0.0022633098
C  C53  1  0.89580000  0.90720000  0.93900000  1.0 -0.0668246136
C  C54  1  0.91520000  0.84380000  0.99380000  1.0 0.0367864347
C  C55  1  0.75480000  0.78100000  0.85830000  1.0 -0.0945550674
C  C56  1  0.77780000  0.72240000  0.92140000  1.0 0.0022633098
C  C57  1  0.48592000  0.76692000  0.29303000  1.0 0.6014011404
C  C58  1  0.42196000  0.68136000  0.24046000  1.0 -0.1097313944
C  C59  1  0.43268000  0.61418000  0.24930000  1.0 -0.1295270869
C  C60  1  0.35787000  0.54221000  0.18780000  1.0 -0.1370285848
C  C61  1  0.29262000  0.55712000  0.13165000  1.0 -0.1200703052
C  C62  1  0.21006000  0.50088000  0.05108000  1.0 0.5817795894
C  C63  1  0.68723000  0.02623000  0.23954000  1.0 0.5886487565
C  C64  1  0.74499000  0.11115000  0.16193000  1.0 -0.0996950081
C  C65  1  0.73630000  0.18216000  0.11866000  1.0 -0.1200703052
C  C66  1  0.80695000  0.25731000  0.05543000  1.0 -0.1200703052
C  C67  1  0.86749000  0.24127000  0.05104000  1.0 -0.1097313944
C  C68  1  0.95067000  0.30475000  0.99444000  1.0 0.5817795894
C  C69  1  0.44587000  0.03325000  0.30932000  1.0 0.1069115023
C  C70  1  0.38880000  0.06086000  0.26139000  1.0 -0.1875012093
C  C71  1  0.30932000  0.00988000  0.18736000  1.0 0.1816097064
C  C72  1  0.29044000  0.93120000  0.16511000  1.0 -0.2042726377
C  C73  1  0.35113000  0.90785000  0.21512000  1.0 0.1069115023
C  C74  1  0.24807000  0.04113000  0.12910000  1.0 -0.2208464654
C  C75  1  0.22380000  0.07040000  0.19930000  1.0 -0.3119256595
C  C76  1  0.19330000  0.13110000  0.13290000  1.0 0.0773656047
C  C77  1  0.10398000  0.10002000  0.11320000  1.0 -0.0668246136
C  C78  1  0.07981000  0.15839000  0.05280000  1.0 0.024443597
C  C79  1  0.25982000  0.22318000  0.08380000  1.0 -0.0383992992
C  C80  1  0.23107000  0.27813000  0.02010000  1.0 0.0022633098
C  C81  1  0.10420000  0.09280000  0.06100000  1.0 -0.0668246136
C  C82  1  0.08480000  0.15620000  0.00620000  1.0 0.0367864347
C  C83  1  0.24520000  0.21900000  0.14170000  1.0 -0.0996950081
C  C84  1  0.22220000  0.27760000  0.07860000  1.0 0.0022633098
C  C85  1  0.23308000  0.51408000  0.79303000  1.0 0.6014011404
C  C86  1  0.31864000  0.57804000  0.74046000  1.0 -0.1097313944
C  C87  1  0.38582000  0.56732000  0.74930000  1.0 -0.1295270869
C  C88  1  0.45779000  0.64213000  0.68780000  1.0 -0.1370285848
C  C89  1  0.44288000  0.70738000  0.63165000  1.0 -0.1200703052
C  C90  1  0.49912000  0.78994000  0.55108000  1.0 0.5817795894
C  C91  1  0.97377000  0.31277000  0.73954000  1.0 0.5886487565
C  C92  1  0.88885000  0.25501000  0.66193000  1.0 -0.0996950081
C  C93  1  0.81784000  0.26370000  0.61866000  1.0 -0.1200703052
C  C94  1  0.74269000  0.19305000  0.55543000  1.0 -0.1200703052
C  C95  1  0.75873000  0.13251000  0.55104000  1.0 -0.1097313944
C  C96  1  0.69525000  0.04933000  0.49444000  1.0 0.5817795894
C  C97  1  0.96675000  0.55413000  0.80932000  1.0 0.1069115023
C  C98  1  0.93914000  0.61120000  0.76139000  1.0 -0.1875012093
C  C99  1  0.99012000  0.69068000  0.68736000  1.0 0.1816097064
C  C100  1  0.06880000  0.70956000  0.66511000  1.0 -0.2042726377
C  C101  1  0.09215000  0.64887000  0.71512000  1.0 0.1069115023
C  C102  1  0.95887000  0.75193000  0.62910000  1.0 -0.2208464654
C  C103  1  0.92960000  0.77620000  0.69930000  1.0 -0.3119256595
C  C104  1  0.86890000  0.80670000  0.63290000  1.0 0.0773656047
C  C105  1  0.89998000  0.89602000  0.61320000  1.0 -0.0668246136
C  C106  1  0.84161000  0.92019000  0.55280000  1.0 0.024443597
C  C107  1  0.77682000  0.74018000  0.58380000  1.0 -0.0383992992
C  C108  1  0.72187000  0.76893000  0.52010000  1.0 0.0022633098
C  C109  1  0.90720000  0.89580000  0.56100000  1.0 -0.0668246136
C  C110  1  0.84380000  0.91520000  0.50620000  1.0 0.0367864347
C  C111  1  0.78100000  0.75480000  0.64170000  1.0 -0.0945550674
C  C112  1  0.72240000  0.77780000  0.57860000  1.0 0.0022633098
S  S1  1  0.65766000  0.32088000  0.34402000  1.0 0.1604858651
S  S2  1  0.13521000  0.83941000  0.37463000  1.0 0.0914501121
S  S3  1  0.67912000  0.34234000  0.84402000  1.0 0.1604858651
S  S4  1  0.16059000  0.86479000  0.87463000  1.0 0.0914501121
S  S5  1  0.32088000  0.65766000  0.15598000  1.0 0.1604858651
S  S6  1  0.83941000  0.13521000  0.12537000  1.0 0.0914501121
S  S7  1  0.34234000  0.67912000  0.65598000  1.0 0.1604858651
S  S8  1  0.86479000  0.16059000  0.62537000  1.0 0.0914501121
N  N1  1  0.95780000  0.42808000  0.21373000  1.0 -0.2208464654
N  N2  1  0.24556000  0.14068000  0.49143000  1.0 -0.1562358537
N  N3  1  0.57192000  0.04220000  0.71373000  1.0 -0.2208464654
N  N4  1  0.85932000  0.75444000  0.99143000  1.0 -0.1562358537
N  N5  1  0.42808000  0.95780000  0.28627000  1.0 -0.2208464654
N  N6  1  0.14068000  0.24556000  0.00857000  1.0 -0.1562358537
N  N7  1  0.04220000  0.57192000  0.78627000  1.0 -0.2208464654
N  N8  1  0.75444000  0.85932000  0.50857000  1.0 -0.1562358537
O  O1  1  0.81461000  0.45763000  0.21883000  1.0 -0.5510487555
O  O2  1  0.78426000  0.56286000  0.15490000  1.0 -0.5264399388
O  O3  1  0.53728000  0.17064000  0.50867000  1.0 -0.5241820612
O  O4  1  0.42217000  0.18699000  0.45146000  1.0 -0.5510487555
O  O5  1  0.01042000  0.61386000  0.25030000  1.0 -0.5403486812
O  O6  1  0.97793000  0.71627000  0.21044000  1.0 -0.5403486812
O  O7  1  0.27169000  0.99109000  0.50710000  1.0 -0.5510487555
O  O8  1  0.38552000  0.97344000  0.54712000  1.0 -0.5264399388
O  O9  1  0.54237000  0.18539000  0.71883000  1.0 -0.5510487555
O  O10  1  0.43714000  0.21574000  0.65490000  1.0 -0.5264399388
O  O11  1  0.82936000  0.46272000  0.00867000  1.0 -0.5264399388
O  O12  1  0.81301000  0.57783000  0.95146000  1.0 -0.5510487555
O  O13  1  0.38614000  0.98958000  0.75030000  1.0 -0.5403486812
O  O14  1  0.28373000  0.02207000  0.71044000  1.0 -0.5403486812
O  O15  1  0.00891000  0.72831000  0.00710000  1.0 -0.5510487555
O  O16  1  0.02656000  0.61448000  0.04712000  1.0 -0.5264399388
O  O17  1  0.45763000  0.81461000  0.28117000  1.0 -0.5510487555
O  O18  1  0.56286000  0.78426000  0.34510000  1.0 -0.5264399388
O  O19  1  0.17064000  0.53728000  0.99133000  1.0 -0.5264399388
O  O20  1  0.18699000  0.42217000  0.04854000  1.0 -0.5510487555
O  O21  1  0.61386000  0.01042000  0.24970000  1.0 -0.5403486812
O  O22  1  0.71627000  0.97793000  0.28956000  1.0 -0.5403486812
O  O23  1  0.99109000  0.27169000  0.99290000  1.0 -0.5510487555
O  O24  1  0.97344000  0.38552000  0.95288000  1.0 -0.5264399388
O  O25  1  0.18539000  0.54237000  0.78117000  1.0 -0.5510487555
O  O26  1  0.21574000  0.43714000  0.84510000  1.0 -0.5264399388
O  O27  1  0.46272000  0.82936000  0.49133000  1.0 -0.5241820612
O  O28  1  0.57783000  0.81301000  0.54854000  1.0 -0.5510487555
O  O29  1  0.98958000  0.38614000  0.74970000  1.0 -0.5403486812
O  O30  1  0.02207000  0.28373000  0.78956000  1.0 -0.5403486812
O  O31  1  0.72831000  0.00891000  0.49290000  1.0 -0.5510487555
O  O32  1  0.61448000  0.02656000  0.45288000  1.0 -0.5264399388
