# DDEC6 charges by PACMAN v1.1 (https://github.com/mtap-research/PACMAN-charge/)
data_GIFKIP_FSR_pacman
_symmetry_space_group_name_H-M   'P 1'
_cell_length_a   7.12200000
_cell_length_b   7.61300000
_cell_length_c   9.62800000
_cell_angle_alpha   90.00000000
_cell_angle_beta   100.01000000
_cell_angle_gamma   90.00000000
_symmetry_Int_Tables_number   1
_chemical_formula_structural   CdNiH16(C5N3)2
_chemical_formula_sum   'Cd1 Ni1 H16 C10 N6'
_cell_volume   514.08149068
_cell_formula_units_Z   1
loop_
 _symmetry_equiv_pos_site_id
 _symmetry_equiv_pos_as_xyz
  1  'x, y, z'
loop_
 _atom_site_type_symbol
 _atom_site_label
 _atom_site_symmetry_multiplicity
 _atom_site_fract_x
 _atom_site_fract_y
 _atom_site_fract_z
 _atom_site_occupancy
 _atom_site_charge
Cd  Cd1  1  0.00000000  0.00000000  0.00000000  1.0 0.894179183
Ni  Ni1  1  0.50000000  0.50000000  0.00000000  1.0 0.117552529
H  H1  1  0.01031000  0.88456000  0.28688000  1.0 0.2616862459
H  H2  1  0.98969000  0.88456000  0.71312000  1.0 0.2616862459
H  H3  1  0.98969000  0.11544000  0.71312000  1.0 0.2616862459
H  H4  1  0.01031000  0.11544000  0.28688000  1.0 0.2616862459
H  H5  1  0.66997000  0.11544000  0.20167000  1.0 0.0880392445
H  H6  1  0.33003000  0.11544000  0.79833000  1.0 0.0880392445
H  H7  1  0.33003000  0.88456000  0.79833000  1.0 0.0880392445
H  H8  1  0.66997000  0.88456000  0.20167000  1.0 0.0880392445
H  H9  1  0.79078000  0.88456000  0.45679000  1.0 0.0795448673
H  H10  1  0.20922000  0.88456000  0.54321000  1.0 0.0795448673
H  H11  1  0.20922000  0.11544000  0.54321000  1.0 0.0795448673
H  H12  1  0.79078000  0.11544000  0.45679000  1.0 0.0795448673
H  H13  1  0.44403000  0.11544000  0.37234000  1.0 0.0880392445
H  H14  1  0.55597000  0.11544000  0.62766000  1.0 0.0880392445
H  H15  1  0.55597000  0.88456000  0.62766000  1.0 0.0880392445
H  H16  1  0.44403000  0.88456000  0.37234000  1.0 0.0880392445
C  C1  1  0.33450000  0.32810000  0.04120000  1.0 0.0549002858
C  C2  1  0.66550000  0.32810000  0.95880000  1.0 0.0549002858
C  C3  1  0.66550000  0.67190000  0.95880000  1.0 0.0549002858
C  C4  1  0.33450000  0.67190000  0.04120000  1.0 0.0549002858
C  C5  1  0.74130000  0.00000000  0.25190000  1.0 -0.001046992
C  C6  1  0.25870000  0.00000000  0.74810000  1.0 -0.001046992
C  C7  1  0.72110000  0.00000000  0.40600000  1.0 -0.1920248913
C  C8  1  0.27890000  0.00000000  0.59400000  1.0 -0.1920248913
C  C9  1  0.51340000  0.00000000  0.42370000  1.0 -0.1518365862
C  C10  1  0.48660000  0.00000000  0.57630000  1.0 -0.1518365862
N  N1  1  0.22870000  0.22100000  0.06160000  1.0 -0.3881208422
N  N2  1  0.77130000  0.22100000  0.93840000  1.0 -0.3881208422
N  N3  1  0.77130000  0.77900000  0.93840000  1.0 -0.3881208422
N  N4  1  0.22870000  0.77900000  0.06160000  1.0 -0.3881208422
N  N5  1  0.94250000  0.00000000  0.22930000  1.0 -0.5291354778
N  N6  1  0.05750000  0.00000000  0.77070000  1.0 -0.5291354778
