# DDEC6 charges by PACMAN v1.1 (https://github.com/mtap-research/PACMAN-charge/)
data_GIFKEL_ASR_pacman
_symmetry_space_group_name_H-M   'P 1'
_cell_length_a   7.12000000
_cell_length_b   7.61100000
_cell_length_c   9.54000000
_cell_angle_alpha   90.00000000
_cell_angle_beta   100.95000000
_cell_angle_gamma   90.00000000
_symmetry_Int_Tables_number   1
_chemical_formula_structural   CdNiH16(C5N3)2
_chemical_formula_sum   'Cd1 Ni1 H16 C10 N6'
_cell_volume   507.56324351
_cell_formula_units_Z   1
loop_
 _symmetry_equiv_pos_site_id
 _symmetry_equiv_pos_as_xyz
  1  'x, y, z'
loop_
 _atom_site_type_symbol
 _atom_site_label
 _atom_site_symmetry_multiplicity
 _atom_site_fract_x
 _atom_site_fract_y
 _atom_site_fract_z
 _atom_site_occupancy
 _atom_site_charge
Cd  Cd1  1  0.00000000  0.00000000  0.00000000  1.0 0.8844819062
Ni  Ni1  1  0.50000000  0.50000000  0.00000000  1.0 0.1247264438
H  H1  1  0.02200000  0.08000000  0.28700000  1.0 0.1807975912
H  H2  1  0.97800000  0.08000000  0.71300000  1.0 0.1807975912
H  H3  1  0.97800000  0.92000000  0.71300000  1.0 0.1807975912
H  H4  1  0.02200000  0.92000000  0.28700000  1.0 0.1807975912
H  H5  1  0.67700000  0.10100000  0.20000000  1.0 0.1103141599
H  H6  1  0.32300000  0.10100000  0.80000000  1.0 0.1103141599
H  H7  1  0.32300000  0.89900000  0.80000000  1.0 0.1103141599
H  H8  1  0.67700000  0.89900000  0.20000000  1.0 0.1103141599
H  H9  1  0.80800000  0.10600000  0.47400000  1.0 0.0701643632
H  H10  1  0.19200000  0.10600000  0.52600000  1.0 0.0701643632
H  H11  1  0.19200000  0.89400000  0.52600000  1.0 0.0701643632
H  H12  1  0.80800000  0.89400000  0.47400000  1.0 0.0701643632
H  H13  1  0.43100000  0.10600000  0.36300000  1.0 0.0930373234
H  H14  1  0.56900000  0.10600000  0.63700000  1.0 0.0930373234
H  H15  1  0.56900000  0.89400000  0.63700000  1.0 0.0930373234
H  H16  1  0.43100000  0.89400000  0.36300000  1.0 0.0930373234
C  C1  1  0.33400000  0.32730000  0.04050000  1.0 0.06123539
C  C2  1  0.66600000  0.32730000  0.95950000  1.0 0.06123539
C  C3  1  0.66600000  0.67270000  0.95950000  1.0 0.06123539
C  C4  1  0.33400000  0.67270000  0.04050000  1.0 0.06123539
C  C5  1  0.74190000  0.00000000  0.25220000  1.0 -0.0276378772
C  C6  1  0.25810000  0.00000000  0.74780000  1.0 -0.0276378772
C  C7  1  0.72100000  0.00000000  0.40660000  1.0 -0.1236775598
C  C8  1  0.27900000  0.00000000  0.59340000  1.0 -0.1236775598
C  C9  1  0.51120000  0.00000000  0.42270000  1.0 -0.1640909917
C  C10  1  0.48880000  0.00000000  0.57730000  1.0 -0.1640909917
N  N1  1  0.23020000  0.22090000  0.06220000  1.0 -0.35766998
N  N2  1  0.76980000  0.22090000  0.93780000  1.0 -0.35766998
N  N3  1  0.76980000  0.77910000  0.93780000  1.0 -0.35766998
N  N4  1  0.23020000  0.77910000  0.06220000  1.0 -0.35766998
N  N5  1  0.94020000  0.00000000  0.22970000  1.0 -0.5040137774
N  N6  1  0.05980000  0.00000000  0.77030000  1.0 -0.5058971054
