# DDEC6 charges by PACMAN v1.1 (https://github.com/mtap-research/PACMAN-charge/)
data_GIFKIP_ASR_pacman
_symmetry_space_group_name_H-M   'P 1'
_cell_length_a   9.62800000
_cell_length_b   7.61300000
_cell_length_c   7.12200000
_cell_angle_alpha   90.00000000
_cell_angle_beta   100.01000000
_cell_angle_gamma   90.00000000
_symmetry_Int_Tables_number   1
_chemical_formula_structural   CdNiH16(C5N3)2
_chemical_formula_sum   'Cd1 Ni1 H16 C10 N6'
_cell_volume   514.08149068
_cell_formula_units_Z   1
loop_
 _symmetry_equiv_pos_site_id
 _symmetry_equiv_pos_as_xyz
  1  'x, y, z'
loop_
 _atom_site_type_symbol
 _atom_site_label
 _atom_site_symmetry_multiplicity
 _atom_site_fract_x
 _atom_site_fract_y
 _atom_site_fract_z
 _atom_site_occupancy
 _atom_site_charge
Cd  Cd1  1  0.00000000  0.00000000  0.00000000  1.0 0.8985507628
Ni  Ni1  1  0.00000000  0.50000000  0.50000000  1.0 0.1279621861
H  H1  1  0.28447000  0.88989000  0.00878000  1.0 0.2800911806
H  H2  1  0.71553000  0.11011000  0.99122000  1.0 0.2800911806
H  H3  1  0.71553000  0.88989000  0.99122000  1.0 0.2800911806
H  H4  1  0.28447000  0.11011000  0.00878000  1.0 0.2800911806
H  H5  1  0.20038000  0.11668000  0.66943000  1.0 0.0803268245
H  H6  1  0.79962000  0.88332000  0.33057000  1.0 0.0803268245
H  H7  1  0.79962000  0.11668000  0.33057000  1.0 0.0803268245
H  H8  1  0.20038000  0.88332000  0.66943000  1.0 0.0803268245
H  H9  1  0.45799000  0.88267000  0.79240000  1.0 0.0677837274
H  H10  1  0.54201000  0.11733000  0.20760000  1.0 0.0677837274
H  H11  1  0.54201000  0.88267000  0.20760000  1.0 0.0677837274
H  H12  1  0.45799000  0.11733000  0.79240000  1.0 0.0677837274
H  H13  1  0.37089000  0.11702000  0.44253000  1.0 0.0803268245
H  H14  1  0.62911000  0.88298000  0.55747000  1.0 0.0803268245
H  H15  1  0.62911000  0.11702000  0.55747000  1.0 0.0803268245
H  H16  1  0.37089000  0.88298000  0.44253000  1.0 0.0803268245
C  C1  1  0.04093000  0.32953000  0.33556000  1.0 0.0534177041
C  C2  1  0.95907000  0.67047000  0.66444000  1.0 0.0534177041
C  C3  1  0.95907000  0.32953000  0.66444000  1.0 0.0534177041
C  C4  1  0.04093000  0.67047000  0.33556000  1.0 0.0534177041
C  C5  1  0.25271000  0.00000000  0.74227000  1.0 0.0266717738
C  C6  1  0.74729000  0.00000000  0.25773000  1.0 0.0266717738
C  C7  1  0.40537000  0.00000000  0.71980000  1.0 -0.1708936626
C  C8  1  0.59463000  0.00000000  0.28020000  1.0 -0.1708936626
C  C9  1  0.42418000  0.00000000  0.51351000  1.0 -0.1406567851
C  C10  1  0.57582000  0.00000000  0.48649000  1.0 -0.1406567851
N  N1  1  0.06215000  0.21995000  0.22800000  1.0 -0.3914629677
N  N2  1  0.93785000  0.78005000  0.77200000  1.0 -0.3914629677
N  N3  1  0.93785000  0.21995000  0.77200000  1.0 -0.3914629677
N  N4  1  0.06215000  0.78005000  0.22800000  1.0 -0.3914629677
N  N5  1  0.23442000  0.00000000  0.94525000  1.0 -0.5693443873
N  N6  1  0.76558000  0.00000000  0.05475000  1.0 -0.5693443873
