# DDEC6 charges by PACMAN v1.1 (https://github.com/mtap-research/PACMAN-charge/)
data_GIFVOK_FSR_pacman
_symmetry_space_group_name_H-M   'P 1'
_cell_length_a   16.17480000
_cell_length_b   16.17480000
_cell_length_c   16.17480000
_cell_angle_alpha   69.37280000
_cell_angle_beta   69.37280000
_cell_angle_gamma   69.37280000
_symmetry_Int_Tables_number   1
_chemical_formula_structural   Cu4H63(C26O9)3
_chemical_formula_sum   'Cu8 H126 C156 O54'
_cell_volume   3578.55522830
_cell_formula_units_Z   2
loop_
 _symmetry_equiv_pos_site_id
 _symmetry_equiv_pos_as_xyz
  1  'x, y, z'
loop_
 _atom_site_type_symbol
 _atom_site_label
 _atom_site_symmetry_multiplicity
 _atom_site_fract_x
 _atom_site_fract_y
 _atom_site_fract_z
 _atom_site_occupancy
 _atom_site_charge
Cu  Cu1  1  0.51921000  0.94656000  0.94651000  1.0 0.7711174502
Cu  Cu2  1  0.94656000  0.94651000  0.51921000  1.0 0.7711174502
Cu  Cu3  1  0.94651000  0.51921000  0.94656000  1.0 0.7711174502
Cu  Cu4  1  0.48079000  0.05344000  0.05349000  1.0 0.7711174502
Cu  Cu5  1  0.05344000  0.05349000  0.48079000  1.0 0.7711174502
Cu  Cu6  1  0.05349000  0.48079000  0.05344000  1.0 0.7711174502
Cu  Cu7  1  0.23947000  0.23947000  0.23947000  1.0 0.6804491295
Cu  Cu8  1  0.76053000  0.76053000  0.76053000  1.0 0.6804491295
H  H1  1  0.25590000  0.25667000  0.96236000  1.0 0.1213698103
H  H2  1  0.25667000  0.96236000  0.25590000  1.0 0.1213698103
H  H3  1  0.96236000  0.25590000  0.25667000  1.0 0.1213698103
H  H4  1  0.74410000  0.74333000  0.03764000  1.0 0.1213698103
H  H5  1  0.74333000  0.03764000  0.74410000  1.0 0.1213698103
H  H6  1  0.03764000  0.74410000  0.74333000  1.0 0.1213698103
H  H7  1  0.33169000  0.11414000  0.77586000  1.0 0.1213698103
H  H8  1  0.11414000  0.77586000  0.33169000  1.0 0.1213698103
H  H9  1  0.77586000  0.33169000  0.11414000  1.0 0.1213698103
H  H10  1  0.66831000  0.88586000  0.22414000  1.0 0.1213698103
H  H11  1  0.88586000  0.22414000  0.66831000  1.0 0.1213698103
H  H12  1  0.22414000  0.66831000  0.88586000  1.0 0.1213698103
H  H13  1  0.11402000  0.33202000  0.77542000  1.0 0.1213698103
H  H14  1  0.33202000  0.77542000  0.11402000  1.0 0.1213698103
H  H15  1  0.77542000  0.11402000  0.33202000  1.0 0.1213698103
H  H16  1  0.88598000  0.66798000  0.22458000  1.0 0.1213698103
H  H17  1  0.66798000  0.22458000  0.88598000  1.0 0.1213698103
H  H18  1  0.22458000  0.88598000  0.66798000  1.0 0.1213698103
H  H19  1  0.07479000  0.15700000  0.60559000  1.0 0.0984706644
H  H20  1  0.15700000  0.60559000  0.07479000  1.0 0.0984706644
H  H21  1  0.60559000  0.07479000  0.15700000  1.0 0.0984706644
H  H22  1  0.92521000  0.84300000  0.39441000  1.0 0.0984706644
H  H23  1  0.84300000  0.39441000  0.92521000  1.0 0.0984706644
H  H24  1  0.39441000  0.92521000  0.84300000  1.0 0.0984706644
H  H25  1  0.01025000  0.23401000  0.77786000  1.0 0.0893733664
H  H26  1  0.23401000  0.77786000  0.01025000  1.0 0.0893733664
H  H27  1  0.77786000  0.01025000  0.23401000  1.0 0.0893733664
H  H28  1  0.98975000  0.76599000  0.22214000  1.0 0.0893733664
H  H29  1  0.76599000  0.22214000  0.98975000  1.0 0.0893733664
H  H30  1  0.22214000  0.98975000  0.76599000  1.0 0.0893733664
H  H31  1  0.02446000  0.13390000  0.76961000  1.0 0.0823396728
H  H32  1  0.13390000  0.76961000  0.02446000  1.0 0.0823396728
H  H33  1  0.76961000  0.02446000  0.13390000  1.0 0.0823396728
H  H34  1  0.97554000  0.86610000  0.23039000  1.0 0.0823396728
H  H35  1  0.86610000  0.23039000  0.97554000  1.0 0.0823396728
H  H36  1  0.23039000  0.97554000  0.86610000  1.0 0.0823396728
H  H37  1  0.08391000  0.14897000  0.82137000  1.0 0.0606903746
H  H38  1  0.14897000  0.82137000  0.08391000  1.0 0.0606903746
H  H39  1  0.82137000  0.08391000  0.14897000  1.0 0.0606903746
H  H40  1  0.91609000  0.85103000  0.17863000  1.0 0.0606903746
H  H41  1  0.85103000  0.17863000  0.91609000  1.0 0.0606903746
H  H42  1  0.17863000  0.91609000  0.85103000  1.0 0.0606903746
H  H43  1  0.39203000  0.22503000  0.58886000  1.0 0.0893733664
H  H44  1  0.22503000  0.58886000  0.39203000  1.0 0.0893733664
H  H45  1  0.58886000  0.39203000  0.22503000  1.0 0.0893733664
H  H46  1  0.60797000  0.77497000  0.41114000  1.0 0.0893733664
H  H47  1  0.77497000  0.41114000  0.60797000  1.0 0.0893733664
H  H48  1  0.41114000  0.60797000  0.77497000  1.0 0.0893733664
H  H49  1  0.35668000  0.32499000  0.52665000  1.0 0.0697922256
H  H50  1  0.32499000  0.52665000  0.35668000  1.0 0.0697922256
H  H51  1  0.52665000  0.35668000  0.32499000  1.0 0.0697922256
H  H52  1  0.64332000  0.67501000  0.47335000  1.0 0.0697922256
H  H53  1  0.67501000  0.47335000  0.64332000  1.0 0.0697922256
H  H54  1  0.47335000  0.64332000  0.67501000  1.0 0.0697922256
H  H55  1  0.33874000  0.30905000  0.63427000  1.0 0.0697922256
H  H56  1  0.30905000  0.63427000  0.33874000  1.0 0.0697922256
H  H57  1  0.63427000  0.33874000  0.30905000  1.0 0.0697922256
H  H58  1  0.66126000  0.69095000  0.36573000  1.0 0.0697922256
H  H59  1  0.69095000  0.36573000  0.66126000  1.0 0.0697922256
H  H60  1  0.36573000  0.66126000  0.69095000  1.0 0.0697922256
H  H61  1  0.30756000  0.23516000  0.46130000  1.0 0.0697922256
H  H62  1  0.23516000  0.46130000  0.30756000  1.0 0.0697922256
H  H63  1  0.46130000  0.30756000  0.23516000  1.0 0.0697922256
H  H64  1  0.69244000  0.76484000  0.53870000  1.0 0.0697922256
H  H65  1  0.76484000  0.53870000  0.69244000  1.0 0.0697922256
H  H66  1  0.53870000  0.69244000  0.76484000  1.0 0.0697922256
H  H67  1  0.09306000  0.30625000  0.22673000  1.0 0.2924889489
H  H68  1  0.30625000  0.22673000  0.09306000  1.0 0.2924889489
H  H69  1  0.22673000  0.09306000  0.30625000  1.0 0.2924889489
H  H70  1  0.90694000  0.69375000  0.77327000  1.0 0.2924889489
H  H71  1  0.69375000  0.77327000  0.90694000  1.0 0.2924889489
H  H72  1  0.77327000  0.90694000  0.69375000  1.0 0.2924889489
H  H73  1  0.08971000  0.23718000  0.30647000  1.0 0.2924889489
H  H74  1  0.23718000  0.30647000  0.08971000  1.0 0.2924889489
H  H75  1  0.30647000  0.08971000  0.23718000  1.0 0.2924889489
H  H76  1  0.91029000  0.76282000  0.69353000  1.0 0.2924889489
H  H77  1  0.76282000  0.69353000  0.91029000  1.0 0.2924889489
H  H78  1  0.69353000  0.91029000  0.76282000  1.0 0.2924889489
H  H79  1  0.23484000  0.30680000  0.46063000  1.0 0.0697922256
H  H80  1  0.30680000  0.46063000  0.23484000  1.0 0.0697922256
H  H81  1  0.46063000  0.23484000  0.30680000  1.0 0.0697922256
H  H82  1  0.76516000  0.69320000  0.53937000  1.0 0.0697922256
H  H83  1  0.69320000  0.53937000  0.76516000  1.0 0.0697922256
H  H84  1  0.53937000  0.76516000  0.69320000  1.0 0.0697922256
H  H85  1  0.13589000  0.08386000  0.81898000  1.0 0.0697922256
H  H86  1  0.08386000  0.81898000  0.13589000  1.0 0.0697922256
H  H87  1  0.81898000  0.13589000  0.08386000  1.0 0.0697922256
H  H88  1  0.86411000  0.91614000  0.18102000  1.0 0.0697922256
H  H89  1  0.91614000  0.18102000  0.86411000  1.0 0.0697922256
H  H90  1  0.18102000  0.86411000  0.91614000  1.0 0.0697922256
H  H91  1  0.14560000  0.01571000  0.76249000  1.0 0.0823396728
H  H92  1  0.01571000  0.76249000  0.14560000  1.0 0.0823396728
H  H93  1  0.76249000  0.14560000  0.01571000  1.0 0.0823396728
H  H94  1  0.85440000  0.98429000  0.23751000  1.0 0.0823396728
H  H95  1  0.98429000  0.23751000  0.85440000  1.0 0.0823396728
H  H96  1  0.23751000  0.85440000  0.98429000  1.0 0.0823396728
H  H97  1  0.23374000  0.01803000  0.78435000  1.0 0.0823396728
H  H98  1  0.01803000  0.78435000  0.23374000  1.0 0.0823396728
H  H99  1  0.78435000  0.23374000  0.01803000  1.0 0.0823396728
H  H100  1  0.76626000  0.98197000  0.21565000  1.0 0.0823396728
H  H101  1  0.98197000  0.21565000  0.76626000  1.0 0.0823396728
H  H102  1  0.21565000  0.76626000  0.98197000  1.0 0.0823396728
H  H103  1  0.16126000  0.07207000  0.60588000  1.0 0.0984706644
H  H104  1  0.07207000  0.60588000  0.16126000  1.0 0.0984706644
H  H105  1  0.60588000  0.16126000  0.07207000  1.0 0.0984706644
H  H106  1  0.83874000  0.92793000  0.39412000  1.0 0.0984706644
H  H107  1  0.92793000  0.39412000  0.83874000  1.0 0.0984706644
H  H108  1  0.39412000  0.83874000  0.92793000  1.0 0.0984706644
H  H109  1  0.25587000  0.36107000  0.64623000  1.0 0.0823396728
H  H110  1  0.36107000  0.64623000  0.25587000  1.0 0.0823396728
H  H111  1  0.64623000  0.25587000  0.36107000  1.0 0.0823396728
H  H112  1  0.74413000  0.63893000  0.35377000  1.0 0.0823396728
H  H113  1  0.63893000  0.35377000  0.74413000  1.0 0.0823396728
H  H114  1  0.35377000  0.74413000  0.63893000  1.0 0.0823396728
H  H115  1  0.34596000  0.32470000  0.57238000  1.0 0.0697922256
H  H116  1  0.32470000  0.57238000  0.34596000  1.0 0.0697922256
H  H117  1  0.57238000  0.34596000  0.32470000  1.0 0.0697922256
H  H118  1  0.65404000  0.67530000  0.42762000  1.0 0.0697922256
H  H119  1  0.67530000  0.42762000  0.65404000  1.0 0.0697922256
H  H120  1  0.42762000  0.65404000  0.67530000  1.0 0.0697922256
H  H121  1  0.26003000  0.39953000  0.53953000  1.0 0.0893733664
H  H122  1  0.39953000  0.53953000  0.26003000  1.0 0.0893733664
H  H123  1  0.53953000  0.26003000  0.39953000  1.0 0.0893733664
H  H124  1  0.73997000  0.60047000  0.46047000  1.0 0.0893733664
H  H125  1  0.60047000  0.46047000  0.73997000  1.0 0.0893733664
H  H126  1  0.46047000  0.73997000  0.60047000  1.0 0.0893733664
C  C1  1  0.24644000  0.24714000  0.91204000  1.0 -0.109501399
C  C2  1  0.24714000  0.91204000  0.24644000  1.0 -0.109501399
C  C3  1  0.91204000  0.24644000  0.24714000  1.0 -0.109501399
C  C4  1  0.75356000  0.75286000  0.08796000  1.0 -0.109501399
C  C5  1  0.75286000  0.08796000  0.75356000  1.0 -0.109501399
C  C6  1  0.08796000  0.75356000  0.75286000  1.0 -0.109501399
C  C7  1  0.20040000  0.22350000  0.67650000  1.0 0.0015308905
C  C8  1  0.22350000  0.67650000  0.20040000  1.0 0.0015308905
C  C9  1  0.67650000  0.20040000  0.22350000  1.0 0.0015308905
C  C10  1  0.79960000  0.77650000  0.32350000  1.0 0.0015308905
C  C11  1  0.77650000  0.32350000  0.79960000  1.0 0.0015308905
C  C12  1  0.32350000  0.79960000  0.77650000  1.0 0.0015308905
C  C13  1  0.30450000  0.17570000  0.87550000  1.0 -0.0045174314
C  C14  1  0.17570000  0.87550000  0.30450000  1.0 -0.0045174314
C  C15  1  0.87550000  0.30450000  0.17570000  1.0 -0.0045174314
C  C16  1  0.69550000  0.82430000  0.12450000  1.0 -0.0045174314
C  C17  1  0.82430000  0.12450000  0.69550000  1.0 -0.0045174314
C  C18  1  0.12450000  0.69550000  0.82430000  1.0 -0.0045174314
C  C19  1  0.22210000  0.22230000  0.76220000  1.0 0.0697922256
C  C20  1  0.22230000  0.76220000  0.22210000  1.0 0.0697922256
C  C21  1  0.76220000  0.22210000  0.22230000  1.0 0.0697922256
C  C22  1  0.77790000  0.77770000  0.23780000  1.0 0.0697922256
C  C23  1  0.77770000  0.23780000  0.77790000  1.0 0.0697922256
C  C24  1  0.23780000  0.77790000  0.77770000  1.0 0.0697922256
C  C25  1  0.17470000  0.30480000  0.87590000  1.0 -0.0061956558
C  C26  1  0.30480000  0.87590000  0.17470000  1.0 -0.0061956558
C  C27  1  0.87590000  0.17470000  0.30480000  1.0 -0.0061956558
C  C28  1  0.82530000  0.69520000  0.12410000  1.0 -0.0061956558
C  C29  1  0.69520000  0.12410000  0.82530000  1.0 -0.0061956558
C  C30  1  0.12410000  0.82530000  0.69520000  1.0 -0.0061956558
C  C31  1  0.10990000  0.37980000  0.91880000  1.0 0.5563144996
C  C32  1  0.37980000  0.91880000  0.10990000  1.0 0.5563144996
C  C33  1  0.91880000  0.10990000  0.37980000  1.0 0.5563144996
C  C34  1  0.89010000  0.62020000  0.08120000  1.0 0.5563144996
C  C35  1  0.62020000  0.08120000  0.89010000  1.0 0.5563144996
C  C36  1  0.08120000  0.89010000  0.62020000  1.0 0.5563144996
C  C37  1  0.29170000  0.16360000  0.80080000  1.0 -0.1970858833
C  C38  1  0.16360000  0.80080000  0.29170000  1.0 -0.1970858833
C  C39  1  0.80080000  0.29170000  0.16360000  1.0 -0.1970858833
C  C40  1  0.70830000  0.83640000  0.19920000  1.0 -0.1970858833
C  C41  1  0.83640000  0.19920000  0.70830000  1.0 -0.1970858833
C  C42  1  0.19920000  0.70830000  0.83640000  1.0 -0.1970858833
C  C43  1  0.19010000  0.19340000  0.52190000  1.0 -0.0818375006
C  C44  1  0.19340000  0.52190000  0.19010000  1.0 -0.0818375006
C  C45  1  0.52190000  0.19010000  0.19340000  1.0 -0.0818375006
C  C46  1  0.80990000  0.80660000  0.47810000  1.0 -0.0818375006
C  C47  1  0.80660000  0.47810000  0.80990000  1.0 -0.0818375006
C  C48  1  0.47810000  0.80990000  0.80660000  1.0 -0.0818375006
C  C49  1  0.37920000  0.11070000  0.91860000  1.0 0.5563144996
C  C50  1  0.11070000  0.91860000  0.37920000  1.0 0.5563144996
C  C51  1  0.91860000  0.37920000  0.11070000  1.0 0.5563144996
C  C52  1  0.62080000  0.88930000  0.08140000  1.0 0.5563144996
C  C53  1  0.88930000  0.08140000  0.62080000  1.0 0.5563144996
C  C54  1  0.08140000  0.62080000  0.88930000  1.0 0.5563144996
C  C55  1  0.16340000  0.29200000  0.80070000  1.0 -0.1970858833
C  C56  1  0.29200000  0.80070000  0.16340000  1.0 -0.1970858833
C  C57  1  0.80070000  0.16340000  0.29200000  1.0 -0.1970858833
C  C58  1  0.83660000  0.70800000  0.19930000  1.0 -0.1970858833
C  C59  1  0.70800000  0.19930000  0.83660000  1.0 -0.1970858833
C  C60  1  0.19930000  0.83660000  0.70800000  1.0 -0.1970858833
C  C61  1  0.19500000  0.17700000  0.43500000  1.0 0.4202207937
C  C62  1  0.17700000  0.43500000  0.19500000  1.0 0.4202207937
C  C63  1  0.43500000  0.19500000  0.17700000  1.0 0.4202207937
C  C64  1  0.80500000  0.82300000  0.56500000  1.0 0.4202207937
C  C65  1  0.82300000  0.56500000  0.80500000  1.0 0.4202207937
C  C66  1  0.56500000  0.80500000  0.82300000  1.0 0.4202207937
C  C67  1  0.26940000  0.23540000  0.59590000  1.0 0.0543345227
C  C68  1  0.23540000  0.59590000  0.26940000  1.0 0.0543345227
C  C69  1  0.59590000  0.26940000  0.23540000  1.0 0.0543345227
C  C70  1  0.73060000  0.76460000  0.40410000  1.0 0.0543345227
C  C71  1  0.76460000  0.40410000  0.73060000  1.0 0.0543345227
C  C72  1  0.40410000  0.73060000  0.76460000  1.0 0.0543345227
C  C73  1  0.12900000  0.19360000  0.67970000  1.0 0.0278666679
C  C74  1  0.19360000  0.67970000  0.12900000  1.0 0.0278666679
C  C75  1  0.67970000  0.12900000  0.19360000  1.0 0.0278666679
C  C76  1  0.87100000  0.80640000  0.32030000  1.0 0.0278666679
C  C77  1  0.80640000  0.32030000  0.87100000  1.0 0.0278666679
C  C78  1  0.32030000  0.87100000  0.80640000  1.0 0.0278666679
C  C79  1  0.12390000  0.17810000  0.60250000  1.0 -0.0591815558
C  C80  1  0.17810000  0.60250000  0.12390000  1.0 -0.0591815558
C  C81  1  0.60250000  0.12390000  0.17810000  1.0 -0.0591815558
C  C82  1  0.87610000  0.82190000  0.39750000  1.0 -0.0591815558
C  C83  1  0.82190000  0.39750000  0.87610000  1.0 -0.0591815558
C  C84  1  0.39750000  0.87610000  0.82190000  1.0 -0.0591815558
C  C85  1  0.05520000  0.17610000  0.77040000  1.0 -0.2988485431
C  C86  1  0.17610000  0.77040000  0.05520000  1.0 -0.2988485431
C  C87  1  0.77040000  0.05520000  0.17610000  1.0 -0.2988485431
C  C88  1  0.94480000  0.82390000  0.22960000  1.0 -0.2988485431
C  C89  1  0.82390000  0.22960000  0.94480000  1.0 -0.2988485431
C  C90  1  0.22960000  0.94480000  0.82390000  1.0 -0.2988485431
C  C91  1  0.34310000  0.28200000  0.58690000  1.0 -0.2063765512
C  C92  1  0.28200000  0.58690000  0.34310000  1.0 -0.2063765512
C  C93  1  0.58690000  0.34310000  0.28200000  1.0 -0.2063765512
C  C94  1  0.65690000  0.71800000  0.41310000  1.0 -0.2063765512
C  C95  1  0.71800000  0.41310000  0.65690000  1.0 -0.2063765512
C  C96  1  0.41310000  0.65690000  0.71800000  1.0 -0.2063765512
C  C97  1  0.26260000  0.22310000  0.51750000  1.0 -0.0591815558
C  C98  1  0.22310000  0.51750000  0.26260000  1.0 -0.0591815558
C  C99  1  0.51750000  0.26260000  0.22310000  1.0 -0.0591815558
C  C100  1  0.73740000  0.77690000  0.48250000  1.0 -0.0591815558
C  C101  1  0.77690000  0.48250000  0.73740000  1.0 -0.0591815558
C  C102  1  0.48250000  0.73740000  0.77690000  1.0 -0.0591815558
C  C103  1  0.23960000  0.26770000  0.59400000  1.0 0.0606903746
C  C104  1  0.26770000  0.59400000  0.23960000  1.0 0.0606903746
C  C105  1  0.59400000  0.23960000  0.26770000  1.0 0.0606903746
C  C106  1  0.76040000  0.73230000  0.40600000  1.0 0.0606903746
C  C107  1  0.73230000  0.40600000  0.76040000  1.0 0.0606903746
C  C108  1  0.40600000  0.76040000  0.73230000  1.0 0.0606903746
C  C109  1  0.22490000  0.20030000  0.67550000  1.0 0.0015308905
C  C110  1  0.20030000  0.67550000  0.22490000  1.0 0.0015308905
C  C111  1  0.67550000  0.22490000  0.20030000  1.0 0.0015308905
C  C112  1  0.77510000  0.79970000  0.32450000  1.0 0.0015308905
C  C113  1  0.79970000  0.32450000  0.77510000  1.0 0.0015308905
C  C114  1  0.32450000  0.77510000  0.79970000  1.0 0.0015308905
C  C115  1  0.19220000  0.18990000  0.52330000  1.0 -0.0818375006
C  C116  1  0.18990000  0.52330000  0.19220000  1.0 -0.0818375006
C  C117  1  0.52330000  0.19220000  0.18990000  1.0 -0.0818375006
C  C118  1  0.80780000  0.81010000  0.47670000  1.0 -0.0818375006
C  C119  1  0.81010000  0.47670000  0.80780000  1.0 -0.0818375006
C  C120  1  0.47670000  0.80780000  0.81010000  1.0 -0.0818375006
C  C121  1  0.22380000  0.26180000  0.51700000  1.0 -0.0591815558
C  C122  1  0.26180000  0.51700000  0.22380000  1.0 -0.0591815558
C  C123  1  0.51700000  0.22380000  0.26180000  1.0 -0.0591815558
C  C124  1  0.77620000  0.73820000  0.48300000  1.0 -0.0591815558
C  C125  1  0.73820000  0.48300000  0.77620000  1.0 -0.0591815558
C  C126  1  0.48300000  0.77620000  0.73820000  1.0 -0.0591815558
C  C127  1  0.19370000  0.12840000  0.68080000  1.0 0.0278666679
C  C128  1  0.12840000  0.68080000  0.19370000  1.0 0.0278666679
C  C129  1  0.68080000  0.19370000  0.12840000  1.0 0.0278666679
C  C130  1  0.80630000  0.87160000  0.31920000  1.0 0.0278666679
C  C131  1  0.87160000  0.31920000  0.80630000  1.0 0.0278666679
C  C132  1  0.31920000  0.80630000  0.87160000  1.0 0.0278666679
C  C133  1  0.17568000  0.05498000  0.76948000  1.0 -0.2988485431
C  C134  1  0.05498000  0.76948000  0.17568000  1.0 -0.2988485431
C  C135  1  0.76948000  0.17568000  0.05498000  1.0 -0.2988485431
C  C136  1  0.82432000  0.94502000  0.23052000  1.0 -0.2988485431
C  C137  1  0.94502000  0.23052000  0.82432000  1.0 -0.2988485431
C  C138  1  0.23052000  0.82432000  0.94502000  1.0 -0.2988485431
C  C139  1  0.17960000  0.12280000  0.60330000  1.0 -0.0591815558
C  C140  1  0.12280000  0.60330000  0.17960000  1.0 -0.0591815558
C  C141  1  0.60330000  0.17960000  0.12280000  1.0 -0.0591815558
C  C142  1  0.82040000  0.87720000  0.39670000  1.0 -0.0591815558
C  C143  1  0.87720000  0.39670000  0.82040000  1.0 -0.0591815558
C  C144  1  0.39670000  0.82040000  0.87720000  1.0 -0.0591815558
C  C145  1  0.27900000  0.34550000  0.58750000  1.0 -0.2295542246
C  C146  1  0.34550000  0.58750000  0.27900000  1.0 -0.2295542246
C  C147  1  0.58750000  0.27900000  0.34550000  1.0 -0.2295542246
C  C148  1  0.72100000  0.65450000  0.41250000  1.0 -0.2295542246
C  C149  1  0.65450000  0.41250000  0.72100000  1.0 -0.2295542246
C  C150  1  0.41250000  0.72100000  0.65450000  1.0 -0.2295542246
C  C151  1  0.17350000  0.18550000  0.43750000  1.0 0.4285182719
C  C152  1  0.18550000  0.43750000  0.17350000  1.0 0.4285182719
C  C153  1  0.43750000  0.17350000  0.18550000  1.0 0.4285182719
C  C154  1  0.82650000  0.81450000  0.56250000  1.0 0.4285182719
C  C155  1  0.81450000  0.56250000  0.82650000  1.0 0.4285182719
C  C156  1  0.56250000  0.82650000  0.81450000  1.0 0.4285182719
O  O1  1  0.03892000  0.42432000  0.89072000  1.0 -0.543385597
O  O2  1  0.42432000  0.89072000  0.03892000  1.0 -0.543385597
O  O3  1  0.89072000  0.03892000  0.42432000  1.0 -0.543385597
O  O4  1  0.96108000  0.57568000  0.10928000  1.0 -0.543385597
O  O5  1  0.57568000  0.10928000  0.96108000  1.0 -0.543385597
O  O6  1  0.10928000  0.96108000  0.57568000  1.0 -0.543385597
O  O7  1  0.12998000  0.39268000  0.98118000  1.0 -0.543385597
O  O8  1  0.39268000  0.98118000  0.12998000  1.0 -0.543385597
O  O9  1  0.98118000  0.12998000  0.39268000  1.0 -0.543385597
O  O10  1  0.87002000  0.60732000  0.01882000  1.0 -0.543385597
O  O11  1  0.60732000  0.01882000  0.87002000  1.0 -0.543385597
O  O12  1  0.01882000  0.87002000  0.60732000  1.0 -0.543385597
O  O13  1  0.42397000  0.03927000  0.89087000  1.0 -0.5470808532
O  O14  1  0.03927000  0.89087000  0.42397000  1.0 -0.5470808532
O  O15  1  0.89087000  0.42397000  0.03927000  1.0 -0.5470808532
O  O16  1  0.57603000  0.96073000  0.10913000  1.0 -0.5470808532
O  O17  1  0.96073000  0.10913000  0.57603000  1.0 -0.5470808532
O  O18  1  0.10913000  0.57603000  0.96073000  1.0 -0.5470808532
O  O19  1  0.39263000  0.13023000  0.98113000  1.0 -0.543385597
O  O20  1  0.13023000  0.98113000  0.39263000  1.0 -0.543385597
O  O21  1  0.98113000  0.39263000  0.13023000  1.0 -0.543385597
O  O22  1  0.60737000  0.86977000  0.01887000  1.0 -0.543385597
O  O23  1  0.86977000  0.01887000  0.60737000  1.0 -0.543385597
O  O24  1  0.01887000  0.60737000  0.86977000  1.0 -0.543385597
O  O25  1  0.11290000  0.16760000  0.43530000  1.0 -0.0929757839
O  O26  1  0.16760000  0.43530000  0.11290000  1.0 -0.0929757839
O  O27  1  0.43530000  0.11290000  0.16760000  1.0 -0.0929757839
O  O28  1  0.88710000  0.83240000  0.56470000  1.0 -0.0929757839
O  O29  1  0.83240000  0.56470000  0.88710000  1.0 -0.0929757839
O  O30  1  0.56470000  0.88710000  0.83240000  1.0 -0.0929757839
O  O31  1  0.19250000  0.25150000  0.36870000  1.0 -0.2295542246
O  O32  1  0.25150000  0.36870000  0.19250000  1.0 -0.2295542246
O  O33  1  0.36870000  0.19250000  0.25150000  1.0 -0.2295542246
O  O34  1  0.80750000  0.74850000  0.63130000  1.0 -0.2295542246
O  O35  1  0.74850000  0.63130000  0.80750000  1.0 -0.2295542246
O  O36  1  0.63130000  0.80750000  0.74850000  1.0 -0.2295542246
O  O37  1  0.11950000  0.24940000  0.24910000  1.0 -0.6611500567
O  O38  1  0.24940000  0.24910000  0.11950000  1.0 -0.6611500567
O  O39  1  0.24910000  0.11950000  0.24940000  1.0 -0.6611500567
O  O40  1  0.88050000  0.75060000  0.75090000  1.0 -0.6611500567
O  O41  1  0.75060000  0.75090000  0.88050000  1.0 -0.6611500567
O  O42  1  0.75090000  0.88050000  0.75060000  1.0 -0.6611500567
O  O43  1  0.25230000  0.19150000  0.36770000  1.0 -0.1709759445
O  O44  1  0.19150000  0.36770000  0.25230000  1.0 -0.1709759445
O  O45  1  0.36770000  0.25230000  0.19150000  1.0 -0.1709759445
O  O46  1  0.74770000  0.80850000  0.63230000  1.0 -0.1709759445
O  O47  1  0.80850000  0.63230000  0.74770000  1.0 -0.1709759445
O  O48  1  0.63230000  0.74770000  0.80850000  1.0 -0.1709759445
O  O49  1  0.16750000  0.11310000  0.43520000  1.0 -0.1461855368
O  O50  1  0.11310000  0.43520000  0.16750000  1.0 -0.1461855368
O  O51  1  0.43520000  0.16750000  0.11310000  1.0 -0.1424102024
O  O52  1  0.83250000  0.88690000  0.56480000  1.0 -0.1461855368
O  O53  1  0.88690000  0.56480000  0.83250000  1.0 -0.1461855368
O  O54  1  0.56480000  0.83250000  0.88690000  1.0 -0.1461855368
