# DDEC6 charges by PACMAN v1.1 (https://github.com/mtap-research/PACMAN-charge/)
data_GIHBII_ASR_pacman
_symmetry_space_group_name_H-M   'P 1'
_cell_length_a   8.66900000
_cell_length_b   17.93200000
_cell_length_c   9.09700000
_cell_angle_alpha   90.00000000
_cell_angle_beta   108.32000000
_cell_angle_gamma   90.00000000
_symmetry_Int_Tables_number   1
_chemical_formula_structural   Ga3P3O13
_chemical_formula_sum   'Ga12 P12 O52'
_cell_volume   1342.47635186
_cell_formula_units_Z   4
loop_
 _symmetry_equiv_pos_site_id
 _symmetry_equiv_pos_as_xyz
  1  'x, y, z'
loop_
 _atom_site_type_symbol
 _atom_site_label
 _atom_site_symmetry_multiplicity
 _atom_site_fract_x
 _atom_site_fract_y
 _atom_site_fract_z
 _atom_site_occupancy
 _atom_site_charge
Ga  Ga1  1  0.13411000  0.61099000  0.66697000  1.0 1.4610595873
Ga  Ga2  1  0.86589000  0.38901000  0.33303000  1.0 1.4610595873
Ga  Ga3  1  0.36589000  0.11099000  0.83303000  1.0 1.4610595873
Ga  Ga4  1  0.63411000  0.88901000  0.16697000  1.0 1.4542391073
Ga  Ga5  1  0.06361000  0.79411000  0.79470000  1.0 1.4854769479
Ga  Ga6  1  0.93639000  0.20589000  0.20530000  1.0 1.4729491245
Ga  Ga7  1  0.43639000  0.29411000  0.70530000  1.0 1.4792629849
Ga  Ga8  1  0.56361000  0.70589000  0.29470000  1.0 1.4792629849
Ga  Ga9  1  0.51144000  0.82607000  0.69855000  1.0 1.5499440204
Ga  Ga10  1  0.48856000  0.17393000  0.30145000  1.0 1.5499440204
Ga  Ga11  1  0.98856000  0.32607000  0.80145000  1.0 1.5499440204
Ga  Ga12  1  0.01144000  0.67393000  0.19855000  1.0 1.5499440204
P  P1  1  0.34251000  0.92979000  0.87220000  1.0 1.5691312324
P  P2  1  0.65749000  0.07021000  0.12780000  1.0 1.5691312324
P  P3  1  0.15749000  0.42979000  0.62780000  1.0 1.5691312324
P  P4  1  0.84251000  0.57021000  0.37220000  1.0 1.5691312324
P  P5  1  0.29715000  0.71368000  0.48160000  1.0 1.5499440204
P  P6  1  0.70285000  0.28632000  0.51840000  1.0 1.5499440204
P  P7  1  0.20285000  0.21368000  0.01840000  1.0 1.5499440204
P  P8  1  0.79715000  0.78632000  0.98160000  1.0 1.5499440204
P  P9  1  0.25601000  0.66027000  0.00662000  1.0 1.5374279987
P  P10  1  0.74399000  0.33973000  0.99338000  1.0 1.5341846715
P  P11  1  0.24399000  0.16027000  0.49338000  1.0 1.5374279987
P  P12  1  0.75601000  0.83973000  0.50662000  1.0 1.5341846715
O  O1  1  0.10306000  0.64183000  0.05251000  1.0 -0.7193893272
O  O2  1  0.89694000  0.35817000  0.94749000  1.0 -0.7193893272
O  O3  1  0.39694000  0.14183000  0.44749000  1.0 -0.7193893272
O  O4  1  0.60306000  0.85817000  0.55251000  1.0 -0.7193893272
O  O5  1  0.25943000  0.60623000  0.87587000  1.0 -0.6810091902
O  O6  1  0.74057000  0.39377000  0.12413000  1.0 -0.6810091902
O  O7  1  0.24057000  0.10623000  0.62413000  1.0 -0.6810091902
O  O8  1  0.75943000  0.89377000  0.37587000  1.0 -0.6810091902
O  O9  1  0.28549000  0.01012000  0.83730000  1.0 -0.6905280153
O  O10  1  0.71451000  0.98988000  0.16270000  1.0 -0.6905280153
O  O11  1  0.21451000  0.51012000  0.66270000  1.0 -0.6905280153
O  O12  1  0.78549000  0.48988000  0.33730000  1.0 -0.6905280153
O  O13  1  0.26412000  0.63949000  0.55024000  1.0 -0.6905280153
O  O14  1  0.73588000  0.36051000  0.44976000  1.0 -0.6905280153
O  O15  1  0.23588000  0.13949000  0.94976000  1.0 -0.6905280153
O  O16  1  0.76412000  0.86051000  0.05024000  1.0 -0.6905280153
O  O17  1  0.19401000  0.87997000  0.82261000  1.0 -0.695916288
O  O18  1  0.80599000  0.12003000  0.17739000  1.0 -0.6905280153
O  O19  1  0.30599000  0.37997000  0.67739000  1.0 -0.695916288
O  O20  1  0.69401000  0.62003000  0.32261000  1.0 -0.6905280153
O  O21  1  0.42151000  0.92314000  0.05099000  1.0 -0.7098404471
O  O22  1  0.57849000  0.07686000  0.94901000  1.0 -0.7098404471
O  O23  1  0.07849000  0.42314000  0.44901000  1.0 -0.7098404471
O  O24  1  0.92151000  0.57686000  0.55099000  1.0 -0.7098404471
O  O25  1  0.25318000  0.74289000  0.94706000  1.0 -0.6905280153
O  O26  1  0.74682000  0.25711000  0.05294000  1.0 -0.6905280153
O  O27  1  0.24682000  0.24289000  0.55294000  1.0 -0.6810091902
O  O28  1  0.75318000  0.75711000  0.44706000  1.0 -0.6810091902
O  O29  1  0.45377000  0.70289000  0.44145000  1.0 -0.7193893272
O  O30  1  0.54623000  0.29711000  0.55855000  1.0 -0.7193893272
O  O31  1  0.04623000  0.20289000  0.05855000  1.0 -0.7193893272
O  O32  1  0.95377000  0.79711000  0.94145000  1.0 -0.7193893272
O  O33  1  0.40996000  0.64770000  0.14244000  1.0 -0.6810091902
O  O34  1  0.59004000  0.35230000  0.85756000  1.0 -0.6810091902
O  O35  1  0.09004000  0.14770000  0.35756000  1.0 -0.6810091902
O  O36  1  0.90996000  0.85230000  0.64244000  1.0 -0.6810091902
O  O37  1  0.31908000  0.77743000  0.60166000  1.0 -0.7098404471
O  O38  1  0.68092000  0.22257000  0.39834000  1.0 -0.7098404471
O  O39  1  0.18092000  0.27743000  0.89834000  1.0 -0.7098404471
O  O40  1  0.81908000  0.72257000  0.10166000  1.0 -0.7098404471
O  O41  1  0.15228000  0.73681000  0.33911000  1.0 -0.6905280153
O  O42  1  0.84772000  0.26319000  0.66089000  1.0 -0.695916288
O  O43  1  0.34772000  0.23681000  0.16089000  1.0 -0.6905280153
O  O44  1  0.65228000  0.76319000  0.83911000  1.0 -0.695916288
O  O45  1  0.46643000  0.91062000  0.78809000  1.0 -0.7369138677
O  O46  1  0.53357000  0.08938000  0.21191000  1.0 -0.7369138677
O  O47  1  0.03357000  0.41062000  0.71191000  1.0 -0.7369138677
O  O48  1  0.96643000  0.58938000  0.28809000  1.0 -0.7369138677
O  O49  1  0.03231000  0.70396000  0.69023000  1.0 -0.7327573527
O  O50  1  0.96769000  0.29604000  0.30977000  1.0 -0.7327573527
O  O51  1  0.46769000  0.20396000  0.80977000  1.0 -0.7327573527
O  O52  1  0.53231000  0.79604000  0.19023000  1.0 -0.7327573527
