# DDEC6 charges by PACMAN v1.1 (https://github.com/mtap-research/PACMAN-charge/)
data_GIHBII_FSR_pacman
_symmetry_space_group_name_H-M   'P 1'
_cell_length_a   8.66900000
_cell_length_b   17.93200000
_cell_length_c   10.40820000
_cell_angle_alpha   90.00000000
_cell_angle_beta   123.93000000
_cell_angle_gamma   90.00000000
_symmetry_Int_Tables_number   1
_chemical_formula_structural   Ga3P3O13
_chemical_formula_sum   'Ga12 P12 O52'
_cell_volume   1342.47124534
_cell_formula_units_Z   4
loop_
 _symmetry_equiv_pos_site_id
 _symmetry_equiv_pos_as_xyz
  1  'x, y, z'
loop_
 _atom_site_type_symbol
 _atom_site_label
 _atom_site_symmetry_multiplicity
 _atom_site_fract_x
 _atom_site_fract_y
 _atom_site_fract_z
 _atom_site_occupancy
 _atom_site_charge
Ga  Ga1  1  0.46670000  0.60820000  0.33400000  1.0 1.4424904632
Ga  Ga2  1  0.53330000  0.10820000  0.16600000  1.0 1.4424904632
Ga  Ga3  1  0.53330000  0.39180000  0.66600000  1.0 1.4518501567
Ga  Ga4  1  0.46670000  0.89180000  0.83400000  1.0 1.4518501567
Ga  Ga5  1  0.26990000  0.79380000  0.20070000  1.0 1.4518501567
Ga  Ga6  1  0.73010000  0.29380000  0.29930000  1.0 1.4518501567
Ga  Ga7  1  0.73010000  0.20620000  0.79930000  1.0 1.4518501567
Ga  Ga8  1  0.26990000  0.70620000  0.70070000  1.0 1.4617246436
Ga  Ga9  1  0.81400000  0.82570000  0.30100000  1.0 1.5386310386
Ga  Ga10  1  0.18600000  0.32570000  0.19900000  1.0 1.5386310386
Ga  Ga11  1  0.18600000  0.17430000  0.69900000  1.0 1.5386310386
Ga  Ga12  1  0.81400000  0.67430000  0.80100000  1.0 1.5386310386
P  P1  1  0.46770000  0.92980000  0.12820000  1.0 1.5607036995
P  P2  1  0.53230000  0.42980000  0.37180000  1.0 1.5607036995
P  P3  1  0.53230000  0.07020000  0.87180000  1.0 1.5607036995
P  P4  1  0.46770000  0.57020000  0.62820000  1.0 1.5607036995
P  P5  1  0.81600000  0.71260000  0.51770000  1.0 1.5325582869
P  P6  1  0.18400000  0.21260000  0.98230000  1.0 1.5386310386
P  P7  1  0.18400000  0.28740000  0.48230000  1.0 1.5325582869
P  P8  1  0.81600000  0.78740000  0.01770000  1.0 1.5325582869
P  P9  1  0.24690000  0.66400000  0.99300000  1.0 1.5175421285
P  P10  1  0.75310000  0.16400000  0.50700000  1.0 1.5149259614
P  P11  1  0.75310000  0.33600000  0.00700000  1.0 1.5175421285
P  P12  1  0.24690000  0.83600000  0.49300000  1.0 1.5175421285
O  O1  1  0.04920000  0.64360000  0.94340000  1.0 -0.7217259718
O  O2  1  0.95080000  0.14360000  0.55660000  1.0 -0.7217259718
O  O3  1  0.95080000  0.35640000  0.05660000  1.0 -0.7217259718
O  O4  1  0.04920000  0.85640000  0.44340000  1.0 -0.7217259718
O  O5  1  0.37430000  0.60960000  0.12520000  1.0 -0.6816376726
O  O6  1  0.62570000  0.10960000  0.37480000  1.0 -0.6816376726
O  O7  1  0.62570000  0.39040000  0.87480000  1.0 -0.6816376726
O  O8  1  0.37430000  0.89040000  0.62520000  1.0 -0.6816376726
O  O9  1  0.44800000  0.00850000  0.16760000  1.0 -0.7004000696
O  O10  1  0.55200000  0.50850000  0.33240000  1.0 -0.7004000696
O  O11  1  0.55200000  0.99150000  0.83240000  1.0 -0.7004000696
O  O12  1  0.44800000  0.49150000  0.66760000  1.0 -0.7004000696
O  O13  1  0.71110000  0.64110000  0.44540000  1.0 -0.6909895641
O  O14  1  0.28890000  0.14110000  0.05460000  1.0 -0.6909895641
O  O15  1  0.28890000  0.35890000  0.55460000  1.0 -0.6909895641
O  O16  1  0.71110000  0.85890000  0.94540000  1.0 -0.6909895641
O  O17  1  0.36970000  0.88030000  0.17840000  1.0 -0.6816376726
O  O18  1  0.63030000  0.38030000  0.32160000  1.0 -0.6816376726
O  O19  1  0.63030000  0.11970000  0.82160000  1.0 -0.6816376726
O  O20  1  0.36970000  0.61970000  0.67840000  1.0 -0.6909895641
O  O21  1  0.37750000  0.92230000  0.95340000  1.0 -0.7004000696
O  O22  1  0.62250000  0.42230000  0.54660000  1.0 -0.7004000696
O  O23  1  0.62250000  0.07770000  0.04660000  1.0 -0.7004000696
O  O24  1  0.37750000  0.57770000  0.45340000  1.0 -0.7004000696
O  O25  1  0.29380000  0.74530000  0.04610000  1.0 -0.6816376726
O  O26  1  0.70620000  0.24530000  0.45390000  1.0 -0.6816376726
O  O27  1  0.70620000  0.25470000  0.95390000  1.0 -0.6816376726
O  O28  1  0.29380000  0.75470000  0.54610000  1.0 -0.6816376726
O  O29  1  0.01220000  0.70040000  0.56210000  1.0 -0.7102345777
O  O30  1  0.98780000  0.20040000  0.93790000  1.0 -0.7102345777
O  O31  1  0.98780000  0.29960000  0.43790000  1.0 -0.7102345777
O  O32  1  0.01220000  0.79960000  0.06210000  1.0 -0.7102345777
O  O33  1  0.27330000  0.65120000  0.86240000  1.0 -0.6612280858
O  O34  1  0.72670000  0.15120000  0.63760000  1.0 -0.6612280858
O  O35  1  0.72670000  0.34880000  0.13760000  1.0 -0.6612280858
O  O36  1  0.27330000  0.84880000  0.36240000  1.0 -0.6612280858
O  O37  1  0.72680000  0.77790000  0.40190000  1.0 -0.7102345777
O  O38  1  0.27320000  0.27790000  0.09810000  1.0 -0.7102345777
O  O39  1  0.27320000  0.22210000  0.59810000  1.0 -0.7102345777
O  O40  1  0.72680000  0.72210000  0.90190000  1.0 -0.7217259718
O  O41  1  0.80760000  0.73440000  0.65680000  1.0 -0.6909895641
O  O42  1  0.19240000  0.23440000  0.84320000  1.0 -0.7004000696
O  O43  1  0.19240000  0.26560000  0.34320000  1.0 -0.6909895641
O  O44  1  0.80760000  0.76560000  0.15680000  1.0 -0.6909895641
O  O45  1  0.67520000  0.90950000  0.21440000  1.0 -0.7418469739
O  O46  1  0.32480000  0.40950000  0.28560000  1.0 -0.7418469739
O  O47  1  0.32480000  0.09050000  0.78560000  1.0 -0.7418469739
O  O48  1  0.67520000  0.59050000  0.71440000  1.0 -0.7418469739
O  O49  1  0.35040000  0.70560000  0.32060000  1.0 -0.6712624681
O  O50  1  0.64960000  0.20560000  0.17940000  1.0 -0.6712624681
O  O51  1  0.64960000  0.29440000  0.67940000  1.0 -0.6712624681
O  O52  1  0.35040000  0.79440000  0.82060000  1.0 -0.6712624681
