# DDEC6 charges by PACMAN v1.1 (https://github.com/mtap-research/PACMAN-charge/)
data_GIJXAA_FSR_pacman
_symmetry_space_group_name_H-M   'P 1'
_cell_length_a   15.95620000
_cell_length_b   15.95620000
_cell_length_c   15.95620000
_cell_angle_alpha   126.86700000
_cell_angle_beta   104.26200000
_cell_angle_gamma   98.84120000
_symmetry_Int_Tables_number   1
_chemical_formula_structural   Zn2H26C42N2O11
_chemical_formula_sum   'Zn4 H52 C84 N4 O22'
_cell_volume   2902.02736882
_cell_formula_units_Z   2
loop_
 _symmetry_equiv_pos_site_id
 _symmetry_equiv_pos_as_xyz
  1  'x, y, z'
loop_
 _atom_site_type_symbol
 _atom_site_label
 _atom_site_symmetry_multiplicity
 _atom_site_fract_x
 _atom_site_fract_y
 _atom_site_fract_z
 _atom_site_occupancy
 _atom_site_charge
Zn  Zn1  1  0.50000000  0.39797000  0.89797000  1.0 0.8615074116
Zn  Zn2  1  0.50000000  0.60203000  0.10203000  1.0 0.8615074116
Zn  Zn3  1  0.59980000  0.00000000  0.59980000  1.0 0.6507207412
Zn  Zn4  1  0.40020000  0.00000000  0.40020000  1.0 0.6507207412
H  H1  1  0.55880000  0.55670000  0.76050000  1.0 0.0937212189
H  H2  1  0.79620000  0.79830000  0.23950000  1.0 0.0937212189
H  H3  1  0.20380000  0.44330000  0.00210000  1.0 0.0937212189
H  H4  1  0.44120000  0.20170000  0.99790000  1.0 0.0937212189
H  H5  1  0.44120000  0.44330000  0.23950000  1.0 0.0937212189
H  H6  1  0.20380000  0.20170000  0.76050000  1.0 0.0937212189
H  H7  1  0.79620000  0.55670000  0.99790000  1.0 0.0937212189
H  H8  1  0.55880000  0.79830000  0.00210000  1.0 0.0937212189
H  H9  1  0.46080000  0.85810000  0.88990000  1.0 0.1022154964
H  H10  1  0.96820000  0.57090000  0.11010000  1.0 0.1022154964
H  H11  1  0.03180000  0.14190000  0.60270000  1.0 0.1022154964
H  H12  1  0.53920000  0.42910000  0.39730000  1.0 0.1022154964
H  H13  1  0.53920000  0.14190000  0.11010000  1.0 0.1022154964
H  H14  1  0.03180000  0.42910000  0.88990000  1.0 0.1022154964
H  H15  1  0.96820000  0.85810000  0.39730000  1.0 0.1022154964
H  H16  1  0.46080000  0.57090000  0.60270000  1.0 0.1022154964
H  H17  1  0.45580000  0.77030000  0.96630000  1.0 0.1093939576
H  H18  1  0.80400000  0.48950000  0.03370000  1.0 0.1093939576
H  H19  1  0.19600000  0.22970000  0.68550000  1.0 0.1093939576
H  H20  1  0.54420000  0.51050000  0.31450000  1.0 0.1093939576
H  H21  1  0.54420000  0.22970000  0.03370000  1.0 0.1093939576
H  H22  1  0.19600000  0.51050000  0.96630000  1.0 0.1093939576
H  H23  1  0.80400000  0.77030000  0.31450000  1.0 0.1093939576
H  H24  1  0.45580000  0.48950000  0.68550000  1.0 0.1093939576
H  H25  1  0.60990000  0.57870000  0.63780000  1.0 0.0937212189
H  H26  1  0.94090000  0.97210000  0.36220000  1.0 0.0937212189
H  H27  1  0.05910000  0.42130000  0.03120000  1.0 0.0937212189
H  H28  1  0.39010000  0.02790000  0.96880000  1.0 0.0937212189
H  H29  1  0.39010000  0.42130000  0.36220000  1.0 0.0937212189
H  H30  1  0.05910000  0.02790000  0.63780000  1.0 0.0937212189
H  H31  1  0.94090000  0.57870000  0.96880000  1.0 0.0937212189
H  H32  1  0.60990000  0.97210000  0.03120000  1.0 0.0937212189
H  H33  1  0.63570000  0.67750000  0.58140000  1.0 0.1213500682
H  H34  1  0.09610000  0.05430000  0.41860000  1.0 0.1213500682
H  H35  1  0.90390000  0.32250000  0.95820000  1.0 0.1213500682
H  H36  1  0.36430000  0.94570000  0.04180000  1.0 0.1213500682
H  H37  1  0.36430000  0.32250000  0.41860000  1.0 0.1213500682
H  H38  1  0.90390000  0.94570000  0.58140000  1.0 0.1213500682
H  H39  1  0.09610000  0.67750000  0.04180000  1.0 0.1213500682
H  H40  1  0.63570000  0.05430000  0.95820000  1.0 0.1213500682
H  H41  1  0.51200000  0.86290000  0.75050000  1.0 0.1022154964
H  H42  1  0.11240000  0.76150000  0.24950000  1.0 0.1022154964
H  H43  1  0.88760000  0.13710000  0.64910000  1.0 0.1022154964
H  H44  1  0.48800000  0.23850000  0.35090000  1.0 0.1022154964
H  H45  1  0.48800000  0.13710000  0.24950000  1.0 0.1022154964
H  H46  1  0.88760000  0.23850000  0.75050000  1.0 0.1022154964
H  H47  1  0.11240000  0.86290000  0.35090000  1.0 0.1022154964
H  H48  1  0.51200000  0.76150000  0.64910000  1.0 0.1022154964
H  H49  1  0.40190000  0.22020000  0.62210000  1.0 0.1302357648
H  H50  1  0.59810000  0.77980000  0.37790000  1.0 0.1302357648
H  H51  1  0.40190000  0.77980000  0.18170000  1.0 0.1302357648
H  H52  1  0.59810000  0.22020000  0.81830000  1.0 0.1302357648
C  C1  1  0.49780000  0.58850000  0.90930000  1.0 0.5367518324
C  C2  1  0.67920000  0.58850000  0.09070000  1.0 0.5367518324
C  C3  1  0.32080000  0.41150000  0.90930000  1.0 0.5367518324
C  C4  1  0.50220000  0.41150000  0.09070000  1.0 0.5367518324
C  C5  1  0.50250000  0.64360000  0.85890000  1.0 -0.0137208394
C  C6  1  0.78470000  0.64360000  0.14110000  1.0 -0.0137208394
C  C7  1  0.21530000  0.35640000  0.85890000  1.0 -0.0137208394
C  C8  1  0.49750000  0.35640000  0.14110000  1.0 -0.0137208394
C  C9  1  0.53870000  0.61610000  0.78580000  1.0 -0.0697558265
C  C10  1  0.83030000  0.75290000  0.21420000  1.0 -0.0697558265
C  C11  1  0.16970000  0.38390000  0.92260000  1.0 -0.0697558265
C  C12  1  0.46130000  0.24710000  0.07740000  1.0 -0.0697558265
C  C13  1  0.46130000  0.38390000  0.21420000  1.0 -0.0697558265
C  C14  1  0.16970000  0.24710000  0.78580000  1.0 -0.0697558265
C  C15  1  0.83030000  0.61610000  0.07740000  1.0 -0.0697558265
C  C16  1  0.53870000  0.75290000  0.92260000  1.0 -0.0697558265
C  C17  1  0.54980000  0.66970000  0.74210000  1.0 0.0427183924
C  C18  1  0.92760000  0.80770000  0.25790000  1.0 0.0427183924
C  C19  1  0.07240000  0.33030000  0.88010000  1.0 0.0427183924
C  C20  1  0.45020000  0.19230000  0.11990000  1.0 0.0427183924
C  C21  1  0.45020000  0.33030000  0.25790000  1.0 0.0427183924
C  C22  1  0.07240000  0.19230000  0.74210000  1.0 0.0427183924
C  C23  1  0.92760000  0.66970000  0.11990000  1.0 0.0427183924
C  C24  1  0.54980000  0.80770000  0.88010000  1.0 0.0427183924
C  C25  1  0.52220000  0.75120000  0.77100000  1.0 0.0164067303
C  C26  1  0.98020000  0.75120000  0.22900000  1.0 0.0164067303
C  C27  1  0.01980000  0.24880000  0.77100000  1.0 0.0164067303
C  C28  1  0.47780000  0.24880000  0.22900000  1.0 0.0164067303
C  C29  1  0.48050000  0.79840000  0.86530000  1.0 -0.0137208394
C  C30  1  0.93310000  0.61520000  0.13470000  1.0 -0.0137208394
C  C31  1  0.06690000  0.20160000  0.68210000  1.0 -0.0137208394
C  C32  1  0.51950000  0.38480000  0.31790000  1.0 -0.0137208394
C  C33  1  0.51950000  0.20160000  0.13470000  1.0 -0.0137208394
C  C34  1  0.06690000  0.38480000  0.86530000  1.0 -0.0137208394
C  C35  1  0.93310000  0.79840000  0.31790000  1.0 -0.0137208394
C  C36  1  0.48050000  0.61520000  0.68210000  1.0 -0.0137208394
C  C37  1  0.47570000  0.74430000  0.90780000  1.0 -0.0908973183
C  C38  1  0.83650000  0.56790000  0.09220000  1.0 -0.0908973183
C  C39  1  0.16350000  0.25570000  0.73140000  1.0 -0.0908973183
C  C40  1  0.52430000  0.43210000  0.26860000  1.0 -0.0908973183
C  C41  1  0.52430000  0.25570000  0.09220000  1.0 -0.0908973183
C  C42  1  0.16350000  0.43210000  0.90780000  1.0 -0.0908973183
C  C43  1  0.83650000  0.74430000  0.26860000  1.0 -0.0908973183
C  C44  1  0.47570000  0.56790000  0.73140000  1.0 -0.0908973183
C  C45  1  0.59160000  0.63980000  0.66520000  1.0 -0.1590989245
C  C46  1  0.97460000  0.92640000  0.33480000  1.0 -0.1590989245
C  C47  1  0.02540000  0.36020000  0.95180000  1.0 -0.1590989245
C  C48  1  0.40840000  0.07360000  0.04820000  1.0 -0.1590989245
C  C49  1  0.40840000  0.36020000  0.33480000  1.0 -0.1590989245
C  C50  1  0.02540000  0.07360000  0.66520000  1.0 -0.1590989245
C  C51  1  0.97460000  0.63980000  0.04820000  1.0 -0.1590989245
C  C52  1  0.59160000  0.92640000  0.95180000  1.0 -0.1590989245
C  C53  1  0.60610000  0.69730000  0.63040000  1.0 -0.2302046869
C  C54  1  0.06690000  0.97570000  0.36960000  1.0 -0.2302046869
C  C55  1  0.93310000  0.30270000  0.90880000  1.0 -0.2302046869
C  C56  1  0.39390000  0.02430000  0.09120000  1.0 -0.2302046869
C  C57  1  0.39390000  0.30270000  0.36960000  1.0 -0.2302046869
C  C58  1  0.93310000  0.02430000  0.63040000  1.0 -0.2302046869
C  C59  1  0.06690000  0.69730000  0.09120000  1.0 -0.2302046869
C  C60  1  0.60610000  0.97570000  0.90880000  1.0 -0.2302046869
C  C61  1  0.57540000  0.78910000  0.66930000  1.0 -0.0324559719
C  C62  1  0.11980000  0.90610000  0.33070000  1.0 -0.0324559719
C  C63  1  0.88020000  0.21090000  0.78630000  1.0 -0.0324559719
C  C64  1  0.42460000  0.09390000  0.21370000  1.0 -0.0324559719
C  C65  1  0.42460000  0.21090000  0.33070000  1.0 -0.0324559719
C  C66  1  0.88020000  0.09390000  0.66930000  1.0 -0.0324559719
C  C67  1  0.11980000  0.78910000  0.21370000  1.0 -0.0324559719
C  C68  1  0.57540000  0.90610000  0.78630000  1.0 -0.0324559719
C  C69  1  0.53610000  0.80700000  0.72910000  1.0 -0.1590989245
C  C70  1  0.07790000  0.80700000  0.27090000  1.0 -0.1590989245
C  C71  1  0.92210000  0.19300000  0.72910000  1.0 -0.1590989245
C  C72  1  0.46390000  0.19300000  0.27090000  1.0 -0.1590989245
C  C73  1  0.59280000  0.85110000  0.62690000  1.0 0.3691500384
C  C74  1  0.22420000  0.96590000  0.37310000  1.0 0.3691500384
C  C75  1  0.77580000  0.14890000  0.74170000  1.0 0.3691500384
C  C76  1  0.40720000  0.03410000  0.25830000  1.0 0.3691500384
C  C77  1  0.40720000  0.14890000  0.37310000  1.0 0.3691500384
C  C78  1  0.77580000  0.03410000  0.62690000  1.0 0.3691500384
C  C79  1  0.22420000  0.85110000  0.25830000  1.0 0.3691500384
C  C80  1  0.59280000  0.96590000  0.74170000  1.0 0.3691500384
C  C81  1  0.44710000  0.19990000  0.64700000  1.0 0.1302357648
C  C82  1  0.55290000  0.80010000  0.35300000  1.0 0.1302357648
C  C83  1  0.44710000  0.80010000  0.24720000  1.0 0.1302357648
C  C84  1  0.55290000  0.19990000  0.75280000  1.0 0.1302357648
N  N1  1  0.46450000  0.11090000  0.57540000  1.0 -0.2302046869
N  N2  1  0.53550000  0.88910000  0.42460000  1.0 -0.2302046869
N  N3  1  0.46450000  0.88910000  0.35360000  1.0 -0.2302046869
N  N4  1  0.53550000  0.11090000  0.64640000  1.0 -0.2302046869
O  O1  1  0.49550000  0.49090000  0.85040000  1.0 -0.4949577492
O  O2  1  0.64050000  0.64510000  0.14960000  1.0 -0.4949577492
O  O3  1  0.35950000  0.50910000  0.00460000  1.0 -0.4956345897
O  O4  1  0.50450000  0.35490000  0.99540000  1.0 -0.4949577492
O  O5  1  0.50450000  0.50910000  0.14960000  1.0 -0.4956345897
O  O6  1  0.35950000  0.35490000  0.85040000  1.0 -0.4949577492
O  O7  1  0.64050000  0.49090000  0.99540000  1.0 -0.4949577492
O  O8  1  0.49550000  0.64510000  0.00460000  1.0 -0.4949577492
O  O9  1  0.56250000  0.91620000  0.64630000  1.0 -0.1590989245
O  O10  1  0.26990000  0.91620000  0.35370000  1.0 -0.1590989245
O  O11  1  0.73010000  0.08380000  0.64630000  1.0 -0.1590989245
O  O12  1  0.43750000  0.08380000  0.35370000  1.0 -0.1590989245
O  O13  1  0.63730000  0.82840000  0.56790000  1.0 -0.3974932398
O  O14  1  0.26050000  0.06940000  0.43210000  1.0 -0.3974932398
O  O15  1  0.73950000  0.17160000  0.80890000  1.0 -0.3974932398
O  O16  1  0.36270000  0.93060000  0.19110000  1.0 -0.3974932398
O  O17  1  0.36270000  0.17160000  0.43210000  1.0 -0.3974932398
O  O18  1  0.73950000  0.93060000  0.56790000  1.0 -0.3974932398
O  O19  1  0.26050000  0.82840000  0.19110000  1.0 -0.3974932398
O  O20  1  0.63730000  0.06940000  0.80890000  1.0 -0.3974932398
O  O21  1  0.50000000  0.25790000  0.75790000  1.0 -0.19817007
O  O22  1  0.50000000  0.74210000  0.24210000  1.0 -0.19817007
