# DDEC6 charges by PACMAN v1.1 (https://github.com/mtap-research/PACMAN-charge/)
data_GIKLAR_ASR_pacman
_symmetry_space_group_name_H-M   'P 1'
_cell_length_a   21.94510000
_cell_length_b   19.54100000
_cell_length_c   17.31080000
_cell_angle_alpha   72.81140000
_cell_angle_beta   58.28590000
_cell_angle_gamma   48.90260000
_symmetry_Int_Tables_number   1
_chemical_formula_structural   FeH32AuC48(IN)6
_chemical_formula_sum   'Fe2 H64 Au2 C96 I12 N12'
_cell_volume   4744.37293866
_cell_formula_units_Z   2
loop_
 _symmetry_equiv_pos_site_id
 _symmetry_equiv_pos_as_xyz
  1  'x, y, z'
loop_
 _atom_site_type_symbol
 _atom_site_label
 _atom_site_symmetry_multiplicity
 _atom_site_fract_x
 _atom_site_fract_y
 _atom_site_fract_z
 _atom_site_occupancy
 _atom_site_charge
Fe  Fe1  1  0.75000000  0.75000000  0.75000000  1.0 0.4970556835
Fe  Fe2  1  0.25000000  0.25000000  0.25000000  1.0 0.4970556835
H  H1  1  0.93727000  0.60923000  0.73831000  1.0 0.1126690546
H  H2  1  0.60923000  0.93727000  0.71519000  1.0 0.1126690546
H  H3  1  0.73831000  0.71519000  0.93727000  1.0 0.1126690546
H  H4  1  0.71519000  0.73831000  0.60923000  1.0 0.1126690546
H  H5  1  0.06273000  0.39077000  0.26169000  1.0 0.1126690546
H  H6  1  0.39077000  0.06273000  0.28481000  1.0 0.1126690546
H  H7  1  0.26169000  0.28481000  0.06273000  1.0 0.1126690546
H  H8  1  0.28481000  0.26169000  0.39077000  1.0 0.1126690546
H  H9  1  0.76563000  0.87791000  0.77815000  1.0 0.1271292755
H  H10  1  0.87791000  0.76563000  0.57831000  1.0 0.1271292755
H  H11  1  0.77815000  0.57831000  0.76563000  1.0 0.1271292755
H  H12  1  0.57831000  0.77815000  0.87791000  1.0 0.1271292755
H  H13  1  0.23437000  0.12209000  0.22185000  1.0 0.1271292755
H  H14  1  0.12209000  0.23437000  0.42169000  1.0 0.1271292755
H  H15  1  0.22185000  0.42169000  0.23437000  1.0 0.1271292755
H  H16  1  0.42169000  0.22185000  0.12209000  1.0 0.1271292755
H  H17  1  0.04714000  0.60736000  0.73490000  1.0 0.1126690546
H  H18  1  0.60736000  0.04714000  0.61060000  1.0 0.1126690546
H  H19  1  0.73490000  0.61060000  0.04714000  1.0 0.1126690546
H  H20  1  0.61060000  0.73490000  0.60736000  1.0 0.1126690546
H  H21  1  0.95286000  0.39264000  0.26510000  1.0 0.1126690546
H  H22  1  0.39264000  0.95286000  0.38940000  1.0 0.1126690546
H  H23  1  0.26510000  0.38940000  0.95286000  1.0 0.1126690546
H  H24  1  0.38940000  0.26510000  0.39264000  1.0 0.1126690546
H  H25  1  0.86701000  0.88233000  0.77927000  1.0 0.1177743166
H  H26  1  0.88233000  0.86701000  0.47139000  1.0 0.1177743166
H  H27  1  0.77927000  0.47139000  0.86701000  1.0 0.1177743166
H  H28  1  0.47139000  0.77927000  0.88233000  1.0 0.1177743166
H  H29  1  0.13299000  0.11767000  0.22073000  1.0 0.1177743166
H  H30  1  0.11767000  0.13299000  0.52861000  1.0 0.1177743166
H  H31  1  0.22073000  0.52861000  0.13299000  1.0 0.1177743166
H  H32  1  0.52861000  0.22073000  0.11767000  1.0 0.1177743166
H  H33  1  0.15259000  0.63983000  0.65025000  1.0 0.1177743166
H  H34  1  0.63983000  0.15259000  0.55733000  1.0 0.1177743166
H  H35  1  0.65025000  0.55733000  0.15259000  1.0 0.1177743166
H  H36  1  0.55733000  0.65025000  0.63983000  1.0 0.1177743166
H  H37  1  0.84741000  0.36017000  0.34975000  1.0 0.1177743166
H  H38  1  0.36017000  0.84741000  0.44267000  1.0 0.1177743166
H  H39  1  0.34975000  0.44267000  0.84741000  1.0 0.1177743166
H  H40  1  0.44267000  0.34975000  0.36017000  1.0 0.1177743166
H  H41  1  0.25776000  0.64690000  0.63392000  1.0 0.1177743166
H  H42  1  0.64690000  0.25776000  0.46142000  1.0 0.1177743166
H  H43  1  0.63392000  0.46142000  0.25776000  1.0 0.1177743166
H  H44  1  0.46142000  0.63392000  0.64690000  1.0 0.1177743166
H  H45  1  0.74224000  0.35310000  0.36608000  1.0 0.1177743166
H  H46  1  0.35310000  0.74224000  0.53858000  1.0 0.1177743166
H  H47  1  0.36608000  0.53858000  0.74224000  1.0 0.1177743166
H  H48  1  0.53858000  0.36608000  0.35310000  1.0 0.1177743166
H  H49  1  0.95197000  0.85095000  0.84053000  1.0 0.1177743166
H  H50  1  0.85095000  0.95197000  0.35655000  1.0 0.1177743166
H  H51  1  0.84053000  0.35655000  0.95197000  1.0 0.1177743166
H  H52  1  0.35655000  0.84053000  0.85095000  1.0 0.1177743166
H  H53  1  0.04803000  0.14905000  0.15947000  1.0 0.1177743166
H  H54  1  0.14905000  0.04803000  0.64345000  1.0 0.1177743166
H  H55  1  0.15947000  0.64345000  0.04803000  1.0 0.1177743166
H  H56  1  0.64345000  0.15947000  0.14905000  1.0 0.1177743166
H  H57  1  0.06090000  0.85886000  0.82458000  1.0 0.1177743166
H  H58  1  0.85886000  0.06090000  0.25566000  1.0 0.1126690546
H  H59  1  0.82458000  0.25566000  0.06090000  1.0 0.1177743166
H  H60  1  0.25566000  0.82458000  0.85886000  1.0 0.1126690546
H  H61  1  0.93910000  0.14114000  0.17542000  1.0 0.1126690546
H  H62  1  0.14114000  0.93910000  0.74434000  1.0 0.1177743166
H  H63  1  0.17542000  0.74434000  0.93910000  1.0 0.1177743166
H  H64  1  0.74434000  0.17542000  0.14114000  1.0 0.1126690546
Au  Au1  1  0.50000000  0.00000000  0.00000000  1.0 0.3189989666
Au  Au2  1  0.00000000  0.50000000  0.50000000  1.0 0.3189989666
C  C1  1  0.92340000  0.66500000  0.74560000  1.0 0.0596066035
C  C2  1  0.66500000  0.92340000  0.66600000  1.0 0.0596066035
C  C3  1  0.74560000  0.66600000  0.92340000  1.0 0.0596066035
C  C4  1  0.66600000  0.74560000  0.66500000  1.0 0.0596066035
C  C5  1  0.07660000  0.33500000  0.25440000  1.0 0.0596066035
C  C6  1  0.33500000  0.07660000  0.33400000  1.0 0.0596066035
C  C7  1  0.25440000  0.33400000  0.07660000  1.0 0.0596066035
C  C8  1  0.33400000  0.25440000  0.33500000  1.0 0.0596066035
C  C9  1  0.59720000  0.90280000  0.90280000  1.0 0.086931538
C  C10  1  0.90280000  0.59720000  0.59720000  1.0 0.086931538
C  C11  1  0.40280000  0.09720000  0.09720000  1.0 0.086931538
C  C12  1  0.09720000  0.40280000  0.40280000  1.0 0.086931538
C  C13  1  0.82360000  0.82200000  0.76920000  1.0 0.0345385747
C  C14  1  0.82200000  0.82360000  0.58520000  1.0 0.0345385747
C  C15  1  0.76920000  0.58520000  0.82360000  1.0 0.0345385747
C  C16  1  0.58520000  0.76920000  0.82200000  1.0 0.0345385747
C  C17  1  0.17640000  0.17800000  0.23080000  1.0 0.0345385747
C  C18  1  0.17800000  0.17640000  0.41480000  1.0 0.0345385747
C  C19  1  0.23080000  0.41480000  0.17640000  1.0 0.0345385747
C  C20  1  0.41480000  0.23080000  0.17800000  1.0 0.0345385747
C  C21  1  0.23770000  0.76230000  0.71530000  1.0 -0.044565588
C  C22  1  0.76230000  0.23770000  0.28470000  1.0 -0.044565588
C  C23  1  0.71530000  0.28470000  0.23770000  1.0 -0.044565588
C  C24  1  0.28470000  0.71530000  0.76230000  1.0 -0.044565588
C  C25  1  0.98980000  0.66400000  0.74320000  1.0 -0.1786629109
C  C26  1  0.66400000  0.98980000  0.60300000  1.0 -0.1786629109
C  C27  1  0.74320000  0.60300000  0.98980000  1.0 -0.1786629109
C  C28  1  0.60300000  0.74320000  0.66400000  1.0 -0.1786629109
C  C29  1  0.01020000  0.33600000  0.25680000  1.0 -0.1786629109
C  C30  1  0.33600000  0.01020000  0.39700000  1.0 -0.1786629109
C  C31  1  0.25680000  0.39700000  0.01020000  1.0 -0.1786629109
C  C32  1  0.39700000  0.25680000  0.33600000  1.0 -0.1786629109
C  C33  1  0.88390000  0.82570000  0.76890000  1.0 -0.1786629109
C  C34  1  0.82570000  0.88390000  0.52150000  1.0 -0.1786629109
C  C35  1  0.76890000  0.52150000  0.88390000  1.0 -0.1786629109
C  C36  1  0.52150000  0.76890000  0.82570000  1.0 -0.1786629109
C  C37  1  0.11610000  0.17430000  0.23110000  1.0 -0.1786629109
C  C38  1  0.17430000  0.11610000  0.47850000  1.0 -0.1786629109
C  C39  1  0.23110000  0.47850000  0.11610000  1.0 -0.1786629109
C  C40  1  0.47850000  0.23110000  0.17430000  1.0 -0.1786629109
C  C41  1  0.04000000  0.74640000  0.74600000  1.0 0.0596066035
C  C42  1  0.74640000  0.04000000  0.46760000  1.0 0.0596066035
C  C43  1  0.74600000  0.46760000  0.04000000  1.0 0.0596066035
C  C44  1  0.46760000  0.74600000  0.74640000  1.0 0.0596066035
C  C45  1  0.96000000  0.25360000  0.25400000  1.0 0.0596066035
C  C46  1  0.25360000  0.96000000  0.53240000  1.0 0.0596066035
C  C47  1  0.25400000  0.53240000  0.96000000  1.0 0.0596066035
C  C48  1  0.53240000  0.25400000  0.25360000  1.0 0.0596066035
C  C49  1  0.16830000  0.75570000  0.72810000  1.0 0.0704605866
C  C50  1  0.75570000  0.16830000  0.34790000  1.0 0.0704605866
C  C51  1  0.72810000  0.34790000  0.16830000  1.0 0.0704605866
C  C52  1  0.34790000  0.72810000  0.75570000  1.0 0.0704605866
C  C53  1  0.83170000  0.24430000  0.27190000  1.0 0.0704605866
C  C54  1  0.24430000  0.83170000  0.65210000  1.0 0.0704605866
C  C55  1  0.27190000  0.65210000  0.83170000  1.0 0.0704605866
C  C56  1  0.65210000  0.27190000  0.24430000  1.0 0.0704605866
C  C57  1  0.13310000  0.68550000  0.68570000  1.0 -0.1299481427
C  C58  1  0.68550000  0.13310000  0.49570000  1.0 -0.1299481427
C  C59  1  0.68570000  0.49570000  0.13310000  1.0 -0.1299481427
C  C60  1  0.49570000  0.68570000  0.68550000  1.0 -0.1299481427
C  C61  1  0.86690000  0.31450000  0.31430000  1.0 -0.1299481427
C  C62  1  0.31450000  0.86690000  0.50430000  1.0 -0.1299481427
C  C63  1  0.31430000  0.50430000  0.86690000  1.0 -0.1299481427
C  C64  1  0.50430000  0.31430000  0.31450000  1.0 -0.1299481427
C  C65  1  0.19560000  0.68900000  0.67580000  1.0 -0.1520917786
C  C66  1  0.68900000  0.19560000  0.43960000  1.0 -0.1520917786
C  C67  1  0.67580000  0.43960000  0.19560000  1.0 -0.1520917786
C  C68  1  0.43960000  0.67580000  0.68900000  1.0 -0.1520917786
C  C69  1  0.80440000  0.31100000  0.32420000  1.0 -0.1520917786
C  C70  1  0.31100000  0.80440000  0.56040000  1.0 -0.1520917786
C  C71  1  0.32420000  0.56040000  0.80440000  1.0 -0.1520917786
C  C72  1  0.56040000  0.32420000  0.31100000  1.0 -0.1520917786
C  C73  1  0.01410000  0.80970000  0.79790000  1.0 -0.1389937436
C  C74  1  0.80970000  0.01410000  0.37830000  1.0 -0.1389937436
C  C75  1  0.79790000  0.37830000  0.01410000  1.0 -0.1389937436
C  C76  1  0.37830000  0.79790000  0.80970000  1.0 -0.1389937436
C  C77  1  0.98590000  0.19030000  0.20210000  1.0 -0.1389937436
C  C78  1  0.19030000  0.98590000  0.62170000  1.0 -0.1389937436
C  C79  1  0.20210000  0.62170000  0.98590000  1.0 -0.1389937436
C  C80  1  0.62170000  0.20210000  0.19030000  1.0 -0.1389937436
C  C81  1  0.97300000  0.74220000  0.75260000  1.0 0.0704605866
C  C82  1  0.74220000  0.97300000  0.53220000  1.0 0.0704605866
C  C83  1  0.75260000  0.53220000  0.97300000  1.0 0.0704605866
C  C84  1  0.53220000  0.75260000  0.74220000  1.0 0.0704605866
C  C85  1  0.02700000  0.25780000  0.24740000  1.0 0.0704605866
C  C86  1  0.25780000  0.02700000  0.46780000  1.0 0.0704605866
C  C87  1  0.24740000  0.46780000  0.02700000  1.0 0.0704605866
C  C88  1  0.46780000  0.24740000  0.25780000  1.0 0.0704605866
C  C89  1  0.07940000  0.81440000  0.78840000  1.0 -0.1520917786
C  C90  1  0.81440000  0.07940000  0.31780000  1.0 -0.1520917786
C  C91  1  0.78840000  0.31780000  0.07940000  1.0 -0.1520917786
C  C92  1  0.31780000  0.78840000  0.81440000  1.0 -0.1520917786
C  C93  1  0.92060000  0.18560000  0.21160000  1.0 -0.1520917786
C  C94  1  0.18560000  0.92060000  0.68220000  1.0 -0.1520917786
C  C95  1  0.21160000  0.68220000  0.92060000  1.0 -0.1520917786
C  C96  1  0.68220000  0.21160000  0.18560000  1.0 -0.1520917786
I  I1  1  0.60911000  0.92979000  0.07021000  1.0 -0.0985360702
I  I2  1  0.92979000  0.60911000  0.39089000  1.0 -0.0985360702
I  I3  1  0.07021000  0.39089000  0.60911000  1.0 -0.0985360702
I  I4  1  0.39089000  0.07021000  0.92979000  1.0 -0.0985360702
I  I5  1  0.62000000  0.96860000  0.03140000  1.0 -0.1389937436
I  I6  1  0.96860000  0.62000000  0.38000000  1.0 -0.1389937436
I  I7  1  0.03140000  0.38000000  0.62000000  1.0 -0.1389937436
I  I8  1  0.38000000  0.03140000  0.96860000  1.0 -0.1389937436
I  I9  1  0.59170000  0.90870000  0.09130000  1.0 -0.1624130157
I  I10  1  0.90870000  0.59170000  0.40830000  1.0 -0.1624130157
I  I11  1  0.09130000  0.40830000  0.59170000  1.0 -0.1624130157
I  I12  1  0.40830000  0.09130000  0.90870000  1.0 -0.1624130157
N  N1  1  0.84032000  0.74512000  0.75788000  1.0 -0.1668817567
N  N2  1  0.74512000  0.84032000  0.65668000  1.0 -0.1668817567
N  N3  1  0.75788000  0.65668000  0.84032000  1.0 -0.1668817567
N  N4  1  0.65668000  0.75788000  0.74512000  1.0 -0.1668817567
N  N5  1  0.15968000  0.25488000  0.24212000  1.0 -0.1668817567
N  N6  1  0.25488000  0.15968000  0.34332000  1.0 -0.1668817567
N  N7  1  0.24212000  0.34332000  0.15968000  1.0 -0.1668817567
N  N8  1  0.34332000  0.24212000  0.25488000  1.0 -0.1668817567
N  N9  1  0.65540000  0.84460000  0.84460000  1.0 -0.322702985
N  N10  1  0.84460000  0.65540000  0.65540000  1.0 -0.322702985
N  N11  1  0.34460000  0.15540000  0.15540000  1.0 -0.322702985
N  N12  1  0.15540000  0.34460000  0.34460000  1.0 -0.322702985
