# DDEC6 charges by PACMAN v1.1 (https://github.com/mtap-research/PACMAN-charge/)
data_GIKMOD04_FSR_pacman
_symmetry_space_group_name_H-M   'P 1'
_cell_length_a   7.32060000
_cell_length_b   18.24830000
_cell_length_c   12.00680000
_cell_angle_alpha   90.00000000
_cell_angle_beta   122.74000000
_cell_angle_gamma   90.00000000
_symmetry_Int_Tables_number   1
_chemical_formula_structural   Cu2H3C8SO9
_chemical_formula_sum   'Cu8 H12 C32 S4 O36'
_cell_volume   1349.15315675
_cell_formula_units_Z   4
loop_
 _symmetry_equiv_pos_site_id
 _symmetry_equiv_pos_as_xyz
  1  'x, y, z'
loop_
 _atom_site_type_symbol
 _atom_site_label
 _atom_site_symmetry_multiplicity
 _atom_site_fract_x
 _atom_site_fract_y
 _atom_site_fract_z
 _atom_site_occupancy
 _atom_site_charge
Cu  Cu1  1  0.35104000  0.09291000  0.21741000  1.0 1.1801885202
Cu  Cu2  1  0.64896000  0.59291000  0.28259000  1.0 1.1801885202
Cu  Cu3  1  0.64896000  0.90709000  0.78259000  1.0 1.1801885202
Cu  Cu4  1  0.35104000  0.40709000  0.71741000  1.0 1.1801885202
Cu  Cu5  1  0.88466000  0.06849000  0.93517000  1.0 1.1453754588
Cu  Cu6  1  0.11534000  0.56849000  0.56483000  1.0 1.1453754588
Cu  Cu7  1  0.11534000  0.93151000  0.06483000  1.0 1.1453754588
Cu  Cu8  1  0.88466000  0.43151000  0.43517000  1.0 1.1453754588
H  H1  1  0.37820000  0.30560000  0.16940000  1.0 0.1412041801
H  H2  1  0.62180000  0.80560000  0.33060000  1.0 0.1412041801
H  H3  1  0.62180000  0.69440000  0.83060000  1.0 0.1412041801
H  H4  1  0.37820000  0.19440000  0.66940000  1.0 0.1412041801
H  H5  1  0.84910000  0.29300000  0.80060000  1.0 0.1455808863
H  H6  1  0.15090000  0.79300000  0.69940000  1.0 0.1412041801
H  H7  1  0.15090000  0.70700000  0.19940000  1.0 0.1455808863
H  H8  1  0.84910000  0.20700000  0.30060000  1.0 0.1455808863
H  H9  1  0.15410000  0.48710000  0.94360000  1.0 0.1412041801
H  H10  1  0.84590000  0.98710000  0.55640000  1.0 0.1412041801
H  H11  1  0.84590000  0.51290000  0.05640000  1.0 0.1412041801
H  H12  1  0.15410000  0.01290000  0.44360000  1.0 0.1412041801
C  C1  1  0.98190000  0.39522000  0.85320000  1.0 -0.0490561609
C  C2  1  0.01810000  0.89522000  0.64680000  1.0 -0.0490561609
C  C3  1  0.01810000  0.60478000  0.14680000  1.0 -0.0490561609
C  C4  1  0.98190000  0.10478000  0.35320000  1.0 -0.0490561609
C  C5  1  0.29470000  0.40313000  0.07570000  1.0 -0.0043120931
C  C6  1  0.70530000  0.90313000  0.42430000  1.0 -0.0043120931
C  C7  1  0.70530000  0.59687000  0.92430000  1.0 -0.0043120931
C  C8  1  0.29470000  0.09687000  0.57570000  1.0 -0.0043120931
C  C9  1  0.27720000  0.32832000  0.08990000  1.0 -0.0609748081
C  C10  1  0.72280000  0.82832000  0.41010000  1.0 -0.0609748081
C  C11  1  0.72280000  0.67168000  0.91010000  1.0 -0.0609748081
C  C12  1  0.27720000  0.17168000  0.58990000  1.0 -0.0609748081
C  C13  1  0.11220000  0.28664000  0.98800000  1.0 0.0008788159
C  C14  1  0.88780000  0.78664000  0.51200000  1.0 0.0008788159
C  C15  1  0.88780000  0.71336000  0.01200000  1.0 0.0008788159
C  C16  1  0.11220000  0.21336000  0.48800000  1.0 0.0008788159
C  C17  1  0.10320000  0.20642000  0.01090000  1.0 0.6099982246
C  C18  1  0.89680000  0.70642000  0.48910000  1.0 0.6099982246
C  C19  1  0.89680000  0.79358000  0.98910000  1.0 0.6099982246
C  C20  1  0.10320000  0.29358000  0.51090000  1.0 0.6099982246
C  C21  1  0.96170000  0.32002000  0.86900000  1.0 -0.0709077536
C  C22  1  0.03830000  0.82002000  0.63100000  1.0 -0.0709077536
C  C23  1  0.03830000  0.67998000  0.13100000  1.0 -0.0709077536
C  C24  1  0.96170000  0.17998000  0.36900000  1.0 -0.0709077536
C  C25  1  0.14460000  0.43717000  0.95510000  1.0 -0.0709077536
C  C26  1  0.85540000  0.93717000  0.54490000  1.0 -0.0709077536
C  C27  1  0.85540000  0.56283000  0.04490000  1.0 -0.0709077536
C  C28  1  0.14460000  0.06283000  0.45510000  1.0 -0.0709077536
C  C29  1  0.47730000  0.44479000  0.18750000  1.0 0.6012817755
C  C30  1  0.52270000  0.94479000  0.31250000  1.0 0.6012817755
C  C31  1  0.52270000  0.55521000  0.81250000  1.0 0.6012817755
C  C32  1  0.47730000  0.05521000  0.68750000  1.0 0.6012817755
S  S1  1  0.80952000  0.43372000  0.69499000  1.0 1.1801885202
S  S2  1  0.19048000  0.93372000  0.80501000  1.0 1.1801885202
S  S3  1  0.19048000  0.56628000  0.30501000  1.0 1.1801885202
S  S4  1  0.80952000  0.06628000  0.19499000  1.0 1.1801885202
O  O1  1  0.96170000  0.16777000  0.91600000  1.0 -0.4899887117
O  O2  1  0.03830000  0.66777000  0.58400000  1.0 -0.5021086708
O  O3  1  0.03830000  0.83223000  0.08400000  1.0 -0.4899887117
O  O4  1  0.96170000  0.33223000  0.41600000  1.0 -0.4899887117
O  O5  1  0.18590000  0.03517000  0.05400000  1.0 -0.8915589616
O  O6  1  0.81410000  0.53517000  0.44600000  1.0 -0.8915589616
O  O7  1  0.81410000  0.96483000  0.94600000  1.0 -0.8915589616
O  O8  1  0.18590000  0.46483000  0.55400000  1.0 -0.8915589616
O  O9  1  0.50420000  0.51029000  0.16640000  1.0 -0.5021086708
O  O10  1  0.49580000  0.01029000  0.33360000  1.0 -0.5021086708
O  O11  1  0.49580000  0.48971000  0.83360000  1.0 -0.5021086708
O  O12  1  0.50420000  0.98971000  0.66640000  1.0 -0.5021086708
O  O13  1  0.24220000  0.18494000  0.12660000  1.0 -0.4786289722
O  O14  1  0.75780000  0.68494000  0.37340000  1.0 -0.4786289722
O  O15  1  0.75780000  0.81506000  0.87340000  1.0 -0.4786289722
O  O16  1  0.24220000  0.31506000  0.62660000  1.0 -0.4786289722
O  O17  1  0.81710000  0.51258000  0.70730000  1.0 -0.4786289722
O  O18  1  0.18290000  0.01258000  0.79270000  1.0 -0.4786289722
O  O19  1  0.18290000  0.48742000  0.29270000  1.0 -0.4786289722
O  O20  1  0.81710000  0.98742000  0.20730000  1.0 -0.4786289722
O  O21  1  0.59250000  0.40956000  0.29460000  1.0 -0.4899887117
O  O22  1  0.40750000  0.90956000  0.20540000  1.0 -0.4899887117
O  O23  1  0.40750000  0.59044000  0.70540000  1.0 -0.4899887117
O  O24  1  0.59250000  0.09044000  0.79460000  1.0 -0.4899887117
O  O25  1  0.90110000  0.40655000  0.62090000  1.0 -0.6377562598
O  O26  1  0.09890000  0.90655000  0.87910000  1.0 -0.6377562598
O  O27  1  0.09890000  0.59345000  0.37910000  1.0 -0.6377562598
O  O28  1  0.90110000  0.09345000  0.12090000  1.0 -0.6377562598
O  O29  1  0.59390000  0.40277000  0.64270000  1.0 -0.5497416869
O  O30  1  0.40610000  0.90277000  0.85730000  1.0 -0.5497416869
O  O31  1  0.40610000  0.59723000  0.35730000  1.0 -0.5497416869
O  O32  1  0.59390000  0.09723000  0.14270000  1.0 -0.5497416869
O  O33  1  0.49050000  0.15145000  0.38000000  1.0 -0.3634450749
O  O34  1  0.50950000  0.65145000  0.12000000  1.0 -0.3684741473
O  O35  1  0.50950000  0.84855000  0.62000000  1.0 -0.3684741473
O  O36  1  0.49050000  0.34855000  0.88000000  1.0 -0.3684741473
