# DDEC6 charges by PACMAN v1.1 (https://github.com/mtap-research/PACMAN-charge/)
data_GIKMOD09_FSR_pacman
_symmetry_space_group_name_H-M   'P 1'
_cell_length_a   7.34130000
_cell_length_b   18.17500000
_cell_length_c   12.07480000
_cell_angle_alpha   90.00000000
_cell_angle_beta   122.99900000
_cell_angle_gamma   90.00000000
_symmetry_Int_Tables_number   1
_chemical_formula_structural   Cu2H3C8SO9
_chemical_formula_sum   'Cu8 H12 C32 S4 O36'
_cell_volume   1351.21252413
_cell_formula_units_Z   4
loop_
 _symmetry_equiv_pos_site_id
 _symmetry_equiv_pos_as_xyz
  1  'x, y, z'
loop_
 _atom_site_type_symbol
 _atom_site_label
 _atom_site_symmetry_multiplicity
 _atom_site_fract_x
 _atom_site_fract_y
 _atom_site_fract_z
 _atom_site_occupancy
 _atom_site_charge
Cu  Cu1  1  0.35142000  0.09435000  0.21779000  1.0 1.1743012259
Cu  Cu2  1  0.64858000  0.59435000  0.28221000  1.0 1.1743012259
Cu  Cu3  1  0.64858000  0.90565000  0.78221000  1.0 1.1743012259
Cu  Cu4  1  0.35142000  0.40565000  0.71779000  1.0 1.1743012259
Cu  Cu5  1  0.88659000  0.06843000  0.93247000  1.0 1.14410745
Cu  Cu6  1  0.11341000  0.56843000  0.56753000  1.0 1.14410745
Cu  Cu7  1  0.11341000  0.93157000  0.06753000  1.0 1.14410745
Cu  Cu8  1  0.88659000  0.43157000  0.43247000  1.0 1.14410745
H  H1  1  0.38280000  0.30680000  0.16550000  1.0 0.1408965454
H  H2  1  0.61720000  0.80680000  0.33450000  1.0 0.1408965454
H  H3  1  0.61720000  0.69320000  0.83450000  1.0 0.1408965454
H  H4  1  0.38280000  0.19320000  0.66550000  1.0 0.1408965454
H  H5  1  0.85330000  0.29330000  0.79680000  1.0 0.1408965454
H  H6  1  0.14670000  0.79330000  0.70320000  1.0 0.1408965454
H  H7  1  0.14670000  0.70670000  0.20320000  1.0 0.1408965454
H  H8  1  0.85330000  0.20670000  0.29680000  1.0 0.1408965454
H  H9  1  0.15840000  0.48820000  0.93800000  1.0 0.1408965454
H  H10  1  0.84160000  0.98820000  0.56200000  1.0 0.1408965454
H  H11  1  0.84160000  0.51180000  0.06200000  1.0 0.1408965454
H  H12  1  0.15840000  0.01180000  0.43800000  1.0 0.1408965454
C  C1  1  0.98570000  0.39551000  0.84930000  1.0 -0.0472441592
C  C2  1  0.01430000  0.89551000  0.65070000  1.0 -0.0472441592
C  C3  1  0.01430000  0.60449000  0.15070000  1.0 -0.0472441592
C  C4  1  0.98570000  0.10449000  0.34930000  1.0 -0.0472441592
C  C5  1  0.29710000  0.40446000  0.07030000  1.0 -0.007099848
C  C6  1  0.70290000  0.90446000  0.42970000  1.0 -0.007099848
C  C7  1  0.70290000  0.59554000  0.92970000  1.0 -0.007099848
C  C8  1  0.29710000  0.09554000  0.57030000  1.0 -0.007099848
C  C9  1  0.28090000  0.32932000  0.08610000  1.0 -0.0666128841
C  C10  1  0.71910000  0.82932000  0.41390000  1.0 -0.0666128841
C  C11  1  0.71910000  0.67068000  0.91390000  1.0 -0.0666128841
C  C12  1  0.28090000  0.17068000  0.58610000  1.0 -0.0666128841
C  C13  1  0.11510000  0.28762000  0.98510000  1.0 -0.0013178796
C  C14  1  0.88490000  0.78762000  0.51490000  1.0 0.000115225
C  C15  1  0.88490000  0.71238000  0.01490000  1.0 0.000115225
C  C16  1  0.11510000  0.21238000  0.48510000  1.0 0.000115225
C  C17  1  0.10450000  0.20712000  0.00900000  1.0 0.6107682626
C  C18  1  0.89550000  0.70712000  0.49100000  1.0 0.6107682626
C  C19  1  0.89550000  0.79288000  0.99100000  1.0 0.6107682626
C  C20  1  0.10450000  0.29288000  0.50900000  1.0 0.6107682626
C  C21  1  0.96520000  0.32066000  0.86520000  1.0 -0.0760322481
C  C22  1  0.03480000  0.82066000  0.63480000  1.0 -0.0760322481
C  C23  1  0.03480000  0.67934000  0.13480000  1.0 -0.0760322481
C  C24  1  0.96520000  0.17934000  0.36520000  1.0 -0.0760322481
C  C25  1  0.14860000  0.43820000  0.95030000  1.0 -0.0760322481
C  C26  1  0.85140000  0.93820000  0.54970000  1.0 -0.0760322481
C  C27  1  0.85140000  0.56180000  0.04970000  1.0 -0.0760322481
C  C28  1  0.14860000  0.06180000  0.45030000  1.0 -0.0760322481
C  C29  1  0.48030000  0.44620000  0.18230000  1.0 0.5999605547
C  C30  1  0.51970000  0.94620000  0.31770000  1.0 0.5999605547
C  C31  1  0.51970000  0.55380000  0.81770000  1.0 0.5999605547
C  C32  1  0.48030000  0.05380000  0.68230000  1.0 0.5999605547
S  S1  1  0.80883000  0.43448000  0.69083000  1.0 1.1743012259
S  S2  1  0.19117000  0.93448000  0.80917000  1.0 1.1743012259
S  S3  1  0.19117000  0.56552000  0.30917000  1.0 1.1743012259
S  S4  1  0.80883000  0.06552000  0.19083000  1.0 1.1743012259
O  O1  1  0.96458000  0.16797000  0.91498000  1.0 -0.4882580114
O  O2  1  0.03542000  0.66797000  0.58502000  1.0 -0.4882580114
O  O3  1  0.03542000  0.83203000  0.08502000  1.0 -0.4882580114
O  O4  1  0.96458000  0.33203000  0.41498000  1.0 -0.4882580114
O  O5  1  0.18627000  0.03504000  0.05717000  1.0 -0.8894063343
O  O6  1  0.81373000  0.53504000  0.44283000  1.0 -0.8894063343
O  O7  1  0.81373000  0.96496000  0.94283000  1.0 -0.8894063343
O  O8  1  0.18627000  0.46496000  0.55717000  1.0 -0.8894063343
O  O9  1  0.50410000  0.51243000  0.16280000  1.0 -0.4994471778
O  O10  1  0.49590000  0.01243000  0.33720000  1.0 -0.4994471778
O  O11  1  0.49590000  0.48757000  0.83720000  1.0 -0.4994471778
O  O12  1  0.50410000  0.98757000  0.66280000  1.0 -0.4994471778
O  O13  1  0.24179000  0.18615000  0.12529000  1.0 -0.4817900469
O  O14  1  0.75821000  0.68615000  0.37471000  1.0 -0.4817900469
O  O15  1  0.75821000  0.81385000  0.87471000  1.0 -0.4817900469
O  O16  1  0.24179000  0.31385000  0.62529000  1.0 -0.4817900469
O  O17  1  0.82320000  0.51271000  0.70210000  1.0 -0.4724389871
O  O18  1  0.17680000  0.01271000  0.79790000  1.0 -0.4724389871
O  O19  1  0.17680000  0.48729000  0.29790000  1.0 -0.4724389871
O  O20  1  0.82320000  0.98729000  0.20210000  1.0 -0.4724389871
O  O21  1  0.59720000  0.41032000  0.28740000  1.0 -0.4882580114
O  O22  1  0.40280000  0.91032000  0.21260000  1.0 -0.4882580114
O  O23  1  0.40280000  0.58968000  0.71260000  1.0 -0.4882580114
O  O24  1  0.59720000  0.08968000  0.78740000  1.0 -0.4882580114
O  O25  1  0.88830000  0.40426000  0.61390000  1.0 -0.6218985428
O  O26  1  0.11170000  0.90426000  0.88610000  1.0 -0.6218985428
O  O27  1  0.11170000  0.59574000  0.38610000  1.0 -0.6218985428
O  O28  1  0.88830000  0.09574000  0.11390000  1.0 -0.6218985428
O  O29  1  0.59290000  0.40505000  0.64260000  1.0 -0.5418085416
O  O30  1  0.40710000  0.90505000  0.85740000  1.0 -0.5418085416
O  O31  1  0.40710000  0.59495000  0.35740000  1.0 -0.5418085416
O  O32  1  0.59290000  0.09495000  0.14260000  1.0 -0.5418085416
O  O33  1  0.49390000  0.15468000  0.37780000  1.0 -0.3695582633
O  O34  1  0.50610000  0.65468000  0.12220000  1.0 -0.3695582633
O  O35  1  0.50610000  0.84532000  0.62220000  1.0 -0.3695582633
O  O36  1  0.49390000  0.34532000  0.87780000  1.0 -0.3695582633
