# DDEC6 charges by PACMAN v1.1 (https://github.com/mtap-research/PACMAN-charge/)
data_GIKMOD02_FSR_pacman
_symmetry_space_group_name_H-M   'P 1'
_cell_length_a   7.30330000
_cell_length_b   18.26100000
_cell_length_c   11.97560000
_cell_angle_alpha   90.00000000
_cell_angle_beta   122.58000000
_cell_angle_gamma   90.00000000
_symmetry_Int_Tables_number   1
_chemical_formula_structural   Cu2H3C8SO9
_chemical_formula_sum   'Cu8 H12 C32 S4 O36'
_cell_volume   1345.80848574
_cell_formula_units_Z   4
loop_
 _symmetry_equiv_pos_site_id
 _symmetry_equiv_pos_as_xyz
  1  'x, y, z'
loop_
 _atom_site_type_symbol
 _atom_site_label
 _atom_site_symmetry_multiplicity
 _atom_site_fract_x
 _atom_site_fract_y
 _atom_site_fract_z
 _atom_site_occupancy
 _atom_site_charge
Cu  Cu1  1  0.35082000  0.09261000  0.21719000  1.0 1.1790485008
Cu  Cu2  1  0.64918000  0.59261000  0.28281000  1.0 1.1790485008
Cu  Cu3  1  0.64918000  0.90739000  0.78281000  1.0 1.1790485008
Cu  Cu4  1  0.35082000  0.40739000  0.71719000  1.0 1.1790485008
Cu  Cu5  1  0.88440000  0.06849000  0.93558000  1.0 1.1415184213
Cu  Cu6  1  0.11560000  0.56849000  0.56442000  1.0 1.1415184213
Cu  Cu7  1  0.11560000  0.93151000  0.06442000  1.0 1.1415184213
Cu  Cu8  1  0.88440000  0.43151000  0.43558000  1.0 1.1415184213
H  H1  1  0.37910000  0.30500000  0.17050000  1.0 0.1380266918
H  H2  1  0.62090000  0.80500000  0.32950000  1.0 0.1380266918
H  H3  1  0.62090000  0.69500000  0.82950000  1.0 0.1380266918
H  H4  1  0.37910000  0.19500000  0.67050000  1.0 0.1380266918
H  H5  1  0.84790000  0.29320000  0.80080000  1.0 0.1459983436
H  H6  1  0.15210000  0.79320000  0.69920000  1.0 0.1459983436
H  H7  1  0.15210000  0.70680000  0.19920000  1.0 0.1459983436
H  H8  1  0.84790000  0.20680000  0.30080000  1.0 0.1459983436
H  H9  1  0.15480000  0.48680000  0.94420000  1.0 0.1459983436
H  H10  1  0.84520000  0.98680000  0.55580000  1.0 0.1459983436
H  H11  1  0.84520000  0.51320000  0.05580000  1.0 0.1459983436
H  H12  1  0.15480000  0.01320000  0.44420000  1.0 0.1459983436
C  C1  1  0.98180000  0.39514000  0.85500000  1.0 -0.0495881068
C  C2  1  0.01820000  0.89514000  0.64500000  1.0 -0.0495881068
C  C3  1  0.01820000  0.60486000  0.14500000  1.0 -0.0495881068
C  C4  1  0.98180000  0.10486000  0.35500000  1.0 -0.0495881068
C  C5  1  0.29400000  0.40287000  0.07640000  1.0 -0.0020999258
C  C6  1  0.70600000  0.90287000  0.42360000  1.0 -0.0020999258
C  C7  1  0.70600000  0.59713000  0.92360000  1.0 -0.0020999258
C  C8  1  0.29400000  0.09713000  0.57640000  1.0 -0.0020999258
C  C9  1  0.27790000  0.32780000  0.09130000  1.0 -0.061367415
C  C10  1  0.72210000  0.82780000  0.40870000  1.0 -0.061367415
C  C11  1  0.72210000  0.67220000  0.90870000  1.0 -0.061367415
C  C12  1  0.27790000  0.17220000  0.59130000  1.0 -0.061367415
C  C13  1  0.11150000  0.28653000  0.98860000  1.0 -0.0020999258
C  C14  1  0.88850000  0.78653000  0.51140000  1.0 -0.0020999258
C  C15  1  0.88850000  0.71347000  0.01140000  1.0 -0.0020999258
C  C16  1  0.11150000  0.21347000  0.48860000  1.0 -0.0020999258
C  C17  1  0.10330000  0.20627000  0.01140000  1.0 0.6090287043
C  C18  1  0.89670000  0.70627000  0.48860000  1.0 0.6090287043
C  C19  1  0.89670000  0.79373000  0.98860000  1.0 0.6090287043
C  C20  1  0.10330000  0.29373000  0.51140000  1.0 0.6090287043
C  C21  1  0.96050000  0.32006000  0.86940000  1.0 -0.0736471528
C  C22  1  0.03950000  0.82006000  0.63060000  1.0 -0.0736471528
C  C23  1  0.03950000  0.67994000  0.13060000  1.0 -0.0736471528
C  C24  1  0.96050000  0.17994000  0.36940000  1.0 -0.0736471528
C  C25  1  0.14460000  0.43694000  0.95600000  1.0 -0.0736471528
C  C26  1  0.85540000  0.93694000  0.54400000  1.0 -0.0736471528
C  C27  1  0.85540000  0.56306000  0.04400000  1.0 -0.0736471528
C  C28  1  0.14460000  0.06306000  0.45600000  1.0 -0.0736471528
C  C29  1  0.47690000  0.44434000  0.18850000  1.0 0.5997351481
C  C30  1  0.52310000  0.94434000  0.31150000  1.0 0.5997351481
C  C31  1  0.52310000  0.55566000  0.81150000  1.0 0.5997351481
C  C32  1  0.47690000  0.05566000  0.68850000  1.0 0.5997351481
S  S1  1  0.80999000  0.43364000  0.69587000  1.0 1.1790485008
S  S2  1  0.19001000  0.93364000  0.80413000  1.0 1.1790485008
S  S3  1  0.19001000  0.56636000  0.30413000  1.0 1.1790485008
S  S4  1  0.80999000  0.06636000  0.19587000  1.0 1.1790485008
O  O1  1  0.96095000  0.16763000  0.91615000  1.0 -0.5007413329
O  O2  1  0.03905000  0.66763000  0.58385000  1.0 -0.5007413329
O  O3  1  0.03905000  0.83237000  0.08385000  1.0 -0.5007413329
O  O4  1  0.96095000  0.33237000  0.41615000  1.0 -0.5007413329
O  O5  1  0.18604000  0.03497000  0.05324000  1.0 -0.8897700982
O  O6  1  0.81396000  0.53497000  0.44676000  1.0 -0.8897700982
O  O7  1  0.81396000  0.96503000  0.94676000  1.0 -0.8897700982
O  O8  1  0.18604000  0.46503000  0.55324000  1.0 -0.8897700982
O  O9  1  0.50434000  0.50976000  0.16704000  1.0 -0.5007413329
O  O10  1  0.49566000  0.00976000  0.33296000  1.0 -0.5007413329
O  O11  1  0.49566000  0.49024000  0.83296000  1.0 -0.5007413329
O  O12  1  0.50434000  0.99024000  0.66704000  1.0 -0.5007413329
O  O13  1  0.24292000  0.18453000  0.12692000  1.0 -0.4804482362
O  O14  1  0.75708000  0.68453000  0.37308000  1.0 -0.4804482362
O  O15  1  0.75708000  0.81547000  0.87308000  1.0 -0.4804482362
O  O16  1  0.24292000  0.31547000  0.62692000  1.0 -0.4804482362
O  O17  1  0.81634000  0.51254000  0.70824000  1.0 -0.4804482362
O  O18  1  0.18366000  0.01254000  0.79176000  1.0 -0.4804482362
O  O19  1  0.18366000  0.48746000  0.29176000  1.0 -0.4804482362
O  O20  1  0.81634000  0.98746000  0.20824000  1.0 -0.4804482362
O  O21  1  0.59158000  0.40936000  0.29588000  1.0 -0.4804482362
O  O22  1  0.40842000  0.90936000  0.20412000  1.0 -0.4804482362
O  O23  1  0.40842000  0.59064000  0.70412000  1.0 -0.4804482362
O  O24  1  0.59158000  0.09064000  0.79588000  1.0 -0.4804482362
O  O25  1  0.90385000  0.40682000  0.62255000  1.0 -0.6354229079
O  O26  1  0.09615000  0.90682000  0.87745000  1.0 -0.6354229079
O  O27  1  0.09615000  0.59318000  0.37745000  1.0 -0.6354229079
O  O28  1  0.90385000  0.09318000  0.12255000  1.0 -0.6354229079
O  O29  1  0.59419000  0.40223000  0.64249000  1.0 -0.5511593001
O  O30  1  0.40581000  0.90223000  0.85751000  1.0 -0.5511593001
O  O31  1  0.40581000  0.59777000  0.35751000  1.0 -0.5511593001
O  O32  1  0.59419000  0.09777000  0.14249000  1.0 -0.5511593001
O  O33  1  0.48999000  0.15074000  0.38109000  1.0 -0.3567732946
O  O34  1  0.51001000  0.65074000  0.11891000  1.0 -0.3567732946
O  O35  1  0.51001000  0.84926000  0.61891000  1.0 -0.3567732946
O  O36  1  0.48999000  0.34926000  0.88109000  1.0 -0.3567732946
