# DDEC6 charges by PACMAN v1.1 (https://github.com/mtap-research/PACMAN-charge/)
data_GIKMOD06_FSR_pacman
_symmetry_space_group_name_H-M   'P 1'
_cell_length_a   7.35500000
_cell_length_b   18.21500000
_cell_length_c   12.05970000
_cell_angle_alpha   90.00000000
_cell_angle_beta   122.94300000
_cell_angle_gamma   90.00000000
_symmetry_Int_Tables_number   1
_chemical_formula_structural   Cu2H3C8SO9
_chemical_formula_sum   'Cu8 H12 C32 S4 O36'
_cell_volume   1355.87618279
_cell_formula_units_Z   4
loop_
 _symmetry_equiv_pos_site_id
 _symmetry_equiv_pos_as_xyz
  1  'x, y, z'
loop_
 _atom_site_type_symbol
 _atom_site_label
 _atom_site_symmetry_multiplicity
 _atom_site_fract_x
 _atom_site_fract_y
 _atom_site_fract_z
 _atom_site_occupancy
 _atom_site_charge
Cu  Cu1  1  0.35110000  0.09336000  0.21767000  1.0 1.1744332444
Cu  Cu2  1  0.64890000  0.59336000  0.28233000  1.0 1.1744332444
Cu  Cu3  1  0.64890000  0.90664000  0.78233000  1.0 1.1744332444
Cu  Cu4  1  0.35110000  0.40664000  0.71767000  1.0 1.1744332444
Cu  Cu5  1  0.88512000  0.06848000  0.93435000  1.0 1.1419353616
Cu  Cu6  1  0.11488000  0.56848000  0.56565000  1.0 1.1419353616
Cu  Cu7  1  0.11488000  0.93152000  0.06565000  1.0 1.1419353616
Cu  Cu8  1  0.88512000  0.43152000  0.43435000  1.0 1.1419353616
H  H1  1  0.37920000  0.30580000  0.16840000  1.0 0.1397288509
H  H2  1  0.62080000  0.80580000  0.33160000  1.0 0.1397288509
H  H3  1  0.62080000  0.69420000  0.83160000  1.0 0.1397288509
H  H4  1  0.37920000  0.19420000  0.66840000  1.0 0.1397288509
H  H5  1  0.85020000  0.29310000  0.79920000  1.0 0.1454250794
H  H6  1  0.14980000  0.79310000  0.70080000  1.0 0.1454250794
H  H7  1  0.14980000  0.70690000  0.20080000  1.0 0.1454250794
H  H8  1  0.85020000  0.20690000  0.29920000  1.0 0.1454250794
H  H9  1  0.15490000  0.48710000  0.94140000  1.0 0.1397288509
H  H10  1  0.84510000  0.98710000  0.55860000  1.0 0.1397288509
H  H11  1  0.84510000  0.51290000  0.05860000  1.0 0.1397288509
H  H12  1  0.15490000  0.01290000  0.44140000  1.0 0.1454250794
C  C1  1  0.98290000  0.39512000  0.85170000  1.0 -0.0501121375
C  C2  1  0.01710000  0.89512000  0.64830000  1.0 -0.0501121375
C  C3  1  0.01710000  0.60488000  0.14830000  1.0 -0.0501121375
C  C4  1  0.98290000  0.10488000  0.35170000  1.0 -0.0501121375
C  C5  1  0.29560000  0.40357000  0.07350000  1.0 -0.0071073085
C  C6  1  0.70440000  0.90357000  0.42650000  1.0 -0.0071073085
C  C7  1  0.70440000  0.59643000  0.92650000  1.0 -0.0071073085
C  C8  1  0.29560000  0.09643000  0.57350000  1.0 -0.0071073085
C  C9  1  0.27850000  0.32843000  0.08890000  1.0 -0.0597298685
C  C10  1  0.72150000  0.82843000  0.41110000  1.0 -0.0597298685
C  C11  1  0.72150000  0.67157000  0.91110000  1.0 -0.0597298685
C  C12  1  0.27850000  0.17157000  0.58890000  1.0 -0.0597298685
C  C13  1  0.11280000  0.28681000  0.98690000  1.0 0.0004152239
C  C14  1  0.88720000  0.78681000  0.51310000  1.0 -0.0007302129
C  C15  1  0.88720000  0.71319000  0.01310000  1.0 -0.0007302129
C  C16  1  0.11280000  0.21319000  0.48690000  1.0 -0.0007302129
C  C17  1  0.10370000  0.20663000  0.01080000  1.0 0.6102137696
C  C18  1  0.89630000  0.70663000  0.48920000  1.0 0.6102137696
C  C19  1  0.89630000  0.79337000  0.98920000  1.0 0.6102137696
C  C20  1  0.10370000  0.29337000  0.51080000  1.0 0.6102137696
C  C21  1  0.96250000  0.32021000  0.86750000  1.0 -0.0705758799
C  C22  1  0.03750000  0.82021000  0.63250000  1.0 -0.0705758799
C  C23  1  0.03750000  0.67979000  0.13250000  1.0 -0.0705758799
C  C24  1  0.96250000  0.17979000  0.36750000  1.0 -0.0705758799
C  C25  1  0.14560000  0.43709000  0.95320000  1.0 -0.0705758799
C  C26  1  0.85440000  0.93709000  0.54680000  1.0 -0.0705758799
C  C27  1  0.85440000  0.56291000  0.04680000  1.0 -0.0705758799
C  C28  1  0.14560000  0.06291000  0.45320000  1.0 -0.0705758799
C  C29  1  0.47810000  0.44509000  0.18550000  1.0 0.6009988021
C  C30  1  0.52190000  0.94509000  0.31450000  1.0 0.6009988021
C  C31  1  0.52190000  0.55491000  0.81450000  1.0 0.6009988021
C  C32  1  0.47810000  0.05491000  0.68550000  1.0 0.6009988021
S  S1  1  0.80896000  0.43386000  0.69354000  1.0 1.1789279115
S  S2  1  0.19104000  0.93386000  0.80646000  1.0 1.1789279115
S  S3  1  0.19104000  0.56614000  0.30646000  1.0 1.1789279115
S  S4  1  0.80896000  0.06614000  0.19354000  1.0 1.1789279115
O  O1  1  0.96220000  0.16771000  0.91560000  1.0 -0.4999316017
O  O2  1  0.03780000  0.66771000  0.58440000  1.0 -0.4999316017
O  O3  1  0.03780000  0.83229000  0.08440000  1.0 -0.4999316017
O  O4  1  0.96220000  0.33229000  0.41560000  1.0 -0.4999316017
O  O5  1  0.18597000  0.03516000  0.05477000  1.0 -0.8922718483
O  O6  1  0.81403000  0.53516000  0.44523000  1.0 -0.8922718483
O  O7  1  0.81403000  0.96484000  0.94523000  1.0 -0.8922718483
O  O8  1  0.18597000  0.46484000  0.55477000  1.0 -0.8922718483
O  O9  1  0.50390000  0.51109000  0.16490000  1.0 -0.4999316017
O  O10  1  0.49610000  0.01109000  0.33510000  1.0 -0.4999316017
O  O11  1  0.49610000  0.48891000  0.83510000  1.0 -0.4999316017
O  O12  1  0.50390000  0.98891000  0.66490000  1.0 -0.4999316017
O  O13  1  0.24150000  0.18521000  0.12620000  1.0 -0.4786725857
O  O14  1  0.75850000  0.68521000  0.37380000  1.0 -0.4786725857
O  O15  1  0.75850000  0.81479000  0.87380000  1.0 -0.4786725857
O  O16  1  0.24150000  0.31479000  0.62620000  1.0 -0.4786725857
O  O17  1  0.81850000  0.51284000  0.70570000  1.0 -0.4786725857
O  O18  1  0.18150000  0.01284000  0.79430000  1.0 -0.4786725857
O  O19  1  0.18150000  0.48716000  0.29430000  1.0 -0.4745714832
O  O20  1  0.81850000  0.98716000  0.20570000  1.0 -0.4745714832
O  O21  1  0.59390000  0.40967000  0.29310000  1.0 -0.4900090265
O  O22  1  0.40610000  0.90967000  0.20690000  1.0 -0.4900090265
O  O23  1  0.40610000  0.59033000  0.70690000  1.0 -0.4900090265
O  O24  1  0.59390000  0.09033000  0.79310000  1.0 -0.4900090265
O  O25  1  0.89670000  0.40586000  0.61890000  1.0 -0.6325670946
O  O26  1  0.10330000  0.90586000  0.88110000  1.0 -0.6325670946
O  O27  1  0.10330000  0.59414000  0.38110000  1.0 -0.6325670946
O  O28  1  0.89670000  0.09414000  0.11890000  1.0 -0.6325670946
O  O29  1  0.59370000  0.40326000  0.64240000  1.0 -0.546728136
O  O30  1  0.40630000  0.90326000  0.85760000  1.0 -0.546728136
O  O31  1  0.40630000  0.59674000  0.35760000  1.0 -0.546728136
O  O32  1  0.59370000  0.09674000  0.14240000  1.0 -0.546728136
O  O33  1  0.49210000  0.15241000  0.37990000  1.0 -0.3575370703
O  O34  1  0.50790000  0.65241000  0.12010000  1.0 -0.3575370703
O  O35  1  0.50790000  0.84759000  0.62010000  1.0 -0.3575370703
O  O36  1  0.49210000  0.34759000  0.87990000  1.0 -0.3575370703
