# DDEC6 charges by PACMAN v1.1 (https://github.com/mtap-research/PACMAN-charge/)
data_GIKMOD08_FSR_pacman
_symmetry_space_group_name_H-M   'P 1'
_cell_length_a   7.33780000
_cell_length_b   18.20100000
_cell_length_c   12.05630000
_cell_angle_alpha   90.00000000
_cell_angle_beta   122.96800000
_cell_angle_gamma   90.00000000
_symmetry_Int_Tables_number   1
_chemical_formula_structural   Cu2H3C8SO9
_chemical_formula_sum   'Cu8 H12 C32 S4 O36'
_cell_volume   1350.90245132
_cell_formula_units_Z   4
loop_
 _symmetry_equiv_pos_site_id
 _symmetry_equiv_pos_as_xyz
  1  'x, y, z'
loop_
 _atom_site_type_symbol
 _atom_site_label
 _atom_site_symmetry_multiplicity
 _atom_site_fract_x
 _atom_site_fract_y
 _atom_site_fract_z
 _atom_site_occupancy
 _atom_site_charge
Cu  Cu1  1  0.35135000  0.09399000  0.21787000  1.0 1.1713003003
Cu  Cu2  1  0.64865000  0.59399000  0.28213000  1.0 1.1713003003
Cu  Cu3  1  0.64865000  0.90601000  0.78213000  1.0 1.1713003003
Cu  Cu4  1  0.35135000  0.40601000  0.71787000  1.0 1.1713003003
Cu  Cu5  1  0.88592000  0.06843000  0.93329000  1.0 1.1361909144
Cu  Cu6  1  0.11408000  0.56843000  0.56671000  1.0 1.1361909144
Cu  Cu7  1  0.11408000  0.93157000  0.06671000  1.0 1.1361909144
Cu  Cu8  1  0.88592000  0.43157000  0.43329000  1.0 1.1361909144
H  H1  1  0.38030000  0.30620000  0.16680000  1.0 0.1373430313
H  H2  1  0.61970000  0.80620000  0.33320000  1.0 0.1373430313
H  H3  1  0.61970000  0.69380000  0.83320000  1.0 0.1373430313
H  H4  1  0.38030000  0.19380000  0.66680000  1.0 0.1373430313
H  H5  1  0.85100000  0.29330000  0.79800000  1.0 0.1457709753
H  H6  1  0.14900000  0.79330000  0.70200000  1.0 0.1457709753
H  H7  1  0.14900000  0.70670000  0.20200000  1.0 0.1457709753
H  H8  1  0.85100000  0.20670000  0.29800000  1.0 0.1457709753
H  H9  1  0.15580000  0.48750000  0.93930000  1.0 0.1457709753
H  H10  1  0.84420000  0.98750000  0.56070000  1.0 0.1457709753
H  H11  1  0.84420000  0.51250000  0.06070000  1.0 0.1457709753
H  H12  1  0.15580000  0.01250000  0.43930000  1.0 0.1457709753
C  C1  1  0.98460000  0.39542000  0.85010000  1.0 -0.051002225
C  C2  1  0.01540000  0.89542000  0.64990000  1.0 -0.051002225
C  C3  1  0.01540000  0.60458000  0.14990000  1.0 -0.051002225
C  C4  1  0.98460000  0.10458000  0.35010000  1.0 -0.051002225
C  C5  1  0.29760000  0.40387000  0.07190000  1.0 -0.0023540974
C  C6  1  0.70240000  0.90387000  0.42810000  1.0 -0.0023540974
C  C7  1  0.70240000  0.59613000  0.92810000  1.0 -0.0023540974
C  C8  1  0.29760000  0.09613000  0.57190000  1.0 -0.0023540974
C  C9  1  0.27950000  0.32881000  0.08710000  1.0 -0.0645866088
C  C10  1  0.72050000  0.82881000  0.41290000  1.0 -0.0645866088
C  C11  1  0.72050000  0.67119000  0.91290000  1.0 -0.0645866088
C  C12  1  0.27950000  0.17119000  0.58710000  1.0 -0.0645866088
C  C13  1  0.11460000  0.28712000  0.98590000  1.0 -0.0023540974
C  C14  1  0.88540000  0.78712000  0.51410000  1.0 0.0003881982
C  C15  1  0.88540000  0.71288000  0.01410000  1.0 -0.0023540974
C  C16  1  0.11460000  0.21288000  0.48590000  1.0 -0.0023540974
C  C17  1  0.10430000  0.20696000  0.00980000  1.0 0.6096273296
C  C18  1  0.89570000  0.70696000  0.49020000  1.0 0.6096273296
C  C19  1  0.89570000  0.79304000  0.99020000  1.0 0.6096273296
C  C20  1  0.10430000  0.29304000  0.50980000  1.0 0.6096273296
C  C21  1  0.96380000  0.32044000  0.86620000  1.0 -0.0720998003
C  C22  1  0.03620000  0.82044000  0.63380000  1.0 -0.0720998003
C  C23  1  0.03620000  0.67956000  0.13380000  1.0 -0.0720998003
C  C24  1  0.96380000  0.17956000  0.36620000  1.0 -0.0720998003
C  C25  1  0.14680000  0.43748000  0.95120000  1.0 -0.0720998003
C  C26  1  0.85320000  0.93748000  0.54880000  1.0 -0.0720998003
C  C27  1  0.85320000  0.56252000  0.04880000  1.0 -0.0720998003
C  C28  1  0.14680000  0.06252000  0.45120000  1.0 -0.0720998003
C  C29  1  0.47930000  0.44574000  0.18350000  1.0 0.5974178994
C  C30  1  0.52070000  0.94574000  0.31650000  1.0 0.5974178994
C  C31  1  0.52070000  0.55426000  0.81650000  1.0 0.5974178994
C  C32  1  0.47930000  0.05426000  0.68350000  1.0 0.5974178994
S  S1  1  0.80857000  0.43423000  0.69170000  1.0 1.1713003003
S  S2  1  0.19143000  0.93423000  0.80830000  1.0 1.1713003003
S  S3  1  0.19143000  0.56577000  0.30830000  1.0 1.1713003003
S  S4  1  0.80857000  0.06577000  0.19170000  1.0 1.1713003003
O  O1  1  0.96370000  0.16793000  0.91530000  1.0 -0.4898988521
O  O2  1  0.03630000  0.66793000  0.58470000  1.0 -0.4898988521
O  O3  1  0.03630000  0.83207000  0.08470000  1.0 -0.4898988521
O  O4  1  0.96370000  0.33207000  0.41530000  1.0 -0.4898988521
O  O5  1  0.18550000  0.03527000  0.05630000  1.0 -0.8913232452
O  O6  1  0.81450000  0.53527000  0.44370000  1.0 -0.8913232452
O  O7  1  0.81450000  0.96473000  0.94370000  1.0 -0.8913232452
O  O8  1  0.18550000  0.46473000  0.55630000  1.0 -0.8913232452
O  O9  1  0.50370000  0.51181000  0.16340000  1.0 -0.4984248943
O  O10  1  0.49630000  0.01181000  0.33660000  1.0 -0.4984248943
O  O11  1  0.49630000  0.48819000  0.83660000  1.0 -0.4984248943
O  O12  1  0.50370000  0.98819000  0.66340000  1.0 -0.4984248943
O  O13  1  0.24200000  0.18594000  0.12570000  1.0 -0.4790872054
O  O14  1  0.75800000  0.68594000  0.37430000  1.0 -0.4790872054
O  O15  1  0.75800000  0.81406000  0.87430000  1.0 -0.4790872054
O  O16  1  0.24200000  0.31406000  0.62570000  1.0 -0.4790872054
O  O17  1  0.82020000  0.51287000  0.70290000  1.0 -0.4790872054
O  O18  1  0.17980000  0.01287000  0.79710000  1.0 -0.4790872054
O  O19  1  0.17980000  0.48713000  0.29710000  1.0 -0.4790872054
O  O20  1  0.82020000  0.98713000  0.20290000  1.0 -0.4790872054
O  O21  1  0.59590000  0.41021000  0.28910000  1.0 -0.4790872054
O  O22  1  0.40410000  0.91021000  0.21090000  1.0 -0.4790872054
O  O23  1  0.40410000  0.58979000  0.71090000  1.0 -0.4790872054
O  O24  1  0.59590000  0.08979000  0.78910000  1.0 -0.4790872054
O  O25  1  0.89100000  0.40485000  0.61550000  1.0 -0.6269027359
O  O26  1  0.10900000  0.90485000  0.88450000  1.0 -0.6269027359
O  O27  1  0.10900000  0.59515000  0.38450000  1.0 -0.6269027359
O  O28  1  0.89100000  0.09515000  0.11550000  1.0 -0.6269027359
O  O29  1  0.59320000  0.40431000  0.64270000  1.0 -0.543125934
O  O30  1  0.40680000  0.90431000  0.85730000  1.0 -0.543125934
O  O31  1  0.40680000  0.59569000  0.35730000  1.0 -0.543125934
O  O32  1  0.59320000  0.09569000  0.14270000  1.0 -0.543125934
O  O33  1  0.49280000  0.15385000  0.37830000  1.0 -0.3639733932
O  O34  1  0.50720000  0.65385000  0.12170000  1.0 -0.3639733932
O  O35  1  0.50720000  0.84615000  0.62170000  1.0 -0.3639733932
O  O36  1  0.49280000  0.34615000  0.87830000  1.0 -0.3639733932
