# DDEC6 charges by PACMAN v1.1 (https://github.com/mtap-research/PACMAN-charge/)
data_GIKMOD05_FSR_pacman
_symmetry_space_group_name_H-M   'P 1'
_cell_length_a   7.31000000
_cell_length_b   18.28000000
_cell_length_c   12.01440000
_cell_angle_alpha   90.00000000
_cell_angle_beta   122.68700000
_cell_angle_gamma   90.00000000
_symmetry_Int_Tables_number   1
_chemical_formula_structural   Cu2H3C8SO9
_chemical_formula_sum   'Cu8 H12 C32 S4 O36'
_cell_volume   1351.19672772
_cell_formula_units_Z   4
loop_
 _symmetry_equiv_pos_site_id
 _symmetry_equiv_pos_as_xyz
  1  'x, y, z'
loop_
 _atom_site_type_symbol
 _atom_site_label
 _atom_site_symmetry_multiplicity
 _atom_site_fract_x
 _atom_site_fract_y
 _atom_site_fract_z
 _atom_site_occupancy
 _atom_site_charge
Cu  Cu1  1  0.35104000  0.09313000  0.21750000  1.0 1.1673282155
Cu  Cu2  1  0.64896000  0.59313000  0.28250000  1.0 1.1673282155
Cu  Cu3  1  0.64896000  0.90687000  0.78250000  1.0 1.1673282155
Cu  Cu4  1  0.35104000  0.40687000  0.71750000  1.0 1.1673282155
Cu  Cu5  1  0.88488000  0.06848000  0.93480000  1.0 1.145138956
Cu  Cu6  1  0.11512000  0.56848000  0.56520000  1.0 1.145138956
Cu  Cu7  1  0.11512000  0.93152000  0.06520000  1.0 1.145138956
Cu  Cu8  1  0.88488000  0.43152000  0.43480000  1.0 1.145138956
H  H1  1  0.37930000  0.30560000  0.16870000  1.0 0.1346406558
H  H2  1  0.62070000  0.80560000  0.33130000  1.0 0.1346406558
H  H3  1  0.62070000  0.69440000  0.83130000  1.0 0.1346406558
H  H4  1  0.37930000  0.19440000  0.66870000  1.0 0.1346406558
H  H5  1  0.85010000  0.29310000  0.79900000  1.0 0.1439315298
H  H6  1  0.14990000  0.79310000  0.70100000  1.0 0.1439315298
H  H7  1  0.14990000  0.70690000  0.20100000  1.0 0.1439315298
H  H8  1  0.85010000  0.20690000  0.29900000  1.0 0.1439315298
H  H9  1  0.15510000  0.48670000  0.94240000  1.0 0.1439315298
H  H10  1  0.84490000  0.98670000  0.55760000  1.0 0.1439315298
H  H11  1  0.84490000  0.51330000  0.05760000  1.0 0.1439315298
H  H12  1  0.15510000  0.01330000  0.44240000  1.0 0.1439315298
C  C1  1  0.98280000  0.39509000  0.85300000  1.0 -0.0476099967
C  C2  1  0.01720000  0.89509000  0.64700000  1.0 -0.0476099967
C  C3  1  0.01720000  0.60491000  0.14700000  1.0 -0.0476099967
C  C4  1  0.98280000  0.10491000  0.35300000  1.0 -0.0476099967
C  C5  1  0.29500000  0.40307000  0.07480000  1.0 -0.001916715
C  C6  1  0.70500000  0.90307000  0.42520000  1.0 -0.001916715
C  C7  1  0.70500000  0.59693000  0.92520000  1.0 -0.001916715
C  C8  1  0.29500000  0.09693000  0.57480000  1.0 -0.001916715
C  C9  1  0.27790000  0.32826000  0.08930000  1.0 -0.0618337026
C  C10  1  0.72210000  0.82826000  0.41070000  1.0 -0.0618337026
C  C11  1  0.72210000  0.67174000  0.91070000  1.0 -0.0618337026
C  C12  1  0.27790000  0.17174000  0.58930000  1.0 -0.0618337026
C  C13  1  0.11280000  0.28665000  0.98780000  1.0 -0.001916715
C  C14  1  0.88720000  0.78665000  0.51220000  1.0 -0.001916715
C  C15  1  0.88720000  0.71335000  0.01220000  1.0 -0.001916715
C  C16  1  0.11280000  0.21335000  0.48780000  1.0 -0.001916715
C  C17  1  0.10360000  0.20668000  0.01080000  1.0 0.6116519341
C  C18  1  0.89640000  0.70668000  0.48920000  1.0 0.6116519341
C  C19  1  0.89640000  0.79332000  0.98920000  1.0 0.6116519341
C  C20  1  0.10360000  0.29332000  0.51080000  1.0 0.6116519341
C  C21  1  0.96210000  0.32012000  0.86780000  1.0 -0.071061107
C  C22  1  0.03790000  0.82012000  0.63220000  1.0 -0.071061107
C  C23  1  0.03790000  0.67988000  0.13220000  1.0 -0.071061107
C  C24  1  0.96210000  0.17988000  0.36780000  1.0 -0.071061107
C  C25  1  0.14520000  0.43694000  0.95410000  1.0 -0.071061107
C  C26  1  0.85480000  0.93694000  0.54590000  1.0 -0.071061107
C  C27  1  0.85480000  0.56306000  0.04590000  1.0 -0.071061107
C  C28  1  0.14520000  0.06306000  0.45410000  1.0 -0.071061107
C  C29  1  0.47760000  0.44494000  0.18650000  1.0 0.6005506882
C  C30  1  0.52240000  0.94494000  0.31350000  1.0 0.6005506882
C  C31  1  0.52240000  0.55506000  0.81350000  1.0 0.6005506882
C  C32  1  0.47760000  0.05506000  0.68650000  1.0 0.6005506882
S  S1  1  0.80942000  0.43380000  0.69433000  1.0 1.1766600379
S  S2  1  0.19058000  0.93380000  0.80567000  1.0 1.1766600379
S  S3  1  0.19058000  0.56620000  0.30567000  1.0 1.1766600379
S  S4  1  0.80942000  0.06620000  0.19433000  1.0 1.1766600379
O  O1  1  0.96117000  0.16753000  0.91567000  1.0 -0.5014212659
O  O2  1  0.03883000  0.66753000  0.58433000  1.0 -0.5014212659
O  O3  1  0.03883000  0.83247000  0.08433000  1.0 -0.5014212659
O  O4  1  0.96117000  0.33247000  0.41567000  1.0 -0.5014212659
O  O5  1  0.18556000  0.03503000  0.05416000  1.0 -0.8885151378
O  O6  1  0.81444000  0.53503000  0.44584000  1.0 -0.8885151378
O  O7  1  0.81444000  0.96497000  0.94584000  1.0 -0.8885151378
O  O8  1  0.18556000  0.46497000  0.55416000  1.0 -0.8885151378
O  O9  1  0.50410000  0.51044000  0.16570000  1.0 -0.5014212659
O  O10  1  0.49590000  0.01044000  0.33430000  1.0 -0.5014212659
O  O11  1  0.49590000  0.48956000  0.83430000  1.0 -0.5014212659
O  O12  1  0.50410000  0.98956000  0.66570000  1.0 -0.5014212659
O  O13  1  0.24200000  0.18504000  0.12610000  1.0 -0.4769384755
O  O14  1  0.75800000  0.68504000  0.37390000  1.0 -0.4769384755
O  O15  1  0.75800000  0.81496000  0.87390000  1.0 -0.4769384755
O  O16  1  0.24200000  0.31496000  0.62610000  1.0 -0.4769384755
O  O17  1  0.81820000  0.51262000  0.70660000  1.0 -0.4769384755
O  O18  1  0.18180000  0.01262000  0.79340000  1.0 -0.4769384755
O  O19  1  0.18180000  0.48738000  0.29340000  1.0 -0.4769384755
O  O20  1  0.81820000  0.98738000  0.20660000  1.0 -0.4769384755
O  O21  1  0.59330000  0.40950000  0.29360000  1.0 -0.4888179532
O  O22  1  0.40670000  0.90950000  0.20640000  1.0 -0.4888179532
O  O23  1  0.40670000  0.59050000  0.70640000  1.0 -0.4888179532
O  O24  1  0.59330000  0.09050000  0.79360000  1.0 -0.4888179532
O  O25  1  0.89920000  0.40622000  0.62010000  1.0 -0.6329846612
O  O26  1  0.10080000  0.90622000  0.87990000  1.0 -0.6329846612
O  O27  1  0.10080000  0.59378000  0.37990000  1.0 -0.6329846612
O  O28  1  0.89920000  0.09378000  0.12010000  1.0 -0.6329846612
O  O29  1  0.59420000  0.40307000  0.64280000  1.0 -0.545384132
O  O30  1  0.40580000  0.90307000  0.85720000  1.0 -0.545384132
O  O31  1  0.40580000  0.59693000  0.35720000  1.0 -0.545384132
O  O32  1  0.59420000  0.09693000  0.14280000  1.0 -0.545384132
O  O33  1  0.49120000  0.15205000  0.37990000  1.0 -0.3560128367
O  O34  1  0.50880000  0.65205000  0.12010000  1.0 -0.3560128367
O  O35  1  0.50880000  0.84795000  0.62010000  1.0 -0.3560128367
O  O36  1  0.49120000  0.34795000  0.87990000  1.0 -0.3560128367
