# DDEC6 charges by PACMAN v1.1 (https://github.com/mtap-research/PACMAN-charge/)
data_GIKMOD11_FSR_pacman
_symmetry_space_group_name_H-M   'P 1'
_cell_length_a   7.33330000
_cell_length_b   18.15300000
_cell_length_c   12.07780000
_cell_angle_alpha   90.00000000
_cell_angle_beta   122.87900000
_cell_angle_gamma   90.00000000
_symmetry_Int_Tables_number   1
_chemical_formula_structural   Cu2H3C8SO9
_chemical_formula_sum   'Cu8 H12 C32 S4 O36'
_cell_volume   1350.27222204
_cell_formula_units_Z   4
loop_
 _symmetry_equiv_pos_site_id
 _symmetry_equiv_pos_as_xyz
  1  'x, y, z'
loop_
 _atom_site_type_symbol
 _atom_site_label
 _atom_site_symmetry_multiplicity
 _atom_site_fract_x
 _atom_site_fract_y
 _atom_site_fract_z
 _atom_site_occupancy
 _atom_site_charge
Cu  Cu1  1  0.35140000  0.09430000  0.21860000  1.0 1.1672139426
Cu  Cu2  1  0.64860000  0.59430000  0.28140000  1.0 1.1672139426
Cu  Cu3  1  0.64860000  0.90570000  0.78140000  1.0 1.1672139426
Cu  Cu4  1  0.35140000  0.40570000  0.71860000  1.0 1.1672139426
Cu  Cu5  1  0.88750000  0.06820000  0.93260000  1.0 1.1255616804
Cu  Cu6  1  0.11250000  0.56820000  0.56740000  1.0 1.1255616804
Cu  Cu7  1  0.11250000  0.93180000  0.06740000  1.0 1.1255616804
Cu  Cu8  1  0.88750000  0.43180000  0.43260000  1.0 1.1255616804
H  H1  1  0.39300000  0.30780000  0.16380000  1.0 0.1460320333
H  H2  1  0.60700000  0.80780000  0.33620000  1.0 0.1460320333
H  H3  1  0.60700000  0.69220000  0.83620000  1.0 0.1460320333
H  H4  1  0.39300000  0.19220000  0.66380000  1.0 0.1460320333
H  H5  1  0.86140000  0.29150000  0.79990000  1.0 0.142576616
H  H6  1  0.13860000  0.79150000  0.70010000  1.0 0.142576616
H  H7  1  0.13860000  0.70850000  0.20010000  1.0 0.142576616
H  H8  1  0.86140000  0.20850000  0.29990000  1.0 0.142576616
H  H9  1  0.16030000  0.48720000  0.94720000  1.0 0.1460320333
H  H10  1  0.83970000  0.98720000  0.55280000  1.0 0.1460320333
H  H11  1  0.83970000  0.51280000  0.05280000  1.0 0.1460320333
H  H12  1  0.16030000  0.01280000  0.44720000  1.0 0.1460320333
C  C1  1  0.98700000  0.39580000  0.85300000  1.0 -0.0318271856
C  C2  1  0.01300000  0.89580000  0.64700000  1.0 -0.0318271856
C  C3  1  0.01300000  0.60420000  0.14700000  1.0 -0.0318271856
C  C4  1  0.98700000  0.10420000  0.35300000  1.0 -0.0318271856
C  C5  1  0.29700000  0.40240000  0.07000000  1.0 0.0047135779
C  C6  1  0.70300000  0.90240000  0.43000000  1.0 0.0047135779
C  C7  1  0.70300000  0.59760000  0.93000000  1.0 0.0047135779
C  C8  1  0.29700000  0.09760000  0.57000000  1.0 0.0047135779
C  C9  1  0.28700000  0.33000000  0.08600000  1.0 -0.0803983708
C  C10  1  0.71300000  0.83000000  0.41400000  1.0 -0.0803983708
C  C11  1  0.71300000  0.67000000  0.91400000  1.0 -0.0803983708
C  C12  1  0.28700000  0.17000000  0.58600000  1.0 -0.0803983708
C  C13  1  0.12300000  0.28800000  0.99000000  1.0 0.0128165201
C  C14  1  0.87700000  0.78800000  0.51000000  1.0 0.0128165201
C  C15  1  0.87700000  0.71200000  0.01000000  1.0 0.0128165201
C  C16  1  0.12300000  0.21200000  0.49000000  1.0 0.0128165201
C  C17  1  0.09300000  0.20490000  0.00100000  1.0 0.5941937228
C  C18  1  0.90700000  0.70490000  0.49900000  1.0 0.5941937228
C  C19  1  0.90700000  0.79510000  0.99900000  1.0 0.5941937228
C  C20  1  0.09300000  0.29510000  0.50100000  1.0 0.5941937228
C  C21  1  0.97000000  0.31970000  0.86800000  1.0 -0.0803983708
C  C22  1  0.03000000  0.81970000  0.63200000  1.0 -0.0803983708
C  C23  1  0.03000000  0.68030000  0.13200000  1.0 -0.0803983708
C  C24  1  0.97000000  0.18030000  0.36800000  1.0 -0.0803983708
C  C25  1  0.15100000  0.43670000  0.95600000  1.0 -0.0876871015
C  C26  1  0.84900000  0.93670000  0.54400000  1.0 -0.0876871015
C  C27  1  0.84900000  0.56330000  0.04400000  1.0 -0.0876871015
C  C28  1  0.15100000  0.06330000  0.45600000  1.0 -0.0876871015
C  C29  1  0.48500000  0.44430000  0.18300000  1.0 0.6035872956
C  C30  1  0.51500000  0.94430000  0.31700000  1.0 0.6035872956
C  C31  1  0.51500000  0.55570000  0.81700000  1.0 0.6035872956
C  C32  1  0.48500000  0.05570000  0.68300000  1.0 0.6035872956
S  S1  1  0.80780000  0.43400000  0.69090000  1.0 1.18013617
S  S2  1  0.19220000  0.93400000  0.80910000  1.0 1.18013617
S  S3  1  0.19220000  0.56600000  0.30910000  1.0 1.18013617
S  S4  1  0.80780000  0.06600000  0.19090000  1.0 1.18013617
O  O1  1  0.96250000  0.16640000  0.91450000  1.0 -0.4342978339
O  O2  1  0.03750000  0.66640000  0.58550000  1.0 -0.4342978339
O  O3  1  0.03750000  0.83360000  0.08550000  1.0 -0.4342978339
O  O4  1  0.96250000  0.33360000  0.41450000  1.0 -0.4342978339
O  O5  1  0.18850000  0.03450000  0.05450000  1.0 -0.8792462985
O  O6  1  0.81150000  0.53450000  0.44550000  1.0 -0.8792462985
O  O7  1  0.81150000  0.96550000  0.94550000  1.0 -0.8792462985
O  O8  1  0.18850000  0.46550000  0.55450000  1.0 -0.8792462985
O  O9  1  0.49960000  0.51110000  0.16160000  1.0 -0.4980770315
O  O10  1  0.50040000  0.01110000  0.33840000  1.0 -0.4980770315
O  O11  1  0.50040000  0.48890000  0.83840000  1.0 -0.4980770315
O  O12  1  0.49960000  0.98890000  0.66160000  1.0 -0.4980770315
O  O13  1  0.23610000  0.18530000  0.12210000  1.0 -0.4980770315
O  O14  1  0.76390000  0.68530000  0.37790000  1.0 -0.4980770315
O  O15  1  0.76390000  0.81470000  0.87790000  1.0 -0.4980770315
O  O16  1  0.23610000  0.31470000  0.62210000  1.0 -0.4980770315
O  O17  1  0.82450000  0.51240000  0.70050000  1.0 -0.4781856949
O  O18  1  0.17550000  0.01240000  0.79950000  1.0 -0.4781856949
O  O19  1  0.17550000  0.48760000  0.29950000  1.0 -0.4781856949
O  O20  1  0.82450000  0.98760000  0.20050000  1.0 -0.4781856949
O  O21  1  0.60270000  0.41120000  0.28970000  1.0 -0.4781856949
O  O22  1  0.39730000  0.91120000  0.21030000  1.0 -0.4781856949
O  O23  1  0.39730000  0.58880000  0.71030000  1.0 -0.4781856949
O  O24  1  0.60270000  0.08880000  0.78970000  1.0 -0.4781856949
O  O25  1  0.88580000  0.40490000  0.60980000  1.0 -0.639913712
O  O26  1  0.11420000  0.90490000  0.89020000  1.0 -0.639913712
O  O27  1  0.11420000  0.59510000  0.39020000  1.0 -0.639913712
O  O28  1  0.88580000  0.09510000  0.10980000  1.0 -0.639913712
O  O29  1  0.59250000  0.40450000  0.64250000  1.0 -0.5466576855
O  O30  1  0.40750000  0.90450000  0.85750000  1.0 -0.5466576855
O  O31  1  0.40750000  0.59550000  0.35750000  1.0 -0.5466576855
O  O32  1  0.59250000  0.09550000  0.14250000  1.0 -0.5466576855
O  O33  1  0.49760000  0.15430000  0.37960000  1.0 -0.3899115811
O  O34  1  0.50240000  0.65430000  0.12040000  1.0 -0.3899115811
O  O35  1  0.50240000  0.84570000  0.62040000  1.0 -0.3899115811
O  O36  1  0.49760000  0.34570000  0.87960000  1.0 -0.3899115811
