# DDEC6 charges by PACMAN v1.1 (https://github.com/mtap-research/PACMAN-charge/)
data_GIKMOD03_FSR_pacman
_symmetry_space_group_name_H-M   'P 1'
_cell_length_a   7.29490000
_cell_length_b   18.27260000
_cell_length_c   11.96360000
_cell_angle_alpha   90.00000000
_cell_angle_beta   122.52100000
_cell_angle_gamma   90.00000000
_symmetry_Int_Tables_number   1
_chemical_formula_structural   Cu2H3C8SO9
_chemical_formula_sum   'Cu8 H12 C32 S4 O36'
_cell_volume   1344.65019129
_cell_formula_units_Z   4
loop_
 _symmetry_equiv_pos_site_id
 _symmetry_equiv_pos_as_xyz
  1  'x, y, z'
loop_
 _atom_site_type_symbol
 _atom_site_label
 _atom_site_symmetry_multiplicity
 _atom_site_fract_x
 _atom_site_fract_y
 _atom_site_fract_z
 _atom_site_occupancy
 _atom_site_charge
Cu  Cu1  1  0.35081000  0.09248000  0.21714000  1.0 1.179625652
Cu  Cu2  1  0.64919000  0.59248000  0.28286000  1.0 1.179625652
Cu  Cu3  1  0.64919000  0.90752000  0.78286000  1.0 1.1743353027
Cu  Cu4  1  0.35081000  0.40752000  0.71714000  1.0 1.1743353027
Cu  Cu5  1  0.88436000  0.06851000  0.93577000  1.0 1.1418041306
Cu  Cu6  1  0.11564000  0.56851000  0.56423000  1.0 1.1418041306
Cu  Cu7  1  0.11564000  0.93149000  0.06423000  1.0 1.1418041306
Cu  Cu8  1  0.88436000  0.43149000  0.43577000  1.0 1.1418041306
H  H1  1  0.37880000  0.30500000  0.17090000  1.0 0.1341310422
H  H2  1  0.62120000  0.80500000  0.32910000  1.0 0.1341310422
H  H3  1  0.62120000  0.69500000  0.82910000  1.0 0.1341310422
H  H4  1  0.37880000  0.19500000  0.67090000  1.0 0.1341310422
H  H5  1  0.84900000  0.29320000  0.80100000  1.0 0.142121056
H  H6  1  0.15100000  0.79320000  0.69900000  1.0 0.142121056
H  H7  1  0.15100000  0.70680000  0.19900000  1.0 0.142121056
H  H8  1  0.84900000  0.20680000  0.30100000  1.0 0.142121056
H  H9  1  0.15520000  0.48670000  0.94570000  1.0 0.142121056
H  H10  1  0.84480000  0.98670000  0.55430000  1.0 0.142121056
H  H11  1  0.84480000  0.51330000  0.05430000  1.0 0.142121056
H  H12  1  0.15520000  0.01330000  0.44570000  1.0 0.142121056
C  C1  1  0.98150000  0.39511000  0.85550000  1.0 -0.0485020579
C  C2  1  0.01850000  0.89511000  0.64450000  1.0 -0.0485020579
C  C3  1  0.01850000  0.60489000  0.14450000  1.0 -0.0485020579
C  C4  1  0.98150000  0.10489000  0.35550000  1.0 -0.0485020579
C  C5  1  0.29390000  0.40243000  0.07700000  1.0 -0.0069617574
C  C6  1  0.70610000  0.90243000  0.42300000  1.0 -0.0069617574
C  C7  1  0.70610000  0.59757000  0.92300000  1.0 -0.0069617574
C  C8  1  0.29390000  0.09757000  0.57700000  1.0 -0.0069617574
C  C9  1  0.27760000  0.32779000  0.09160000  1.0 -0.0624447522
C  C10  1  0.72240000  0.82779000  0.40840000  1.0 -0.0624447522
C  C11  1  0.72240000  0.67221000  0.90840000  1.0 -0.0624447522
C  C12  1  0.27760000  0.17221000  0.59160000  1.0 -0.0624447522
C  C13  1  0.11150000  0.28642000  0.98910000  1.0 -0.0015591595
C  C14  1  0.88850000  0.78642000  0.51090000  1.0 -0.0015591595
C  C15  1  0.88850000  0.71358000  0.01090000  1.0 -0.0015591595
C  C16  1  0.11150000  0.21358000  0.48910000  1.0 -0.0015591595
C  C17  1  0.10340000  0.20632000  0.01170000  1.0 0.6013672795
C  C18  1  0.89660000  0.70632000  0.48830000  1.0 0.6013672795
C  C19  1  0.89660000  0.79368000  0.98830000  1.0 0.6060545462
C  C20  1  0.10340000  0.29368000  0.51170000  1.0 0.6013672795
C  C21  1  0.96120000  0.32004000  0.87000000  1.0 -0.0723181126
C  C22  1  0.03880000  0.82004000  0.63000000  1.0 -0.0723181126
C  C23  1  0.03880000  0.67996000  0.13000000  1.0 -0.0723181126
C  C24  1  0.96120000  0.17996000  0.37000000  1.0 -0.0723181126
C  C25  1  0.14480000  0.43689000  0.95700000  1.0 -0.0723181126
C  C26  1  0.85520000  0.93689000  0.54300000  1.0 -0.0723181126
C  C27  1  0.85520000  0.56311000  0.04300000  1.0 -0.0723181126
C  C28  1  0.14480000  0.06311000  0.45700000  1.0 -0.0723181126
C  C29  1  0.47610000  0.44445000  0.18880000  1.0 0.6013672795
C  C30  1  0.52390000  0.94445000  0.31120000  1.0 0.6013672795
C  C31  1  0.52390000  0.55555000  0.81120000  1.0 0.6013672795
C  C32  1  0.47610000  0.05555000  0.68880000  1.0 0.6013672795
S  S1  1  0.81022000  0.43351000  0.69624000  1.0 1.179625652
S  S2  1  0.18978000  0.93351000  0.80376000  1.0 1.179625652
S  S3  1  0.18978000  0.56649000  0.30376000  1.0 1.179625652
S  S4  1  0.81022000  0.06649000  0.19624000  1.0 1.179625652
O  O1  1  0.96079000  0.16769000  0.91639000  1.0 -0.4994797647
O  O2  1  0.03921000  0.66769000  0.58361000  1.0 -0.4890312833
O  O3  1  0.03921000  0.83231000  0.08361000  1.0 -0.4994797647
O  O4  1  0.96079000  0.33231000  0.41639000  1.0 -0.4994797647
O  O5  1  0.18587000  0.03499000  0.05287000  1.0 -0.881344108
O  O6  1  0.81413000  0.53499000  0.44713000  1.0 -0.881344108
O  O7  1  0.81413000  0.96501000  0.94713000  1.0 -0.881344108
O  O8  1  0.18587000  0.46501000  0.55287000  1.0 -0.881344108
O  O9  1  0.50412000  0.50975000  0.16722000  1.0 -0.4994797647
O  O10  1  0.49588000  0.00975000  0.33278000  1.0 -0.4994797647
O  O11  1  0.49588000  0.49025000  0.83278000  1.0 -0.4994797647
O  O12  1  0.50412000  0.99025000  0.66722000  1.0 -0.4994797647
O  O13  1  0.24299000  0.18455000  0.12719000  1.0 -0.4769876061
O  O14  1  0.75701000  0.68455000  0.37281000  1.0 -0.4769876061
O  O15  1  0.75701000  0.81545000  0.87281000  1.0 -0.4769876061
O  O16  1  0.24299000  0.31545000  0.62719000  1.0 -0.4769876061
O  O17  1  0.81651000  0.51246000  0.70861000  1.0 -0.4725223464
O  O18  1  0.18349000  0.01246000  0.79139000  1.0 -0.4725223464
O  O19  1  0.18349000  0.48754000  0.29139000  1.0 -0.4725223464
O  O20  1  0.81651000  0.98754000  0.20861000  1.0 -0.4725223464
O  O21  1  0.59178000  0.40928000  0.29678000  1.0 -0.4890312833
O  O22  1  0.40822000  0.90928000  0.20322000  1.0 -0.4890312833
O  O23  1  0.40822000  0.59072000  0.70322000  1.0 -0.4890312833
O  O24  1  0.59178000  0.09072000  0.79678000  1.0 -0.4890312833
O  O25  1  0.90598000  0.40706000  0.62328000  1.0 -0.6359118504
O  O26  1  0.09402000  0.90706000  0.87672000  1.0 -0.6359118504
O  O27  1  0.09402000  0.59294000  0.37672000  1.0 -0.6359118504
O  O28  1  0.90598000  0.09294000  0.12328000  1.0 -0.6359118504
O  O29  1  0.59474000  0.40195000  0.64284000  1.0 -0.5469628406
O  O30  1  0.40526000  0.90195000  0.85716000  1.0 -0.5469628406
O  O31  1  0.40526000  0.59805000  0.35716000  1.0 -0.5469628406
O  O32  1  0.59474000  0.09805000  0.14284000  1.0 -0.5469628406
O  O33  1  0.48977000  0.15047000  0.38117000  1.0 -0.3574783934
O  O34  1  0.51023000  0.65047000  0.11883000  1.0 -0.3574783934
O  O35  1  0.51023000  0.84953000  0.61883000  1.0 -0.3574783934
O  O36  1  0.48977000  0.34953000  0.88117000  1.0 -0.3574783934
