# DDEC6 charges by PACMAN v1.1 (https://github.com/mtap-research/PACMAN-charge/)
data_GIKWEG_ASR_pacman
_symmetry_space_group_name_H-M   'P 1'
_cell_length_a   13.86580000
_cell_length_b   13.86580000
_cell_length_c   25.62000000
_cell_angle_alpha   72.04290000
_cell_angle_beta   107.95700000
_cell_angle_gamma   143.38500000
_symmetry_Int_Tables_number   1
_chemical_formula_structural   Co3H42C48(N3O4)2
_chemical_formula_sum   'Co6 H84 C96 N12 O16'
_cell_volume   2778.64343739
_cell_formula_units_Z   2
loop_
 _symmetry_equiv_pos_site_id
 _symmetry_equiv_pos_as_xyz
  1  'x, y, z'
loop_
 _atom_site_type_symbol
 _atom_site_label
 _atom_site_symmetry_multiplicity
 _atom_site_fract_x
 _atom_site_fract_y
 _atom_site_fract_z
 _atom_site_occupancy
 _atom_site_charge
Co  Co1  1  0.36809000  0.76385000  0.79734000  1.0 0.8342706923
Co  Co2  1  0.76385000  0.36809000  0.70266000  1.0 0.8342706923
Co  Co3  1  0.63191000  0.23615000  0.20266000  1.0 0.8342706923
Co  Co4  1  0.23615000  0.63191000  0.29734000  1.0 0.8342706923
Co  Co5  1  0.50000000  0.50000000  0.00000000  1.0 0.3218028013
Co  Co6  1  0.50000000  0.50000000  0.50000000  1.0 0.3218028013
H  H1  1  0.28730000  0.33810000  0.78700000  1.0 0.1286077091
H  H2  1  0.33810000  0.28730000  0.71300000  1.0 0.1286077091
H  H3  1  0.71270000  0.66190000  0.21300000  1.0 0.1286077091
H  H4  1  0.66190000  0.71270000  0.28700000  1.0 0.1286077091
H  H5  1  0.22670000  0.43770000  0.80270000  1.0 0.110735125
H  H6  1  0.43770000  0.22670000  0.69730000  1.0 0.110735125
H  H7  1  0.77330000  0.56230000  0.19730000  1.0 0.110735125
H  H8  1  0.56230000  0.77330000  0.30270000  1.0 0.110735125
H  H9  1  0.60960000  0.86960000  0.73960000  1.0 0.110735125
H  H10  1  0.86960000  0.60960000  0.76040000  1.0 0.110735125
H  H11  1  0.39040000  0.13040000  0.26040000  1.0 0.110735125
H  H12  1  0.13040000  0.39040000  0.23960000  1.0 0.110735125
H  H13  1  0.69620000  0.79500000  0.72530000  1.0 0.1383484023
H  H14  1  0.79500000  0.69620000  0.77470000  1.0 0.1383484023
H  H15  1  0.30380000  0.20500000  0.27470000  1.0 0.1383484023
H  H16  1  0.20500000  0.30380000  0.22530000  1.0 0.1383484023
H  H17  1  0.48450000  0.89570000  0.90540000  1.0 0.110735125
H  H18  1  0.89570000  0.48450000  0.59460000  1.0 0.110735125
H  H19  1  0.51550000  0.10430000  0.09460000  1.0 0.110735125
H  H20  1  0.10430000  0.51550000  0.40540000  1.0 0.110735125
H  H21  1  0.51750000  0.04710000  0.94640000  1.0 0.1383484023
H  H22  1  0.04710000  0.51750000  0.55360000  1.0 0.1383484023
H  H23  1  0.48250000  0.95290000  0.05360000  1.0 0.1383484023
H  H24  1  0.95290000  0.48250000  0.44640000  1.0 0.1383484023
H  H25  1  0.30970000  0.08230000  0.80960000  1.0 0.1206439531
H  H26  1  0.08230000  0.30970000  0.69040000  1.0 0.1206439531
H  H27  1  0.69030000  0.91770000  0.19040000  1.0 0.1206439531
H  H28  1  0.91770000  0.69030000  0.30960000  1.0 0.1206439531
H  H29  1  0.26580000  0.91640000  0.77190000  1.0 0.110735125
H  H30  1  0.91640000  0.26580000  0.72810000  1.0 0.110735125
H  H31  1  0.73420000  0.08360000  0.22810000  1.0 0.110735125
H  H32  1  0.08360000  0.73420000  0.27190000  1.0 0.110735125
H  H33  1  0.64250000  0.28410000  0.96090000  1.0 0.1383484023
H  H34  1  0.28410000  0.64250000  0.53910000  1.0 0.1383484023
H  H35  1  0.35750000  0.71590000  0.03910000  1.0 0.1383484023
H  H36  1  0.71590000  0.35750000  0.46090000  1.0 0.1383484023
H  H37  1  0.67040000  0.43220000  0.00120000  1.0 0.1206439531
H  H38  1  0.43220000  0.67040000  0.49880000  1.0 0.1206439531
H  H39  1  0.32960000  0.56780000  0.99880000  1.0 0.1206439531
H  H40  1  0.56780000  0.32960000  0.50120000  1.0 0.1206439531
H  H41  1  0.28970000  0.27470000  0.91150000  1.0 0.110735125
H  H42  1  0.27470000  0.28970000  0.58850000  1.0 0.110735125
H  H43  1  0.71030000  0.72530000  0.08850000  1.0 0.110735125
H  H44  1  0.72530000  0.71030000  0.41150000  1.0 0.110735125
H  H45  1  0.24110000  0.11370000  0.86750000  1.0 0.1286077091
H  H46  1  0.11370000  0.24110000  0.63250000  1.0 0.1286077091
H  H47  1  0.75890000  0.88630000  0.13250000  1.0 0.1286077091
H  H48  1  0.88630000  0.75890000  0.36750000  1.0 0.1286077091
H  H49  1  0.59630000  0.11010000  0.63000000  1.0 0.1206439531
H  H50  1  0.11010000  0.59630000  0.87000000  1.0 0.1206439531
H  H51  1  0.40370000  0.88990000  0.37000000  1.0 0.1206439531
H  H52  1  0.88990000  0.40370000  0.13000000  1.0 0.1206439531
H  H53  1  0.35240000  0.81880000  0.62450000  1.0 0.101141854
H  H54  1  0.81880000  0.35240000  0.87550000  1.0 0.101141854
H  H55  1  0.64760000  0.18120000  0.37550000  1.0 0.101141854
H  H56  1  0.18120000  0.64760000  0.12450000  1.0 0.101141854
H  H57  1  0.26520000  0.85440000  0.59350000  1.0 0.110735125
H  H58  1  0.85440000  0.26520000  0.90650000  1.0 0.110735125
H  H59  1  0.73480000  0.14560000  0.40650000  1.0 0.110735125
H  H60  1  0.14560000  0.73480000  0.09350000  1.0 0.110735125
H  H61  1  0.74430000  0.06470000  0.61370000  1.0 0.1206439531
H  H62  1  0.06470000  0.74430000  0.88630000  1.0 0.1206439531
H  H63  1  0.25570000  0.93530000  0.38630000  1.0 0.1206439531
H  H64  1  0.93530000  0.25570000  0.11370000  1.0 0.1206439531
H  H65  1  0.57500000  0.93160000  0.63580000  1.0 0.1206439531
H  H66  1  0.93160000  0.57500000  0.86420000  1.0 0.1206439531
H  H67  1  0.42500000  0.06840000  0.36420000  1.0 0.1206439531
H  H68  1  0.06840000  0.42500000  0.13580000  1.0 0.1206439531
H  H69  1  0.61160000  0.88160000  0.60600000  1.0 0.1286077091
H  H70  1  0.88160000  0.61160000  0.89400000  1.0 0.1286077091
H  H71  1  0.38840000  0.11840000  0.39400000  1.0 0.1286077091
H  H72  1  0.11840000  0.38840000  0.10600000  1.0 0.1286077091
H  H73  1  0.22010000  0.93230000  0.52210000  1.0 0.1383484023
H  H74  1  0.93230000  0.22010000  0.97790000  1.0 0.1383484023
H  H75  1  0.77990000  0.06770000  0.47790000  1.0 0.1383484023
H  H76  1  0.06770000  0.77990000  0.02210000  1.0 0.1383484023
H  H77  1  0.22140000  0.96980000  0.45780000  1.0 0.1206439531
H  H78  1  0.96980000  0.22140000  0.04220000  1.0 0.1206439531
H  H79  1  0.77860000  0.03020000  0.54220000  1.0 0.1206439531
H  H80  1  0.03020000  0.77860000  0.95780000  1.0 0.1206439531
H  H81  1  0.12180000  0.79540000  0.48610000  1.0 0.1206439531
H  H82  1  0.79540000  0.12180000  0.01390000  1.0 0.1206439531
H  H83  1  0.87820000  0.20460000  0.51390000  1.0 0.1206439531
H  H84  1  0.20460000  0.87820000  0.98610000  1.0 0.1206439531
C  C1  1  0.49990000  0.55270000  0.75480000  1.0 0.101141854
C  C2  1  0.55270000  0.49990000  0.74520000  1.0 0.101141854
C  C3  1  0.50010000  0.44730000  0.24520000  1.0 0.101141854
C  C4  1  0.44730000  0.50010000  0.25480000  1.0 0.101141854
C  C5  1  0.35750000  0.44810000  0.77790000  1.0 -0.2175395723
C  C6  1  0.44810000  0.35750000  0.72210000  1.0 -0.2175395723
C  C7  1  0.64250000  0.55190000  0.22210000  1.0 -0.2175395723
C  C8  1  0.55190000  0.64250000  0.27790000  1.0 -0.2175395723
C  C9  1  0.32200000  0.50960000  0.78720000  1.0 0.0796950672
C  C10  1  0.50960000  0.32200000  0.71280000  1.0 0.0796950672
C  C11  1  0.67800000  0.49040000  0.21280000  1.0 0.0796950672
C  C12  1  0.49040000  0.67800000  0.28720000  1.0 0.0796950672
C  C13  1  0.54730000  0.76250000  0.75090000  1.0 0.0796950672
C  C14  1  0.76250000  0.54730000  0.74910000  1.0 0.0796950672
C  C15  1  0.45270000  0.23750000  0.24910000  1.0 0.0796950672
C  C16  1  0.23750000  0.45270000  0.25090000  1.0 0.0796950672
C  C17  1  0.59960000  0.71920000  0.74070000  1.0 -0.2087016679
C  C18  1  0.71920000  0.59960000  0.75930000  1.0 -0.2087016679
C  C19  1  0.40040000  0.28080000  0.25930000  1.0 -0.2087016679
C  C20  1  0.28080000  0.40040000  0.24070000  1.0 -0.2087016679
C  C21  1  0.44640000  0.93080000  0.88590000  1.0 0.0612101069
C  C22  1  0.93080000  0.44640000  0.61410000  1.0 0.0612101069
C  C23  1  0.55360000  0.06920000  0.11410000  1.0 0.0612101069
C  C24  1  0.06920000  0.55360000  0.38590000  1.0 0.0612101069
C  C25  1  0.46770000  0.02330000  0.91040000  1.0 -0.1792161401
C  C26  1  0.02330000  0.46770000  0.58960000  1.0 -0.1792161401
C  C27  1  0.53230000  0.97670000  0.08960000  1.0 -0.1792161401
C  C28  1  0.97670000  0.53230000  0.41040000  1.0 -0.1792161401
C  C29  1  0.41730000  0.08090000  0.88310000  1.0 0.101141854
C  C30  1  0.08090000  0.41730000  0.61690000  1.0 0.101141854
C  C31  1  0.58270000  0.91910000  0.11690000  1.0 0.101141854
C  C32  1  0.91910000  0.58270000  0.38310000  1.0 0.101141854
C  C33  1  0.34330000  0.04330000  0.83000000  1.0 -0.1992044601
C  C34  1  0.04330000  0.34330000  0.67000000  1.0 -0.1992044601
C  C35  1  0.65670000  0.95670000  0.17000000  1.0 -0.1992044601
C  C36  1  0.95670000  0.65670000  0.33000000  1.0 -0.1992044601
C  C37  1  0.31980000  0.94480000  0.80730000  1.0 0.110735125
C  C38  1  0.94480000  0.31980000  0.69270000  1.0 0.110735125
C  C39  1  0.68020000  0.05520000  0.19270000  1.0 0.110735125
C  C40  1  0.05520000  0.68020000  0.30730000  1.0 0.110735125
C  C41  1  0.43960000  0.18260000  0.90890000  1.0 0.110735125
C  C42  1  0.18260000  0.43960000  0.59110000  1.0 0.110735125
C  C43  1  0.56040000  0.81740000  0.09110000  1.0 0.110735125
C  C44  1  0.81740000  0.56040000  0.40890000  1.0 0.110735125
C  C45  1  0.56850000  0.27950000  0.95010000  1.0 -0.1992044601
C  C46  1  0.27950000  0.56850000  0.54990000  1.0 -0.1992044601
C  C47  1  0.43150000  0.72050000  0.04990000  1.0 -0.1992044601
C  C48  1  0.72050000  0.43150000  0.45010000  1.0 -0.1992044601
C  C49  1  0.58400000  0.36740000  0.97420000  1.0 0.047361263
C  C50  1  0.36740000  0.58400000  0.52580000  1.0 0.047361263
C  C51  1  0.41600000  0.63260000  0.02580000  1.0 0.047361263
C  C52  1  0.63260000  0.41600000  0.47420000  1.0 0.047361263
C  C53  1  0.36010000  0.27450000  0.92180000  1.0 0.0889791985
C  C54  1  0.27450000  0.36010000  0.57820000  1.0 0.0889791985
C  C55  1  0.63990000  0.72550000  0.07820000  1.0 0.0889791985
C  C56  1  0.72550000  0.63990000  0.42180000  1.0 0.0889791985
C  C57  1  0.32940000  0.17760000  0.89410000  1.0 -0.2308349248
C  C58  1  0.17760000  0.32940000  0.60590000  1.0 -0.2308349248
C  C59  1  0.67060000  0.82240000  0.10590000  1.0 -0.2308349248
C  C60  1  0.82240000  0.67060000  0.39410000  1.0 -0.2308349248
C  C61  1  0.47650000  0.00590000  0.69660000  1.0 0.5938940112
C  C62  1  0.00590000  0.47650000  0.80340000  1.0 0.5938940112
C  C63  1  0.52350000  0.99410000  0.30340000  1.0 0.5938940112
C  C64  1  0.99410000  0.52350000  0.19660000  1.0 0.5938940112
C  C65  1  0.48800000  0.04660000  0.63400000  1.0 -0.2839535932
C  C66  1  0.04660000  0.48800000  0.86600000  1.0 -0.2839535932
C  C67  1  0.51200000  0.95340000  0.36600000  1.0 -0.2839535932
C  C68  1  0.95340000  0.51200000  0.13400000  1.0 -0.2839535932
C  C69  1  0.49140000  0.16460000  0.61440000  1.0 0.601898617
C  C70  1  0.16460000  0.49140000  0.88560000  1.0 0.601898617
C  C71  1  0.50860000  0.83540000  0.38560000  1.0 0.601898617
C  C72  1  0.83540000  0.50860000  0.11440000  1.0 0.601898617
C  C73  1  0.36920000  0.90100000  0.60180000  1.0 -0.2087016679
C  C74  1  0.90100000  0.36920000  0.89820000  1.0 -0.2087016679
C  C75  1  0.63080000  0.09900000  0.39820000  1.0 -0.2087016679
C  C76  1  0.09900000  0.63080000  0.10180000  1.0 -0.2087016679
C  C77  1  0.43140000  0.94840000  0.54740000  1.0 -0.0263147905
C  C78  1  0.94840000  0.43140000  0.95260000  1.0 -0.0263147905
C  C79  1  0.56860000  0.05160000  0.45260000  1.0 -0.0263147905
C  C80  1  0.05160000  0.56860000  0.04740000  1.0 -0.0263147905
C  C81  1  0.56280000  0.98660000  0.55090000  1.0 0.0402176491
C  C82  1  0.98660000  0.56280000  0.94910000  1.0 0.0402176491
C  C83  1  0.43720000  0.01340000  0.44910000  1.0 0.0402176491
C  C84  1  0.01340000  0.43720000  0.05090000  1.0 0.0402176491
C  C85  1  0.62980000  0.96400000  0.60690000  1.0 -0.4378925126
C  C86  1  0.96400000  0.62980000  0.89310000  1.0 -0.4378925126
C  C87  1  0.37020000  0.03600000  0.39310000  1.0 -0.4378925126
C  C88  1  0.03600000  0.37020000  0.10690000  1.0 -0.4378925126
C  C89  1  0.36690000  0.95950000  0.49560000  1.0 0.047361263
C  C90  1  0.95950000  0.36690000  0.00440000  1.0 0.047361263
C  C91  1  0.63310000  0.04050000  0.50440000  1.0 0.047361263
C  C92  1  0.04050000  0.63310000  0.99560000  1.0 0.047361263
C  C93  1  0.21890000  0.90970000  0.48990000  1.0 -0.4378925126
C  C94  1  0.90970000  0.21890000  0.01010000  1.0 -0.4378925126
C  C95  1  0.78110000  0.09030000  0.51010000  1.0 -0.4378925126
C  C96  1  0.09030000  0.78110000  0.98990000  1.0 -0.4378925126
N  N1  1  0.37030000  0.88930000  0.83330000  1.0 -0.2572586473
N  N2  1  0.88930000  0.37030000  0.66666667  1.0 -0.2572586473
N  N3  1  0.62970000  0.11070000  0.16670000  1.0 -0.2572586473
N  N4  1  0.11070000  0.62970000  0.33333333  1.0 -0.2572586473
N  N5  1  0.47750000  0.36390000  0.96030000  1.0 -0.1992044601
N  N6  1  0.36390000  0.47750000  0.53970000  1.0 -0.2087016679
N  N7  1  0.52250000  0.63610000  0.03970000  1.0 -0.2087016679
N  N8  1  0.63610000  0.52250000  0.46030000  1.0 -0.2087016679
N  N9  1  0.41600000  0.66680000  0.77520000  1.0 -0.2452321734
N  N10  1  0.66680000  0.41600000  0.72480000  1.0 -0.2452321734
N  N11  1  0.58400000  0.33320000  0.22480000  1.0 -0.2452321734
N  N12  1  0.33320000  0.58400000  0.27520000  1.0 -0.2446782674
O  O1  1  0.37240000  0.85820000  0.71580000  1.0 -0.5380749639
O  O2  1  0.85820000  0.37240000  0.78420000  1.0 -0.5380749639
O  O3  1  0.62760000  0.14180000  0.28420000  1.0 -0.5380749639
O  O4  1  0.14180000  0.62760000  0.21580000  1.0 -0.5380749639
O  O5  1  0.57520000  0.12180000  0.72560000  1.0 -0.5647474016
O  O6  1  0.12180000  0.57520000  0.77440000  1.0 -0.5647474016
O  O7  1  0.42480000  0.87820000  0.27440000  1.0 -0.5647474016
O  O8  1  0.87820000  0.42480000  0.22560000  1.0 -0.5647474016
O  O9  1  0.61950000  0.31290000  0.62580000  1.0 -0.6161859568
O  O10  1  0.31290000  0.61950000  0.87420000  1.0 -0.6161859568
O  O11  1  0.38050000  0.68710000  0.37420000  1.0 -0.6161859568
O  O12  1  0.68710000  0.38050000  0.12580000  1.0 -0.6161859568
O  O13  1  0.36860000  0.11540000  0.58480000  1.0 -0.551370972
O  O14  1  0.11540000  0.36860000  0.91520000  1.0 -0.551370972
O  O15  1  0.63140000  0.88460000  0.41520000  1.0 -0.551370972
O  O16  1  0.88460000  0.63140000  0.08480000  1.0 -0.551370972
