# DDEC6 charges by PACMAN v1.1 (https://github.com/mtap-research/PACMAN-charge/)
data_GIKYOS_ASR_pacman
_symmetry_space_group_name_H-M   'P 1'
_cell_length_a   9.34940000
_cell_length_b   13.52990000
_cell_length_c   18.25930000
_cell_angle_alpha   74.73800000
_cell_angle_beta   86.07100000
_cell_angle_gamma   88.20700000
_symmetry_Int_Tables_number   1
_chemical_formula_structural   TbH36(C4O)10
_chemical_formula_sum   'Tb2 H72 C80 O20'
_cell_volume   2222.82948899
_cell_formula_units_Z   2
loop_
 _symmetry_equiv_pos_site_id
 _symmetry_equiv_pos_as_xyz
  1  'x, y, z'
loop_
 _atom_site_type_symbol
 _atom_site_label
 _atom_site_symmetry_multiplicity
 _atom_site_fract_x
 _atom_site_fract_y
 _atom_site_fract_z
 _atom_site_occupancy
 _atom_site_charge
Tb  Tb1  1  0.77656000  0.96940000  0.50281000  1.0 2.1359135113
Tb  Tb2  1  0.22344000  0.03060000  0.49719000  1.0 2.1359135113
H  H1  1  0.92423000  0.78142000  0.31388000  1.0 0.1192083855
H  H2  1  0.07577000  0.21858000  0.68612000  1.0 0.1192083855
H  H3  1  0.01117000  0.76758000  0.19437000  1.0 0.099938504
H  H4  1  0.98883000  0.23242000  0.80563000  1.0 0.099938504
H  H5  1  0.24168000  0.97831000  0.31412000  1.0 0.1192083855
H  H6  1  0.75832000  0.02169000  0.68588000  1.0 0.1192083855
H  H7  1  0.32668000  0.96674000  0.19375000  1.0 0.1192083855
H  H8  1  0.67332000  0.03326000  0.80625000  1.0 0.1192083855
H  H9  1  0.54049000  0.91060000  0.11958000  1.0 0.0889164362
H  H10  1  0.45951000  0.08940000  0.88042000  1.0 0.0889164362
H  H11  1  0.45579000  0.81746000  0.17746000  1.0 0.0802073637
H  H12  1  0.54421000  0.18254000  0.82254000  1.0 0.0802073637
H  H13  1  0.77503000  0.71050000  0.12202000  1.0 0.1192083855
H  H14  1  0.22497000  0.28950000  0.87798000  1.0 0.1192083855
H  H15  1  0.69081000  0.73768000  0.19367000  1.0 0.1120810747
H  H16  1  0.30919000  0.26232000  0.80633000  1.0 0.1120810747
H  H17  1  0.76388000  0.82678000  0.12719000  1.0 0.1192083855
H  H18  1  0.23612000  0.17322000  0.87281000  1.0 0.1192083855
H  H19  1  0.26363000  0.04777000  0.69166000  1.0 0.1192083855
H  H20  1  0.73637000  0.95223000  0.30834000  1.0 0.1192083855
H  H21  1  0.18425000  0.01442000  0.81984000  1.0 0.1120810747
H  H22  1  0.81575000  0.98558000  0.18016000  1.0 0.1120810747
H  H23  1  0.58594000  0.83916000  0.74817000  1.0 0.1192083855
H  H24  1  0.41406000  0.16084000  0.25183000  1.0 0.1192083855
H  H25  1  0.50064000  0.80174000  0.87520000  1.0 0.1192083855
H  H26  1  0.49936000  0.19826000  0.12480000  1.0 0.1192083855
H  H27  1  0.49404000  0.87915000  0.97669000  1.0 0.1120810747
H  H28  1  0.50596000  0.12085000  0.02331000  1.0 0.1120810747
H  H29  1  0.01836000  0.87496000  0.06746000  1.0 0.1192083855
H  H30  1  0.98164000  0.12504000  0.93254000  1.0 0.1192083855
H  H31  1  0.98790000  0.95427000  0.90124000  1.0 0.099938504
H  H32  1  0.01210000  0.04573000  0.09876000  1.0 0.099938504
H  H33  1  0.05267000  0.85291000  0.88048000  1.0 0.0889164362
H  H34  1  0.94733000  0.14709000  0.11952000  1.0 0.0889164362
H  H35  1  0.71558000  0.78041000  0.96192000  1.0 0.1192083855
H  H36  1  0.28442000  0.21959000  0.03808000  1.0 0.1192083855
H  H37  1  0.81015000  0.80640000  0.88297000  1.0 0.1192083855
H  H38  1  0.18985000  0.19360000  0.11703000  1.0 0.1192083855
H  H39  1  0.74604000  0.89715000  0.91712000  1.0 0.1120810747
H  H40  1  0.25396000  0.10285000  0.08288000  1.0 0.1120810747
H  H41  1  0.22667000  0.79157000  0.72485000  1.0 0.1120810747
H  H42  1  0.77333000  0.20843000  0.27515000  1.0 0.1120810747
H  H43  1  0.21922000  0.67476000  0.84441000  1.0 0.1192083855
H  H44  1  0.78078000  0.32524000  0.15559000  1.0 0.1192083855
H  H45  1  0.81023000  0.73485000  0.70490000  1.0 0.1265668474
H  H46  1  0.18977000  0.26515000  0.29510000  1.0 0.1265668474
H  H47  1  0.80252000  0.61855000  0.82471000  1.0 0.0889164362
H  H48  1  0.19748000  0.38145000  0.17529000  1.0 0.0889164362
H  H49  1  0.07592000  0.66795000  0.97339000  1.0 0.1192083855
H  H50  1  0.92408000  0.33205000  0.02661000  1.0 0.1192083855
H  H51  1  0.95651000  0.45087000  0.83234000  1.0 0.0802073637
H  H52  1  0.04349000  0.54913000  0.16766000  1.0 0.0802073637
H  H53  1  0.93921000  0.34147000  0.89309000  1.0 0.0582761481
H  H54  1  0.06079000  0.65853000  0.10691000  1.0 0.0582761481
H  H55  1  0.59960000  0.40065000  0.82034000  1.0 0.0582761481
H  H56  1  0.40040000  0.59935000  0.17966000  1.0 0.0582761481
H  H57  1  0.74123000  0.33369000  0.81257000  1.0 0.0802073637
H  H58  1  0.25877000  0.66631000  0.18743000  1.0 0.0802073637
H  H59  1  0.73701000  0.45311000  0.76957000  1.0 0.0802073637
H  H60  1  0.26299000  0.54689000  0.23043000  1.0 0.0802073637
H  H61  1  0.12708000  0.65341000  0.97040000  1.0 0.1120810747
H  H62  1  0.87292000  0.34659000  0.02960000  1.0 0.1120810747
H  H63  1  0.91632000  0.45225000  0.83056000  1.0 0.099938504
H  H64  1  0.08368000  0.54775000  0.16944000  1.0 0.099938504
H  H65  1  0.87927000  0.34941000  0.89651000  1.0 0.0889164362
H  H66  1  0.12073000  0.65059000  0.10349000  1.0 0.0889164362
H  H67  1  0.54897000  0.45092000  0.81930000  1.0 0.099938504
H  H68  1  0.45103000  0.54908000  0.18070000  1.0 0.099938504
H  H69  1  0.65059000  0.35135000  0.83040000  1.0 0.0802073637
H  H70  1  0.34941000  0.64865000  0.16960000  1.0 0.0802073637
H  H71  1  0.70066000  0.45685000  0.77220000  1.0 0.0889164362
H  H72  1  0.29934000  0.54315000  0.22780000  1.0 0.0889164362
C  C1  1  0.01090000  0.89730000  0.39990000  1.0 0.6373526356
C  C2  1  0.98910000  0.10270000  0.60010000  1.0 0.6373526356
C  C3  1  0.07260000  0.88250000  0.32525000  1.0 -0.0262095504
C  C4  1  0.92740000  0.11750000  0.67475000  1.0 -0.0262095504
C  C5  1  0.00580000  0.81940000  0.28938000  1.0 -0.0906458613
C  C6  1  0.99420000  0.18060000  0.71062000  1.0 -0.0906458613
C  C7  1  0.05740000  0.81140000  0.21806000  1.0 -0.2027243696
C  C8  1  0.94260000  0.18860000  0.78194000  1.0 -0.2027243696
C  C9  1  0.19380000  0.93640000  0.28945000  1.0 -0.0906458613
C  C10  1  0.80620000  0.06360000  0.71055000  1.0 -0.0906458613
C  C11  1  0.24460000  0.92910000  0.21784000  1.0 -0.1721844398
C  C12  1  0.75540000  0.07090000  0.78216000  1.0 -0.1721844398
C  C13  1  0.17710000  0.86730000  0.18051000  1.0 0.0802073637
C  C14  1  0.82290000  0.13270000  0.81949000  1.0 0.0729376502
C  C15  1  0.22240000  0.86780000  0.10047000  1.0 -0.0149778346
C  C16  1  0.77760000  0.13220000  0.89953000  1.0 -0.0149778346
C  C17  1  0.36630000  0.86490000  0.07316000  1.0 0.0235357132
C  C18  1  0.63370000  0.13510000  0.92684000  1.0 0.0235357132
C  C19  1  0.49070000  0.84560000  0.12377000  1.0 -0.100155937
C  C20  1  0.50930000  0.15440000  0.87623000  1.0 -0.100155937
C  C21  1  0.71360000  0.76150000  0.13870000  1.0 -0.2511904858
C  C22  1  0.28640000  0.23850000  0.86130000  1.0 -0.2511904858
C  C23  1  0.48780000  0.97270000  0.62515000  1.0 0.6515878938
C  C24  1  0.51220000  0.02730000  0.37485000  1.0 0.6515878938
C  C25  1  0.43420000  0.94800000  0.70753000  1.0 -0.0392947518
C  C26  1  0.56580000  0.05200000  0.29247000  1.0 -0.0392947518
C  C27  1  0.31330000  0.99910000  0.72898000  1.0 -0.0906458613
C  C28  1  0.68670000  0.00090000  0.27102000  1.0 -0.0906458613
C  C29  1  0.26560000  0.97840000  0.80547000  1.0 -0.1721844398
C  C30  1  0.73440000  0.02160000  0.19453000  1.0 -0.1721844398
C  C31  1  0.50390000  0.87460000  0.76258000  1.0 -0.100155937
C  C32  1  0.49610000  0.12540000  0.23742000  1.0 -0.100155937
C  C33  1  0.45370000  0.85300000  0.83833000  1.0 -0.1621803739
C  C34  1  0.54630000  0.14700000  0.16167000  1.0 -0.1621803739
C  C35  1  0.33470000  0.90590000  0.86127000  1.0 0.0802073637
C  C36  1  0.66530000  0.09410000  0.13873000  1.0 0.0802073637
C  C37  1  0.28990000  0.88810000  0.94354000  1.0 0.0235357132
C  C38  1  0.71010000  0.11190000  0.05646000  1.0 0.0235357132
C  C39  1  0.39650000  0.87760000  0.99536000  1.0 -0.2225952469
C  C40  1  0.60350000  0.12240000  0.00464000  1.0 -0.2225952469
C  C41  1  0.14620000  0.88320000  0.97177000  1.0 0.0328842261
C  C42  1  0.85380000  0.11680000  0.02823000  1.0 0.0328842261
C  C43  1  0.11590000  0.87530000  0.04899000  1.0 -0.2755710282
C  C44  1  0.88410000  0.12470000  0.95101000  1.0 -0.2755710282
C  C45  1  0.02210000  0.88330000  0.92291000  1.0 -0.0906458613
C  C46  1  0.97790000  0.11670000  0.07709000  1.0 -0.0906458613
C  C47  1  0.78620000  0.82740000  0.92980000  1.0 -0.2511904858
C  C48  1  0.21380000  0.17260000  0.07020000  1.0 -0.2511904858
C  C49  1  0.02180000  0.85000000  0.62572000  1.0 0.6515878938
C  C50  1  0.97820000  0.15000000  0.37428000  1.0 0.6515878938
C  C51  1  0.01920000  0.77500000  0.70319000  1.0 -0.0262095504
C  C52  1  0.98080000  0.22500000  0.29681000  1.0 -0.0262095504
C  C53  1  0.14040000  0.75650000  0.74501000  1.0 -0.0837406464
C  C54  1  0.85960000  0.24350000  0.25499000  1.0 -0.0837406464
C  C55  1  0.13590000  0.68680000  0.81618000  1.0 -0.1721844398
C  C56  1  0.86410000  0.31320000  0.18382000  1.0 -0.1721844398
C  C57  1  0.89340000  0.72290000  0.73328000  1.0 -0.100155937
C  C58  1  0.10660000  0.27710000  0.26672000  1.0 -0.100155937
C  C59  1  0.88900000  0.65340000  0.80458000  1.0 -0.2254374646
C  C60  1  0.11100000  0.34660000  0.19542000  1.0 -0.2254374646
C  C61  1  0.01000000  0.63430000  0.84678000  1.0 0.0044687083
C  C62  1  0.99000000  0.36570000  0.15322000  1.0 0.0062286524
C  C63  1  0.00480000  0.56270000  0.92456000  1.0 0.0328842261
C  C64  1  0.99520000  0.43730000  0.07544000  1.0 0.0328842261
C  C65  1  0.04500000  0.59900000  0.98450000  1.0 -0.2511904858
C  C66  1  0.95500000  0.40100000  0.01550000  1.0 -0.2511904858
C  C67  1  0.95800000  0.45820000  0.94110000  1.0 0.0889164362
C  C68  1  0.04200000  0.54180000  0.05890000  1.0 0.0802073637
C  C69  1  0.91060000  0.41470000  0.88230000  1.0 -0.1237903781
C  C70  1  0.08940000  0.58530000  0.11770000  1.0 -0.1237903781
C  C71  1  0.70460000  0.40120000  0.81570000  1.0 -0.1129400902
C  C72  1  0.29540000  0.59880000  0.18430000  1.0 -0.1129400902
C  C73  1  0.07600000  0.59100000  0.98200000  1.0 -0.2511904858
C  C74  1  0.92400000  0.40900000  0.01800000  1.0 -0.2511904858
C  C75  1  0.92900000  0.47500000  0.94300000  1.0 0.0729376502
C  C76  1  0.07100000  0.52500000  0.05700000  1.0 0.0729376502
C  C77  1  0.86700000  0.42500000  0.88140000  1.0 0.0328842261
C  C78  1  0.13300000  0.57500000  0.11860000  1.0 0.0328842261
C  C79  1  0.64900000  0.42600000  0.82090000  1.0 -0.1129400902
C  C80  1  0.35100000  0.57400000  0.17910000  1.0 -0.1129400902
O  O1  1  0.88290000  0.87206000  0.41988000  1.0 -0.6366347172
O  O2  1  0.11710000  0.12794000  0.58012000  1.0 -0.6366347172
O  O3  1  0.08800000  0.93777000  0.43753000  1.0 -0.7091671028
O  O4  1  0.91200000  0.06223000  0.56247000  1.0 -0.7091671028
O  O5  1  0.61170000  0.94076000  0.61011000  1.0 -0.6863657036
O  O6  1  0.38830000  0.05924000  0.38989000  1.0 -0.6863657036
O  O7  1  0.40820000  0.02599000  0.57676000  1.0 -0.6863657036
O  O8  1  0.59180000  0.97401000  0.42324000  1.0 -0.6863657036
O  O9  1  0.91210000  0.85303000  0.58891000  1.0 -0.6719933398
O  O10  1  0.08790000  0.14697000  0.41109000  1.0 -0.6719933398
O  O11  1  0.13190000  0.90368000  0.60419000  1.0 -0.6719933398
O  O12  1  0.86810000  0.09632000  0.39581000  1.0 -0.6719933398
O  O13  1  0.58600000  0.77500000  0.10042000  1.0 -0.1721844398
O  O14  1  0.41400000  0.22500000  0.89958000  1.0 -0.1721844398
O  O15  1  0.91150000  0.82477000  0.96949000  1.0 -0.1866687857
O  O16  1  0.08850000  0.17523000  0.03051000  1.0 -0.1866687857
O  O17  1  0.75680000  0.42470000  0.88010000  1.0 0.0411119885
O  O18  1  0.24320000  0.57530000  0.11990000  1.0 0.0411119885
O  O19  1  0.71580000  0.45440000  0.88120000  1.0 -0.0592427202
O  O20  1  0.28420000  0.54560000  0.11880000  1.0 -0.0592427202
