# DDEC6 charges by PACMAN v1.1 (https://github.com/mtap-research/PACMAN-charge/)
data_GILYUY_ASR_pacman
_symmetry_space_group_name_H-M   'P 1'
_cell_length_a   17.60500000
_cell_length_b   28.42260000
_cell_length_c   18.78520000
_cell_angle_alpha   90.00000000
_cell_angle_beta   117.09200000
_cell_angle_gamma   90.00000000
_symmetry_Int_Tables_number   1
_chemical_formula_structural   Eu2H24C45(NO)12
_chemical_formula_sum   'Eu8 H96 C180 N48 O48'
_cell_volume   8368.36313719
_cell_formula_units_Z   4
loop_
 _symmetry_equiv_pos_site_id
 _symmetry_equiv_pos_as_xyz
  1  'x, y, z'
loop_
 _atom_site_type_symbol
 _atom_site_label
 _atom_site_symmetry_multiplicity
 _atom_site_fract_x
 _atom_site_fract_y
 _atom_site_fract_z
 _atom_site_occupancy
 _atom_site_charge
Eu  Eu1  1  0.22176000  0.24322000  0.24771000  1.0 2.1333664748
Eu  Eu2  1  0.45772000  0.29147000  0.28300000  1.0 2.1333664748
Eu  Eu3  1  0.27824000  0.74322000  0.75229000  1.0 2.1333664748
Eu  Eu4  1  0.04228000  0.79147000  0.71700000  1.0 2.1333664748
Eu  Eu5  1  0.77824000  0.75678000  0.75229000  1.0 2.1333664748
Eu  Eu6  1  0.54228000  0.70853000  0.71700000  1.0 2.1333664748
Eu  Eu7  1  0.72176000  0.25678000  0.24771000  1.0 2.1333664748
Eu  Eu8  1  0.95772000  0.20853000  0.28300000  1.0 2.1333664748
H  H1  1  0.36647000  0.34105000  0.03607000  1.0 0.1313027076
H  H2  1  0.30371000  0.34484000  0.89774000  1.0 0.1313027076
H  H3  1  0.58552000  0.29997000  0.03814000  1.0 0.121874624
H  H4  1  0.49547000  0.32840000  0.54328000  1.0 0.121874624
H  H5  1  0.48160000  0.33135000  0.65782000  1.0 0.110487448
H  H6  1  0.24438000  0.31283000  0.41232000  1.0 0.110487448
H  H7  1  0.46860000  0.31378000  0.77049000  1.0 0.1313027076
H  H8  1  0.52308000  0.30605000  0.90168000  1.0 0.121874624
H  H9  1  0.57245000  0.17187000  0.47340000  1.0 0.121874624
H  H10  1  0.41172000  0.01123000  0.57080000  1.0 0.1313027076
H  H11  1  0.62443000  0.91438000  0.74377000  1.0 0.1313027076
H  H12  1  0.58480000  0.84280000  0.77519000  1.0 0.121874624
H  H13  1  0.34107000  0.88251000  0.66448000  1.0 0.1313027076
H  H14  1  0.37839000  0.95248000  0.62738000  1.0 0.1313027076
H  H15  1  0.37347000  0.07194000  0.49042000  1.0 0.121874624
H  H16  1  0.33133000  0.13239000  0.39970000  1.0 0.1313027076
H  H17  1  0.33992000  0.20787000  0.50638000  1.0 0.110487448
H  H18  1  0.16697000  0.19159000  0.63149000  1.0 0.121874624
H  H19  1  0.11119000  0.19170000  0.49680000  1.0 0.1313027076
H  H20  1  0.45424000  0.21617000  0.00179000  1.0 0.1313027076
H  H21  1  0.43423000  0.22766000  0.11546000  1.0 0.1313027076
H  H22  1  0.18748000  0.19748000  0.98900000  1.0 0.121874624
H  H23  1  0.20521000  0.18711000  0.87537000  1.0 0.121874624
H  H24  1  0.22009000  0.20063000  0.76151000  1.0 0.1313027076
H  H25  1  0.13353000  0.84105000  0.96393000  1.0 0.1313027076
H  H26  1  0.19629000  0.84484000  0.10226000  1.0 0.1313027076
H  H27  1  0.91448000  0.79997000  0.96186000  1.0 0.121874624
H  H28  1  0.00453000  0.82840000  0.45672000  1.0 0.121874624
H  H29  1  0.01840000  0.83135000  0.34218000  1.0 0.110487448
H  H30  1  0.25562000  0.81283000  0.58768000  1.0 0.110487448
H  H31  1  0.03140000  0.81378000  0.22951000  1.0 0.1313027076
H  H32  1  0.97692000  0.80605000  0.09832000  1.0 0.121874624
H  H33  1  0.92755000  0.67187000  0.52660000  1.0 0.121874624
H  H34  1  0.08828000  0.51123000  0.42920000  1.0 0.1313027076
H  H35  1  0.87557000  0.41438000  0.25623000  1.0 0.1313027076
H  H36  1  0.91520000  0.34280000  0.22481000  1.0 0.121874624
H  H37  1  0.15893000  0.38251000  0.33552000  1.0 0.1313027076
H  H38  1  0.12161000  0.45248000  0.37262000  1.0 0.1313027076
H  H39  1  0.12653000  0.57194000  0.50958000  1.0 0.121874624
H  H40  1  0.16867000  0.63239000  0.60030000  1.0 0.1313027076
H  H41  1  0.16008000  0.70787000  0.49362000  1.0 0.110487448
H  H42  1  0.33303000  0.69159000  0.36851000  1.0 0.121874624
H  H43  1  0.38881000  0.69170000  0.50320000  1.0 0.1313027076
H  H44  1  0.04576000  0.71617000  0.99821000  1.0 0.1313027076
H  H45  1  0.06577000  0.72766000  0.88454000  1.0 0.1313027076
H  H46  1  0.31252000  0.69748000  0.01100000  1.0 0.121874624
H  H47  1  0.29479000  0.68711000  0.12463000  1.0 0.121874624
H  H48  1  0.27991000  0.70063000  0.23849000  1.0 0.1313027076
H  H49  1  0.63353000  0.65895000  0.96393000  1.0 0.1313027076
H  H50  1  0.69629000  0.65516000  0.10226000  1.0 0.1313027076
H  H51  1  0.41448000  0.70003000  0.96186000  1.0 0.121874624
H  H52  1  0.50453000  0.67160000  0.45672000  1.0 0.121874624
H  H53  1  0.51840000  0.66865000  0.34218000  1.0 0.110487448
H  H54  1  0.75562000  0.68717000  0.58768000  1.0 0.110487448
H  H55  1  0.53140000  0.68622000  0.22951000  1.0 0.1313027076
H  H56  1  0.47692000  0.69395000  0.09832000  1.0 0.121874624
H  H57  1  0.42755000  0.82813000  0.52660000  1.0 0.121874624
H  H58  1  0.58828000  0.98877000  0.42920000  1.0 0.1313027076
H  H59  1  0.37557000  0.08562000  0.25623000  1.0 0.1313027076
H  H60  1  0.41520000  0.15720000  0.22481000  1.0 0.121874624
H  H61  1  0.65893000  0.11749000  0.33552000  1.0 0.1313027076
H  H62  1  0.62161000  0.04752000  0.37262000  1.0 0.1313027076
H  H63  1  0.62653000  0.92806000  0.50958000  1.0 0.121874624
H  H64  1  0.66867000  0.86761000  0.60030000  1.0 0.1313027076
H  H65  1  0.66008000  0.79213000  0.49362000  1.0 0.110487448
H  H66  1  0.83303000  0.80841000  0.36851000  1.0 0.121874624
H  H67  1  0.88881000  0.80830000  0.50320000  1.0 0.1313027076
H  H68  1  0.54576000  0.78383000  0.99821000  1.0 0.1313027076
H  H69  1  0.56577000  0.77234000  0.88454000  1.0 0.1313027076
H  H70  1  0.81252000  0.80252000  0.01100000  1.0 0.121874624
H  H71  1  0.79479000  0.81289000  0.12463000  1.0 0.121874624
H  H72  1  0.77991000  0.79937000  0.23849000  1.0 0.1313027076
H  H73  1  0.86647000  0.15895000  0.03607000  1.0 0.1313027076
H  H74  1  0.80371000  0.15516000  0.89774000  1.0 0.1313027076
H  H75  1  0.08552000  0.20003000  0.03814000  1.0 0.121874624
H  H76  1  0.99547000  0.17160000  0.54328000  1.0 0.121874624
H  H77  1  0.98160000  0.16865000  0.65782000  1.0 0.110487448
H  H78  1  0.74438000  0.18717000  0.41232000  1.0 0.110487448
H  H79  1  0.96860000  0.18622000  0.77049000  1.0 0.1313027076
H  H80  1  0.02308000  0.19395000  0.90168000  1.0 0.121874624
H  H81  1  0.07245000  0.32813000  0.47340000  1.0 0.121874624
H  H82  1  0.91172000  0.48877000  0.57080000  1.0 0.1313027076
H  H83  1  0.12443000  0.58562000  0.74377000  1.0 0.1313027076
H  H84  1  0.08480000  0.65720000  0.77519000  1.0 0.121874624
H  H85  1  0.84107000  0.61749000  0.66448000  1.0 0.1313027076
H  H86  1  0.87839000  0.54752000  0.62738000  1.0 0.1313027076
H  H87  1  0.87347000  0.42806000  0.49042000  1.0 0.121874624
H  H88  1  0.83133000  0.36761000  0.39970000  1.0 0.1313027076
H  H89  1  0.83992000  0.29213000  0.50638000  1.0 0.110487448
H  H90  1  0.66697000  0.30841000  0.63149000  1.0 0.121874624
H  H91  1  0.61119000  0.30830000  0.49680000  1.0 0.1313027076
H  H92  1  0.95424000  0.28383000  0.00179000  1.0 0.1313027076
H  H93  1  0.93423000  0.27234000  0.11546000  1.0 0.1313027076
H  H94  1  0.68748000  0.30252000  0.98900000  1.0 0.121874624
H  H95  1  0.70521000  0.31289000  0.87537000  1.0 0.121874624
H  H96  1  0.72009000  0.29937000  0.76151000  1.0 0.1313027076
C  C1  1  0.52330000  0.31220000  0.14130000  1.0 0.6612436268
C  C2  1  0.41730000  0.19650000  0.36630000  1.0 0.625022361
C  C3  1  0.29170000  0.22470000  0.13380000  1.0 0.6111238096
C  C4  1  0.30780000  0.21550000  0.06250000  1.0 -0.0161593482
C  C5  1  0.17650000  0.20260000  0.39740000  1.0 0.6612436268
C  C6  1  0.48200000  0.31940000  0.05180000  1.0 -0.0315234159
C  C7  1  0.39790000  0.33333333  0.00920000  1.0 -0.0778389992
C  C8  1  0.36050000  0.33600000  0.92690000  1.0 -0.1691764711
C  C9  1  0.41030000  0.32510000  0.88810000  1.0 0.1313027076
C  C10  1  0.52870000  0.30920000  0.01020000  1.0 -0.0885783192
C  C11  1  0.43080000  0.80690000  0.73360000  1.0 0.6464195344
C  C12  1  0.38680000  0.31420000  0.39470000  1.0 0.6364946458
C  C13  1  0.37150000  0.31900000  0.46640000  1.0 -0.0682360229
C  C14  1  0.44150000  0.32570000  0.54050000  1.0 -0.0682360229
C  C15  1  0.43360000  0.32830000  0.60860000  1.0 -0.1596806652
C  C16  1  0.35420000  0.32650000  0.60420000  1.0 0.170196771
C  C17  1  0.29180000  0.31700000  0.46170000  1.0 0.0352880228
C  C18  1  0.34830000  0.32790000  0.67840000  1.0 0.0734302104
C  C19  1  0.41160000  0.32100000  0.75460000  1.0 -0.1596806652
C  C20  1  0.49130000  0.31260000  0.92880000  1.0 -0.1691764711
C  C21  1  0.44680000  0.15770000  0.42700000  1.0 -0.0682360229
C  C22  1  0.53260000  0.15150000  0.47620000  1.0 0.0456337202
C  C23  1  0.49870000  0.08410000  0.53300000  1.0 0.170196771
C  C24  1  0.52240000  0.04410000  0.58530000  1.0 0.0607950799
C  C25  1  0.47100000  0.01200000  0.59590000  1.0 -0.146841785
C  C26  1  0.50420000  0.93830000  0.67880000  1.0 0.1313027076
C  C27  1  0.56710000  0.90700000  0.72570000  1.0 -0.1596806652
C  C28  1  0.54310000  0.86460000  0.74510000  1.0 -0.0778389992
C  C29  1  0.45730000  0.85400000  0.72050000  1.0 -0.0616009813
C  C30  1  0.39820000  0.88820000  0.67850000  1.0 -0.0682360229
C  C31  1  0.41980000  0.93030000  0.65640000  1.0 -0.1783175277
C  C32  1  0.41380000  0.09130000  0.48620000  1.0 -0.1691764711
C  C33  1  0.38920000  0.12780000  0.43300000  1.0 -0.0682360229
C  C34  1  0.21820000  0.19960000  0.48630000  1.0 -0.0778389992
C  C35  1  0.30550000  0.20360000  0.53150000  1.0 0.0607950799
C  C36  1  0.28810000  0.19700000  0.64850000  1.0 0.170196771
C  C37  1  0.20177000  0.19400000  0.60641000  1.0 -0.1596806652
C  C38  1  0.17000000  0.19470000  0.52700000  1.0 -0.0682360229
C  C39  1  0.32280000  0.19660000  0.73550000  1.0 0.0734302104
C  C40  1  0.33120000  0.20230000  0.92810000  1.0 0.1393566224
C  C41  1  0.40030000  0.21330000  0.99880000  1.0 -0.1596806652
C  C42  1  0.38800000  0.22000000  0.06690000  1.0 -0.0778389992
C  C43  1  0.24090000  0.20220000  0.99150000  1.0 -0.0885783192
C  C44  1  0.25120000  0.19570000  0.92340000  1.0 -0.1783175277
C  C45  1  0.27880000  0.19890000  0.78020000  1.0 -0.1596806652
C  C46  1  0.97670000  0.81220000  0.85870000  1.0 0.6612436268
C  C47  1  0.08270000  0.69650000  0.63370000  1.0 0.625022361
C  C48  1  0.20830000  0.72470000  0.86620000  1.0 0.6111238096
C  C49  1  0.19220000  0.71550000  0.93750000  1.0 -0.0161593482
C  C50  1  0.32350000  0.70260000  0.60260000  1.0 0.6612436268
C  C51  1  0.01800000  0.81940000  0.94820000  1.0 -0.0315234159
C  C52  1  0.10210000  0.83333000  0.99080000  1.0 -0.0778389992
C  C53  1  0.13950000  0.83600000  0.07310000  1.0 -0.1691764711
C  C54  1  0.08970000  0.82510000  0.11190000  1.0 0.1313027076
C  C55  1  0.97130000  0.80920000  0.98980000  1.0 -0.0885783192
C  C56  1  0.06920000  0.30690000  0.26640000  1.0 0.6464195344
C  C57  1  0.11320000  0.81420000  0.60530000  1.0 0.6364946458
C  C58  1  0.12850000  0.81900000  0.53360000  1.0 -0.0682360229
C  C59  1  0.05850000  0.82570000  0.45950000  1.0 -0.0682360229
C  C60  1  0.06640000  0.82830000  0.39140000  1.0 -0.1596806652
C  C61  1  0.14580000  0.82650000  0.39580000  1.0 0.170196771
C  C62  1  0.20820000  0.81700000  0.53830000  1.0 0.0352880228
C  C63  1  0.15170000  0.82790000  0.32160000  1.0 0.0734302104
C  C64  1  0.08840000  0.82100000  0.24540000  1.0 -0.1596806652
C  C65  1  0.00870000  0.81260000  0.07120000  1.0 -0.1691764711
C  C66  1  0.05320000  0.65770000  0.57300000  1.0 -0.0682360229
C  C67  1  0.96740000  0.65150000  0.52380000  1.0 0.0456337202
C  C68  1  0.00130000  0.58410000  0.46700000  1.0 0.170196771
C  C69  1  0.97760000  0.54410000  0.41470000  1.0 0.0607950799
C  C70  1  0.02900000  0.51200000  0.40410000  1.0 -0.146841785
C  C71  1  0.99580000  0.43830000  0.32120000  1.0 0.1313027076
C  C72  1  0.93290000  0.40700000  0.27430000  1.0 -0.1596806652
C  C73  1  0.95690000  0.36460000  0.25490000  1.0 -0.0778389992
C  C74  1  0.04270000  0.35400000  0.27950000  1.0 -0.0616009813
C  C75  1  0.10180000  0.38820000  0.32150000  1.0 -0.0682360229
C  C76  1  0.08020000  0.43030000  0.34360000  1.0 -0.1783175277
C  C77  1  0.08620000  0.59130000  0.51380000  1.0 -0.1691764711
C  C78  1  0.11080000  0.62780000  0.56700000  1.0 -0.0682360229
C  C79  1  0.28180000  0.69960000  0.51370000  1.0 -0.0778389992
C  C80  1  0.19450000  0.70360000  0.46850000  1.0 0.0607950799
C  C81  1  0.21190000  0.69700000  0.35150000  1.0 0.170196771
C  C82  1  0.29823000  0.69400000  0.39359000  1.0 -0.1596806652
C  C83  1  0.33000000  0.69470000  0.47300000  1.0 -0.0682360229
C  C84  1  0.17720000  0.69660000  0.26450000  1.0 0.0734302104
C  C85  1  0.16880000  0.70230000  0.07190000  1.0 0.1393566224
C  C86  1  0.09970000  0.71330000  0.00120000  1.0 -0.1596806652
C  C87  1  0.11200000  0.72000000  0.93310000  1.0 -0.0778389992
C  C88  1  0.25910000  0.70220000  0.00850000  1.0 -0.0885783192
C  C89  1  0.24880000  0.69570000  0.07660000  1.0 -0.1783175277
C  C90  1  0.22120000  0.69890000  0.21980000  1.0 -0.1596806652
C  C91  1  0.47670000  0.68780000  0.85870000  1.0 0.6612436268
C  C92  1  0.58270000  0.80350000  0.63370000  1.0 0.625022361
C  C93  1  0.70830000  0.77530000  0.86620000  1.0 0.6111238096
C  C94  1  0.69220000  0.78450000  0.93750000  1.0 -0.0161593482
C  C95  1  0.82350000  0.79740000  0.60260000  1.0 0.6612436268
C  C96  1  0.51800000  0.68060000  0.94820000  1.0 -0.0315234159
C  C97  1  0.60210000  0.66666667  0.99080000  1.0 -0.0778389992
C  C98  1  0.63950000  0.66400000  0.07310000  1.0 -0.1691764711
C  C99  1  0.58970000  0.67490000  0.11190000  1.0 0.1313027076
C  C100  1  0.47130000  0.69080000  0.98980000  1.0 -0.0885783192
C  C101  1  0.56920000  0.19310000  0.26640000  1.0 0.6464195344
C  C102  1  0.61320000  0.68580000  0.60530000  1.0 0.6364946458
C  C103  1  0.62850000  0.68100000  0.53360000  1.0 -0.0682360229
C  C104  1  0.55850000  0.67430000  0.45950000  1.0 -0.0682360229
C  C105  1  0.56640000  0.67170000  0.39140000  1.0 -0.1596806652
C  C106  1  0.64580000  0.67350000  0.39580000  1.0 0.170196771
C  C107  1  0.70820000  0.68300000  0.53830000  1.0 0.0352880228
C  C108  1  0.65170000  0.67210000  0.32160000  1.0 0.0734302104
C  C109  1  0.58840000  0.67900000  0.24540000  1.0 -0.1596806652
C  C110  1  0.50870000  0.68740000  0.07120000  1.0 -0.1691764711
C  C111  1  0.55320000  0.84230000  0.57300000  1.0 -0.0682360229
C  C112  1  0.46740000  0.84850000  0.52380000  1.0 0.0456337202
C  C113  1  0.50130000  0.91590000  0.46700000  1.0 0.170196771
C  C114  1  0.47760000  0.95590000  0.41470000  1.0 0.0607950799
C  C115  1  0.52900000  0.98800000  0.40410000  1.0 -0.146841785
C  C116  1  0.49580000  0.06170000  0.32120000  1.0 0.1313027076
C  C117  1  0.43290000  0.09300000  0.27430000  1.0 -0.1596806652
C  C118  1  0.45690000  0.13540000  0.25490000  1.0 -0.0778389992
C  C119  1  0.54270000  0.14600000  0.27950000  1.0 -0.0616009813
C  C120  1  0.60180000  0.11180000  0.32150000  1.0 -0.0682360229
C  C121  1  0.58020000  0.06970000  0.34360000  1.0 -0.1783175277
C  C122  1  0.58620000  0.90870000  0.51380000  1.0 -0.1691764711
C  C123  1  0.61080000  0.87220000  0.56700000  1.0 -0.0682360229
C  C124  1  0.78180000  0.80040000  0.51370000  1.0 -0.0778389992
C  C125  1  0.69450000  0.79640000  0.46850000  1.0 0.0607950799
C  C126  1  0.71190000  0.80300000  0.35150000  1.0 0.170196771
C  C127  1  0.79823000  0.80600000  0.39359000  1.0 -0.1596806652
C  C128  1  0.83000000  0.80530000  0.47300000  1.0 -0.0682360229
C  C129  1  0.67720000  0.80340000  0.26450000  1.0 0.0734302104
C  C130  1  0.66880000  0.79770000  0.07190000  1.0 0.1393566224
C  C131  1  0.59970000  0.78670000  0.00120000  1.0 -0.1596806652
C  C132  1  0.61200000  0.78000000  0.93310000  1.0 -0.0778389992
C  C133  1  0.75910000  0.79780000  0.00850000  1.0 -0.0885783192
C  C134  1  0.74880000  0.80430000  0.07660000  1.0 -0.1783175277
C  C135  1  0.72120000  0.80110000  0.21980000  1.0 -0.1596806652
C  C136  1  0.02330000  0.18780000  0.14130000  1.0 0.6612436268
C  C137  1  0.91730000  0.30350000  0.36630000  1.0 0.625022361
C  C138  1  0.79170000  0.27530000  0.13380000  1.0 0.6111238096
C  C139  1  0.80780000  0.28450000  0.06250000  1.0 -0.0161593482
C  C140  1  0.67650000  0.29740000  0.39740000  1.0 0.6612436268
C  C141  1  0.98200000  0.18060000  0.05180000  1.0 -0.0315234159
C  C142  1  0.89790000  0.16667000  0.00920000  1.0 -0.0778389992
C  C143  1  0.86050000  0.16400000  0.92690000  1.0 -0.1691764711
C  C144  1  0.91030000  0.17490000  0.88810000  1.0 0.1313027076
C  C145  1  0.02870000  0.19080000  0.01020000  1.0 -0.0885783192
C  C146  1  0.93080000  0.69310000  0.73360000  1.0 0.6464195344
C  C147  1  0.88680000  0.18580000  0.39470000  1.0 0.6364946458
C  C148  1  0.87150000  0.18100000  0.46640000  1.0 -0.0682360229
C  C149  1  0.94150000  0.17430000  0.54050000  1.0 -0.0682360229
C  C150  1  0.93360000  0.17170000  0.60860000  1.0 -0.1596806652
C  C151  1  0.85420000  0.17350000  0.60420000  1.0 0.170196771
C  C152  1  0.79180000  0.18300000  0.46170000  1.0 0.0352880228
C  C153  1  0.84830000  0.17210000  0.67840000  1.0 0.0734302104
C  C154  1  0.91160000  0.17900000  0.75460000  1.0 -0.1596806652
C  C155  1  0.99130000  0.18740000  0.92880000  1.0 -0.1691764711
C  C156  1  0.94680000  0.34230000  0.42700000  1.0 -0.0682360229
C  C157  1  0.03260000  0.34850000  0.47620000  1.0 0.0456337202
C  C158  1  0.99870000  0.41590000  0.53300000  1.0 0.170196771
C  C159  1  0.02240000  0.45590000  0.58530000  1.0 0.0607950799
C  C160  1  0.97100000  0.48800000  0.59590000  1.0 -0.146841785
C  C161  1  0.00420000  0.56170000  0.67880000  1.0 0.1313027076
C  C162  1  0.06710000  0.59300000  0.72570000  1.0 -0.1596806652
C  C163  1  0.04310000  0.63540000  0.74510000  1.0 -0.0778389992
C  C164  1  0.95730000  0.64600000  0.72050000  1.0 -0.0616009813
C  C165  1  0.89820000  0.61180000  0.67850000  1.0 -0.0682360229
C  C166  1  0.91980000  0.56970000  0.65640000  1.0 -0.1783175277
C  C167  1  0.91380000  0.40870000  0.48620000  1.0 -0.1691764711
C  C168  1  0.88920000  0.37220000  0.43300000  1.0 -0.0682360229
C  C169  1  0.71820000  0.30040000  0.48630000  1.0 -0.0778389992
C  C170  1  0.80550000  0.29640000  0.53150000  1.0 0.0607950799
C  C171  1  0.78810000  0.30300000  0.64850000  1.0 0.170196771
C  C172  1  0.70177000  0.30600000  0.60641000  1.0 -0.1596806652
C  C173  1  0.67000000  0.30530000  0.52700000  1.0 -0.0682360229
C  C174  1  0.82280000  0.30340000  0.73550000  1.0 0.0734302104
C  C175  1  0.83120000  0.29770000  0.92810000  1.0 0.1393566224
C  C176  1  0.90030000  0.28670000  0.99880000  1.0 -0.1596806652
C  C177  1  0.88800000  0.28000000  0.06690000  1.0 -0.0778389992
C  C178  1  0.74090000  0.29780000  0.99150000  1.0 -0.0885783192
C  C179  1  0.75120000  0.30430000  0.92340000  1.0 -0.1783175277
C  C180  1  0.77880000  0.30110000  0.78020000  1.0 -0.1596806652
N  N1  1  0.33930000  0.19800000  0.85670000  1.0 0.1393566224
N  N2  1  0.28110000  0.32110000  0.53160000  1.0 -0.295428535
N  N3  1  0.27410000  0.33700000  0.68130000  1.0 -0.1783175277
N  N4  1  0.28970000  0.33700000  0.75520000  1.0 -0.103622226
N  N5  1  0.37240000  0.32690000  0.80160000  1.0 0.1393566224
N  N6  1  0.55930000  0.11400000  0.53070000  1.0 -0.2666498031
N  N7  1  0.52470000  0.98150000  0.65030000  1.0 0.1393566224
N  N8  1  0.60690000  0.99440000  0.67320000  1.0 -0.103622226
N  N9  1  0.60530000  0.03280000  0.63390000  1.0 -0.1973572448
N  N10  1  0.34180000  0.20140000  0.61360000  1.0 -0.2848373559
N  N11  1  0.40770000  0.19320000  0.78610000  1.0 -0.1973572448
N  N12  1  0.41810000  0.19480000  0.85990000  1.0 -0.1196267419
N  N13  1  0.16070000  0.69800000  0.14330000  1.0 0.1393566224
N  N14  1  0.21890000  0.82110000  0.46840000  1.0 -0.295428535
N  N15  1  0.22590000  0.83700000  0.31870000  1.0 -0.1783175277
N  N16  1  0.21030000  0.83700000  0.24480000  1.0 -0.103622226
N  N17  1  0.12760000  0.82690000  0.19840000  1.0 0.1393566224
N  N18  1  0.94070000  0.61400000  0.46930000  1.0 -0.2666498031
N  N19  1  0.97530000  0.48150000  0.34970000  1.0 0.1393566224
N  N20  1  0.89310000  0.49440000  0.32680000  1.0 -0.103622226
N  N21  1  0.89470000  0.53280000  0.36610000  1.0 -0.1973572448
N  N22  1  0.15820000  0.70140000  0.38640000  1.0 -0.2848373559
N  N23  1  0.09230000  0.69320000  0.21390000  1.0 -0.1973572448
N  N24  1  0.08190000  0.69480000  0.14010000  1.0 -0.1196267419
N  N25  1  0.66070000  0.80200000  0.14330000  1.0 0.1393566224
N  N26  1  0.71890000  0.67890000  0.46840000  1.0 -0.295428535
N  N27  1  0.72590000  0.66300000  0.31870000  1.0 -0.1783175277
N  N28  1  0.71030000  0.66300000  0.24480000  1.0 -0.103622226
N  N29  1  0.62760000  0.67310000  0.19840000  1.0 0.1393566224
N  N30  1  0.44070000  0.88600000  0.46930000  1.0 -0.2666498031
N  N31  1  0.47530000  0.01850000  0.34970000  1.0 0.1393566224
N  N32  1  0.39310000  0.00560000  0.32680000  1.0 -0.103622226
N  N33  1  0.39470000  0.96720000  0.36610000  1.0 -0.1973572448
N  N34  1  0.65820000  0.79860000  0.38640000  1.0 -0.2848373559
N  N35  1  0.59230000  0.80680000  0.21390000  1.0 -0.1973572448
N  N36  1  0.58190000  0.80520000  0.14010000  1.0 -0.1196267419
N  N37  1  0.83930000  0.30200000  0.85670000  1.0 0.1393566224
N  N38  1  0.78110000  0.17890000  0.53160000  1.0 -0.295428535
N  N39  1  0.77410000  0.16300000  0.68130000  1.0 -0.1783175277
N  N40  1  0.78970000  0.16300000  0.75520000  1.0 -0.103622226
N  N41  1  0.87240000  0.17310000  0.80160000  1.0 0.1393566224
N  N42  1  0.05930000  0.38600000  0.53070000  1.0 -0.2666498031
N  N43  1  0.02470000  0.51850000  0.65030000  1.0 0.1393566224
N  N44  1  0.10690000  0.50560000  0.67320000  1.0 -0.103622226
N  N45  1  0.10530000  0.46720000  0.63390000  1.0 -0.1973572448
N  N46  1  0.84180000  0.29860000  0.61360000  1.0 -0.2848373559
N  N47  1  0.90770000  0.30680000  0.78610000  1.0 -0.1973572448
N  N48  1  0.91810000  0.30520000  0.85990000  1.0 -0.1196267419
O  O1  1  0.59800000  0.29820000  0.17690000  1.0 -0.6815195587
O  O2  1  0.34050000  0.19410000  0.31290000  1.0 -0.6891382244
O  O3  1  0.21980000  0.21470000  0.36430000  1.0 -0.6324372199
O  O4  1  0.35600000  0.80250000  0.72520000  1.0 -0.6694269684
O  O5  1  0.32880000  0.29760000  0.32970000  1.0 -0.7496511843
O  O6  1  0.23470000  0.20140000  0.13730000  1.0 -0.5809141901
O  O7  1  0.09850000  0.19240000  0.36120000  1.0 -0.6891382244
O  O8  1  0.48410000  0.77346000  0.75300000  1.0 -0.6999280658
O  O9  1  0.47520000  0.32090000  0.17430000  1.0 -0.6999280658
O  O10  1  0.33230000  0.25540000  0.18510000  1.0 -0.7375283745
O  O11  1  0.46740000  0.22820000  0.37210000  1.0 -0.6197549012
O  O12  1  0.45770000  0.32600000  0.40110000  1.0 -0.6197549012
O  O13  1  0.90200000  0.79820000  0.82310000  1.0 -0.6815195587
O  O14  1  0.15950000  0.69410000  0.68710000  1.0 -0.6891382244
O  O15  1  0.28020000  0.71470000  0.63570000  1.0 -0.6324372199
O  O16  1  0.14400000  0.30250000  0.27480000  1.0 -0.6694269684
O  O17  1  0.17120000  0.79760000  0.67030000  1.0 -0.7496511843
O  O18  1  0.26530000  0.70140000  0.86270000  1.0 -0.5809141901
O  O19  1  0.40150000  0.69240000  0.63880000  1.0 -0.6891382244
O  O20  1  0.01590000  0.27346000  0.24700000  1.0 -0.6999280658
O  O21  1  0.02480000  0.82090000  0.82570000  1.0 -0.6999280658
O  O22  1  0.16770000  0.75540000  0.81490000  1.0 -0.7375283745
O  O23  1  0.03260000  0.72820000  0.62790000  1.0 -0.6197549012
O  O24  1  0.04230000  0.82600000  0.59890000  1.0 -0.6197549012
O  O25  1  0.40200000  0.70180000  0.82310000  1.0 -0.6815195587
O  O26  1  0.65950000  0.80590000  0.68710000  1.0 -0.6891382244
O  O27  1  0.78020000  0.78530000  0.63570000  1.0 -0.6324372199
O  O28  1  0.64400000  0.19750000  0.27480000  1.0 -0.6694269684
O  O29  1  0.67120000  0.70240000  0.67030000  1.0 -0.7496511843
O  O30  1  0.76530000  0.79860000  0.86270000  1.0 -0.5809141901
O  O31  1  0.90150000  0.80760000  0.63880000  1.0 -0.6891382244
O  O32  1  0.51590000  0.22654000  0.24700000  1.0 -0.6999280658
O  O33  1  0.52480000  0.67910000  0.82570000  1.0 -0.6999280658
O  O34  1  0.66770000  0.74460000  0.81490000  1.0 -0.7375283745
O  O35  1  0.53260000  0.77180000  0.62790000  1.0 -0.6197549012
O  O36  1  0.54230000  0.67400000  0.59890000  1.0 -0.6197549012
O  O37  1  0.09800000  0.20180000  0.17690000  1.0 -0.6815195587
O  O38  1  0.84050000  0.30590000  0.31290000  1.0 -0.6891382244
O  O39  1  0.71980000  0.28530000  0.36430000  1.0 -0.6324372199
O  O40  1  0.85600000  0.69750000  0.72520000  1.0 -0.6694269684
O  O41  1  0.82880000  0.20240000  0.32970000  1.0 -0.7496511843
O  O42  1  0.73470000  0.29860000  0.13730000  1.0 -0.5809141901
O  O43  1  0.59850000  0.30760000  0.36120000  1.0 -0.6891382244
O  O44  1  0.98410000  0.72654000  0.75300000  1.0 -0.6999280658
O  O45  1  0.97520000  0.17910000  0.17430000  1.0 -0.6999280658
O  O46  1  0.83230000  0.24460000  0.18510000  1.0 -0.7375283745
O  O47  1  0.96740000  0.27180000  0.37210000  1.0 -0.6197549012
O  O48  1  0.95770000  0.17400000  0.40110000  1.0 -0.6197549012
