# DDEC6 charges by PACMAN v1.1 (https://github.com/mtap-research/PACMAN-charge/)
data_GINLIA_ASR_pacman
_symmetry_space_group_name_H-M   'P 1'
_cell_length_a   10.18890000
_cell_length_b   16.65100000
_cell_length_c   19.73000000
_cell_angle_alpha   90.00000000
_cell_angle_beta   101.82500000
_cell_angle_gamma   90.00000000
_symmetry_Int_Tables_number   1
_chemical_formula_structural   Zn2H23C40(ClO5)2
_chemical_formula_sum   'Zn4 H46 C80 Cl4 O20'
_cell_volume   3276.26434070
_cell_formula_units_Z   2
loop_
 _symmetry_equiv_pos_site_id
 _symmetry_equiv_pos_as_xyz
  1  'x, y, z'
loop_
 _atom_site_type_symbol
 _atom_site_label
 _atom_site_symmetry_multiplicity
 _atom_site_fract_x
 _atom_site_fract_y
 _atom_site_fract_z
 _atom_site_occupancy
 _atom_site_charge
Zn  Zn1  1  0.49794000  0.34196000  0.38455000  1.0 0.9279031522
Zn  Zn2  1  0.50206000  0.84196000  0.61545000  1.0 0.9279031522
Zn  Zn3  1  0.75780000  0.43616000  0.50027000  1.0 1.0226930745
Zn  Zn4  1  0.24220000  0.93616000  0.49973000  1.0 1.0226930745
H  H1  1  0.58250000  0.06900000  0.71160000  1.0 0.1301198651
H  H2  1  0.41750000  0.56900000  0.28840000  1.0 0.1301198651
H  H3  1  0.69270000  0.29260000  0.66680000  1.0 0.1301198651
H  H4  1  0.30730000  0.79260000  0.33320000  1.0 0.1301198651
H  H5  1  0.90590000  0.22720000  0.71150000  1.0 0.1301198651
H  H6  1  0.09410000  0.72720000  0.28850000  1.0 0.1301198651
H  H7  1  0.18140000  0.28470000  0.88330000  1.0 0.1301198651
H  H8  1  0.81860000  0.78470000  0.11670000  1.0 0.1301198651
H  H9  1  0.02720000  0.27950000  0.95010000  1.0 0.1215501346
H  H10  1  0.97280000  0.77950000  0.04990000  1.0 0.1215501346
H  H11  1  0.37190000  0.19090000  0.87960000  1.0 0.0713899351
H  H12  1  0.62810000  0.69090000  0.12040000  1.0 0.0713899351
H  H13  1  0.43550000  0.10200000  0.88260000  1.0 0.081691663
H  H14  1  0.56450000  0.60200000  0.11740000  1.0 0.081691663
H  H15  1  0.42900000  0.16990000  0.01030000  1.0 0.1384700231
H  H16  1  0.57100000  0.66990000  0.98970000  1.0 0.1384700231
H  H17  1  0.28540000  0.14610000  0.96500000  1.0 0.1301198651
H  H18  1  0.71460000  0.64610000  0.03500000  1.0 0.1301198651
H  H19  1  0.39860000  0.07890000  0.98600000  1.0 0.1301198651
H  H20  1  0.60140000  0.57890000  0.01400000  1.0 0.1301198651
H  H21  1  0.52110000  0.16510000  0.80320000  1.0 0.1215501346
H  H22  1  0.47890000  0.66510000  0.19680000  1.0 0.1215501346
H  H23  1  0.77700000  0.08840000  0.97000000  1.0 0.1071670942
H  H24  1  0.22300000  0.58840000  0.03000000  1.0 0.1071670942
H  H25  1  0.77110000  0.98100000  0.04590000  1.0 0.1301198651
H  H26  1  0.22890000  0.48100000  0.95410000  1.0 0.1301198651
H  H27  1  0.89770000  0.12870000  0.20950000  1.0 0.1301198651
H  H28  1  0.10230000  0.62870000  0.79050000  1.0 0.1301198651
H  H29  1  0.85500000  0.37600000  0.11220000  1.0 0.1301198651
H  H30  1  0.14500000  0.87600000  0.88780000  1.0 0.1301198651
H  H31  1  0.96360000  0.44350000  0.01300000  1.0 0.081691663
H  H32  1  0.03640000  0.94350000  0.98700000  1.0 0.081691663
H  H33  1  0.83540000  0.47930000  0.03820000  1.0 0.081691663
H  H34  1  0.16460000  0.97930000  0.96180000  1.0 0.081691663
H  H35  1  0.75470000  0.53520000  0.93600000  1.0 0.1301198651
H  H36  1  0.24530000  0.03520000  0.06400000  1.0 0.1301198651
H  H37  1  0.91250000  0.55130000  0.94690000  1.0 0.1215501346
H  H38  1  0.08750000  0.05130000  0.05310000  1.0 0.1301198651
H  H39  1  0.84500000  0.48010000  0.89730000  1.0 0.1384700231
H  H40  1  0.15500000  0.98010000  0.10270000  1.0 0.1384700231
H  H41  1  0.13660000  0.27500000  0.22270000  1.0 0.1301198651
H  H42  1  0.86340000  0.77500000  0.77730000  1.0 0.1301198651
H  H43  1  0.02610000  0.34440000  0.40120000  1.0 0.1384700231
H  H44  1  0.97390000  0.84440000  0.59880000  1.0 0.1384700231
H  H45  1  0.74640000  0.28130000  0.23650000  1.0 0.1301198651
H  H46  1  0.25360000  0.78130000  0.76350000  1.0 0.1301198651
C  C1  1  0.59570000  0.29010000  0.52680000  1.0 0.6280262835
C  C2  1  0.40430000  0.79010000  0.47320000  1.0 0.6280262835
C  C3  1  0.59230000  0.22740000  0.58100000  1.0 -0.0532779726
C  C4  1  0.40770000  0.72740000  0.41900000  1.0 -0.0532779726
C  C5  1  0.53540000  0.15190000  0.56270000  1.0 0.0367330547
C  C6  1  0.46460000  0.65190000  0.43730000  1.0 0.031728062
C  C7  1  0.53720000  0.09400000  0.60990000  1.0 -0.038348452
C  C8  1  0.46280000  0.59400000  0.39010000  1.0 -0.038348452
C  C9  1  0.58870000  0.10900000  0.67800000  1.0 -0.1303162508
C  C10  1  0.41130000  0.60900000  0.32200000  1.0 -0.1303162508
C  C11  1  0.64990000  0.18170000  0.69900000  1.0 0.0713899351
C  C12  1  0.35010000  0.68170000  0.30100000  1.0 0.0713899351
C  C13  1  0.65250000  0.24230000  0.65240000  1.0 -0.15822661
C  C14  1  0.34750000  0.74230000  0.34760000  1.0 -0.15822661
C  C15  1  0.47140000  0.01550000  0.59030000  1.0 0.6356458135
C  C16  1  0.52860000  0.51550000  0.40970000  1.0 0.6356458135
C  C17  1  0.69470000  0.19930000  0.77560000  1.0 0.0502578553
C  C18  1  0.30530000  0.69930000  0.22440000  1.0 0.0502578553
C  C19  1  0.83370000  0.22510000  0.80260000  1.0 0.0502578553
C  C20  1  0.16630000  0.72510000  0.19740000  1.0 0.0502578553
C  C21  1  0.92960000  0.23510000  0.76010000  1.0 -0.2253084489
C  C22  1  0.07040000  0.73510000  0.23990000  1.0 -0.2253084489
C  C23  1  0.05520000  0.25610000  0.79120000  1.0 0.1461947031
C  C24  1  0.94480000  0.75610000  0.20880000  1.0 0.1461947031
C  C25  1  0.09160000  0.27040000  0.86320000  1.0 -0.1735670202
C  C26  1  0.90840000  0.77040000  0.13680000  1.0 -0.1735670202
C  C27  1  0.00330000  0.26400000  0.90280000  1.0 -0.1006969755
C  C28  1  0.99670000  0.76400000  0.09720000  1.0 -0.1006969755
C  C29  1  0.87690000  0.23540000  0.87680000  1.0 0.031728062
C  C30  1  0.12310000  0.73540000  0.12320000  1.0 0.031728062
C  C31  1  0.78240000  0.22290000  0.92060000  1.0 -0.0609934996
C  C32  1  0.21760000  0.72290000  0.07940000  1.0 -0.0532779726
C  C33  1  0.65490000  0.19470000  0.88920000  1.0 0.1974024542
C  C34  1  0.34510000  0.69470000  0.11080000  1.0 0.1974024542
C  C35  1  0.43100000  0.15180000  0.90930000  1.0 0.0029042602
C  C36  1  0.56900000  0.65180000  0.09070000  1.0 0.0029042602
C  C37  1  0.38200000  0.13530000  0.97290000  1.0 -0.4124489658
C  C38  1  0.61800000  0.63530000  0.02710000  1.0 -0.4124489658
C  C39  1  0.60990000  0.18360000  0.82050000  1.0 -0.2701314099
C  C40  1  0.39010000  0.68360000  0.17950000  1.0 -0.2701314099
C  C41  1  0.82600000  0.23050000  0.99750000  1.0 -0.0609934996
C  C42  1  0.17400000  0.73050000  0.00250000  1.0 -0.0609934996
C  C43  1  0.84090000  0.17230000  0.04470000  1.0 0.031728062
C  C44  1  0.15910000  0.67230000  0.95530000  1.0 0.031728062
C  C45  1  0.80150000  0.09660000  0.01860000  1.0 -0.1492660277
C  C46  1  0.19850000  0.59660000  0.98140000  1.0 -0.1492660277
C  C47  1  0.79800000  0.03280000  0.06370000  1.0 -0.181308911
C  C48  1  0.20200000  0.53280000  0.93630000  1.0 -0.181308911
C  C49  1  0.83390000  0.04480000  0.13480000  1.0 0.1552486785
C  C50  1  0.16610000  0.54480000  0.86520000  1.0 0.1552486785
C  C51  1  0.87320000  0.12050000  0.16090000  1.0 -0.2118262979
C  C52  1  0.12680000  0.62050000  0.83910000  1.0 -0.2118262979
C  C53  1  0.87670000  0.18430000  0.11580000  1.0 0.0247035131
C  C54  1  0.12330000  0.68430000  0.88420000  1.0 0.0247035131
C  C55  1  0.89200000  0.26000000  0.14170000  1.0 0.031728062
C  C56  1  0.10800000  0.76000000  0.85830000  1.0 0.0367330547
C  C57  1  0.85530000  0.32250000  0.09560000  1.0 -0.2701314099
C  C58  1  0.14470000  0.82250000  0.90440000  1.0 -0.2701314099
C  C59  1  0.81800000  0.30720000  0.02330000  1.0 0.2052192606
C  C60  1  0.18200000  0.80720000  0.97670000  1.0 0.2052192606
C  C61  1  0.86600000  0.45480000  0.99860000  1.0 -0.0181020301
C  C62  1  0.13400000  0.95480000  0.00140000  1.0 -0.0181020301
C  C63  1  0.84300000  0.50980000  0.93990000  1.0 -0.4039614581
C  C64  1  0.15700000  0.00980000  0.06010000  1.0 -0.4039614581
C  C65  1  0.93130000  0.28190000  0.21760000  1.0 0.0713899351
C  C66  1  0.06870000  0.78190000  0.78240000  1.0 0.0713899351
C  C67  1  0.06880000  0.28770000  0.24760000  1.0 -0.15822661
C  C68  1  0.93120000  0.78770000  0.75240000  1.0 -0.15822661
C  C69  1  0.09940000  0.31410000  0.31860000  1.0 0.0089263503
C  C70  1  0.90060000  0.81410000  0.68140000  1.0 0.0089263503
C  C71  1  0.00230000  0.32620000  0.35470000  1.0 -0.1006969755
C  C72  1  0.99770000  0.82620000  0.64530000  1.0 -0.1006969755
C  C73  1  0.86540000  0.31240000  0.32460000  1.0 -0.0123124224
C  C74  1  0.13460000  0.81240000  0.67540000  1.0 -0.0123124224
C  C75  1  0.83760000  0.29090000  0.25760000  1.0 -0.1374932163
C  C76  1  0.16240000  0.79090000  0.74240000  1.0 -0.1374932163
C  C77  1  0.24390000  0.33000000  0.35370000  1.0 0.5428327687
C  C78  1  0.75610000  0.83000000  0.64630000  1.0 0.5428327687
C  C79  1  0.75710000  0.33100000  0.36520000  1.0 0.5972562201
C  C80  1  0.24290000  0.83100000  0.63480000  1.0 0.5972562201
Cl  Cl1  1  0.17870000  0.26120000  0.74030000  1.0 -0.1006969755
Cl  Cl2  1  0.82130000  0.76120000  0.25970000  1.0 -0.1006969755
Cl  Cl3  1  0.83410000  0.96790000  0.19420000  1.0 -0.1069893733
Cl  Cl4  1  0.16590000  0.46790000  0.80580000  1.0 -0.1069893733
O  O1  1  0.53240000  0.27500000  0.46850000  1.0 -0.5000070266
O  O2  1  0.46760000  0.77500000  0.53150000  1.0 -0.5000070266
O  O3  1  0.67250000  0.35170000  0.54580000  1.0 -0.6040077143
O  O4  1  0.32750000  0.85170000  0.45420000  1.0 -0.6040077143
O  O5  1  0.39610000  0.00790000  0.53130000  1.0 -0.5771793955
O  O6  1  0.60390000  0.50790000  0.46870000  1.0 -0.5771793955
O  O7  1  0.50070000  0.95860000  0.63200000  1.0 -0.5432270251
O  O8  1  0.49930000  0.45860000  0.36800000  1.0 -0.5432270251
O  O9  1  0.33430000  0.30430000  0.32040000  1.0 -0.5432270251
O  O10  1  0.66570000  0.80430000  0.67960000  1.0 -0.5432270251
O  O11  1  0.27380000  0.36150000  0.40860000  1.0 -0.4531767301
O  O12  1  0.72620000  0.86150000  0.59140000  1.0 -0.4616612725
O  O13  1  0.79440000  0.36390000  0.42210000  1.0 -0.572906398
O  O14  1  0.20560000  0.86390000  0.57790000  1.0 -0.572906398
O  O15  1  0.64320000  0.31260000  0.33670000  1.0 -0.5000070266
O  O16  1  0.35680000  0.81260000  0.66330000  1.0 -0.5000070266
O  O17  1  0.56970000  0.18680000  0.93620000  1.0 -0.2028188539
O  O18  1  0.43030000  0.68680000  0.06380000  1.0 -0.2028188539
O  O19  1  0.78790000  0.37440000  0.97670000  1.0 -0.2118262979
O  O20  1  0.21210000  0.87440000  0.02330000  1.0 -0.2028188539
