# DDEC6 charges by PACMAN v1.1 (https://github.com/mtap-research/PACMAN-charge/)
data_GINNUO_ASR_pacman
_symmetry_space_group_name_H-M   'P 1'
_cell_length_a   18.13640000
_cell_length_b   18.13640000
_cell_length_c   12.50600000
_cell_angle_alpha   83.42840000
_cell_angle_beta   96.57160000
_cell_angle_gamma   78.78600000
_symmetry_Int_Tables_number   1
_chemical_formula_structural   Co3H48C66S4(N4O7)3
_chemical_formula_sum   'Co6 H96 C132 S8 N24 O42'
_cell_volume   3968.89731143
_cell_formula_units_Z   2
loop_
 _symmetry_equiv_pos_site_id
 _symmetry_equiv_pos_as_xyz
  1  'x, y, z'
loop_
 _atom_site_type_symbol
 _atom_site_label
 _atom_site_symmetry_multiplicity
 _atom_site_fract_x
 _atom_site_fract_y
 _atom_site_fract_z
 _atom_site_occupancy
 _atom_site_charge
Co  Co1  1  0.78197000  0.56089000  0.16510000  1.0 0.728531231
Co  Co2  1  0.56089000  0.78197000  0.33490000  1.0 0.7245443161
Co  Co3  1  0.70088000  0.70088000  0.75000000  1.0 0.7058353122
Co  Co4  1  0.21803000  0.43911000  0.83490000  1.0 0.728531231
Co  Co5  1  0.43911000  0.21803000  0.66510000  1.0 0.728531231
Co  Co6  1  0.29912000  0.29912000  0.25000000  1.0 0.70470342
H  H1  1  0.84460000  0.38160000  0.25520000  1.0 0.1017235453
H  H2  1  0.38160000  0.84460000  0.24480000  1.0 0.1017235453
H  H3  1  0.94460000  0.51140000  0.06750000  1.0 0.1309591751
H  H4  1  0.51140000  0.94460000  0.43250000  1.0 0.1309591751
H  H5  1  0.03200000  0.38540000  0.11560000  1.0 0.1309591751
H  H6  1  0.38540000  0.03200000  0.38440000  1.0 0.1309591751
H  H7  1  0.08740000  0.29300000  0.29000000  1.0 0.1186888921
H  H8  1  0.29300000  0.08740000  0.21000000  1.0 0.1186888921
H  H9  1  0.14070000  0.16750000  0.36600000  1.0 0.1017235453
H  H10  1  0.16750000  0.14070000  0.13400000  1.0 0.1017235453
H  H11  1  0.93220000  0.11760000  0.32250000  1.0 0.1100752022
H  H12  1  0.11760000  0.93220000  0.17750000  1.0 0.1100752022
H  H13  1  0.88050000  0.24130000  0.24070000  1.0 0.1186888921
H  H14  1  0.24130000  0.88050000  0.25930000  1.0 0.1186888921
H  H15  1  0.17870000  0.06770000  0.46400000  1.0 0.1100752022
H  H16  1  0.06770000  0.17870000  0.03600000  1.0 0.1100752022
H  H17  1  0.16770000  0.84530000  0.51070000  1.0 0.1017235453
H  H18  1  0.84530000  0.16770000  0.98930000  1.0 0.1017235453
H  H19  1  0.98760000  0.00140000  0.34800000  1.0 0.1017235453
H  H20  1  0.00140000  0.98760000  0.15200000  1.0 0.1017235453
H  H21  1  0.12590000  0.76650000  0.43130000  1.0 0.1100752022
H  H22  1  0.76650000  0.12590000  0.06870000  1.0 0.1100752022
H  H23  1  0.06410000  0.66410000  0.41690000  1.0 0.1186888921
H  H24  1  0.66410000  0.06410000  0.08310000  1.0 0.1186888921
H  H25  1  0.86150000  0.81430000  0.35570000  1.0 0.1100752022
H  H26  1  0.81430000  0.86150000  0.14430000  1.0 0.1100752022
H  H27  1  0.92480000  0.91280000  0.37270000  1.0 0.1100752022
H  H28  1  0.91280000  0.92480000  0.12730000  1.0 0.1100752022
H  H29  1  0.84750000  0.70650000  0.22700000  1.0 0.1017235453
H  H30  1  0.70650000  0.84750000  0.27300000  1.0 0.1017235453
H  H31  1  0.97100000  0.58180000  0.49600000  1.0 0.1100752022
H  H32  1  0.58180000  0.97100000  0.00400000  1.0 0.1100752022
H  H33  1  0.89110000  0.50470000  0.41130000  1.0 0.1100752022
H  H34  1  0.50470000  0.89110000  0.08870000  1.0 0.1100752022
H  H35  1  0.27170000  0.03030000  0.61480000  1.0 0.1100752022
H  H36  1  0.03030000  0.27170000  0.88520000  1.0 0.1100752022
H  H37  1  0.39550000  0.99130000  0.70520000  1.0 0.1186888921
H  H38  1  0.99130000  0.39550000  0.79480000  1.0 0.1186888921
H  H39  1  0.41530000  0.79210000  0.58340000  1.0 0.1186888921
H  H40  1  0.79210000  0.41530000  0.91660000  1.0 0.1186888921
H  H41  1  0.29150000  0.83270000  0.49170000  1.0 0.1017235453
H  H42  1  0.83270000  0.29150000  0.00830000  1.0 0.1017235453
H  H43  1  0.54440000  0.79100000  0.61380000  1.0 0.1017235453
H  H44  1  0.79100000  0.54440000  0.88620000  1.0 0.1017235453
H  H45  1  0.49420000  0.90860000  0.85970000  1.0 0.1186888921
H  H46  1  0.90860000  0.49420000  0.64030000  1.0 0.1186888921
H  H47  1  0.62330000  0.82730000  0.90700000  1.0 0.1017235453
H  H48  1  0.82730000  0.62330000  0.59300000  1.0 0.1017235453
H  H49  1  0.15540000  0.61840000  0.74480000  1.0 0.1017235453
H  H50  1  0.61840000  0.15540000  0.75520000  1.0 0.1017235453
H  H51  1  0.05540000  0.48860000  0.93250000  1.0 0.1309591751
H  H52  1  0.48860000  0.05540000  0.56750000  1.0 0.1309591751
H  H53  1  0.96800000  0.61460000  0.88440000  1.0 0.1309591751
H  H54  1  0.61460000  0.96800000  0.61560000  1.0 0.1309591751
H  H55  1  0.91260000  0.70700000  0.71000000  1.0 0.1186888921
H  H56  1  0.70700000  0.91260000  0.79000000  1.0 0.1186888921
H  H57  1  0.85930000  0.83250000  0.63400000  1.0 0.1017235453
H  H58  1  0.83250000  0.85930000  0.86600000  1.0 0.1017235453
H  H59  1  0.06780000  0.88240000  0.67750000  1.0 0.1100752022
H  H60  1  0.88240000  0.06780000  0.82250000  1.0 0.1100752022
H  H61  1  0.11950000  0.75870000  0.75930000  1.0 0.1186888921
H  H62  1  0.75870000  0.11950000  0.74070000  1.0 0.1186888921
H  H63  1  0.82130000  0.93230000  0.53600000  1.0 0.1100752022
H  H64  1  0.93230000  0.82130000  0.96400000  1.0 0.1100752022
H  H65  1  0.83230000  0.15470000  0.48930000  1.0 0.1017235453
H  H66  1  0.15470000  0.83230000  0.01070000  1.0 0.1017235453
H  H67  1  0.01240000  0.99860000  0.65200000  1.0 0.1017235453
H  H68  1  0.99860000  0.01240000  0.84800000  1.0 0.1017235453
H  H69  1  0.87410000  0.23350000  0.56870000  1.0 0.1100752022
H  H70  1  0.23350000  0.87410000  0.93130000  1.0 0.1100752022
H  H71  1  0.93590000  0.33590000  0.58310000  1.0 0.1186888921
H  H72  1  0.33590000  0.93590000  0.91690000  1.0 0.1186888921
H  H73  1  0.13850000  0.18570000  0.64430000  1.0 0.1100752022
H  H74  1  0.18570000  0.13850000  0.85570000  1.0 0.1100752022
H  H75  1  0.07520000  0.08720000  0.62730000  1.0 0.1100752022
H  H76  1  0.08720000  0.07520000  0.87270000  1.0 0.1100752022
H  H77  1  0.15250000  0.29350000  0.77300000  1.0 0.1017235453
H  H78  1  0.29350000  0.15250000  0.72700000  1.0 0.1017235453
H  H79  1  0.02900000  0.41820000  0.50400000  1.0 0.1100752022
H  H80  1  0.41820000  0.02900000  0.99600000  1.0 0.1100752022
H  H81  1  0.10890000  0.49530000  0.58870000  1.0 0.1100752022
H  H82  1  0.49530000  0.10890000  0.91130000  1.0 0.1100752022
H  H83  1  0.72830000  0.96970000  0.38520000  1.0 0.1100752022
H  H84  1  0.96970000  0.72830000  0.11480000  1.0 0.1100752022
H  H85  1  0.60450000  0.00870000  0.29480000  1.0 0.1186888921
H  H86  1  0.00870000  0.60450000  0.20520000  1.0 0.1186888921
H  H87  1  0.58470000  0.20790000  0.41660000  1.0 0.1186888921
H  H88  1  0.20790000  0.58470000  0.08340000  1.0 0.1186888921
H  H89  1  0.70850000  0.16730000  0.50830000  1.0 0.1017235453
H  H90  1  0.16730000  0.70850000  0.99170000  1.0 0.1017235453
H  H91  1  0.45560000  0.20900000  0.38620000  1.0 0.1017235453
H  H92  1  0.20900000  0.45560000  0.11380000  1.0 0.1017235453
H  H93  1  0.50580000  0.09140000  0.14030000  1.0 0.1186888921
H  H94  1  0.09140000  0.50580000  0.35970000  1.0 0.1186888921
H  H95  1  0.37670000  0.17270000  0.09300000  1.0 0.1017235453
H  H96  1  0.17270000  0.37670000  0.40700000  1.0 0.1017235453
C  C1  1  0.88055000  0.39915000  0.21480000  1.0 0.0873091217
C  C2  1  0.39915000  0.88055000  0.28520000  1.0 0.0873091217
C  C3  1  0.93550000  0.46910000  0.11250000  1.0 -0.0268748184
C  C4  1  0.46910000  0.93550000  0.38750000  1.0 -0.0268748184
C  C5  1  0.98380000  0.40020000  0.13830000  1.0 -0.0926924055
C  C6  1  0.40020000  0.98380000  0.36170000  1.0 -0.0926924055
C  C7  1  0.97981000  0.27861000  0.25710000  1.0 0.1439645658
C  C8  1  0.27861000  0.97981000  0.24290000  1.0 0.1439645658
C  C9  1  0.05603000  0.25683000  0.29520000  1.0 -0.1815317812
C  C10  1  0.25683000  0.05603000  0.20480000  1.0 -0.1815317812
C  C11  1  0.08779000  0.18219000  0.34120000  1.0 -0.1213580666
C  C12  1  0.18219000  0.08779000  0.15880000  1.0 -0.1213580666
C  C13  1  0.04184000  0.12884000  0.35130000  1.0 0.0583687197
C  C14  1  0.12884000  0.04184000  0.14870000  1.0 0.0583687197
C  C15  1  0.96440000  0.15280000  0.31450000  1.0 -0.1255348925
C  C16  1  0.15280000  0.96440000  0.18550000  1.0 -0.1255348925
C  C17  1  0.93325000  0.22651000  0.26680000  1.0 -0.1815317812
C  C18  1  0.22651000  0.93325000  0.23320000  1.0 -0.1815317812
C  C19  1  0.07657000  0.04799000  0.39910000  1.0 0.0873091217
C  C20  1  0.04799000  0.07657000  0.10090000  1.0 0.0873091217
C  C21  1  0.15166000  0.02858000  0.45390000  1.0 -0.2111175046
C  C22  1  0.02858000  0.15166000  0.04610000  1.0 -0.2111175046
C  C23  1  0.18730000  0.95348000  0.49360000  1.0 0.0873091217
C  C24  1  0.95348000  0.18730000  0.00640000  1.0 0.0873091217
C  C25  1  0.14555000  0.89635000  0.48040000  1.0 -0.2316113082
C  C26  1  0.89635000  0.14555000  0.01960000  1.0 -0.2316113082
C  C27  1  0.07193000  0.91401000  0.42320000  1.0 0.0847846079
C  C28  1  0.91401000  0.07193000  0.07680000  1.0 0.0847846079
C  C29  1  0.03814000  0.98936000  0.38490000  1.0 -0.2111175046
C  C30  1  0.98936000  0.03814000  0.11510000  1.0 -0.2111175046
C  C31  1  0.03023000  0.85027000  0.40560000  1.0 0.0583687197
C  C32  1  0.85027000  0.03023000  0.09440000  1.0 0.0583687197
C  C33  1  0.07210000  0.77590000  0.41680000  1.0 -0.1471251194
C  C34  1  0.77590000  0.07210000  0.08320000  1.0 -0.1471251194
C  C35  1  0.03560000  0.71480000  0.40680000  1.0 -0.1815317812
C  C36  1  0.71480000  0.03560000  0.09320000  1.0 -0.1815317812
C  C37  1  0.95849000  0.72989000  0.38240000  1.0 0.1596793677
C  C38  1  0.72989000  0.95849000  0.11760000  1.0 0.1596793677
C  C39  1  0.91538000  0.80418000  0.37080000  1.0 -0.1815317812
C  C40  1  0.80418000  0.91538000  0.12920000  1.0 -0.1815317812
C  C41  1  0.95352000  0.86216000  0.38200000  1.0 -0.1115692343
C  C42  1  0.86216000  0.95352000  0.11800000  1.0 -0.1115692343
C  C43  1  0.86667000  0.66567000  0.28430000  1.0 0.0707858722
C  C44  1  0.66567000  0.86667000  0.21570000  1.0 0.0707858722
C  C45  1  0.93530000  0.59750000  0.43170000  1.0 -0.1213580666
C  C46  1  0.59750000  0.93530000  0.06830000  1.0 -0.1213580666
C  C47  1  0.89140000  0.55600000  0.38530000  1.0 -0.0432448708
C  C48  1  0.55600000  0.89140000  0.11470000  1.0 -0.0432448708
C  C49  1  0.26686000  0.93166000  0.55010000  1.0 0.0539350831
C  C50  1  0.93166000  0.26686000  0.94990000  1.0 0.0539350831
C  C51  1  0.30020000  0.98120000  0.61030000  1.0 -0.1115692343
C  C52  1  0.98120000  0.30020000  0.88970000  1.0 -0.1115692343
C  C53  1  0.37400000  0.95840000  0.66290000  1.0 -0.1815317812
C  C54  1  0.95840000  0.37400000  0.83710000  1.0 -0.1815317812
C  C55  1  0.41680000  0.88720000  0.65370000  1.0 0.1668018955
C  C56  1  0.88720000  0.41680000  0.84630000  1.0 0.1668018955
C  C57  1  0.38620000  0.84040000  0.59080000  1.0 -0.1815317812
C  C58  1  0.84040000  0.38620000  0.90920000  1.0 -0.1815317812
C  C59  1  0.31160000  0.86440000  0.53780000  1.0 -0.139389878
C  C60  1  0.86440000  0.31160000  0.96220000  1.0 -0.139389878
C  C61  1  0.54780000  0.81060000  0.68100000  1.0 0.0583687197
C  C62  1  0.81060000  0.54780000  0.81900000  1.0 0.0583687197
C  C63  1  0.51950000  0.87530000  0.81580000  1.0 -0.1213580666
C  C64  1  0.87530000  0.51950000  0.68420000  1.0 -0.1213580666
C  C65  1  0.59070000  0.83050000  0.84070000  1.0 -0.0148641621
C  C66  1  0.83050000  0.59070000  0.65930000  1.0 -0.0157101671
C  C67  1  0.11945000  0.60085000  0.78520000  1.0 0.0873091217
C  C68  1  0.60085000  0.11945000  0.71480000  1.0 0.0873091217
C  C69  1  0.06450000  0.53090000  0.88750000  1.0 -0.0268748184
C  C70  1  0.53090000  0.06450000  0.61250000  1.0 -0.0268748184
C  C71  1  0.01620000  0.59980000  0.86170000  1.0 -0.0954508562
C  C72  1  0.59980000  0.01620000  0.63830000  1.0 -0.0926924055
C  C73  1  0.02019000  0.72139000  0.74290000  1.0 0.1439645658
C  C74  1  0.72139000  0.02019000  0.75710000  1.0 0.1439645658
C  C75  1  0.94397000  0.74317000  0.70480000  1.0 -0.1815317812
C  C76  1  0.74317000  0.94397000  0.79520000  1.0 -0.1815317812
C  C77  1  0.91221000  0.81781000  0.65880000  1.0 -0.1213580666
C  C78  1  0.81781000  0.91221000  0.84120000  1.0 -0.1213580666
C  C79  1  0.95816000  0.87116000  0.64870000  1.0 0.0583687197
C  C80  1  0.87116000  0.95816000  0.85130000  1.0 0.0583687197
C  C81  1  0.03560000  0.84720000  0.68550000  1.0 -0.1255348925
C  C82  1  0.84720000  0.03560000  0.81450000  1.0 -0.1255348925
C  C83  1  0.06675000  0.77349000  0.73320000  1.0 -0.1815317812
C  C84  1  0.77349000  0.06675000  0.76680000  1.0 -0.1815317812
C  C85  1  0.92343000  0.95201000  0.60090000  1.0 0.0873091217
C  C86  1  0.95201000  0.92343000  0.89910000  1.0 0.0873091217
C  C87  1  0.84834000  0.97142000  0.54610000  1.0 -0.2111175046
C  C88  1  0.97142000  0.84834000  0.95390000  1.0 -0.2111175046
C  C89  1  0.81270000  0.04652000  0.50640000  1.0 0.0873091217
C  C90  1  0.04652000  0.81270000  0.99360000  1.0 0.0873091217
C  C91  1  0.85445000  0.10365000  0.51960000  1.0 -0.2316113082
C  C92  1  0.10365000  0.85445000  0.98040000  1.0 -0.2316113082
C  C93  1  0.92807000  0.08599000  0.57680000  1.0 0.0847846079
C  C94  1  0.08599000  0.92807000  0.92320000  1.0 0.0847846079
C  C95  1  0.96186000  0.01064000  0.61510000  1.0 -0.2111175046
C  C96  1  0.01064000  0.96186000  0.88490000  1.0 -0.2111175046
C  C97  1  0.96977000  0.14973000  0.59440000  1.0 0.0583687197
C  C98  1  0.14973000  0.96977000  0.90560000  1.0 0.0583687197
C  C99  1  0.92790000  0.22410000  0.58320000  1.0 -0.1471251194
C  C100  1  0.22410000  0.92790000  0.91680000  1.0 -0.1471251194
C  C101  1  0.96440000  0.28520000  0.59320000  1.0 -0.1815317812
C  C102  1  0.28520000  0.96440000  0.90680000  1.0 -0.1815317812
C  C103  1  0.04151000  0.27011000  0.61760000  1.0 0.1596793677
C  C104  1  0.27011000  0.04151000  0.88240000  1.0 0.1596793677
C  C105  1  0.08462000  0.19582000  0.62920000  1.0 -0.1815317812
C  C106  1  0.19582000  0.08462000  0.87080000  1.0 -0.1815317812
C  C107  1  0.04648000  0.13784000  0.61800000  1.0 -0.1115692343
C  C108  1  0.13784000  0.04648000  0.88200000  1.0 -0.1115692343
C  C109  1  0.13333000  0.33433000  0.71570000  1.0 0.0707858722
C  C110  1  0.33433000  0.13333000  0.78430000  1.0 0.0707858722
C  C111  1  0.06470000  0.40250000  0.56830000  1.0 -0.1213580666
C  C112  1  0.40250000  0.06470000  0.93170000  1.0 -0.1213580666
C  C113  1  0.10860000  0.44400000  0.61470000  1.0 -0.0432448708
C  C114  1  0.44400000  0.10860000  0.88530000  1.0 -0.0432448708
C  C115  1  0.73314000  0.06834000  0.44990000  1.0 0.0539350831
C  C116  1  0.06834000  0.73314000  0.05010000  1.0 0.0539350831
C  C117  1  0.69980000  0.01880000  0.38970000  1.0 -0.1115692343
C  C118  1  0.01880000  0.69980000  0.11030000  1.0 -0.1115692343
C  C119  1  0.62600000  0.04160000  0.33710000  1.0 -0.1815317812
C  C120  1  0.04160000  0.62600000  0.16290000  1.0 -0.1815317812
C  C121  1  0.58320000  0.11280000  0.34630000  1.0 0.1668018955
C  C122  1  0.11280000  0.58320000  0.15370000  1.0 0.1668018955
C  C123  1  0.61380000  0.15960000  0.40920000  1.0 -0.1815317812
C  C124  1  0.15960000  0.61380000  0.09080000  1.0 -0.1815317812
C  C125  1  0.68840000  0.13560000  0.46220000  1.0 -0.139389878
C  C126  1  0.13560000  0.68840000  0.03780000  1.0 -0.139389878
C  C127  1  0.45220000  0.18940000  0.31900000  1.0 0.0583687197
C  C128  1  0.18940000  0.45220000  0.18100000  1.0 0.0583687197
C  C129  1  0.48050000  0.12470000  0.18420000  1.0 -0.1213580666
C  C130  1  0.12470000  0.48050000  0.31580000  1.0 -0.1213580666
C  C131  1  0.40930000  0.16950000  0.15930000  1.0 -0.0157101671
C  C132  1  0.16950000  0.40930000  0.34070000  1.0 -0.0148641621
S  S1  1  0.79228000  0.70768000  0.98940000  1.0 0.6101852949
S  S2  1  0.70768000  0.79228000  0.51060000  1.0 0.6101852949
S  S3  1  0.75260000  0.68240000  0.02400000  1.0 0.5567619051
S  S4  1  0.68240000  0.75260000  0.47600000  1.0 0.5567619051
S  S5  1  0.20772000  0.29232000  0.01060000  1.0 0.6101852949
S  S6  1  0.29232000  0.20772000  0.48940000  1.0 0.6101852949
S  S7  1  0.24740000  0.31760000  0.97600000  1.0 0.5567619051
S  S8  1  0.31760000  0.24740000  0.52400000  1.0 0.5567619051
N  N1  1  0.87010000  0.46830000  0.16260000  1.0 -0.306228586
N  N2  1  0.46830000  0.87010000  0.33740000  1.0 -0.306228586
N  N3  1  0.94802000  0.35632000  0.20420000  1.0 6.88066e-05
N  N4  1  0.35632000  0.94802000  0.29580000  1.0 6.88066e-05
N  N5  1  0.84429000  0.59989000  0.29000000  1.0 -0.3884048466
N  N6  1  0.59989000  0.84429000  0.21000000  1.0 -0.3884048466
N  N7  1  0.91903000  0.66865000  0.36800000  1.0 -0.0268748184
N  N8  1  0.66865000  0.91903000  0.13200000  1.0 -0.0268748184
N  N9  1  0.60831000  0.79151000  0.75810000  1.0 -0.3970586364
N  N10  1  0.79151000  0.60831000  0.74190000  1.0 -0.3970586364
N  N11  1  0.49182000  0.86210000  0.71220000  1.0 -0.0026710374
N  N12  1  0.86210000  0.49182000  0.78780000  1.0 -0.0026710374
N  N13  1  0.12990000  0.53170000  0.83740000  1.0 -0.306228586
N  N14  1  0.53170000  0.12990000  0.66260000  1.0 -0.306228586
N  N15  1  0.05198000  0.64368000  0.79580000  1.0 6.88066e-05
N  N16  1  0.64368000  0.05198000  0.70420000  1.0 6.88066e-05
N  N17  1  0.15571000  0.40011000  0.71000000  1.0 -0.3884048466
N  N18  1  0.40011000  0.15571000  0.79000000  1.0 -0.3884048466
N  N19  1  0.08097000  0.33135000  0.63200000  1.0 -0.0268748184
N  N20  1  0.33135000  0.08097000  0.86800000  1.0 -0.0268748184
N  N21  1  0.39169000  0.20849000  0.24190000  1.0 -0.3970586364
N  N22  1  0.20849000  0.39169000  0.25810000  1.0 -0.3970586364
N  N23  1  0.50818000  0.13790000  0.28780000  1.0 -0.0026710374
N  N24  1  0.13790000  0.50818000  0.21220000  1.0 -0.0026710374
O  O1  1  0.81360000  0.62820000  0.03960000  1.0 -0.4520490547
O  O2  1  0.62820000  0.81360000  0.46040000  1.0 -0.4520490547
O  O3  1  0.74970000  0.71470000  0.88550000  1.0 -0.2316113082
O  O4  1  0.71470000  0.74970000  0.61450000  1.0 -0.2316113082
O  O5  1  0.74910000  0.75390000  0.05770000  1.0 -0.139389878
O  O6  1  0.75390000  0.74910000  0.44230000  1.0 -0.1471251194
O  O7  1  0.68670000  0.65950000  0.16350000  1.0 -0.0926924055
O  O8  1  0.65950000  0.68670000  0.33650000  1.0 -0.0926924055
O  O9  1  0.86220000  0.73420000  0.97970000  1.0 -0.4171934878
O  O10  1  0.73420000  0.86220000  0.52030000  1.0 -0.4171934878
O  O11  1  0.61930000  0.61930000  0.75000000  1.0 0.4249475892
O  O12  1  0.82220000  0.62060000  0.04470000  1.0 -0.5179723208
O  O13  1  0.62060000  0.82220000  0.45530000  1.0 -0.5179723208
O  O14  1  0.70660000  0.67300000  0.92710000  1.0 -0.1993639995
O  O15  1  0.67300000  0.70660000  0.57290000  1.0 -0.1993639995
O  O16  1  0.77430000  0.75510000  0.01540000  1.0 0.1100752022
O  O17  1  0.75510000  0.77430000  0.48460000  1.0 0.1100752022
O  O18  1  0.71160000  0.67400000  0.11860000  1.0 -0.1115692343
O  O19  1  0.67400000  0.71160000  0.38140000  1.0 -0.1115692343
O  O20  1  0.62450000  0.64910000  0.66420000  1.0 -0.1471251194
O  O21  1  0.64910000  0.62450000  0.83580000  1.0 -0.1471251194
O  O22  1  0.18640000  0.37180000  0.96040000  1.0 -0.4520490547
O  O23  1  0.37180000  0.18640000  0.53960000  1.0 -0.4520490547
O  O24  1  0.25030000  0.28530000  0.11450000  1.0 -0.2316113082
O  O25  1  0.28530000  0.25030000  0.38550000  1.0 -0.2316113082
O  O26  1  0.25090000  0.24610000  0.94230000  1.0 -0.1471251194
O  O27  1  0.24610000  0.25090000  0.55770000  1.0 -0.139389878
O  O28  1  0.31330000  0.34050000  0.83650000  1.0 -0.0926924055
O  O29  1  0.34050000  0.31330000  0.66350000  1.0 -0.0926924055
O  O30  1  0.13780000  0.26580000  0.02030000  1.0 -0.4171934878
O  O31  1  0.26580000  0.13780000  0.47970000  1.0 -0.4171934878
O  O32  1  0.38070000  0.38070000  0.25000000  1.0 0.4249475892
O  O33  1  0.17780000  0.37940000  0.95530000  1.0 -0.5179723208
O  O34  1  0.37940000  0.17780000  0.54470000  1.0 -0.5179723208
O  O35  1  0.29340000  0.32700000  0.07290000  1.0 -0.1993639995
O  O36  1  0.32700000  0.29340000  0.42710000  1.0 -0.1993639995
O  O37  1  0.22570000  0.24490000  0.98460000  1.0 0.1100752022
O  O38  1  0.24490000  0.22570000  0.51540000  1.0 0.1100752022
O  O39  1  0.28840000  0.32600000  0.88140000  1.0 -0.1115692343
O  O40  1  0.32600000  0.28840000  0.61860000  1.0 -0.1115692343
O  O41  1  0.37550000  0.35090000  0.33580000  1.0 -0.1471251194
O  O42  1  0.35090000  0.37550000  0.16420000  1.0 -0.1471251194
