# DDEC6 charges by PACMAN v1.1 (https://github.com/mtap-research/PACMAN-charge/)
data_GINPAW_FSR_pacman
_symmetry_space_group_name_H-M   'P 1'
_cell_length_a   17.49460000
_cell_length_b   17.49460000
_cell_length_c   14.27700000
_cell_angle_alpha   81.94890000
_cell_angle_beta   98.05110000
_cell_angle_gamma   76.51400000
_symmetry_Int_Tables_number   1
_chemical_formula_structural   Co3H66C92S2(N4O3)4
_chemical_formula_sum   'Co6 H132 C184 S4 N32 O24'
_cell_volume   4139.02212170
_cell_formula_units_Z   2
loop_
 _symmetry_equiv_pos_site_id
 _symmetry_equiv_pos_as_xyz
  1  'x, y, z'
loop_
 _atom_site_type_symbol
 _atom_site_label
 _atom_site_symmetry_multiplicity
 _atom_site_fract_x
 _atom_site_fract_y
 _atom_site_fract_z
 _atom_site_occupancy
 _atom_site_charge
Co  Co1  1  0.71502000  0.93324000  0.42103000  1.0 0.7787615147
Co  Co2  1  0.93324000  0.71502000  0.07897000  1.0 0.7787615147
Co  Co3  1  0.28498000  0.06676000  0.57897000  1.0 0.7787615147
Co  Co4  1  0.06676000  0.28498000  0.92103000  1.0 0.7787615147
Co  Co5  1  0.78016000  0.78016000  0.75000000  1.0 0.3870494154
Co  Co6  1  0.21984000  0.21984000  0.25000000  1.0 0.3870494154
H  H1  1  0.20330000  0.52690000  0.00020000  1.0 0.1121861699
H  H2  1  0.52690000  0.20330000  0.49980000  1.0 0.1121861699
H  H3  1  0.79670000  0.47310000  0.99980000  1.0 0.1121861699
H  H4  1  0.47310000  0.79670000  0.50020000  1.0 0.1121861699
H  H5  1  0.07760000  0.57440000  0.90110000  1.0 0.1009400403
H  H6  1  0.57440000  0.07760000  0.59890000  1.0 0.1009400403
H  H7  1  0.92240000  0.42560000  0.09890000  1.0 0.1009400403
H  H8  1  0.42560000  0.92240000  0.40110000  1.0 0.1009400403
H  H9  1  0.15530000  0.74790000  0.75350000  1.0 0.1009400403
H  H10  1  0.74790000  0.15530000  0.74650000  1.0 0.1009400403
H  H11  1  0.84470000  0.25210000  0.24650000  1.0 0.1009400403
H  H12  1  0.25210000  0.84470000  0.25350000  1.0 0.1009400403
H  H13  1  0.28090000  0.70030000  0.85270000  1.0 0.1009400403
H  H14  1  0.70030000  0.28090000  0.64730000  1.0 0.1009400403
H  H15  1  0.71910000  0.29970000  0.14730000  1.0 0.1009400403
H  H16  1  0.29970000  0.71910000  0.35270000  1.0 0.1009400403
H  H17  1  0.95360000  0.68560000  0.86250000  1.0 0.137385675
H  H18  1  0.68560000  0.95360000  0.63750000  1.0 0.137385675
H  H19  1  0.04640000  0.31440000  0.13750000  1.0 0.137385675
H  H20  1  0.31440000  0.04640000  0.36250000  1.0 0.137385675
H  H21  1  0.04430000  0.73690000  0.62580000  1.0 0.0892400772
H  H22  1  0.73690000  0.04430000  0.87420000  1.0 0.0892400772
H  H23  1  0.95570000  0.26310000  0.37420000  1.0 0.0892400772
H  H24  1  0.26310000  0.95570000  0.12580000  1.0 0.0892400772
H  H25  1  0.89720000  0.78960000  0.58470000  1.0 0.0892400772
H  H26  1  0.78960000  0.89720000  0.91530000  1.0 0.0892400772
H  H27  1  0.10280000  0.21040000  0.41530000  1.0 0.0892400772
H  H28  1  0.21040000  0.10280000  0.08470000  1.0 0.0892400772
H  H29  1  0.53730000  0.00150000  0.44260000  1.0 0.1196605661
H  H30  1  0.00150000  0.53730000  0.05740000  1.0 0.1196605661
H  H31  1  0.46270000  0.99850000  0.55740000  1.0 0.1196605661
H  H32  1  0.99850000  0.46270000  0.94260000  1.0 0.1196605661
H  H33  1  0.44750000  0.13110000  0.35740000  1.0 0.1296761837
H  H34  1  0.13110000  0.44750000  0.14260000  1.0 0.1296761837
H  H35  1  0.55250000  0.86890000  0.64260000  1.0 0.1296761837
H  H36  1  0.86890000  0.55250000  0.85740000  1.0 0.1296761837
H  H37  1  0.67010000  0.12010000  0.31440000  1.0 0.1196605661
H  H38  1  0.12010000  0.67010000  0.18560000  1.0 0.1196605661
H  H39  1  0.32990000  0.87990000  0.68560000  1.0 0.1196605661
H  H40  1  0.87990000  0.32990000  0.81440000  1.0 0.1196605661
H  H41  1  0.41090000  0.23190000  0.22860000  1.0 0.137385675
H  H42  1  0.23190000  0.41090000  0.27140000  1.0 0.137385675
H  H43  1  0.58910000  0.76810000  0.77140000  1.0 0.137385675
H  H44  1  0.76810000  0.58910000  0.72860000  1.0 0.137385675
H  H45  1  0.36610000  0.35950000  0.13530000  1.0 0.1196605661
H  H46  1  0.35950000  0.36610000  0.36470000  1.0 0.1196605661
H  H47  1  0.63390000  0.64050000  0.86470000  1.0 0.1196605661
H  H48  1  0.64050000  0.63390000  0.63530000  1.0 0.1196605661
H  H49  1  0.58840000  0.38840000  0.18780000  1.0 0.1121861699
H  H50  1  0.38840000  0.58840000  0.31220000  1.0 0.1121861699
H  H51  1  0.41160000  0.61160000  0.81220000  1.0 0.1121861699
H  H52  1  0.61160000  0.41160000  0.68780000  1.0 0.1121861699
H  H53  1  0.63360000  0.26160000  0.28130000  1.0 0.1296761837
H  H54  1  0.26160000  0.63360000  0.21870000  1.0 0.1296761837
H  H55  1  0.36640000  0.73840000  0.71870000  1.0 0.1296761837
H  H56  1  0.73840000  0.36640000  0.78130000  1.0 0.1296761837
H  H57  1  0.33410000  0.46670000  0.03500000  1.0 0.1121861699
H  H58  1  0.46670000  0.33410000  0.46500000  1.0 0.1121861699
H  H59  1  0.66590000  0.53330000  0.96500000  1.0 0.1121861699
H  H60  1  0.53330000  0.66590000  0.53500000  1.0 0.1121861699
H  H61  1  0.35420000  0.69320000  0.01130000  1.0 0.1196605661
H  H62  1  0.69320000  0.35420000  0.48870000  1.0 0.1196605661
H  H63  1  0.64580000  0.30680000  0.98870000  1.0 0.1196605661
H  H64  1  0.30680000  0.64580000  0.51130000  1.0 0.1196605661
H  H65  1  0.53750000  0.51090000  0.16010000  1.0 0.1121861699
H  H66  1  0.51090000  0.53750000  0.33990000  1.0 0.1121861699
H  H67  1  0.46250000  0.48910000  0.83990000  1.0 0.1121861699
H  H68  1  0.48910000  0.46250000  0.66010000  1.0 0.1121861699
H  H69  1  0.41600000  0.74060000  0.16910000  1.0 0.1121861699
H  H70  1  0.74060000  0.41600000  0.33090000  1.0 0.1121861699
H  H71  1  0.58400000  0.25940000  0.83090000  1.0 0.1121861699
H  H72  1  0.25940000  0.58400000  0.66910000  1.0 0.1121861699
H  H73  1  0.49280000  0.82560000  0.21720000  1.0 0.1121861699
H  H74  1  0.82560000  0.49280000  0.28280000  1.0 0.1121861699
H  H75  1  0.50720000  0.17440000  0.78280000  1.0 0.1121861699
H  H76  1  0.17440000  0.50720000  0.71720000  1.0 0.1121861699
H  H77  1  0.67810000  0.69770000  0.11580000  1.0 0.1296761837
H  H78  1  0.69770000  0.67810000  0.38420000  1.0 0.1296761837
H  H79  1  0.32190000  0.30230000  0.88420000  1.0 0.1296761837
H  H80  1  0.30230000  0.32190000  0.61580000  1.0 0.1296761837
H  H81  1  0.60080000  0.61300000  0.06960000  1.0 0.1196605661
H  H82  1  0.61300000  0.60080000  0.43040000  1.0 0.1196605661
H  H83  1  0.39920000  0.38700000  0.93040000  1.0 0.1196605661
H  H84  1  0.38700000  0.39920000  0.56960000  1.0 0.1196605661
H  H85  1  0.61110000  0.83050000  0.33580000  1.0 0.1196605661
H  H86  1  0.83050000  0.61110000  0.16420000  1.0 0.1196605661
H  H87  1  0.38890000  0.16950000  0.66420000  1.0 0.1196605661
H  H88  1  0.16950000  0.38890000  0.83580000  1.0 0.1196605661
H  H89  1  0.77040000  0.91380000  0.21040000  1.0 0.1296761837
H  H90  1  0.91380000  0.77040000  0.28960000  1.0 0.1296761837
H  H91  1  0.22960000  0.08620000  0.78960000  1.0 0.1296761837
H  H92  1  0.08620000  0.22960000  0.71040000  1.0 0.1296761837
H  H93  1  0.71280000  0.83380000  0.10120000  1.0 0.1469111677
H  H94  1  0.83380000  0.71280000  0.39880000  1.0 0.1469111677
H  H95  1  0.28720000  0.16620000  0.89880000  1.0 0.1469111677
H  H96  1  0.16620000  0.28720000  0.60120000  1.0 0.1469111677
H  H97  1  0.93300000  0.04720000  0.34120000  1.0 0.1196605661
H  H98  1  0.04720000  0.93300000  0.15880000  1.0 0.1196605661
H  H99  1  0.06700000  0.95280000  0.65880000  1.0 0.1196605661
H  H100  1  0.95280000  0.06700000  0.84120000  1.0 0.1196605661
H  H101  1  0.93950000  0.93570000  0.60940000  1.0 0.1009400403
H  H102  1  0.93570000  0.93950000  0.89060000  1.0 0.1009400403
H  H103  1  0.06050000  0.06430000  0.39060000  1.0 0.1009400403
H  H104  1  0.06430000  0.06050000  0.10940000  1.0 0.1009400403
H  H105  1  0.21450000  0.71850000  0.04130000  1.0 0.1009400403
H  H106  1  0.71850000  0.21450000  0.45870000  1.0 0.1009400403
H  H107  1  0.78550000  0.28150000  0.95870000  1.0 0.1009400403
H  H108  1  0.28150000  0.78550000  0.54130000  1.0 0.1009400403
H  H109  1  0.08830000  0.77250000  0.94490000  1.0 0.1121861699
H  H110  1  0.77250000  0.08830000  0.55510000  1.0 0.1121861699
H  H111  1  0.91170000  0.22750000  0.05510000  1.0 0.1121861699
H  H112  1  0.22750000  0.91170000  0.44490000  1.0 0.1121861699
H  H113  1  0.13310000  0.59810000  0.78560000  1.0 0.0892400772
H  H114  1  0.59810000  0.13310000  0.71440000  1.0 0.0892400772
H  H115  1  0.86690000  0.40190000  0.21440000  1.0 0.0892400772
H  H116  1  0.40190000  0.86690000  0.28560000  1.0 0.0892400772
H  H117  1  0.25930000  0.54410000  0.88200000  1.0 0.1121861699
H  H118  1  0.54410000  0.25930000  0.61800000  1.0 0.1121861699
H  H119  1  0.74070000  0.45590000  0.11800000  1.0 0.1121861699
H  H120  1  0.45590000  0.74070000  0.38200000  1.0 0.1121861699
H  H121  1  0.94810000  0.68910000  0.88320000  1.0 0.1009400403
H  H122  1  0.68910000  0.94810000  0.61680000  1.0 0.1009400403
H  H123  1  0.05190000  0.31090000  0.11680000  1.0 0.1009400403
H  H124  1  0.31090000  0.05190000  0.38320000  1.0 0.1009400403
H  H125  1  0.04370000  0.79150000  0.66480000  1.0 0.0786363307
H  H126  1  0.79150000  0.04370000  0.83520000  1.0 0.0786363307
H  H127  1  0.95630000  0.20850000  0.33520000  1.0 0.0786363307
H  H128  1  0.20850000  0.95630000  0.16480000  1.0 0.0786363307
H  H129  1  0.89180000  0.83780000  0.61850000  1.0 0.0701692142
H  H130  1  0.83780000  0.89180000  0.88150000  1.0 0.0701692142
H  H131  1  0.10820000  0.16220000  0.38150000  1.0 0.0701692142
H  H132  1  0.16220000  0.10820000  0.11850000  1.0 0.0701692142
C  C1  1  0.25390000  0.60910000  0.93580000  1.0 0.0538724598
C  C2  1  0.60910000  0.25390000  0.56420000  1.0 0.0538724598
C  C3  1  0.74610000  0.39090000  0.06420000  1.0 0.0538724598
C  C4  1  0.39090000  0.74610000  0.43580000  1.0 0.0538724598
C  C5  1  0.19360000  0.57180000  0.95020000  1.0 -0.0381913099
C  C6  1  0.57180000  0.19360000  0.54980000  1.0 -0.0381913099
C  C7  1  0.80640000  0.42820000  0.04980000  1.0 -0.0381913099
C  C8  1  0.42820000  0.80640000  0.45020000  1.0 -0.0381913099
C  C9  1  0.11894000  0.59994000  0.89130000  1.0 -0.1111971048
C  C10  1  0.59994000  0.11894000  0.60870000  1.0 -0.1111971048
C  C11  1  0.88106000  0.40006000  0.10870000  1.0 -0.1111971048
C  C12  1  0.40006000  0.88106000  0.39130000  1.0 -0.1111971048
C  C13  1  0.10460000  0.66560000  0.81800000  1.0 0.0609197702
C  C14  1  0.66560000  0.10460000  0.68200000  1.0 0.0609197702
C  C15  1  0.89540000  0.33440000  0.18200000  1.0 0.0609197702
C  C16  1  0.33440000  0.89540000  0.31800000  1.0 0.0609197702
C  C17  1  0.16500000  0.70300000  0.80360000  1.0 -0.1868618567
C  C18  1  0.70300000  0.16500000  0.69640000  1.0 -0.1868618567
C  C19  1  0.83500000  0.29700000  0.19640000  1.0 -0.1868618567
C  C20  1  0.29700000  0.83500000  0.30360000  1.0 -0.1868618567
C  C21  1  0.23973000  0.67473000  0.86250000  1.0 -0.0559144418
C  C22  1  0.67473000  0.23973000  0.63750000  1.0 -0.0559144418
C  C23  1  0.76027000  0.32527000  0.13750000  1.0 -0.0559144418
C  C24  1  0.32527000  0.76027000  0.36250000  1.0 -0.0559144418
C  C25  1  0.95780000  0.70500000  0.79840000  1.0 0.0438938618
C  C26  1  0.70500000  0.95780000  0.70160000  1.0 0.0438938618
C  C27  1  0.04220000  0.29500000  0.20160000  1.0 0.0438938618
C  C28  1  0.29500000  0.04220000  0.29840000  1.0 0.0438938618
C  C29  1  0.00770000  0.73310000  0.66840000  1.0 -0.0804735224
C  C30  1  0.73310000  0.00770000  0.83160000  1.0 -0.0804735224
C  C31  1  0.99230000  0.26690000  0.33160000  1.0 -0.0804735224
C  C32  1  0.26690000  0.99230000  0.16840000  1.0 -0.0804735224
C  C33  1  0.92690000  0.76210000  0.64580000  1.0 -0.0045395827
C  C34  1  0.76210000  0.92690000  0.85420000  1.0 -0.0070373651
C  C35  1  0.07310000  0.23790000  0.35420000  1.0 -0.0070373651
C  C36  1  0.23790000  0.07310000  0.14580000  1.0 -0.0070373651
C  C37  1  0.55320000  0.04260000  0.40560000  1.0 -0.0520142482
C  C38  1  0.04260000  0.55320000  0.09440000  1.0 -0.0520142482
C  C39  1  0.44680000  0.95740000  0.59440000  1.0 -0.0520142482
C  C40  1  0.95740000  0.44680000  0.90560000  1.0 -0.0520142482
C  C41  1  0.50370000  0.11390000  0.36080000  1.0 -0.1489203523
C  C42  1  0.11390000  0.50370000  0.13920000  1.0 -0.1489203523
C  C43  1  0.49630000  0.88610000  0.63920000  1.0 -0.1489203523
C  C44  1  0.88610000  0.49630000  0.86080000  1.0 -0.1489203523
C  C45  1  0.62570000  0.10690000  0.33770000  1.0 0.1296761837
C  C46  1  0.10690000  0.62570000  0.16230000  1.0 0.1296761837
C  C47  1  0.37430000  0.89310000  0.66230000  1.0 0.1296761837
C  C48  1  0.89310000  0.37430000  0.83770000  1.0 0.1296761837
C  C49  1  0.52570000  0.23510000  0.26340000  1.0 0.1577832189
C  C50  1  0.23510000  0.52570000  0.23660000  1.0 0.1577832189
C  C51  1  0.47430000  0.76490000  0.73660000  1.0 0.1577832189
C  C52  1  0.76490000  0.47430000  0.76340000  1.0 0.1577832189
C  C53  1  0.44720000  0.26400000  0.22070000  1.0 -0.142339966
C  C54  1  0.26400000  0.44720000  0.27930000  1.0 -0.142339966
C  C55  1  0.55280000  0.73600000  0.77930000  1.0 -0.142339966
C  C56  1  0.73600000  0.55280000  0.72070000  1.0 -0.142339966
C  C57  1  0.42050000  0.34050000  0.16580000  1.0 -0.0991367006
C  C58  1  0.34050000  0.42050000  0.33420000  1.0 -0.0991367006
C  C59  1  0.57950000  0.65950000  0.83420000  1.0 -0.0991367006
C  C60  1  0.65950000  0.57950000  0.66580000  1.0 -0.0991367006
C  C61  1  0.47180000  0.38940000  0.15460000  1.0 0.0701692142
C  C62  1  0.38940000  0.47180000  0.34540000  1.0 0.0701692142
C  C63  1  0.52820000  0.61060000  0.84540000  1.0 0.0701692142
C  C64  1  0.61060000  0.52820000  0.65460000  1.0 0.0701692142
C  C65  1  0.55140000  0.35720000  0.19700000  1.0 -0.1298396464
C  C66  1  0.35720000  0.55140000  0.30300000  1.0 -0.1298396464
C  C67  1  0.44860000  0.64280000  0.80300000  1.0 -0.1298396464
C  C68  1  0.64280000  0.44860000  0.69700000  1.0 -0.1298396464
C  C69  1  0.57890000  0.28150000  0.25190000  1.0 -0.1838183317
C  C70  1  0.28150000  0.57890000  0.24810000  1.0 -0.1838183317
C  C71  1  0.42110000  0.71850000  0.74810000  1.0 -0.1838183317
C  C72  1  0.71850000  0.42110000  0.75190000  1.0 -0.1838183317
C  C73  1  0.44040000  0.47500000  0.10690000  1.0 0.1009400403
C  C74  1  0.47500000  0.44040000  0.39310000  1.0 0.1009400403
C  C75  1  0.55960000  0.52500000  0.89310000  1.0 0.1009400403
C  C76  1  0.52500000  0.55960000  0.60690000  1.0 0.1009400403
C  C77  1  0.36460000  0.50360000  0.04790000  1.0 -0.255689523
C  C78  1  0.50360000  0.36460000  0.45210000  1.0 -0.255689523
C  C79  1  0.63540000  0.49640000  0.95210000  1.0 -0.255689523
C  C80  1  0.49640000  0.63540000  0.54790000  1.0 -0.255689523
C  C81  1  0.33290000  0.58350000  0.00800000  1.0 0.0609197702
C  C82  1  0.58350000  0.33290000  0.49200000  1.0 0.0609197702
C  C83  1  0.66710000  0.41650000  0.99200000  1.0 0.0609197702
C  C84  1  0.41650000  0.66710000  0.50800000  1.0 0.0609197702
C  C85  1  0.37690000  0.63750000  0.03280000  1.0 -0.2287058595
C  C86  1  0.63750000  0.37690000  0.46720000  1.0 -0.2287058595
C  C87  1  0.62310000  0.36250000  0.96720000  1.0 -0.2287058595
C  C88  1  0.36250000  0.62310000  0.53280000  1.0 -0.2287058595
C  C89  1  0.45290000  0.61130000  0.08790000  1.0 0.0892400772
C  C90  1  0.61130000  0.45290000  0.41210000  1.0 0.0892400772
C  C91  1  0.54710000  0.38870000  0.91210000  1.0 0.0892400772
C  C92  1  0.38870000  0.54710000  0.58790000  1.0 0.0892400772
C  C93  1  0.48490000  0.52930000  0.12380000  1.0 -0.2024731662
C  C94  1  0.52930000  0.48490000  0.37620000  1.0 -0.2024731662
C  C95  1  0.51510000  0.47070000  0.87620000  1.0 -0.2024731662
C  C96  1  0.47070000  0.51510000  0.62380000  1.0 -0.2024731662
C  C97  1  0.50070000  0.66750000  0.11610000  1.0 0.0701692142
C  C98  1  0.66750000  0.50070000  0.38390000  1.0 0.0701692142
C  C99  1  0.49930000  0.33250000  0.88390000  1.0 0.0701692142
C  C100  1  0.33250000  0.49930000  0.61610000  1.0 0.0701692142
C  C101  1  0.46980000  0.73120000  0.15920000  1.0 -0.142339966
C  C102  1  0.73120000  0.46980000  0.34080000  1.0 -0.142339966
C  C103  1  0.53020000  0.26880000  0.84080000  1.0 -0.142339966
C  C104  1  0.26880000  0.53020000  0.65920000  1.0 -0.142339966
C  C105  1  0.51530000  0.78190000  0.18840000  1.0 -0.2127997193
C  C106  1  0.78190000  0.51530000  0.31160000  1.0 -0.2127997193
C  C107  1  0.48470000  0.21810000  0.81160000  1.0 -0.2127997193
C  C108  1  0.21810000  0.48470000  0.68840000  1.0 -0.2127997193
C  C109  1  0.59410000  0.76750000  0.17470000  1.0 0.1694364634
C  C110  1  0.76750000  0.59410000  0.32530000  1.0 0.1694364634
C  C111  1  0.40590000  0.23250000  0.82530000  1.0 0.1694364634
C  C112  1  0.23250000  0.40590000  0.67470000  1.0 0.1694364634
C  C113  1  0.62510000  0.70570000  0.12830000  1.0 -0.157969414
C  C114  1  0.70570000  0.62510000  0.37170000  1.0 -0.157969414
C  C115  1  0.37490000  0.29430000  0.87170000  1.0 -0.157969414
C  C116  1  0.29430000  0.37490000  0.62830000  1.0 -0.157969414
C  C117  1  0.57890000  0.65590000  0.10020000  1.0 -0.1111971048
C  C118  1  0.65590000  0.57890000  0.39980000  1.0 -0.1111971048
C  C119  1  0.42110000  0.34410000  0.89980000  1.0 -0.1111971048
C  C120  1  0.34410000  0.42110000  0.60020000  1.0 -0.1111971048
C  C121  1  0.64370000  0.84190000  0.29060000  1.0 0.1009400403
C  C122  1  0.84190000  0.64370000  0.20940000  1.0 0.1009400403
C  C123  1  0.35630000  0.15810000  0.70940000  1.0 0.1009400403
C  C124  1  0.15810000  0.35630000  0.79060000  1.0 0.1009400403
C  C125  1  0.73060000  0.88680000  0.22230000  1.0 -0.0070373651
C  C126  1  0.88680000  0.73060000  0.27770000  1.0 -0.0070373651
C  C127  1  0.26940000  0.11320000  0.77770000  1.0 -0.0070373651
C  C128  1  0.11320000  0.26940000  0.72230000  1.0 -0.0070373651
C  C129  1  0.69920000  0.84340000  0.16140000  1.0 -0.0991367006
C  C130  1  0.84340000  0.69920000  0.33860000  1.0 -0.0991367006
C  C131  1  0.30080000  0.15660000  0.83860000  1.0 -0.0991367006
C  C132  1  0.15660000  0.30080000  0.66140000  1.0 -0.0991367006
C  C133  1  0.84510000  0.97250000  0.43770000  1.0 0.5347080019
C  C134  1  0.97250000  0.84510000  0.06230000  1.0 0.5347080019
C  C135  1  0.15490000  0.02750000  0.56230000  1.0 0.5347080019
C  C136  1  0.02750000  0.15490000  0.93770000  1.0 0.5347080019
C  C137  1  0.92580000  0.98680000  0.47180000  1.0 0.0099211086
C  C138  1  0.98680000  0.92580000  0.02820000  1.0 0.0099211086
C  C139  1  0.07420000  0.01320000  0.52820000  1.0 0.0099211086
C  C140  1  0.01320000  0.07420000  0.97180000  1.0 0.0099211086
C  C141  1  0.96020000  0.02740000  0.40560000  1.0 -0.1226281438
C  C142  1  0.02740000  0.96020000  0.09440000  1.0 -0.1226281438
C  C143  1  0.03980000  0.97260000  0.59440000  1.0 -0.1226281438
C  C144  1  0.97260000  0.03980000  0.90560000  1.0 -0.1226281438
C  C145  1  0.96440000  0.96160000  0.56410000  1.0 -0.157969414
C  C146  1  0.96160000  0.96440000  0.93590000  1.0 -0.157969414
C  C147  1  0.03560000  0.03840000  0.43590000  1.0 -0.157969414
C  C148  1  0.03840000  0.03560000  0.06410000  1.0 -0.157969414
C  C149  1  0.24880000  0.62620000  0.97070000  1.0 0.0892400772
C  C150  1  0.62620000  0.24880000  0.52930000  1.0 0.0892400772
C  C151  1  0.75120000  0.37380000  0.02930000  1.0 0.0892400772
C  C152  1  0.37380000  0.75120000  0.47070000  1.0 0.0892400772
C  C153  1  0.19790000  0.69410000  0.98940000  1.0 -0.2024731662
C  C154  1  0.69410000  0.19790000  0.51060000  1.0 -0.2024731662
C  C155  1  0.80210000  0.30590000  0.01060000  1.0 -0.2024731662
C  C156  1  0.30590000  0.80210000  0.48940000  1.0 -0.2024731662
C  C157  1  0.12300000  0.72620000  0.93210000  1.0 -0.3238944027
C  C158  1  0.72620000  0.12300000  0.56790000  1.0 -0.3238944027
C  C159  1  0.87700000  0.27380000  0.06790000  1.0 -0.3238944027
C  C160  1  0.27380000  0.87700000  0.43210000  1.0 -0.3238944027
C  C161  1  0.09880000  0.69040000  0.85620000  1.0 0.1196605661
C  C162  1  0.69040000  0.09880000  0.64380000  1.0 0.1196605661
C  C163  1  0.90120000  0.30960000  0.14380000  1.0 0.1196605661
C  C164  1  0.30960000  0.90120000  0.35620000  1.0 0.1196605661
C  C165  1  0.14960000  0.62260000  0.83750000  1.0 0.002327771
C  C166  1  0.62260000  0.14960000  0.66250000  1.0 0.002327771
C  C167  1  0.85040000  0.37740000  0.16250000  1.0 0.002327771
C  C168  1  0.37740000  0.85040000  0.33750000  1.0 0.002327771
C  C169  1  0.22450000  0.59050000  0.89480000  1.0 0.002327771
C  C170  1  0.59050000  0.22450000  0.60520000  1.0 0.002327771
C  C171  1  0.77550000  0.40950000  0.10520000  1.0 0.002327771
C  C172  1  0.40950000  0.77550000  0.39480000  1.0 0.002327771
C  C173  1  0.95290000  0.71950000  0.82480000  1.0 0.0438938618
C  C174  1  0.71950000  0.95290000  0.67520000  1.0 0.0438938618
C  C175  1  0.04710000  0.28050000  0.17520000  1.0 0.0438938618
C  C176  1  0.28050000  0.04710000  0.32480000  1.0 0.0438938618
C  C177  1  0.00660000  0.77720000  0.70200000  1.0 0.002327771
C  C178  1  0.77720000  0.00660000  0.79800000  1.0 0.002327771
C  C179  1  0.99340000  0.22280000  0.29800000  1.0 0.002327771
C  C180  1  0.22280000  0.99340000  0.20200000  1.0 0.002327771
C  C181  1  0.92130000  0.80310000  0.67600000  1.0 0.0198098572
C  C182  1  0.80310000  0.92130000  0.82400000  1.0 0.0198098572
C  C183  1  0.07870000  0.19690000  0.32400000  1.0 0.0198098572
C  C184  1  0.19690000  0.07870000  0.17600000  1.0 0.0198098572
S  S1  1  0.68718000  0.79158000  0.54275000  1.0 0.9957578367
S  S2  1  0.79158000  0.68718000  0.95725000  1.0 0.9810808685
S  S3  1  0.31282000  0.20842000  0.45725000  1.0 0.9957578367
S  S4  1  0.20842000  0.31282000  0.04275000  1.0 0.9957578367
N  N1  1  0.89610000  0.74470000  0.72610000  1.0 0.0198098572
N  N2  1  0.74470000  0.89610000  0.77390000  1.0 0.0198098572
N  N3  1  0.10390000  0.25530000  0.27390000  1.0 0.0198098572
N  N4  1  0.25530000  0.10390000  0.22610000  1.0 0.0198098572
N  N5  1  0.02680000  0.69780000  0.76270000  1.0 0.0701692142
N  N6  1  0.69780000  0.02680000  0.73730000  1.0 0.0701692142
N  N7  1  0.97320000  0.30220000  0.23730000  1.0 0.0609197702
N  N8  1  0.30220000  0.97320000  0.26270000  1.0 0.0609197702
N  N9  1  0.62860000  0.03840000  0.38990000  1.0 -0.284263185
N  N10  1  0.03840000  0.62860000  0.11010000  1.0 -0.2853934977
N  N11  1  0.37140000  0.96160000  0.61010000  1.0 -0.2853934977
N  N12  1  0.96160000  0.37140000  0.88990000  1.0 -0.2853934977
N  N13  1  0.55240000  0.15620000  0.32130000  1.0 0.0099211086
N  N14  1  0.15620000  0.55240000  0.17870000  1.0 0.0099211086
N  N15  1  0.44760000  0.84380000  0.67870000  1.0 0.0099211086
N  N16  1  0.84380000  0.44760000  0.82130000  1.0 0.0099211086
N  N17  1  0.69620000  0.88540000  0.30280000  1.0 -0.2982691515
N  N18  1  0.88540000  0.69620000  0.19720000  1.0 -0.2982691515
N  N19  1  0.30380000  0.11460000  0.69720000  1.0 -0.2982691515
N  N20  1  0.11460000  0.30380000  0.80280000  1.0 -0.2982691515
N  N21  1  0.64280000  0.81660000  0.20740000  1.0 0.0198098572
N  N22  1  0.81660000  0.64280000  0.29260000  1.0 0.0198098572
N  N23  1  0.35720000  0.18340000  0.79260000  1.0 0.0198098572
N  N24  1  0.18340000  0.35720000  0.70740000  1.0 0.0198098572
N  N25  1  0.88800000  0.76740000  0.75180000  1.0 -0.1111971048
N  N26  1  0.76740000  0.88800000  0.74820000  1.0 -0.1111971048
N  N27  1  0.11200000  0.23260000  0.24820000  1.0 -0.1111971048
N  N28  1  0.23260000  0.11200000  0.25180000  1.0 -0.1111971048
N  N29  1  0.02610000  0.72550000  0.79400000  1.0 0.0253892059
N  N30  1  0.72550000  0.02610000  0.70600000  1.0 0.0253892059
N  N31  1  0.97390000  0.27450000  0.20600000  1.0 0.0198098572
N  N32  1  0.27450000  0.97390000  0.29400000  1.0 0.0198098572
O  O1  1  0.81510000  0.93710000  0.50110000  1.0 -0.5492353726
O  O2  1  0.93710000  0.81510000  0.99890000  1.0 -0.5492353726
O  O3  1  0.18490000  0.06290000  0.49890000  1.0 -0.5492353726
O  O4  1  0.06290000  0.18490000  0.00110000  1.0 -0.5492353726
O  O5  1  0.80890000  0.99810000  0.35130000  1.0 -0.5492353726
O  O6  1  0.99810000  0.80890000  0.14870000  1.0 -0.5492353726
O  O7  1  0.19110000  0.00190000  0.64870000  1.0 -0.5492353726
O  O8  1  0.00190000  0.19110000  0.85130000  1.0 -0.5492353726
O  O9  1  0.65810000  0.88070000  0.51350000  1.0 -0.6590327087
O  O10  1  0.88070000  0.65810000  0.98650000  1.0 -0.6590327087
O  O11  1  0.34190000  0.11930000  0.48650000  1.0 -0.6590327087
O  O12  1  0.11930000  0.34190000  0.01350000  1.0 -0.6590327087
O  O13  1  0.69530000  0.77350000  0.64990000  1.0 -0.611952639
O  O14  1  0.77350000  0.69530000  0.85010000  1.0 -0.611952639
O  O15  1  0.30470000  0.22650000  0.35010000  1.0 -0.611952639
O  O16  1  0.22650000  0.30470000  0.14990000  1.0 -0.611952639
O  O17  1  0.62760000  0.75580000  0.50010000  1.0 -0.5894236628
O  O18  1  0.75580000  0.62760000  0.99990000  1.0 -0.5894236628
O  O19  1  0.37240000  0.24420000  0.49990000  1.0 -0.5894236628
O  O20  1  0.24420000  0.37240000  0.00010000  1.0 -0.5894236628
O  O21  1  0.76400000  0.76580000  0.51520000  1.0 -0.619012079
O  O22  1  0.76580000  0.76400000  0.98480000  1.0 -0.619012079
O  O23  1  0.23600000  0.23420000  0.48480000  1.0 -0.619012079
O  O24  1  0.23420000  0.23600000  0.01520000  1.0 -0.619012079
