# DDEC6 charges by PACMAN v1.1 (https://github.com/mtap-research/PACMAN-charge/)
data_GINYAG_ASR_pacman
_symmetry_space_group_name_H-M   'P 1'
_cell_length_a   20.93110000
_cell_length_b   20.93110000
_cell_length_c   20.93110000
_cell_angle_alpha   118.78600000
_cell_angle_beta   118.78600000
_cell_angle_gamma   118.78600000
_symmetry_Int_Tables_number   1
_chemical_formula_structural   NiH5C8O3
_chemical_formula_sum   'Ni6 H30 C48 O18'
_cell_volume   2610.51197018
_cell_formula_units_Z   6
loop_
 _symmetry_equiv_pos_site_id
 _symmetry_equiv_pos_as_xyz
  1  'x, y, z'
loop_
 _atom_site_type_symbol
 _atom_site_label
 _atom_site_symmetry_multiplicity
 _atom_site_fract_x
 _atom_site_fract_y
 _atom_site_fract_z
 _atom_site_occupancy
 _atom_site_charge
Ni  Ni1  1  0.52800000  0.82300000  0.19900000  1.0 0.7347749861
Ni  Ni2  1  0.82300000  0.19900000  0.52800000  1.0 0.7347749861
Ni  Ni3  1  0.19900000  0.52800000  0.82300000  1.0 0.7347749861
Ni  Ni4  1  0.47200000  0.17700000  0.80100000  1.0 0.7347749861
Ni  Ni5  1  0.17700000  0.80100000  0.47200000  1.0 0.7347749861
Ni  Ni6  1  0.80100000  0.47200000  0.17700000  1.0 0.7347749861
H  H1  1  0.61100000  0.72900000  0.16500000  1.0 0.1424381155
H  H2  1  0.92800000  0.01200000  0.51000000  1.0 0.0944748911
H  H3  1  0.20600000  0.17400000  0.73000000  1.0 0.0844463575
H  H4  1  0.38900000  0.26700000  0.83800000  1.0 0.1306550296
H  H5  1  0.79100000  0.81900000  0.27000000  1.0 0.1197185211
H  H6  1  0.72900000  0.16500000  0.61100000  1.0 0.1424381155
H  H7  1  0.01200000  0.51000000  0.92800000  1.0 0.0944748911
H  H8  1  0.17400000  0.73000000  0.20600000  1.0 0.0844463575
H  H9  1  0.26700000  0.83800000  0.38900000  1.0 0.1306550296
H  H10  1  0.81900000  0.27000000  0.79100000  1.0 0.1197185211
H  H11  1  0.16500000  0.61100000  0.72900000  1.0 0.1424381155
H  H12  1  0.51000000  0.92800000  0.01200000  1.0 0.0944748911
H  H13  1  0.73000000  0.20600000  0.17400000  1.0 0.0844463575
H  H14  1  0.83800000  0.38900000  0.26700000  1.0 0.1306550296
H  H15  1  0.27000000  0.79100000  0.81900000  1.0 0.1197185211
H  H16  1  0.38900000  0.27100000  0.83500000  1.0 0.1424381155
H  H17  1  0.07200000  0.98800000  0.49000000  1.0 0.0944748911
H  H18  1  0.79400000  0.82600000  0.27000000  1.0 0.0844463575
H  H19  1  0.61100000  0.73300000  0.16200000  1.0 0.1306550296
H  H20  1  0.20900000  0.18100000  0.73000000  1.0 0.1197185211
H  H21  1  0.27100000  0.83500000  0.38900000  1.0 0.1424381155
H  H22  1  0.98800000  0.49000000  0.07200000  1.0 0.0944748911
H  H23  1  0.82600000  0.27000000  0.79400000  1.0 0.0844463575
H  H24  1  0.73300000  0.16200000  0.61100000  1.0 0.1306550296
H  H25  1  0.18100000  0.73000000  0.20900000  1.0 0.1197185211
H  H26  1  0.83500000  0.38900000  0.27100000  1.0 0.1424381155
H  H27  1  0.49000000  0.07200000  0.98800000  1.0 0.0944748911
H  H28  1  0.27000000  0.79400000  0.82600000  1.0 0.0844463575
H  H29  1  0.16200000  0.61100000  0.73300000  1.0 0.1306550296
H  H30  1  0.73000000  0.20900000  0.18100000  1.0 0.1197185211
C  C1  1  0.95500000  0.18100000  0.58400000  1.0 0.5778021606
C  C2  1  0.12200000  0.28300000  0.71700000  1.0 -0.1464479275
C  C3  1  0.30600000  0.47800000  0.89600000  1.0 0.1939638771
C  C4  1  0.46900000  0.57500000  0.02600000  1.0 -0.2387734634
C  C5  1  0.41300000  0.44700000  0.94000000  1.0 0.0343891264
C  C6  1  0.24200000  0.26800000  0.78000000  1.0 -0.1324829839
C  C7  1  0.07900000  0.16900000  0.65200000  1.0 -0.1689607782
C  C8  1  0.58400000  0.54600000  0.06000000  1.0 0.0343891264
C  C9  1  0.18100000  0.58400000  0.95500000  1.0 0.5778021606
C  C10  1  0.28300000  0.71700000  0.12200000  1.0 -0.1464479275
C  C11  1  0.47800000  0.89600000  0.30600000  1.0 0.1939638771
C  C12  1  0.57500000  0.02600000  0.46900000  1.0 -0.2387734634
C  C13  1  0.44700000  0.94000000  0.41300000  1.0 0.0343891264
C  C14  1  0.26800000  0.78000000  0.24200000  1.0 -0.1324829839
C  C15  1  0.16900000  0.65200000  0.07900000  1.0 -0.1689607782
C  C16  1  0.54600000  0.06000000  0.58400000  1.0 0.0358032788
C  C17  1  0.58400000  0.95500000  0.18100000  1.0 0.5778021606
C  C18  1  0.71700000  0.12200000  0.28300000  1.0 -0.1464479275
C  C19  1  0.89600000  0.30600000  0.47800000  1.0 0.1939638771
C  C20  1  0.02600000  0.46900000  0.57500000  1.0 -0.2387734634
C  C21  1  0.94000000  0.41300000  0.44700000  1.0 0.0343891264
C  C22  1  0.78000000  0.24200000  0.26800000  1.0 -0.1324829839
C  C23  1  0.65200000  0.07900000  0.16900000  1.0 -0.1689607782
C  C24  1  0.06000000  0.58400000  0.54600000  1.0 0.0343891264
C  C25  1  0.04500000  0.81900000  0.41600000  1.0 0.5778021606
C  C26  1  0.87800000  0.71700000  0.28300000  1.0 -0.1464479275
C  C27  1  0.69400000  0.52200000  0.10400000  1.0 0.1939638771
C  C28  1  0.53100000  0.42500000  0.97400000  1.0 -0.2387734634
C  C29  1  0.58700000  0.55300000  0.06000000  1.0 0.0343891264
C  C30  1  0.75800000  0.73200000  0.22000000  1.0 -0.1324829839
C  C31  1  0.92100000  0.83100000  0.34800000  1.0 -0.1689607782
C  C32  1  0.41600000  0.45400000  0.94000000  1.0 0.0343891264
C  C33  1  0.81900000  0.41600000  0.04500000  1.0 0.5778021606
C  C34  1  0.71700000  0.28300000  0.87800000  1.0 -0.1464479275
C  C35  1  0.52200000  0.10400000  0.69400000  1.0 0.1939638771
C  C36  1  0.42500000  0.97400000  0.53100000  1.0 -0.2387734634
C  C37  1  0.55300000  0.06000000  0.58700000  1.0 0.0343891264
C  C38  1  0.73200000  0.22000000  0.75800000  1.0 -0.1324829839
C  C39  1  0.83100000  0.34800000  0.92100000  1.0 -0.1689607782
C  C40  1  0.45400000  0.94000000  0.41600000  1.0 0.0343891264
C  C41  1  0.41600000  0.04500000  0.81900000  1.0 0.5778021606
C  C42  1  0.28300000  0.87800000  0.71700000  1.0 -0.1464479275
C  C43  1  0.10400000  0.69400000  0.52200000  1.0 0.1939638771
C  C44  1  0.97400000  0.53100000  0.42500000  1.0 -0.2387734634
C  C45  1  0.06000000  0.58700000  0.55300000  1.0 0.0343891264
C  C46  1  0.22000000  0.75800000  0.73200000  1.0 -0.1324829839
C  C47  1  0.34800000  0.92100000  0.83100000  1.0 -0.1689607782
C  C48  1  0.94000000  0.41600000  0.45400000  1.0 0.0343891264
O  O1  1  0.77700000  0.99200000  0.40800000  1.0 -0.5224611966
O  O2  1  0.98500000  0.27700000  0.64100000  1.0 -0.4268032419
O  O3  1  0.33300000  0.57800000  0.94900000  1.0 -0.5113582917
O  O4  1  0.99200000  0.40800000  0.77700000  1.0 -0.5224611966
O  O5  1  0.27700000  0.64100000  0.98500000  1.0 -0.4268032419
O  O6  1  0.57800000  0.94900000  0.33300000  1.0 -0.5113582917
O  O7  1  0.40800000  0.77700000  0.99200000  1.0 -0.5224611966
O  O8  1  0.64100000  0.98500000  0.27700000  1.0 -0.4268032419
O  O9  1  0.94900000  0.33300000  0.57800000  1.0 -0.5113582917
O  O10  1  0.22300000  0.00800000  0.59200000  1.0 -0.5224611966
O  O11  1  0.01500000  0.72300000  0.35900000  1.0 -0.4268032419
O  O12  1  0.66700000  0.42200000  0.05100000  1.0 -0.5113582917
O  O13  1  0.00800000  0.59200000  0.22300000  1.0 -0.5224611966
O  O14  1  0.72300000  0.35900000  0.01500000  1.0 -0.4268032419
O  O15  1  0.42200000  0.05100000  0.66700000  1.0 -0.5113582917
O  O16  1  0.59200000  0.22300000  0.00800000  1.0 -0.5224611966
O  O17  1  0.35900000  0.01500000  0.72300000  1.0 -0.4268032419
O  O18  1  0.05100000  0.66700000  0.42200000  1.0 -0.5113582917
