# DDEC6 charges by PACMAN v1.1 (https://github.com/mtap-research/PACMAN-charge/)
data_GINYIO_FSR_pacman
_symmetry_space_group_name_H-M   'P 1'
_cell_length_a   26.81310000
_cell_length_b   26.81310000
_cell_length_c   26.81310000
_cell_angle_alpha   119.31300000
_cell_angle_beta   119.31300000
_cell_angle_gamma   119.31300000
_symmetry_Int_Tables_number   1
_chemical_formula_structural   NiH7C11O5
_chemical_formula_sum   'Ni6 H42 C66 O30'
_cell_volume   4145.21917382
_cell_formula_units_Z   6
loop_
 _symmetry_equiv_pos_site_id
 _symmetry_equiv_pos_as_xyz
  1  'x, y, z'
loop_
 _atom_site_type_symbol
 _atom_site_label
 _atom_site_symmetry_multiplicity
 _atom_site_fract_x
 _atom_site_fract_y
 _atom_site_fract_z
 _atom_site_occupancy
 _atom_site_charge
Ni  Ni1  1  0.08550000  0.46177000  0.78426000  1.0 0.8556268495
Ni  Ni2  1  0.46177000  0.78426000  0.08550000  1.0 0.8556268495
Ni  Ni3  1  0.78426000  0.08550000  0.46177000  1.0 0.8556268495
Ni  Ni4  1  0.91450000  0.53823000  0.21574000  1.0 0.8556268495
Ni  Ni5  1  0.53823000  0.21574000  0.91450000  1.0 0.8556268495
Ni  Ni6  1  0.21574000  0.91450000  0.53823000  1.0 0.8556268495
H  H1  1  0.05904000  0.45609000  0.89989000  1.0 0.1321574556
H  H2  1  0.30367000  0.77080000  0.16330000  1.0 0.1071895865
H  H3  1  0.48572000  0.99105000  0.43045000  1.0 0.1071895865
H  H4  1  0.91723000  0.31654000  0.86970000  1.0 0.1191672268
H  H5  1  0.96423000  0.51805000  0.87133000  1.0 0.1381344976
H  H6  1  0.94769000  0.56475000  0.92490000  1.0 0.1321574556
H  H7  1  0.71603000  0.29888000  0.67096000  1.0 0.1321574556
H  H8  1  0.45609000  0.89989000  0.05904000  1.0 0.1321574556
H  H9  1  0.77080000  0.16330000  0.30367000  1.0 0.1071895865
H  H10  1  0.99105000  0.43045000  0.48572000  1.0 0.1071895865
H  H11  1  0.31654000  0.86970000  0.91723000  1.0 0.1191672268
H  H12  1  0.51805000  0.87133000  0.96423000  1.0 0.1381344976
H  H13  1  0.56475000  0.92490000  0.94769000  1.0 0.1321574556
H  H14  1  0.29888000  0.67096000  0.71603000  1.0 0.1321574556
H  H15  1  0.89989000  0.05904000  0.45609000  1.0 0.1321574556
H  H16  1  0.16330000  0.30367000  0.77080000  1.0 0.1071895865
H  H17  1  0.43045000  0.48572000  0.99105000  1.0 0.1071895865
H  H18  1  0.86970000  0.91723000  0.31654000  1.0 0.1191672268
H  H19  1  0.87133000  0.96423000  0.51805000  1.0 0.1381344976
H  H20  1  0.92490000  0.94769000  0.56475000  1.0 0.1321574556
H  H21  1  0.67096000  0.71603000  0.29888000  1.0 0.1321574556
H  H22  1  0.94096000  0.54391000  0.10011000  1.0 0.1321574556
H  H23  1  0.69633000  0.22920000  0.83670000  1.0 0.1071895865
H  H24  1  0.51428000  0.00895000  0.56955000  1.0 0.1071895865
H  H25  1  0.08277000  0.68346000  0.13030000  1.0 0.1191672268
H  H26  1  0.03577000  0.48195000  0.12867000  1.0 0.1381344976
H  H27  1  0.05231000  0.43525000  0.07510000  1.0 0.1321574556
H  H28  1  0.28397000  0.70112000  0.32904000  1.0 0.1321574556
H  H29  1  0.54391000  0.10011000  0.94096000  1.0 0.1321574556
H  H30  1  0.22920000  0.83670000  0.69633000  1.0 0.1071895865
H  H31  1  0.00895000  0.56955000  0.51428000  1.0 0.1071895865
H  H32  1  0.68346000  0.13030000  0.08277000  1.0 0.1191672268
H  H33  1  0.48195000  0.12867000  0.03577000  1.0 0.1381344976
H  H34  1  0.43525000  0.07510000  0.05231000  1.0 0.1321574556
H  H35  1  0.70112000  0.32904000  0.28397000  1.0 0.1321574556
H  H36  1  0.10011000  0.94096000  0.54391000  1.0 0.1321574556
H  H37  1  0.83670000  0.69633000  0.22920000  1.0 0.1071895865
H  H38  1  0.56955000  0.51428000  0.00895000  1.0 0.1071895865
H  H39  1  0.13030000  0.08277000  0.68346000  1.0 0.1191672268
H  H40  1  0.12867000  0.03577000  0.48195000  1.0 0.1381344976
H  H41  1  0.07510000  0.05231000  0.43525000  1.0 0.1321574556
H  H42  1  0.32904000  0.28397000  0.70112000  1.0 0.1321574556
C  C1  1  0.45563000  0.84250000  0.20457000  1.0 0.5482447726
C  C2  1  0.57656000  0.98538000  0.37576000  1.0 -0.178987932
C  C3  1  0.79470000  0.18529000  0.58945000  1.0 0.3133688552
C  C4  1  0.89473000  0.30755000  0.73928000  1.0 -0.2069421255
C  C5  1  0.78645000  0.24117000  0.68498000  1.0 0.1027680866
C  C6  1  0.57275000  0.04620000  0.47583000  1.0 -0.178987932
C  C7  1  0.46921000  0.92024000  0.32346000  1.0 -0.062440104
C  C8  1  0.89649000  0.37507000  0.84685000  1.0 0.0181699381
C  C9  1  0.94318000  0.47914000  0.92040000  1.0 0.1191672268
C  C10  1  0.95449000  0.39770000  0.92774000  1.0 -0.196430906
C  C11  1  0.88978000  0.46445000  0.84257000  1.0 -0.3694549271
C  C12  1  0.84250000  0.20457000  0.45563000  1.0 0.5482447726
C  C13  1  0.98538000  0.37576000  0.57656000  1.0 -0.178987932
C  C14  1  0.18529000  0.58945000  0.79470000  1.0 0.3133688552
C  C15  1  0.30755000  0.73928000  0.89473000  1.0 -0.2069421255
C  C16  1  0.24117000  0.68498000  0.78645000  1.0 0.1027680866
C  C17  1  0.04620000  0.47583000  0.57275000  1.0 -0.178987932
C  C18  1  0.92024000  0.32346000  0.46921000  1.0 -0.062440104
C  C19  1  0.37507000  0.84685000  0.89649000  1.0 0.0181699381
C  C20  1  0.47914000  0.92040000  0.94318000  1.0 0.1191672268
C  C21  1  0.39770000  0.92774000  0.95449000  1.0 -0.196430906
C  C22  1  0.46445000  0.84257000  0.88978000  1.0 -0.3694549271
C  C23  1  0.20457000  0.45563000  0.84250000  1.0 0.5482447726
C  C24  1  0.37576000  0.57656000  0.98538000  1.0 -0.178987932
C  C25  1  0.58945000  0.79470000  0.18529000  1.0 0.3133688552
C  C26  1  0.73928000  0.89473000  0.30755000  1.0 -0.2069421255
C  C27  1  0.68498000  0.78645000  0.24117000  1.0 0.1027680866
C  C28  1  0.47583000  0.57275000  0.04620000  1.0 -0.178987932
C  C29  1  0.32346000  0.46921000  0.92024000  1.0 -0.062440104
C  C30  1  0.84685000  0.89649000  0.37507000  1.0 0.0181699381
C  C31  1  0.92040000  0.94318000  0.47914000  1.0 0.1191672268
C  C32  1  0.92774000  0.95449000  0.39770000  1.0 -0.196430906
C  C33  1  0.84257000  0.88978000  0.46445000  1.0 -0.3694549271
C  C34  1  0.54437000  0.15750000  0.79543000  1.0 0.5482447726
C  C35  1  0.42344000  0.01462000  0.62424000  1.0 -0.178987932
C  C36  1  0.20530000  0.81471000  0.41055000  1.0 0.3133688552
C  C37  1  0.10527000  0.69245000  0.26072000  1.0 -0.2069421255
C  C38  1  0.21355000  0.75883000  0.31502000  1.0 0.1027680866
C  C39  1  0.42725000  0.95380000  0.52417000  1.0 -0.178987932
C  C40  1  0.53079000  0.07976000  0.67654000  1.0 -0.062440104
C  C41  1  0.10351000  0.62493000  0.15315000  1.0 0.0181699381
C  C42  1  0.05682000  0.52086000  0.07960000  1.0 0.1191672268
C  C43  1  0.04551000  0.60230000  0.07226000  1.0 -0.196430906
C  C44  1  0.11022000  0.53555000  0.15743000  1.0 -0.3694549271
C  C45  1  0.15750000  0.79543000  0.54437000  1.0 0.5482447726
C  C46  1  0.01462000  0.62424000  0.42344000  1.0 -0.178987932
C  C47  1  0.81471000  0.41055000  0.20530000  1.0 0.3133688552
C  C48  1  0.69245000  0.26072000  0.10527000  1.0 -0.2069421255
C  C49  1  0.75883000  0.31502000  0.21355000  1.0 0.1027680866
C  C50  1  0.95380000  0.52417000  0.42725000  1.0 -0.178987932
C  C51  1  0.07976000  0.67654000  0.53079000  1.0 -0.062440104
C  C52  1  0.62493000  0.15315000  0.10351000  1.0 0.0181699381
C  C53  1  0.52086000  0.07960000  0.05682000  1.0 0.1191672268
C  C54  1  0.60230000  0.07226000  0.04551000  1.0 -0.196430906
C  C55  1  0.53555000  0.15743000  0.11022000  1.0 -0.3694549271
C  C56  1  0.79543000  0.54437000  0.15750000  1.0 0.5482447726
C  C57  1  0.62424000  0.42344000  0.01462000  1.0 -0.178987932
C  C58  1  0.41055000  0.20530000  0.81471000  1.0 0.3133688552
C  C59  1  0.26072000  0.10527000  0.69245000  1.0 -0.2069421255
C  C60  1  0.31502000  0.21355000  0.75883000  1.0 0.1027680866
C  C61  1  0.52417000  0.42725000  0.95380000  1.0 -0.178987932
C  C62  1  0.67654000  0.53079000  0.07976000  1.0 -0.062440104
C  C63  1  0.15315000  0.10351000  0.62493000  1.0 0.0181699381
C  C64  1  0.07960000  0.05682000  0.52086000  1.0 0.1191672268
C  C65  1  0.07226000  0.04551000  0.60230000  1.0 -0.196430906
C  C66  1  0.15743000  0.11022000  0.53555000  1.0 -0.3694549271
O  O1  1  0.26107000  0.66708000  0.01871000  1.0 -0.4513598202
O  O2  1  0.54051000  0.89032000  0.23915000  1.0 -0.3380877096
O  O3  1  0.91832000  0.26790000  0.66168000  1.0 -0.536862544
O  O4  1  0.92557000  0.37698000  0.65428000  1.0 -0.2069421255
O  O5  1  0.39801000  0.71853000  0.13257000  1.0 -0.0990028672
O  O6  1  0.66708000  0.01871000  0.26107000  1.0 -0.4513598202
O  O7  1  0.89032000  0.23915000  0.54051000  1.0 -0.3380877096
O  O8  1  0.26790000  0.66168000  0.91832000  1.0 -0.536862544
O  O9  1  0.37698000  0.65428000  0.92557000  1.0 -0.2069421255
O  O10  1  0.71853000  0.13257000  0.39801000  1.0 -0.0990028672
O  O11  1  0.01871000  0.26107000  0.66708000  1.0 -0.4513598202
O  O12  1  0.23915000  0.54051000  0.89032000  1.0 -0.3380877096
O  O13  1  0.66168000  0.91832000  0.26790000  1.0 -0.536862544
O  O14  1  0.65428000  0.92557000  0.37698000  1.0 -0.2069421255
O  O15  1  0.13257000  0.39801000  0.71853000  1.0 -0.0990028672
O  O16  1  0.73893000  0.33292000  0.98129000  1.0 -0.4513598202
O  O17  1  0.45949000  0.10968000  0.76085000  1.0 -0.3380877096
O  O18  1  0.08168000  0.73210000  0.33832000  1.0 -0.536862544
O  O19  1  0.07443000  0.62302000  0.34572000  1.0 -0.2069421255
O  O20  1  0.60199000  0.28147000  0.86743000  1.0 -0.0990028672
O  O21  1  0.33292000  0.98129000  0.73893000  1.0 -0.4513598202
O  O22  1  0.10968000  0.76085000  0.45949000  1.0 -0.3380877096
O  O23  1  0.73210000  0.33832000  0.08168000  1.0 -0.536862544
O  O24  1  0.62302000  0.34572000  0.07443000  1.0 -0.2069421255
O  O25  1  0.28147000  0.86743000  0.60199000  1.0 -0.0990028672
O  O26  1  0.98129000  0.73893000  0.33292000  1.0 -0.4513598202
O  O27  1  0.76085000  0.45949000  0.10968000  1.0 -0.3380877096
O  O28  1  0.33832000  0.08168000  0.73210000  1.0 -0.536862544
O  O29  1  0.34572000  0.07443000  0.62302000  1.0 -0.2069421255
O  O30  1  0.86743000  0.60199000  0.28147000  1.0 -0.0990028672
