# DDEC6 charges by PACMAN v1.1 (https://github.com/mtap-research/PACMAN-charge/)
data_GIQXOU_FSR_pacman
_symmetry_space_group_name_H-M   'P 1'
_cell_length_a   9.53211000
_cell_length_b   9.53211000
_cell_length_c   15.45100000
_cell_angle_alpha   87.13490000
_cell_angle_beta   92.86510000
_cell_angle_gamma   80.95880000
_symmetry_Int_Tables_number   1
_chemical_formula_structural   ErP4H20Ru2(CO5)4
_chemical_formula_sum   'Er2 P8 H40 Ru4 C8 O40'
_cell_volume   1382.33667858
_cell_formula_units_Z   2
loop_
 _symmetry_equiv_pos_site_id
 _symmetry_equiv_pos_as_xyz
  1  'x, y, z'
loop_
 _atom_site_type_symbol
 _atom_site_label
 _atom_site_symmetry_multiplicity
 _atom_site_fract_x
 _atom_site_fract_y
 _atom_site_fract_z
 _atom_site_occupancy
 _atom_site_charge
Er  Er1  1  0.98914000  0.98914000  0.75000000  1.0 2.163528649
Er  Er2  1  0.01086000  0.01086000  0.25000000  1.0 2.163528649
P  P1  1  0.04491000  0.64607000  0.64596000  1.0 1.1723214965
P  P2  1  0.64607000  0.04491000  0.85404000  1.0 1.1723214965
P  P3  1  0.95509000  0.35393000  0.35404000  1.0 1.1723214965
P  P4  1  0.35393000  0.95509000  0.14596000  1.0 1.1723214965
P  P5  1  0.97627000  0.34835000  0.65429000  1.0 1.1723214965
P  P6  1  0.34835000  0.97627000  0.84571000  1.0 1.1723214965
P  P7  1  0.02373000  0.65165000  0.34571000  1.0 1.1723214965
P  P8  1  0.65165000  0.02373000  0.15429000  1.0 1.1723214965
H  H1  1  0.82960000  0.57960000  0.73250000  1.0 0.337020425
H  H2  1  0.57960000  0.82960000  0.76750000  1.0 0.337020425
H  H3  1  0.17040000  0.42040000  0.26750000  1.0 0.337020425
H  H4  1  0.42040000  0.17040000  0.23250000  1.0 0.337020425
H  H5  1  0.37180000  0.28820000  0.49670000  1.0 0.3530195373
H  H6  1  0.28820000  0.37180000  0.00330000  1.0 0.3530195373
H  H7  1  0.62820000  0.71180000  0.50330000  1.0 0.3530195373
H  H8  1  0.71180000  0.62820000  0.99670000  1.0 0.3530195373
H  H9  1  0.39380000  0.38540000  0.55700000  1.0 0.3709679674
H  H10  1  0.38540000  0.39380000  0.94300000  1.0 0.3709679674
H  H11  1  0.60620000  0.61460000  0.44300000  1.0 0.3709679674
H  H12  1  0.61460000  0.60620000  0.05700000  1.0 0.3709679674
H  H13  1  0.83520000  0.91240000  0.60280000  1.0 0.3780671673
H  H14  1  0.91240000  0.83520000  0.89720000  1.0 0.3780671673
H  H15  1  0.16480000  0.08760000  0.39720000  1.0 0.3780671673
H  H16  1  0.08760000  0.16480000  0.10280000  1.0 0.3780671673
H  H17  1  0.75860000  0.87900000  0.67220000  1.0 0.3530195373
H  H18  1  0.87900000  0.75860000  0.82780000  1.0 0.3530195373
H  H19  1  0.24140000  0.12100000  0.32780000  1.0 0.3530195373
H  H20  1  0.12100000  0.24140000  0.17220000  1.0 0.3530195373
H  H21  1  0.11030000  0.07490000  0.90220000  1.0 0.3780671673
H  H22  1  0.07490000  0.11030000  0.59780000  1.0 0.3780671673
H  H23  1  0.88970000  0.92510000  0.09780000  1.0 0.3780671673
H  H24  1  0.92510000  0.88970000  0.40220000  1.0 0.3780671673
H  H25  1  0.97680000  0.15580000  0.89360000  1.0 0.3709679674
H  H26  1  0.15580000  0.97680000  0.60640000  1.0 0.3709679674
H  H27  1  0.02320000  0.84420000  0.10640000  1.0 0.3709679674
H  H28  1  0.84420000  0.02320000  0.39360000  1.0 0.3709679674
H  H29  1  0.15900000  0.52800000  0.81430000  1.0 0.147218922
H  H30  1  0.52800000  0.15900000  0.68570000  1.0 0.147218922
H  H31  1  0.84100000  0.47200000  0.18570000  1.0 0.147218922
H  H32  1  0.47200000  0.84100000  0.31430000  1.0 0.147218922
H  H33  1  0.12620000  0.36840000  0.81650000  1.0 0.147218922
H  H34  1  0.36840000  0.12620000  0.68350000  1.0 0.147218922
H  H35  1  0.87380000  0.63160000  0.18350000  1.0 0.147218922
H  H36  1  0.63160000  0.87380000  0.31650000  1.0 0.147218922
H  H37  1  0.22520000  0.42100000  0.74500000  1.0 0.1435294616
H  H38  1  0.42100000  0.22520000  0.75500000  1.0 0.1435294616
H  H39  1  0.77480000  0.57900000  0.25500000  1.0 0.1435294616
H  H40  1  0.57900000  0.77480000  0.24500000  1.0 0.1435294616
Ru  Ru1  1  0.12164000  0.45432000  0.50190000  1.0 0.9161857645
Ru  Ru2  1  0.45432000  0.12164000  0.99810000  1.0 0.9161857645
Ru  Ru3  1  0.87836000  0.54568000  0.49810000  1.0 0.9161857645
Ru  Ru4  1  0.54568000  0.87836000  0.00190000  1.0 0.9161857645
C  C1  1  0.01670000  0.49530000  0.71970000  1.0 -0.1047619806
C  C2  1  0.49530000  0.01670000  0.78030000  1.0 -0.1047619806
C  C3  1  0.98330000  0.50470000  0.28030000  1.0 -0.1047619806
C  C4  1  0.50470000  0.98330000  0.21970000  1.0 -0.1047619806
C  C5  1  0.14220000  0.44940000  0.77870000  1.0 -0.4276106675
C  C6  1  0.44940000  0.14220000  0.72130000  1.0 -0.4276106675
C  C7  1  0.85780000  0.55060000  0.22130000  1.0 -0.4276106675
C  C8  1  0.55060000  0.85780000  0.27870000  1.0 -0.4276106675
O  O1  1  0.16780000  0.59140000  0.58960000  1.0 -0.6370702703
O  O2  1  0.59140000  0.16780000  0.91040000  1.0 -0.6370702703
O  O3  1  0.83220000  0.40860000  0.41040000  1.0 -0.6370702703
O  O4  1  0.40860000  0.83220000  0.08960000  1.0 -0.6370702703
O  O5  1  0.90970000  0.69110000  0.58610000  1.0 -0.6973248143
O  O6  1  0.69110000  0.90970000  0.91390000  1.0 -0.6973248143
O  O7  1  0.09030000  0.30890000  0.41390000  1.0 -0.6973248143
O  O8  1  0.30890000  0.09030000  0.08610000  1.0 -0.6973248143
O  O9  1  0.07410000  0.76690000  0.69950000  1.0 -0.8030028363
O  O10  1  0.76690000  0.07410000  0.80050000  1.0 -0.8030028363
O  O11  1  0.92590000  0.23310000  0.30050000  1.0 -0.8030028363
O  O12  1  0.23310000  0.92590000  0.19950000  1.0 -0.8030028363
O  O13  1  0.10430000  0.30870000  0.59870000  1.0 -0.6706818213
O  O14  1  0.30870000  0.10430000  0.90130000  1.0 -0.6706818213
O  O15  1  0.89570000  0.69130000  0.40130000  1.0 -0.6706818213
O  O16  1  0.69130000  0.89570000  0.09870000  1.0 -0.6706818213
O  O17  1  0.84180000  0.40560000  0.59420000  1.0 -0.6491523553
O  O18  1  0.40560000  0.84180000  0.90580000  1.0 -0.6491523553
O  O19  1  0.15820000  0.59440000  0.40580000  1.0 -0.6491523553
O  O20  1  0.59440000  0.15820000  0.09420000  1.0 -0.6491523553
O  O21  1  0.95500000  0.22740000  0.71480000  1.0 -0.8102587183
O  O22  1  0.22740000  0.95500000  0.78520000  1.0 -0.8102587183
O  O23  1  0.04500000  0.77260000  0.28520000  1.0 -0.8102587183
O  O24  1  0.77260000  0.04500000  0.21480000  1.0 -0.8102587183
O  O25  1  0.90010000  0.54930000  0.76740000  1.0 -0.4129211624
O  O26  1  0.54930000  0.90010000  0.73260000  1.0 -0.4129211624
O  O27  1  0.09990000  0.45070000  0.23260000  1.0 -0.4129211624
O  O28  1  0.45070000  0.09990000  0.26740000  1.0 -0.4129211624
O  O29  1  0.35750000  0.37510000  0.50710000  1.0 -0.5915074815
O  O30  1  0.37510000  0.35750000  0.99290000  1.0 -0.5915074815
O  O31  1  0.64250000  0.62490000  0.49290000  1.0 -0.5915074815
O  O32  1  0.62490000  0.64250000  0.00710000  1.0 -0.5915074815
O  O33  1  0.80000000  0.94180000  0.64890000  1.0 -0.7526173164
O  O34  1  0.94180000  0.80000000  0.85110000  1.0 -0.7526173164
O  O35  1  0.20000000  0.05820000  0.35110000  1.0 -0.7526173164
O  O36  1  0.05820000  0.20000000  0.14890000  1.0 -0.7526173164
O  O37  1  0.02300000  0.07320000  0.89150000  1.0 -0.764780732
O  O38  1  0.07320000  0.02300000  0.60850000  1.0 -0.764780732
O  O39  1  0.97700000  0.92680000  0.10850000  1.0 -0.764780732
O  O40  1  0.92680000  0.97700000  0.39150000  1.0 -0.764780732
