# DDEC6 charges by PACMAN v1.1 (https://github.com/mtap-research/PACMAN-charge/)
data_GIQXEK_FSR_pacman
_symmetry_space_group_name_H-M   'P 1'
_cell_length_a   9.69209000
_cell_length_b   9.69209000
_cell_length_c   15.69380000
_cell_angle_alpha   87.29830000
_cell_angle_beta   92.70170000
_cell_angle_gamma   80.98040000
_symmetry_Int_Tables_number   1
_chemical_formula_structural   CeP4H20Ru2(CO5)4
_chemical_formula_sum   'Ce2 P8 H40 Ru4 C8 O40'
_cell_volume   1452.15180034
_cell_formula_units_Z   2
loop_
 _symmetry_equiv_pos_site_id
 _symmetry_equiv_pos_as_xyz
  1  'x, y, z'
loop_
 _atom_site_type_symbol
 _atom_site_label
 _atom_site_symmetry_multiplicity
 _atom_site_fract_x
 _atom_site_fract_y
 _atom_site_fract_z
 _atom_site_occupancy
 _atom_site_charge
Ce  Ce1  1  0.98860000  0.98860000  0.75000000  1.0 2.1578521839
Ce  Ce2  1  0.01140000  0.01140000  0.25000000  1.0 2.1529135814
P  P1  1  0.04528000  0.64358000  0.64390000  1.0 1.1779412141
P  P2  1  0.64358000  0.04528000  0.85610000  1.0 1.1779412141
P  P3  1  0.95472000  0.35642000  0.35610000  1.0 1.1779412141
P  P4  1  0.35642000  0.95472000  0.14390000  1.0 1.1779412141
P  P5  1  0.97408000  0.35134000  0.65165000  1.0 1.1624121478
P  P6  1  0.35134000  0.97408000  0.84835000  1.0 1.1624121478
P  P7  1  0.02592000  0.64866000  0.34835000  1.0 1.1624121478
P  P8  1  0.64866000  0.02592000  0.15165000  1.0 1.1624121478
H  H1  1  0.16000000  0.52180000  0.81170000  1.0 0.146773787
H  H2  1  0.52180000  0.16000000  0.68830000  1.0 0.146773787
H  H3  1  0.84000000  0.47820000  0.18830000  1.0 0.146773787
H  H4  1  0.47820000  0.84000000  0.31170000  1.0 0.146773787
H  H5  1  0.12710000  0.36510000  0.81070000  1.0 0.1425844839
H  H6  1  0.36510000  0.12710000  0.68930000  1.0 0.1425844839
H  H7  1  0.87290000  0.63490000  0.18930000  1.0 0.1425844839
H  H8  1  0.63490000  0.87290000  0.31070000  1.0 0.1425844839
H  H9  1  0.22510000  0.41970000  0.74160000  1.0 0.146773787
H  H10  1  0.41970000  0.22510000  0.75840000  1.0 0.146773787
H  H11  1  0.77490000  0.58030000  0.25840000  1.0 0.146773787
H  H12  1  0.58030000  0.77490000  0.24160000  1.0 0.146773787
H  H13  1  0.82400000  0.49200000  0.77100000  1.0 0.3780955211
H  H14  1  0.49200000  0.82400000  0.72900000  1.0 0.3780955211
H  H15  1  0.17600000  0.50800000  0.22900000  1.0 0.3780955211
H  H16  1  0.50800000  0.17600000  0.27100000  1.0 0.3780955211
H  H17  1  0.40300000  0.39500000  0.55000000  1.0 0.3638609609
H  H18  1  0.39500000  0.40300000  0.95000000  1.0 0.3638609609
H  H19  1  0.59700000  0.60500000  0.45000000  1.0 0.3638609609
H  H20  1  0.60500000  0.59700000  0.05000000  1.0 0.3638609609
H  H21  1  0.81700000  0.86300000  0.61700000  1.0 0.3780955211
H  H22  1  0.86300000  0.81700000  0.88300000  1.0 0.3780955211
H  H23  1  0.18300000  0.13700000  0.38300000  1.0 0.3780955211
H  H24  1  0.13700000  0.18300000  0.11700000  1.0 0.3780955211
H  H25  1  0.10200000  0.09800000  0.91200000  1.0 0.3860839417
H  H26  1  0.09800000  0.10200000  0.58800000  1.0 0.3860839417
H  H27  1  0.89800000  0.90200000  0.08800000  1.0 0.3860839417
H  H28  1  0.90200000  0.89800000  0.41200000  1.0 0.3860839417
H  H29  1  0.39100000  0.28900000  0.49600000  1.0 0.3464785924
H  H30  1  0.28900000  0.39100000  0.00400000  1.0 0.3464785924
H  H31  1  0.60900000  0.71100000  0.50400000  1.0 0.3464785924
H  H32  1  0.71100000  0.60900000  0.99600000  1.0 0.3464785924
H  H33  1  0.72800000  0.91600000  0.67900000  1.0 0.3638609609
H  H34  1  0.91600000  0.72800000  0.82100000  1.0 0.3638609609
H  H35  1  0.27200000  0.08400000  0.32100000  1.0 0.3638609609
H  H36  1  0.08400000  0.27200000  0.17900000  1.0 0.3638609609
H  H37  1  0.96300000  0.13100000  0.93000000  1.0 0.3780955211
H  H38  1  0.13100000  0.96300000  0.57000000  1.0 0.3780955211
H  H39  1  0.03700000  0.86900000  0.07000000  1.0 0.3780955211
H  H40  1  0.86900000  0.03700000  0.43000000  1.0 0.3780955211
Ru  Ru1  1  0.12006000  0.45378000  0.50207000  1.0 0.9172237029
Ru  Ru2  1  0.45378000  0.12006000  0.99793000  1.0 0.9172237029
Ru  Ru3  1  0.87994000  0.54622000  0.49793000  1.0 0.9172237029
Ru  Ru4  1  0.54622000  0.87994000  0.00207000  1.0 0.9172237029
C  C1  1  0.01520000  0.49600000  0.71500000  1.0 -0.1230547858
C  C2  1  0.49600000  0.01520000  0.78500000  1.0 -0.1230547858
C  C3  1  0.98480000  0.50400000  0.28500000  1.0 -0.1230547858
C  C4  1  0.50400000  0.98480000  0.21500000  1.0 -0.1230547858
C  C5  1  0.14320000  0.44620000  0.77510000  1.0 -0.4509210849
C  C6  1  0.44620000  0.14320000  0.72490000  1.0 -0.4509210849
C  C7  1  0.85680000  0.55380000  0.22490000  1.0 -0.4509210849
C  C8  1  0.55380000  0.85680000  0.27510000  1.0 -0.4509210849
O  O1  1  0.16807000  0.58893000  0.58909000  1.0 -0.6497885474
O  O2  1  0.58893000  0.16807000  0.91091000  1.0 -0.6497885474
O  O3  1  0.83193000  0.41107000  0.41091000  1.0 -0.6497885474
O  O4  1  0.41107000  0.83193000  0.08909000  1.0 -0.6497885474
O  O5  1  0.91088000  0.68836000  0.58536000  1.0 -0.6786435533
O  O6  1  0.68836000  0.91088000  0.91464000  1.0 -0.6786435533
O  O7  1  0.08912000  0.31164000  0.41464000  1.0 -0.6786435533
O  O8  1  0.31164000  0.08912000  0.08536000  1.0 -0.6786435533
O  O9  1  0.07722000  0.75984000  0.69762000  1.0 -0.7706855872
O  O10  1  0.75984000  0.07722000  0.80238000  1.0 -0.7706855872
O  O11  1  0.92278000  0.24016000  0.30238000  1.0 -0.7706855872
O  O12  1  0.24016000  0.92278000  0.19762000  1.0 -0.7706855872
O  O13  1  0.10125000  0.30997000  0.59716000  1.0 -0.6786435533
O  O14  1  0.30997000  0.10125000  0.90284000  1.0 -0.673095871
O  O15  1  0.89875000  0.69003000  0.40284000  1.0 -0.6786435533
O  O16  1  0.69003000  0.89875000  0.09716000  1.0 -0.673095871
O  O17  1  0.84389000  0.40771000  0.59246000  1.0 -0.6497885474
O  O18  1  0.40771000  0.84389000  0.90754000  1.0 -0.6497885474
O  O19  1  0.15611000  0.59229000  0.40754000  1.0 -0.6553918609
O  O20  1  0.59229000  0.15611000  0.09246000  1.0 -0.6497885474
O  O21  1  0.95005000  0.23219000  0.71076000  1.0 -0.7706855872
O  O22  1  0.23219000  0.95005000  0.78924000  1.0 -0.7706855872
O  O23  1  0.04995000  0.76781000  0.28924000  1.0 -0.7706855872
O  O24  1  0.76781000  0.04995000  0.21076000  1.0 -0.7706855872
O  O25  1  0.89857000  0.55017000  0.76433000  1.0 -0.4623077551
O  O26  1  0.55017000  0.89857000  0.73567000  1.0 -0.4623077551
O  O27  1  0.10143000  0.44983000  0.23567000  1.0 -0.4623077551
O  O28  1  0.44983000  0.10143000  0.26433000  1.0 -0.4623077551
O  O29  1  0.35603000  0.37573000  0.50662000  1.0 -0.6111380348
O  O30  1  0.37573000  0.35603000  0.99338000  1.0 -0.6111380348
O  O31  1  0.64397000  0.62427000  0.49338000  1.0 -0.6111380348
O  O32  1  0.62427000  0.64397000  0.00662000  1.0 -0.6111380348
O  O33  1  0.79226000  0.93686000  0.64502000  1.0 -0.7706855872
O  O34  1  0.93686000  0.79226000  0.85498000  1.0 -0.7706855872
O  O35  1  0.20774000  0.06314000  0.35498000  1.0 -0.7706855872
O  O36  1  0.06314000  0.20774000  0.14502000  1.0 -0.7706855872
O  O37  1  0.02379000  0.08259000  0.89580000  1.0 -0.7510019729
O  O38  1  0.08259000  0.02379000  0.60420000  1.0 -0.7510019729
O  O39  1  0.97621000  0.91741000  0.10420000  1.0 -0.7510019729
O  O40  1  0.91741000  0.97621000  0.39580000  1.0 -0.7510019729
