# DDEC6 charges by PACMAN v1.1 (https://github.com/mtap-research/PACMAN-charge/)
data_GIQXUA_FSR_pacman
_symmetry_space_group_name_H-M   'P 1'
_cell_length_a   9.61163000
_cell_length_b   9.61163000
_cell_length_c   15.54800000
_cell_angle_alpha   87.06980000
_cell_angle_beta   92.93020000
_cell_angle_gamma   80.92550000
_symmetry_Int_Tables_number   1
_chemical_formula_structural   GdP4H20Ru2(CO5)4
_chemical_formula_sum   'Gd2 P8 H40 Ru4 C8 O40'
_cell_volume   1413.99257892
_cell_formula_units_Z   2
loop_
 _symmetry_equiv_pos_site_id
 _symmetry_equiv_pos_as_xyz
  1  'x, y, z'
loop_
 _atom_site_type_symbol
 _atom_site_label
 _atom_site_symmetry_multiplicity
 _atom_site_fract_x
 _atom_site_fract_y
 _atom_site_fract_z
 _atom_site_occupancy
 _atom_site_charge
Gd  Gd1  1  0.98895000  0.98895000  0.75000000  1.0 2.1462160269
Gd  Gd2  1  0.01105000  0.01105000  0.25000000  1.0 2.1434658685
P  P1  1  0.04530000  0.64558000  0.64483000  1.0 1.1759927192
P  P2  1  0.64558000  0.04530000  0.85517000  1.0 1.1759927192
P  P3  1  0.95470000  0.35442000  0.35517000  1.0 1.1759927192
P  P4  1  0.35442000  0.95470000  0.14483000  1.0 1.1759927192
P  P5  1  0.97641000  0.34909000  0.65404000  1.0 1.1759927192
P  P6  1  0.34909000  0.97641000  0.84596000  1.0 1.1759927192
P  P7  1  0.02359000  0.65091000  0.34596000  1.0 1.1759927192
P  P8  1  0.65091000  0.02359000  0.15404000  1.0 1.1759927192
H  H1  1  0.82400000  0.57800000  0.73000000  1.0 0.3476845542
H  H2  1  0.57800000  0.82400000  0.77000000  1.0 0.3476845542
H  H3  1  0.17600000  0.42200000  0.27000000  1.0 0.3476845542
H  H4  1  0.42200000  0.17600000  0.23000000  1.0 0.3476845542
H  H5  1  0.39000000  0.37600000  0.56000000  1.0 0.3788152853
H  H6  1  0.37600000  0.39000000  0.94000000  1.0 0.3788152853
H  H7  1  0.61000000  0.62400000  0.44000000  1.0 0.3788152853
H  H8  1  0.62400000  0.61000000  0.06000000  1.0 0.3788152853
H  H9  1  0.36400000  0.28400000  0.49700000  1.0 0.3581342542
H  H10  1  0.28400000  0.36400000  0.00300000  1.0 0.3581342542
H  H11  1  0.63600000  0.71600000  0.50300000  1.0 0.3581342542
H  H12  1  0.71600000  0.63600000  0.99700000  1.0 0.3581342542
H  H13  1  0.84000000  0.91000000  0.59900000  1.0 0.4173080841
H  H14  1  0.91000000  0.84000000  0.90100000  1.0 0.4173080841
H  H15  1  0.16000000  0.09000000  0.40100000  1.0 0.4173080841
H  H16  1  0.09000000  0.16000000  0.09900000  1.0 0.4173080841
H  H17  1  0.75700000  0.87500000  0.67200000  1.0 0.3971364418
H  H18  1  0.87500000  0.75700000  0.82800000  1.0 0.3971364418
H  H19  1  0.24300000  0.12500000  0.32800000  1.0 0.3971364418
H  H20  1  0.12500000  0.24300000  0.17200000  1.0 0.3971364418
H  H21  1  0.11400000  0.06600000  0.90500000  1.0 0.3788152853
H  H22  1  0.06600000  0.11400000  0.59500000  1.0 0.3788152853
H  H23  1  0.88600000  0.93400000  0.09500000  1.0 0.3788152853
H  H24  1  0.93400000  0.88600000  0.40500000  1.0 0.3788152853
H  H25  1  0.98600000  0.15600000  0.89600000  1.0 0.3788152853
H  H26  1  0.15600000  0.98600000  0.60400000  1.0 0.3788152853
H  H27  1  0.01400000  0.84400000  0.10400000  1.0 0.3788152853
H  H28  1  0.84400000  0.01400000  0.39600000  1.0 0.3788152853
H  H29  1  0.16240000  0.52500000  0.81380000  1.0 0.1493412213
H  H30  1  0.52500000  0.16240000  0.68620000  1.0 0.1493412213
H  H31  1  0.83760000  0.47500000  0.18620000  1.0 0.1493412213
H  H32  1  0.47500000  0.83760000  0.31380000  1.0 0.1493412213
H  H33  1  0.12830000  0.36730000  0.81590000  1.0 0.1493412213
H  H34  1  0.36730000  0.12830000  0.68410000  1.0 0.1493412213
H  H35  1  0.87170000  0.63270000  0.18410000  1.0 0.1493412213
H  H36  1  0.63270000  0.87170000  0.31590000  1.0 0.1493412213
H  H37  1  0.22780000  0.41820000  0.74520000  1.0 0.1493412213
H  H38  1  0.41820000  0.22780000  0.75480000  1.0 0.1493412213
H  H39  1  0.77220000  0.58180000  0.25480000  1.0 0.1493412213
H  H40  1  0.58180000  0.77220000  0.24520000  1.0 0.1493412213
Ru  Ru1  1  0.12123000  0.45435000  0.50195000  1.0 0.9201985815
Ru  Ru2  1  0.45435000  0.12123000  0.99805000  1.0 0.9201985815
Ru  Ru3  1  0.87877000  0.54565000  0.49805000  1.0 0.9201985815
Ru  Ru4  1  0.54565000  0.87877000  0.00195000  1.0 0.9201985815
C  C1  1  0.01740000  0.49540000  0.71720000  1.0 -0.1192558563
C  C2  1  0.49540000  0.01740000  0.78280000  1.0 -0.1192558563
C  C3  1  0.98260000  0.50460000  0.28280000  1.0 -0.1192558563
C  C4  1  0.50460000  0.98260000  0.21720000  1.0 -0.1192558563
C  C5  1  0.14530000  0.44730000  0.77840000  1.0 -0.4424120566
C  C6  1  0.44730000  0.14530000  0.72160000  1.0 -0.4424120566
C  C7  1  0.85470000  0.55270000  0.22160000  1.0 -0.4424120566
C  C8  1  0.55270000  0.85470000  0.27840000  1.0 -0.4424120566
O  O1  1  0.16850000  0.59090000  0.58950000  1.0 -0.6393469057
O  O2  1  0.59090000  0.16850000  0.91050000  1.0 -0.6393469057
O  O3  1  0.83150000  0.40910000  0.41050000  1.0 -0.6393469057
O  O4  1  0.40910000  0.83150000  0.08950000  1.0 -0.6393469057
O  O5  1  0.90880000  0.69020000  0.58590000  1.0 -0.7037189385
O  O6  1  0.69020000  0.90880000  0.91410000  1.0 -0.7037189385
O  O7  1  0.09120000  0.30980000  0.41410000  1.0 -0.7037189385
O  O8  1  0.30980000  0.09120000  0.08590000  1.0 -0.7037189385
O  O9  1  0.07690000  0.76510000  0.69880000  1.0 -0.8004085502
O  O10  1  0.76510000  0.07690000  0.80120000  1.0 -0.8004085502
O  O11  1  0.92310000  0.23490000  0.30120000  1.0 -0.8004085502
O  O12  1  0.23490000  0.92310000  0.19880000  1.0 -0.8004085502
O  O13  1  0.10470000  0.30890000  0.59840000  1.0 -0.6839011839
O  O14  1  0.30890000  0.10470000  0.90160000  1.0 -0.6839011839
O  O15  1  0.89530000  0.69110000  0.40160000  1.0 -0.6839011839
O  O16  1  0.69110000  0.89530000  0.09840000  1.0 -0.6839011839
O  O17  1  0.84490000  0.40650000  0.59360000  1.0 -0.6478771499
O  O18  1  0.40650000  0.84490000  0.90640000  1.0 -0.6478771499
O  O19  1  0.15510000  0.59350000  0.40640000  1.0 -0.6478771499
O  O20  1  0.59350000  0.15510000  0.09360000  1.0 -0.6478771499
O  O21  1  0.95410000  0.22950000  0.71430000  1.0 -0.8004085502
O  O22  1  0.22950000  0.95410000  0.78570000  1.0 -0.8004085502
O  O23  1  0.04590000  0.77050000  0.28570000  1.0 -0.8004085502
O  O24  1  0.77050000  0.04590000  0.21430000  1.0 -0.8004085502
O  O25  1  0.89960000  0.55060000  0.76660000  1.0 -0.4424120566
O  O26  1  0.55060000  0.89960000  0.73340000  1.0 -0.4424120566
O  O27  1  0.10040000  0.44940000  0.23340000  1.0 -0.4424120566
O  O28  1  0.44940000  0.10040000  0.26660000  1.0 -0.4424120566
O  O29  1  0.35940000  0.37520000  0.50650000  1.0 -0.6063376149
O  O30  1  0.37520000  0.35940000  0.99350000  1.0 -0.6063376149
O  O31  1  0.64060000  0.62480000  0.49350000  1.0 -0.6063376149
O  O32  1  0.62480000  0.64060000  0.00650000  1.0 -0.6063376149
O  O33  1  0.79770000  0.93990000  0.64880000  1.0 -0.7916473827
O  O34  1  0.93990000  0.79770000  0.85120000  1.0 -0.7916473827
O  O35  1  0.20230000  0.06010000  0.35120000  1.0 -0.7916473827
O  O36  1  0.06010000  0.20230000  0.14880000  1.0 -0.7916473827
O  O37  1  0.02470000  0.07150000  0.89220000  1.0 -0.7716111025
O  O38  1  0.07150000  0.02470000  0.60780000  1.0 -0.7716111025
O  O39  1  0.97530000  0.92850000  0.10780000  1.0 -0.7716111025
O  O40  1  0.92850000  0.97530000  0.39220000  1.0 -0.7716111025
