# DDEC6 charges by PACMAN v1.1 (https://github.com/mtap-research/PACMAN-charge/)
data_GIQYUB_FSR_pacman
_symmetry_space_group_name_H-M   'P 1'
_cell_length_a   9.58991000
_cell_length_b   9.58991000
_cell_length_c   15.52400000
_cell_angle_alpha   87.08080000
_cell_angle_beta   92.91920000
_cell_angle_gamma   81.01340000
_symmetry_Int_Tables_number   1
_chemical_formula_structural   TbP4H20Ru2(CO5)4
_chemical_formula_sum   'Tb2 P8 H40 Ru4 C8 O40'
_cell_volume   1405.81983028
_cell_formula_units_Z   2
loop_
 _symmetry_equiv_pos_site_id
 _symmetry_equiv_pos_as_xyz
  1  'x, y, z'
loop_
 _atom_site_type_symbol
 _atom_site_label
 _atom_site_symmetry_multiplicity
 _atom_site_fract_x
 _atom_site_fract_y
 _atom_site_fract_z
 _atom_site_occupancy
 _atom_site_charge
Tb  Tb1  1  0.98897000  0.98897000  0.75000000  1.0 2.1586922212
Tb  Tb2  1  0.01103000  0.01103000  0.25000000  1.0 2.1586922212
P  P1  1  0.04476000  0.64550000  0.64540000  1.0 1.1767746908
P  P2  1  0.64550000  0.04476000  0.85460000  1.0 1.1767746908
P  P3  1  0.95524000  0.35450000  0.35460000  1.0 1.1767746908
P  P4  1  0.35450000  0.95524000  0.14540000  1.0 1.1767746908
P  P5  1  0.97710000  0.34864000  0.65365000  1.0 1.1767746908
P  P6  1  0.34864000  0.97710000  0.84635000  1.0 1.1767746908
P  P7  1  0.02290000  0.65136000  0.34635000  1.0 1.1767746908
P  P8  1  0.65136000  0.02290000  0.15365000  1.0 1.1767746908
H  H1  1  0.83080000  0.57840000  0.73270000  1.0 0.3367655529
H  H2  1  0.57840000  0.83080000  0.76730000  1.0 0.3367655529
H  H3  1  0.16920000  0.42160000  0.26730000  1.0 0.3367655529
H  H4  1  0.42160000  0.16920000  0.23270000  1.0 0.3367655529
H  H5  1  0.37330000  0.28850000  0.49590000  1.0 0.3581758654
H  H6  1  0.28850000  0.37330000  0.00410000  1.0 0.3581758654
H  H7  1  0.62670000  0.71150000  0.50410000  1.0 0.3581758654
H  H8  1  0.71150000  0.62670000  0.99590000  1.0 0.3581758654
H  H9  1  0.39530000  0.38570000  0.55610000  1.0 0.3729646532
H  H10  1  0.38570000  0.39530000  0.94390000  1.0 0.3729646532
H  H11  1  0.60470000  0.61430000  0.44390000  1.0 0.3729646532
H  H12  1  0.61430000  0.60470000  0.05610000  1.0 0.3729646532
H  H13  1  0.83360000  0.91100000  0.60330000  1.0 0.3808727689
H  H14  1  0.91100000  0.83360000  0.89670000  1.0 0.3808727689
H  H15  1  0.16640000  0.08900000  0.39670000  1.0 0.3808727689
H  H16  1  0.08900000  0.16640000  0.10330000  1.0 0.3808727689
H  H17  1  0.75710000  0.87770000  0.67270000  1.0 0.3581758654
H  H18  1  0.87770000  0.75710000  0.82730000  1.0 0.3581758654
H  H19  1  0.24290000  0.12230000  0.32730000  1.0 0.3581758654
H  H20  1  0.12230000  0.24290000  0.17270000  1.0 0.3581758654
H  H21  1  0.10930000  0.07930000  0.90180000  1.0 0.3808727689
H  H22  1  0.07930000  0.10930000  0.59820000  1.0 0.3808727689
H  H23  1  0.89070000  0.92070000  0.09820000  1.0 0.3808727689
H  H24  1  0.92070000  0.89070000  0.40180000  1.0 0.3808727689
H  H25  1  0.97580000  0.16020000  0.89320000  1.0 0.3808727689
H  H26  1  0.16020000  0.97580000  0.60680000  1.0 0.3808727689
H  H27  1  0.02420000  0.83980000  0.10680000  1.0 0.3808727689
H  H28  1  0.83980000  0.02420000  0.39320000  1.0 0.3808727689
H  H29  1  0.15250000  0.52170000  0.81910000  1.0 0.149182382
H  H30  1  0.52170000  0.15250000  0.68090000  1.0 0.149182382
H  H31  1  0.84750000  0.47830000  0.18090000  1.0 0.149182382
H  H32  1  0.47830000  0.84750000  0.31910000  1.0 0.149182382
H  H33  1  0.13050000  0.36050000  0.81260000  1.0 0.149182382
H  H34  1  0.36050000  0.13050000  0.68740000  1.0 0.149182382
H  H35  1  0.86950000  0.63950000  0.18740000  1.0 0.149182382
H  H36  1  0.63950000  0.86950000  0.31260000  1.0 0.149182382
H  H37  1  0.22820000  0.42860000  0.74700000  1.0 0.149182382
H  H38  1  0.42860000  0.22820000  0.75300000  1.0 0.149182382
H  H39  1  0.77180000  0.57140000  0.25300000  1.0 0.149182382
H  H40  1  0.57140000  0.77180000  0.24700000  1.0 0.149182382
Ru  Ru1  1  0.12112000  0.45474000  0.50205000  1.0 0.9157458348
Ru  Ru2  1  0.45474000  0.12112000  0.99795000  1.0 0.9157458348
Ru  Ru3  1  0.87888000  0.54526000  0.49795000  1.0 0.9157458348
Ru  Ru4  1  0.54526000  0.87888000  0.00205000  1.0 0.9157458348
C  C1  1  0.01480000  0.49400000  0.71700000  1.0 -0.1261309656
C  C2  1  0.49400000  0.01480000  0.78300000  1.0 -0.1261309656
C  C3  1  0.98520000  0.50600000  0.28300000  1.0 -0.1261309656
C  C4  1  0.50600000  0.98520000  0.21700000  1.0 -0.1261309656
C  C5  1  0.14280000  0.44700000  0.77950000  1.0 -0.4345662789
C  C6  1  0.44700000  0.14280000  0.72050000  1.0 -0.4345662789
C  C7  1  0.85720000  0.55300000  0.22050000  1.0 -0.4345662789
C  C8  1  0.55300000  0.85720000  0.27950000  1.0 -0.4345662789
O  O1  1  0.16770000  0.59130000  0.58974000  1.0 -0.6388177174
O  O2  1  0.59130000  0.16770000  0.91026000  1.0 -0.6388177174
O  O3  1  0.83230000  0.40870000  0.41026000  1.0 -0.6388177174
O  O4  1  0.40870000  0.83230000  0.08974000  1.0 -0.6388177174
O  O5  1  0.90750000  0.68910000  0.58600000  1.0 -0.6957071619
O  O6  1  0.68910000  0.90750000  0.91400000  1.0 -0.6949938135
O  O7  1  0.09250000  0.31090000  0.41400000  1.0 -0.6949938135
O  O8  1  0.31090000  0.09250000  0.08600000  1.0 -0.6949938135
O  O9  1  0.07490000  0.76390000  0.69820000  1.0 -0.7865389781
O  O10  1  0.76390000  0.07490000  0.80180000  1.0 -0.7865389781
O  O11  1  0.92510000  0.23610000  0.30180000  1.0 -0.7865389781
O  O12  1  0.23610000  0.92510000  0.19820000  1.0 -0.7865389781
O  O13  1  0.10550000  0.30870000  0.59890000  1.0 -0.6736177849
O  O14  1  0.30870000  0.10550000  0.90110000  1.0 -0.6736177849
O  O15  1  0.89450000  0.69130000  0.40110000  1.0 -0.6736177849
O  O16  1  0.69130000  0.89450000  0.09890000  1.0 -0.6736177849
O  O17  1  0.84410000  0.40550000  0.59330000  1.0 -0.6497160988
O  O18  1  0.40550000  0.84410000  0.90670000  1.0 -0.6497160988
O  O19  1  0.15590000  0.59450000  0.40670000  1.0 -0.6497160988
O  O20  1  0.59450000  0.15590000  0.09330000  1.0 -0.6497160988
O  O21  1  0.95510000  0.22690000  0.71258000  1.0 -0.8110626387
O  O22  1  0.22690000  0.95510000  0.78742000  1.0 -0.8110626387
O  O23  1  0.04490000  0.77310000  0.28742000  1.0 -0.8110626387
O  O24  1  0.77310000  0.04490000  0.21258000  1.0 -0.8110626387
O  O25  1  0.90120000  0.54820000  0.76756000  1.0 -0.4231419163
O  O26  1  0.54820000  0.90120000  0.73244000  1.0 -0.4231419163
O  O27  1  0.09880000  0.45180000  0.23244000  1.0 -0.4231419163
O  O28  1  0.45180000  0.09880000  0.26756000  1.0 -0.4231419163
O  O29  1  0.35910000  0.37530000  0.50628000  1.0 -0.5970183807
O  O30  1  0.37530000  0.35910000  0.99372000  1.0 -0.5970183807
O  O31  1  0.64090000  0.62470000  0.49372000  1.0 -0.5970183807
O  O32  1  0.62470000  0.64090000  0.00628000  1.0 -0.5970183807
O  O33  1  0.79860000  0.94040000  0.64940000  1.0 -0.7574015455
O  O34  1  0.94040000  0.79860000  0.85060000  1.0 -0.7574015455
O  O35  1  0.20140000  0.05960000  0.35060000  1.0 -0.7574015455
O  O36  1  0.05960000  0.20140000  0.14940000  1.0 -0.7574015455
O  O37  1  0.02200000  0.07760000  0.89110000  1.0 -0.7717042612
O  O38  1  0.07760000  0.02200000  0.60890000  1.0 -0.7717042612
O  O39  1  0.97800000  0.92240000  0.10890000  1.0 -0.7717042612
O  O40  1  0.92240000  0.97800000  0.39110000  1.0 -0.7717042612
