# DDEC6 charges by PACMAN v1.1 (https://github.com/mtap-research/PACMAN-charge/)
data_GIQYEL_FSR_pacman
_symmetry_space_group_name_H-M   'P 1'
_cell_length_a   9.72002000
_cell_length_b   9.72002000
_cell_length_c   15.72620000
_cell_angle_alpha   87.25860000
_cell_angle_beta   92.74140000
_cell_angle_gamma   80.91400000
_symmetry_Int_Tables_number   1
_chemical_formula_structural   LaP4H20Ru2(CO5)4
_chemical_formula_sum   'La2 P8 H40 Ru4 C8 O40'
_cell_volume   1463.15826388
_cell_formula_units_Z   2
loop_
 _symmetry_equiv_pos_site_id
 _symmetry_equiv_pos_as_xyz
  1  'x, y, z'
loop_
 _atom_site_type_symbol
 _atom_site_label
 _atom_site_symmetry_multiplicity
 _atom_site_fract_x
 _atom_site_fract_y
 _atom_site_fract_z
 _atom_site_occupancy
 _atom_site_charge
La  La1  1  0.98829000  0.98829000  0.75000000  1.0 2.0321441485
La  La2  1  0.01171000  0.01171000  0.25000000  1.0 2.0321441485
P  P1  1  0.04578000  0.64286000  0.64359000  1.0 1.1748113228
P  P2  1  0.64286000  0.04578000  0.85641000  1.0 1.1748113228
P  P3  1  0.95422000  0.35714000  0.35641000  1.0 1.1771986081
P  P4  1  0.35714000  0.95422000  0.14359000  1.0 1.1748113228
P  P5  1  0.97366000  0.35190000  0.65131000  1.0 1.1556263758
P  P6  1  0.35190000  0.97366000  0.84869000  1.0 1.1543793274
P  P7  1  0.02634000  0.64810000  0.34869000  1.0 1.1556263758
P  P8  1  0.64810000  0.02634000  0.15131000  1.0 1.1556263758
H  H1  1  0.15960000  0.52120000  0.81110000  1.0 0.1466714137
H  H2  1  0.52120000  0.15960000  0.68890000  1.0 0.1466714137
H  H3  1  0.84040000  0.47880000  0.18890000  1.0 0.1466714137
H  H4  1  0.47880000  0.84040000  0.31110000  1.0 0.1466714137
H  H5  1  0.12610000  0.36530000  0.81060000  1.0 0.1466714137
H  H6  1  0.36530000  0.12610000  0.68940000  1.0 0.1466714137
H  H7  1  0.87390000  0.63470000  0.18940000  1.0 0.1466714137
H  H8  1  0.63470000  0.87390000  0.31060000  1.0 0.1466714137
H  H9  1  0.22450000  0.41850000  0.74160000  1.0 0.1466714137
H  H10  1  0.41850000  0.22450000  0.75840000  1.0 0.1466714137
H  H11  1  0.77550000  0.58150000  0.25840000  1.0 0.1466714137
H  H12  1  0.58150000  0.77550000  0.24160000  1.0 0.1466714137
H  H13  1  0.82100000  0.48900000  0.76300000  1.0 0.3705629507
H  H14  1  0.48900000  0.82100000  0.73700000  1.0 0.3705629507
H  H15  1  0.17900000  0.51100000  0.23700000  1.0 0.3705629507
H  H16  1  0.51100000  0.17900000  0.26300000  1.0 0.3705629507
H  H17  1  0.40100000  0.40500000  0.55100000  1.0 0.3920892222
H  H18  1  0.40500000  0.40100000  0.94900000  1.0 0.3920892222
H  H19  1  0.59900000  0.59500000  0.44900000  1.0 0.3920892222
H  H20  1  0.59500000  0.59900000  0.05100000  1.0 0.3920892222
H  H21  1  0.80900000  0.85700000  0.61500000  1.0 0.3818941308
H  H22  1  0.85700000  0.80900000  0.88500000  1.0 0.3818941308
H  H23  1  0.19100000  0.14300000  0.38500000  1.0 0.3818941308
H  H24  1  0.14300000  0.19100000  0.11500000  1.0 0.3818941308
H  H25  1  0.10800000  0.10800000  0.91200000  1.0 0.3818941308
H  H26  1  0.10800000  0.10800000  0.58800000  1.0 0.3818941308
H  H27  1  0.89200000  0.89200000  0.08800000  1.0 0.3818941308
H  H28  1  0.89200000  0.89200000  0.41200000  1.0 0.3818941308
H  H29  1  0.39600000  0.29000000  0.49800000  1.0 0.3705629507
H  H30  1  0.29000000  0.39600000  0.00200000  1.0 0.3705629507
H  H31  1  0.60400000  0.71000000  0.50200000  1.0 0.3705629507
H  H32  1  0.71000000  0.60400000  0.99800000  1.0 0.3705629507
H  H33  1  0.71200000  0.92200000  0.67100000  1.0 0.3705629507
H  H34  1  0.92200000  0.71200000  0.82900000  1.0 0.3705629507
H  H35  1  0.28800000  0.07800000  0.32900000  1.0 0.3705629507
H  H36  1  0.07800000  0.28800000  0.17100000  1.0 0.3705629507
H  H37  1  0.97000000  0.12600000  0.93200000  1.0 0.3705629507
H  H38  1  0.12600000  0.97000000  0.56800000  1.0 0.3705629507
H  H39  1  0.03000000  0.87400000  0.06800000  1.0 0.3705629507
H  H40  1  0.87400000  0.03000000  0.43200000  1.0 0.3705629507
Ru  Ru1  1  0.11972000  0.45354000  0.50209000  1.0 0.9215931787
Ru  Ru2  1  0.45354000  0.11972000  0.99791000  1.0 0.9215931787
Ru  Ru3  1  0.88028000  0.54646000  0.49791000  1.0 0.9215931787
Ru  Ru4  1  0.54646000  0.88028000  0.00209000  1.0 0.9215931787
C  C1  1  0.01501000  0.49581000  0.71435000  1.0 -0.1225523589
C  C2  1  0.49581000  0.01501000  0.78565000  1.0 -0.1225523589
C  C3  1  0.98499000  0.50419000  0.28565000  1.0 -0.1225523589
C  C4  1  0.50419000  0.98499000  0.21435000  1.0 -0.1225523589
C  C5  1  0.14273000  0.44573000  0.77486000  1.0 -0.4459497041
C  C6  1  0.44573000  0.14273000  0.72514000  1.0 -0.4440442132
C  C7  1  0.85727000  0.55427000  0.22514000  1.0 -0.4459497041
C  C8  1  0.55427000  0.85727000  0.27486000  1.0 -0.4459497041
O  O1  1  0.16827000  0.58813000  0.58897000  1.0 -0.6475820349
O  O2  1  0.58813000  0.16827000  0.91103000  1.0 -0.6475820349
O  O3  1  0.83173000  0.41187000  0.41103000  1.0 -0.6475820349
O  O4  1  0.41187000  0.83173000  0.08897000  1.0 -0.6475820349
O  O5  1  0.91155000  0.68839000  0.58512000  1.0 -0.6794081585
O  O6  1  0.68839000  0.91155000  0.91488000  1.0 -0.6794081585
O  O7  1  0.08845000  0.31161000  0.41488000  1.0 -0.6794081585
O  O8  1  0.31161000  0.08845000  0.08512000  1.0 -0.6794081585
O  O9  1  0.07834000  0.75852000  0.69730000  1.0 -0.7494815694
O  O10  1  0.75852000  0.07834000  0.80270000  1.0 -0.7494815694
O  O11  1  0.92166000  0.24148000  0.30270000  1.0 -0.7494815694
O  O12  1  0.24148000  0.92166000  0.19730000  1.0 -0.7494815694
O  O13  1  0.10061000  0.31015000  0.59704000  1.0 -0.6722108827
O  O14  1  0.31015000  0.10061000  0.90296000  1.0 -0.6722108827
O  O15  1  0.89939000  0.68985000  0.40296000  1.0 -0.6722108827
O  O16  1  0.68985000  0.89939000  0.09704000  1.0 -0.6722108827
O  O17  1  0.84398000  0.40836000  0.59211000  1.0 -0.6475820349
O  O18  1  0.40836000  0.84398000  0.90789000  1.0 -0.6475820349
O  O19  1  0.15602000  0.59164000  0.40789000  1.0 -0.6475820349
O  O20  1  0.59164000  0.15602000  0.09211000  1.0 -0.6475820349
O  O21  1  0.94954000  0.23372000  0.71056000  1.0 -0.7599753396
O  O22  1  0.23372000  0.94954000  0.78944000  1.0 -0.7599753396
O  O23  1  0.05046000  0.76628000  0.28944000  1.0 -0.7599753396
O  O24  1  0.76628000  0.05046000  0.21056000  1.0 -0.7599753396
O  O25  1  0.89809000  0.54991000  0.76346000  1.0 -0.4616736428
O  O26  1  0.54991000  0.89809000  0.73654000  1.0 -0.4616736428
O  O27  1  0.10191000  0.45009000  0.23654000  1.0 -0.4616736428
O  O28  1  0.45009000  0.10191000  0.26346000  1.0 -0.4616736428
O  O29  1  0.35613000  0.37527000  0.50725000  1.0 -0.6323776351
O  O30  1  0.37527000  0.35613000  0.99275000  1.0 -0.6323776351
O  O31  1  0.64387000  0.62473000  0.49275000  1.0 -0.6323776351
O  O32  1  0.62473000  0.64387000  0.00725000  1.0 -0.6323776351
O  O33  1  0.79064000  0.93418000  0.64504000  1.0 -0.778732981
O  O34  1  0.93418000  0.79064000  0.85496000  1.0 -0.778732981
O  O35  1  0.20936000  0.06582000  0.35496000  1.0 -0.778732981
O  O36  1  0.06582000  0.20936000  0.14504000  1.0 -0.778732981
O  O37  1  0.02536000  0.08258000  0.89729000  1.0 -0.7494815694
O  O38  1  0.08258000  0.02536000  0.60271000  1.0 -0.7494815694
O  O39  1  0.97464000  0.91742000  0.10271000  1.0 -0.7494815694
O  O40  1  0.91742000  0.97464000  0.39729000  1.0 -0.7494815694
