# DDEC6 charges by PACMAN v1.1 (https://github.com/mtap-research/PACMAN-charge/)
data_GIQYIP_FSR_pacman
_symmetry_space_group_name_H-M   'P 1'
_cell_length_a   9.66022000
_cell_length_b   9.66022000
_cell_length_c   15.62500000
_cell_angle_alpha   87.09470000
_cell_angle_beta   92.90530000
_cell_angle_gamma   80.89380000
_symmetry_Int_Tables_number   1
_chemical_formula_structural   NdP4H20Ru2(CO5)4
_chemical_formula_sum   'Nd2 P8 H40 Ru4 C8 O40'
_cell_volume   1435.34461162
_cell_formula_units_Z   2
loop_
 _symmetry_equiv_pos_site_id
 _symmetry_equiv_pos_as_xyz
  1  'x, y, z'
loop_
 _atom_site_type_symbol
 _atom_site_label
 _atom_site_symmetry_multiplicity
 _atom_site_fract_x
 _atom_site_fract_y
 _atom_site_fract_z
 _atom_site_occupancy
 _atom_site_charge
Nd  Nd1  1  0.98865000  0.98865000  0.75000000  1.0 2.2306049657
Nd  Nd2  1  0.01135000  0.01135000  0.25000000  1.0 2.2243662667
P  P1  1  0.04489000  0.64469000  0.64424000  1.0 1.1775507671
P  P2  1  0.64469000  0.04489000  0.85576000  1.0 1.1775507671
P  P3  1  0.95511000  0.35531000  0.35576000  1.0 1.1775507671
P  P4  1  0.35531000  0.95511000  0.14424000  1.0 1.1775507671
P  P5  1  0.97491000  0.34995000  0.65262000  1.0 1.1775507671
P  P6  1  0.34995000  0.97491000  0.84738000  1.0 1.1775507671
P  P7  1  0.02509000  0.65005000  0.34738000  1.0 1.1775507671
P  P8  1  0.65005000  0.02509000  0.15262000  1.0 1.1775507671
H  H1  1  0.15460000  0.52140000  0.81630000  1.0 0.156485666
H  H2  1  0.52140000  0.15460000  0.68370000  1.0 0.156485666
H  H3  1  0.84540000  0.47860000  0.18370000  1.0 0.156485666
H  H4  1  0.47860000  0.84540000  0.31630000  1.0 0.156485666
H  H5  1  0.12850000  0.36230000  0.81210000  1.0 0.1494040084
H  H6  1  0.36230000  0.12850000  0.68790000  1.0 0.1494040084
H  H7  1  0.87150000  0.63770000  0.18790000  1.0 0.1494040084
H  H8  1  0.63770000  0.87150000  0.31210000  1.0 0.1494040084
H  H9  1  0.22660000  0.42460000  0.74550000  1.0 0.1494040084
H  H10  1  0.42460000  0.22660000  0.75450000  1.0 0.1494040084
H  H11  1  0.77340000  0.57540000  0.25450000  1.0 0.1494040084
H  H12  1  0.57540000  0.77340000  0.24550000  1.0 0.1494040084
H  H13  1  0.82500000  0.58100000  0.73200000  1.0 0.3520679896
H  H14  1  0.58100000  0.82500000  0.76800000  1.0 0.3520679896
H  H15  1  0.17500000  0.41900000  0.26800000  1.0 0.3520679896
H  H16  1  0.41900000  0.17500000  0.23200000  1.0 0.3520679896
H  H17  1  0.39300000  0.37700000  0.55700000  1.0 0.3520679896
H  H18  1  0.37700000  0.39300000  0.94300000  1.0 0.3579271882
H  H19  1  0.60700000  0.62300000  0.44300000  1.0 0.3579271882
H  H20  1  0.62300000  0.60700000  0.05700000  1.0 0.3579271882
H  H21  1  0.36600000  0.28600000  0.49900000  1.0 0.3322006357
H  H22  1  0.28600000  0.36600000  0.00100000  1.0 0.3322006357
H  H23  1  0.63400000  0.71400000  0.50100000  1.0 0.3322006357
H  H24  1  0.71400000  0.63400000  0.99900000  1.0 0.3322006357
H  H25  1  0.84000000  0.90400000  0.60000000  1.0 0.4139161971
H  H26  1  0.90400000  0.84000000  0.90000000  1.0 0.4139161971
H  H27  1  0.16000000  0.09600000  0.40000000  1.0 0.4139161971
H  H28  1  0.09600000  0.16000000  0.10000000  1.0 0.4139161971
H  H29  1  0.76000000  0.86800000  0.67200000  1.0 0.389612217
H  H30  1  0.86800000  0.76000000  0.82800000  1.0 0.389612217
H  H31  1  0.24000000  0.13200000  0.32800000  1.0 0.389612217
H  H32  1  0.13200000  0.24000000  0.17200000  1.0 0.389612217
H  H33  1  0.10900000  0.07900000  0.91300000  1.0 0.3579271882
H  H34  1  0.07900000  0.10900000  0.58700000  1.0 0.3579271882
H  H35  1  0.89100000  0.92100000  0.08700000  1.0 0.3579271882
H  H36  1  0.92100000  0.89100000  0.41300000  1.0 0.3579271882
H  H37  1  0.98700000  0.16100000  0.89800000  1.0 0.3520679896
H  H38  1  0.16100000  0.98700000  0.60200000  1.0 0.3520679896
H  H39  1  0.01300000  0.83900000  0.10200000  1.0 0.3520679896
H  H40  1  0.83900000  0.01300000  0.39800000  1.0 0.3520679896
Ru  Ru1  1  0.12039000  0.45397000  0.50221000  1.0 0.919405092
Ru  Ru2  1  0.45397000  0.12039000  0.99779000  1.0 0.919405092
Ru  Ru3  1  0.87961000  0.54603000  0.49779000  1.0 0.919405092
Ru  Ru4  1  0.54603000  0.87961000  0.00221000  1.0 0.919405092
C  C1  1  0.01540000  0.49420000  0.71620000  1.0 -0.1185207195
C  C2  1  0.49420000  0.01540000  0.78380000  1.0 -0.1185207195
C  C3  1  0.98460000  0.50580000  0.28380000  1.0 -0.1185207195
C  C4  1  0.50580000  0.98460000  0.21620000  1.0 -0.1185207195
C  C5  1  0.14260000  0.44640000  0.77800000  1.0 -0.4379281211
C  C6  1  0.44640000  0.14260000  0.72200000  1.0 -0.4379281211
C  C7  1  0.85740000  0.55360000  0.22200000  1.0 -0.4379281211
C  C8  1  0.55360000  0.85740000  0.27800000  1.0 -0.4379281211
O  O1  1  0.16850000  0.59030000  0.58889000  1.0 -0.6315478492
O  O2  1  0.59030000  0.16850000  0.91111000  1.0 -0.6315478492
O  O3  1  0.83150000  0.40970000  0.41111000  1.0 -0.6315478492
O  O4  1  0.40970000  0.83150000  0.08889000  1.0 -0.6315478492
O  O5  1  0.91000000  0.68940000  0.58562000  1.0 -0.6974379826
O  O6  1  0.68940000  0.91000000  0.91438000  1.0 -0.6974379826
O  O7  1  0.09000000  0.31060000  0.41438000  1.0 -0.6974379826
O  O8  1  0.31060000  0.09000000  0.08562000  1.0 -0.6974379826
O  O9  1  0.07760000  0.76460000  0.69856000  1.0 -0.8208733457
O  O10  1  0.76460000  0.07760000  0.80144000  1.0 -0.8208733457
O  O11  1  0.92240000  0.23540000  0.30144000  1.0 -0.8208733457
O  O12  1  0.23540000  0.92240000  0.19856000  1.0 -0.8208733457
O  O13  1  0.10180000  0.30920000  0.59825000  1.0 -0.6759027648
O  O14  1  0.30920000  0.10180000  0.90175000  1.0 -0.6759027648
O  O15  1  0.89820000  0.69080000  0.40175000  1.0 -0.6748310733
O  O16  1  0.69080000  0.89820000  0.09825000  1.0 -0.6759027648
O  O17  1  0.84388000  0.40748000  0.59238000  1.0 -0.643500309
O  O18  1  0.40748000  0.84388000  0.90762000  1.0 -0.643500309
O  O19  1  0.15612000  0.59252000  0.40762000  1.0 -0.643500309
O  O20  1  0.59252000  0.15612000  0.09238000  1.0 -0.643500309
O  O21  1  0.95137000  0.23117000  0.71214000  1.0 -0.8088279027
O  O22  1  0.23117000  0.95137000  0.78786000  1.0 -0.8088279027
O  O23  1  0.04863000  0.76883000  0.28786000  1.0 -0.8088279027
O  O24  1  0.76883000  0.04863000  0.21214000  1.0 -0.8088279027
O  O25  1  0.89870000  0.54990000  0.76600000  1.0 -0.4379281211
O  O26  1  0.54990000  0.89870000  0.73400000  1.0 -0.4379281211
O  O27  1  0.10130000  0.45010000  0.23400000  1.0 -0.4379281211
O  O28  1  0.45010000  0.10130000  0.26600000  1.0 -0.4317380297
O  O29  1  0.35650000  0.37550000  0.50610000  1.0 -0.5797736454
O  O30  1  0.37550000  0.35650000  0.99390000  1.0 -0.5797736454
O  O31  1  0.64350000  0.62450000  0.49390000  1.0 -0.5797736454
O  O32  1  0.62450000  0.64350000  0.00610000  1.0 -0.5797736454
O  O33  1  0.79490000  0.93750000  0.64680000  1.0 -0.7857894111
O  O34  1  0.93750000  0.79490000  0.85320000  1.0 -0.7857894111
O  O35  1  0.20510000  0.06250000  0.35320000  1.0 -0.7857894111
O  O36  1  0.06250000  0.20510000  0.14680000  1.0 -0.7848790097
O  O37  1  0.02490000  0.07570000  0.89509000  1.0 -0.7618105966
O  O38  1  0.07570000  0.02490000  0.60491000  1.0 -0.7618105966
O  O39  1  0.97510000  0.92430000  0.10491000  1.0 -0.7618105966
O  O40  1  0.92430000  0.97510000  0.39509000  1.0 -0.7618105966
