# DDEC6 charges by PACMAN v1.1 (https://github.com/mtap-research/PACMAN-charge/)
data_GIQYAH_FSR_pacman
_symmetry_space_group_name_H-M   'P 1'
_cell_length_a   9.55154000
_cell_length_b   9.55154000
_cell_length_c   15.39000000
_cell_angle_alpha   87.28950000
_cell_angle_beta   92.71050000
_cell_angle_gamma   81.70030000
_symmetry_Int_Tables_number   1
_chemical_formula_structural   HoP4H20Ru2(CO5)4
_chemical_formula_sum   'Ho2 P8 H40 Ru4 C8 O40'
_cell_volume   1385.71791275
_cell_formula_units_Z   2
loop_
 _symmetry_equiv_pos_site_id
 _symmetry_equiv_pos_as_xyz
  1  'x, y, z'
loop_
 _atom_site_type_symbol
 _atom_site_label
 _atom_site_symmetry_multiplicity
 _atom_site_fract_x
 _atom_site_fract_y
 _atom_site_fract_z
 _atom_site_occupancy
 _atom_site_charge
Ho  Ho1  1  0.99005000  0.99005000  0.75000000  1.0 2.1808656278
Ho  Ho2  1  0.00995000  0.00995000  0.25000000  1.0 2.1808656278
P  P1  1  0.04408000  0.64682000  0.64512000  1.0 1.178679225
P  P2  1  0.64682000  0.04408000  0.85488000  1.0 1.178679225
P  P3  1  0.95592000  0.35318000  0.35488000  1.0 1.178679225
P  P4  1  0.35318000  0.95592000  0.14512000  1.0 1.178679225
P  P5  1  0.97686000  0.34712000  0.65454000  1.0 1.178679225
P  P6  1  0.34712000  0.97686000  0.84546000  1.0 1.178679225
P  P7  1  0.02314000  0.65288000  0.34546000  1.0 1.178679225
P  P8  1  0.65288000  0.02314000  0.15454000  1.0 1.178679225
H  H1  1  0.83110000  0.57530000  0.73560000  1.0 0.3419670286
H  H2  1  0.57530000  0.83110000  0.76440000  1.0 0.3419670286
H  H3  1  0.16890000  0.42470000  0.26440000  1.0 0.3419670286
H  H4  1  0.42470000  0.16890000  0.23560000  1.0 0.3419670286
H  H5  1  0.37030000  0.29030000  0.49350000  1.0 0.351283324
H  H6  1  0.29030000  0.37030000  0.00650000  1.0 0.351283324
H  H7  1  0.62970000  0.70970000  0.50650000  1.0 0.351283324
H  H8  1  0.70970000  0.62970000  0.99350000  1.0 0.351283324
H  H9  1  0.39210000  0.38750000  0.55380000  1.0 0.3607054251
H  H10  1  0.38750000  0.39210000  0.94620000  1.0 0.3607054251
H  H11  1  0.60790000  0.61250000  0.44620000  1.0 0.3607054251
H  H12  1  0.61250000  0.60790000  0.05380000  1.0 0.3607054251
H  H13  1  0.83810000  0.91110000  0.60570000  1.0 0.383230002
H  H14  1  0.91110000  0.83810000  0.89430000  1.0 0.383230002
H  H15  1  0.16190000  0.08890000  0.39430000  1.0 0.383230002
H  H16  1  0.08890000  0.16190000  0.10570000  1.0 0.383230002
H  H17  1  0.76150000  0.87770000  0.67500000  1.0 0.3607054251
H  H18  1  0.87770000  0.76150000  0.82500000  1.0 0.3607054251
H  H19  1  0.23850000  0.12230000  0.32500000  1.0 0.3607054251
H  H20  1  0.12230000  0.23850000  0.17500000  1.0 0.3607054251
H  H21  1  0.10670000  0.08610000  0.89970000  1.0 0.383230002
H  H22  1  0.08610000  0.10670000  0.60030000  1.0 0.383230002
H  H23  1  0.89330000  0.91390000  0.10030000  1.0 0.383230002
H  H24  1  0.91390000  0.89330000  0.39970000  1.0 0.383230002
H  H25  1  0.97310000  0.16710000  0.89110000  1.0 0.383230002
H  H26  1  0.16710000  0.97310000  0.60890000  1.0 0.383230002
H  H27  1  0.02690000  0.83290000  0.10890000  1.0 0.3854381563
H  H28  1  0.83290000  0.02690000  0.39110000  1.0 0.383230002
H  H29  1  0.16600000  0.52860000  0.81340000  1.0 0.1474671746
H  H30  1  0.52860000  0.16600000  0.68660000  1.0 0.1474671746
H  H31  1  0.83400000  0.47140000  0.18660000  1.0 0.1474671746
H  H32  1  0.47140000  0.83400000  0.31340000  1.0 0.1474671746
H  H33  1  0.12570000  0.37170000  0.81810000  1.0 0.1419538455
H  H34  1  0.37170000  0.12570000  0.68190000  1.0 0.1419538455
H  H35  1  0.87430000  0.62830000  0.18190000  1.0 0.1419538455
H  H36  1  0.62830000  0.87430000  0.31810000  1.0 0.1419538455
H  H37  1  0.22940000  0.41620000  0.74640000  1.0 0.1419538455
H  H38  1  0.41620000  0.22940000  0.75360000  1.0 0.1419538455
H  H39  1  0.77060000  0.58380000  0.25360000  1.0 0.1419538455
H  H40  1  0.58380000  0.77060000  0.24640000  1.0 0.1419538455
Ru  Ru1  1  0.12144000  0.45472000  0.50194000  1.0 0.9173219027
Ru  Ru2  1  0.45472000  0.12144000  0.99806000  1.0 0.9173219027
Ru  Ru3  1  0.87856000  0.54528000  0.49806000  1.0 0.9173219027
Ru  Ru4  1  0.54528000  0.87856000  0.00194000  1.0 0.9173219027
C  C1  1  0.02070000  0.49690000  0.71630000  1.0 -0.1487110881
C  C2  1  0.49690000  0.02070000  0.78370000  1.0 -0.1487110881
C  C3  1  0.97930000  0.50310000  0.28370000  1.0 -0.1487110881
C  C4  1  0.50310000  0.97930000  0.21630000  1.0 -0.1487110881
C  C5  1  0.14650000  0.44910000  0.77900000  1.0 -0.4299546955
C  C6  1  0.44910000  0.14650000  0.72100000  1.0 -0.4299546955
C  C7  1  0.85350000  0.55090000  0.22100000  1.0 -0.4299546955
C  C8  1  0.55090000  0.85350000  0.27900000  1.0 -0.4299546955
O  O1  1  0.16480000  0.59520000  0.58680000  1.0 -0.6321423529
O  O2  1  0.59520000  0.16480000  0.91320000  1.0 -0.6321423529
O  O3  1  0.83520000  0.40480000  0.41320000  1.0 -0.6321423529
O  O4  1  0.40480000  0.83520000  0.08680000  1.0 -0.6321423529
O  O5  1  0.90970000  0.69190000  0.58620000  1.0 -0.6978537021
O  O6  1  0.69190000  0.90970000  0.91380000  1.0 -0.6978537021
O  O7  1  0.09030000  0.30810000  0.41380000  1.0 -0.6978537021
O  O8  1  0.30810000  0.09030000  0.08620000  1.0 -0.6978537021
O  O9  1  0.07150000  0.76670000  0.69790000  1.0 -0.7792413809
O  O10  1  0.76670000  0.07150000  0.80210000  1.0 -0.7792413809
O  O11  1  0.92850000  0.23330000  0.30210000  1.0 -0.7855804739
O  O12  1  0.23330000  0.92850000  0.19790000  1.0 -0.7855804739
O  O13  1  0.10550000  0.30730000  0.59810000  1.0 -0.6688302038
O  O14  1  0.30730000  0.10550000  0.90190000  1.0 -0.6688302038
O  O15  1  0.89450000  0.69270000  0.40190000  1.0 -0.6688302038
O  O16  1  0.69270000  0.89450000  0.09810000  1.0 -0.6688302038
O  O17  1  0.84410000  0.40450000  0.59360000  1.0 -0.6417621998
O  O18  1  0.40450000  0.84410000  0.90640000  1.0 -0.6417621998
O  O19  1  0.15590000  0.59550000  0.40640000  1.0 -0.6417621998
O  O20  1  0.59550000  0.15590000  0.09360000  1.0 -0.6417621998
O  O21  1  0.95230000  0.22850000  0.71410000  1.0 -0.8019538549
O  O22  1  0.22850000  0.95230000  0.78590000  1.0 -0.8019538549
O  O23  1  0.04770000  0.77150000  0.28590000  1.0 -0.8019538549
O  O24  1  0.77150000  0.04770000  0.21410000  1.0 -0.8019538549
O  O25  1  0.90160000  0.54500000  0.77050000  1.0 -0.4299546955
O  O26  1  0.54500000  0.90160000  0.72950000  1.0 -0.4299546955
O  O27  1  0.09840000  0.45500000  0.22950000  1.0 -0.4299546955
O  O28  1  0.45500000  0.09840000  0.27050000  1.0 -0.4299546955
O  O29  1  0.35600000  0.37720000  0.50390000  1.0 -0.5840503452
O  O30  1  0.37720000  0.35600000  0.99610000  1.0 -0.5840503452
O  O31  1  0.64400000  0.62280000  0.49610000  1.0 -0.5840503452
O  O32  1  0.62280000  0.64400000  0.00390000  1.0 -0.5840503452
O  O33  1  0.80310000  0.94050000  0.65180000  1.0 -0.7642591772
O  O34  1  0.94050000  0.80310000  0.84820000  1.0 -0.7642591772
O  O35  1  0.19690000  0.05950000  0.34820000  1.0 -0.7642591772
O  O36  1  0.05950000  0.19690000  0.15180000  1.0 -0.7653258024
O  O37  1  0.01930000  0.08430000  0.88900000  1.0 -0.7792413809
O  O38  1  0.08430000  0.01930000  0.61100000  1.0 -0.7792413809
O  O39  1  0.98070000  0.91570000  0.11100000  1.0 -0.7792413809
O  O40  1  0.91570000  0.98070000  0.38900000  1.0 -0.7792413809
