# DDEC6 charges by PACMAN v1.1 (https://github.com/mtap-research/PACMAN-charge/)
data_GIRXUC_ASR_pacman
_symmetry_space_group_name_H-M   'P 1'
_cell_length_a   14.29410000
_cell_length_b   14.29410000
_cell_length_c   14.29410000
_cell_angle_alpha   90.00000000
_cell_angle_beta   90.00000000
_cell_angle_gamma   90.00000000
_symmetry_Int_Tables_number   1
_chemical_formula_structural   Zn2H3(C3O2)3
_chemical_formula_sum   'Zn8 H12 C36 O24'
_cell_volume   2920.58902014
_cell_formula_units_Z   4
loop_
 _symmetry_equiv_pos_site_id
 _symmetry_equiv_pos_as_xyz
  1  'x, y, z'
loop_
 _atom_site_type_symbol
 _atom_site_label
 _atom_site_symmetry_multiplicity
 _atom_site_fract_x
 _atom_site_fract_y
 _atom_site_fract_z
 _atom_site_occupancy
 _atom_site_charge
Zn  Zn1  1  0.22027000  0.77973000  0.27973000  1.0 0.9068778063
Zn  Zn2  1  0.27973000  0.22027000  0.77973000  1.0 0.9068778063
Zn  Zn3  1  0.72027000  0.72027000  0.72027000  1.0 0.9068778063
Zn  Zn4  1  0.77973000  0.27973000  0.22027000  1.0 0.9068778063
Zn  Zn5  1  0.07348000  0.92652000  0.42652000  1.0 0.9842992927
Zn  Zn6  1  0.42652000  0.07348000  0.92652000  1.0 0.9842992927
Zn  Zn7  1  0.57348000  0.57348000  0.57348000  1.0 0.9842992927
Zn  Zn8  1  0.92652000  0.42652000  0.07348000  1.0 0.9842992927
H  H1  1  0.43590000  0.78260000  0.49170000  1.0 0.1067589576
H  H2  1  0.06410000  0.21740000  0.99170000  1.0 0.1067589576
H  H3  1  0.93590000  0.71740000  0.50830000  1.0 0.1067589576
H  H4  1  0.56410000  0.28260000  0.00830000  1.0 0.1067589576
H  H5  1  0.49170000  0.43590000  0.78260000  1.0 0.1067589576
H  H6  1  0.00830000  0.56410000  0.28260000  1.0 0.1067589576
H  H7  1  0.99170000  0.06410000  0.21740000  1.0 0.1067589576
H  H8  1  0.50830000  0.93590000  0.71740000  1.0 0.1067589576
H  H9  1  0.78260000  0.49170000  0.43590000  1.0 0.1067589576
H  H10  1  0.28260000  0.00830000  0.56410000  1.0 0.1067589576
H  H11  1  0.21740000  0.99170000  0.06410000  1.0 0.1067589576
H  H12  1  0.71740000  0.50830000  0.93590000  1.0 0.1067589576
C  C1  1  0.34860000  0.89440000  0.51650000  1.0 -0.0566703752
C  C2  1  0.15140000  0.10560000  0.01650000  1.0 -0.0566703752
C  C3  1  0.84860000  0.60560000  0.48350000  1.0 -0.0566703752
C  C4  1  0.65140000  0.39440000  0.98350000  1.0 -0.0566703752
C  C5  1  0.51650000  0.34860000  0.89440000  1.0 -0.0566703752
C  C6  1  0.98350000  0.65140000  0.39440000  1.0 -0.0566703752
C  C7  1  0.01650000  0.15140000  0.10560000  1.0 -0.0566703752
C  C8  1  0.48350000  0.84860000  0.60560000  1.0 -0.0566703752
C  C9  1  0.89440000  0.51650000  0.34860000  1.0 -0.0566703752
C  C10  1  0.39440000  0.98350000  0.65140000  1.0 -0.0566703752
C  C11  1  0.10560000  0.01650000  0.15140000  1.0 -0.0566703752
C  C12  1  0.60560000  0.48350000  0.84860000  1.0 -0.0566703752
C  C13  1  0.42550000  0.83280000  0.53170000  1.0 -0.1087083153
C  C14  1  0.07450000  0.16720000  0.03170000  1.0 -0.1087083153
C  C15  1  0.92550000  0.66720000  0.46830000  1.0 -0.1087083153
C  C16  1  0.57450000  0.33280000  0.96830000  1.0 -0.1087083153
C  C17  1  0.53170000  0.42550000  0.83280000  1.0 -0.1087083153
C  C18  1  0.96830000  0.57450000  0.33280000  1.0 -0.1087083153
C  C19  1  0.03170000  0.07450000  0.16720000  1.0 -0.1087083153
C  C20  1  0.46830000  0.92550000  0.66720000  1.0 -0.1087083153
C  C21  1  0.83280000  0.53170000  0.42550000  1.0 -0.1087083153
C  C22  1  0.33280000  0.96830000  0.57450000  1.0 -0.1087083153
C  C23  1  0.16720000  0.03170000  0.07450000  1.0 -0.1087083153
C  C24  1  0.66720000  0.46830000  0.92550000  1.0 -0.1087083153
C  C25  1  0.27920000  0.87640000  0.43910000  1.0 0.5794675256
C  C26  1  0.22080000  0.12360000  0.93910000  1.0 0.5794675256
C  C27  1  0.77920000  0.62360000  0.56090000  1.0 0.5794675256
C  C28  1  0.72080000  0.37640000  0.06090000  1.0 0.5794675256
C  C29  1  0.43910000  0.27920000  0.87640000  1.0 0.5794675256
C  C30  1  0.06090000  0.72080000  0.37640000  1.0 0.5794675256
C  C31  1  0.93910000  0.22080000  0.12360000  1.0 0.5794675256
C  C32  1  0.56090000  0.77920000  0.62360000  1.0 0.5794675256
C  C33  1  0.87640000  0.43910000  0.27920000  1.0 0.5794675256
C  C34  1  0.37640000  0.06090000  0.72080000  1.0 0.5794675256
C  C35  1  0.12360000  0.93910000  0.22080000  1.0 0.5794675256
C  C36  1  0.62360000  0.56090000  0.77920000  1.0 0.5794675256
O  O1  1  0.29900000  0.80710000  0.38550000  1.0 -0.5840588902
O  O2  1  0.20100000  0.19290000  0.88550000  1.0 -0.5840588902
O  O3  1  0.79900000  0.69290000  0.61450000  1.0 -0.5840588902
O  O4  1  0.70100000  0.30710000  0.11450000  1.0 -0.5840588902
O  O5  1  0.38550000  0.29900000  0.80710000  1.0 -0.5840588902
O  O6  1  0.11450000  0.70100000  0.30710000  1.0 -0.5840588902
O  O7  1  0.88550000  0.20100000  0.19290000  1.0 -0.5840588902
O  O8  1  0.61450000  0.79900000  0.69290000  1.0 -0.5840588902
O  O9  1  0.80710000  0.38550000  0.29900000  1.0 -0.5840588902
O  O10  1  0.30710000  0.11450000  0.70100000  1.0 -0.5840588902
O  O11  1  0.19290000  0.88550000  0.20100000  1.0 -0.5840588902
O  O12  1  0.69290000  0.61450000  0.79900000  1.0 -0.5840588902
O  O13  1  0.21780000  0.93260000  0.42540000  1.0 -0.5671812688
O  O14  1  0.28220000  0.06740000  0.92540000  1.0 -0.5671812688
O  O15  1  0.71780000  0.56740000  0.57460000  1.0 -0.5671812688
O  O16  1  0.78220000  0.43260000  0.07460000  1.0 -0.5671812688
O  O17  1  0.42540000  0.21780000  0.93260000  1.0 -0.5671812688
O  O18  1  0.07460000  0.78220000  0.43260000  1.0 -0.5671812688
O  O19  1  0.92540000  0.28220000  0.06740000  1.0 -0.5671812688
O  O20  1  0.57460000  0.71780000  0.56740000  1.0 -0.5671812688
O  O21  1  0.93260000  0.42540000  0.21780000  1.0 -0.5671812688
O  O22  1  0.43260000  0.07460000  0.78220000  1.0 -0.5671812688
O  O23  1  0.06740000  0.92540000  0.28220000  1.0 -0.5671812688
O  O24  1  0.56740000  0.57460000  0.71780000  1.0 -0.5671812688
