# DDEC6 charges by PACMAN v1.1 (https://github.com/mtap-research/PACMAN-charge/)
data_GIRZAK_ASR_pacman
_symmetry_space_group_name_H-M   'P 1'
_cell_length_a   13.83800000
_cell_length_b   13.84400000
_cell_length_c   14.42000000
_cell_angle_alpha   108.31000000
_cell_angle_beta   110.43000000
_cell_angle_gamma   107.04600000
_symmetry_Int_Tables_number   1
_chemical_formula_structural   Zn3H26C40(N3O7)2
_chemical_formula_sum   'Zn6 H52 C80 N12 O28'
_cell_volume   2191.32806157
_cell_formula_units_Z   2
loop_
 _symmetry_equiv_pos_site_id
 _symmetry_equiv_pos_as_xyz
  1  'x, y, z'
loop_
 _atom_site_type_symbol
 _atom_site_label
 _atom_site_symmetry_multiplicity
 _atom_site_fract_x
 _atom_site_fract_y
 _atom_site_fract_z
 _atom_site_occupancy
 _atom_site_charge
Zn  Zn1  1  0.84410000  0.63070000  0.39980000  1.0 0.8706471815
Zn  Zn2  1  0.15590000  0.36930000  0.60020000  1.0 0.8706471815
Zn  Zn3  1  0.00000000  0.50000000  0.50000000  1.0 0.8706471815
Zn  Zn4  1  0.50000000  0.50000000  0.50000000  1.0 0.8706471815
Zn  Zn5  1  0.55300000  0.27400000  0.40020000  1.0 0.8706471815
Zn  Zn6  1  0.44700000  0.72600000  0.59980000  1.0 0.8706471815
H  H1  1  0.57680000  0.44430000  0.37500000  1.0 0.371547162
H  H2  1  0.42320000  0.55570000  0.62500000  1.0 0.371547162
H  H3  1  0.79820000  0.43530000  0.37320000  1.0 0.3770378823
H  H4  1  0.20180000  0.56470000  0.62680000  1.0 0.3770378823
H  H5  1  0.72270000  0.52460000  0.14010000  1.0 0.1188450624
H  H6  1  0.27730000  0.47540000  0.85990000  1.0 0.1188450624
H  H7  1  0.77750000  0.50670000  0.00910000  1.0 0.1300525213
H  H8  1  0.22250000  0.49330000  0.99090000  1.0 0.1300525213
H  H9  1  0.09540000  0.74500000  0.23560000  1.0 0.1386614995
H  H10  1  0.90460000  0.25500000  0.76440000  1.0 0.1386614995
H  H11  1  0.03710000  0.77490000  0.36870000  1.0 0.1188450624
H  H12  1  0.96290000  0.22510000  0.63130000  1.0 0.1188450624
H  H13  1  0.06250000  0.65430000  0.05690000  1.0 0.1008324916
H  H14  1  0.93750000  0.34570000  0.94310000  1.0 0.1008324916
H  H15  1  0.14620000  0.54360000  0.09650000  1.0 0.0921269451
H  H16  1  0.85380000  0.45640000  0.90350000  1.0 0.0921269451
H  H17  1  0.21940000  0.59230000  0.29560000  1.0 0.1386614995
H  H18  1  0.78060000  0.40770000  0.70440000  1.0 0.1386614995
H  H19  1  0.18570000  0.57860000  0.43800000  1.0 0.1106676566
H  H20  1  0.81430000  0.42140000  0.56200000  1.0 0.1106676566
H  H21  1  0.87460000  0.34370000  0.23320000  1.0 0.1106676566
H  H22  1  0.12540000  0.65630000  0.76680000  1.0 0.1106676566
H  H23  1  0.89780000  0.35000000  0.08300000  1.0 0.1188450624
H  H24  1  0.10220000  0.65000000  0.91700000  1.0 0.1188450624
H  H25  1  0.64260000  0.60700000  0.77030000  1.0 0.1106676566
H  H26  1  0.35740000  0.39300000  0.22970000  1.0 0.1106676566
H  H27  1  0.81460000  0.75470000  0.91710000  1.0 0.1300525213
H  H28  1  0.18540000  0.24530000  0.08290000  1.0 0.1300525213
H  H29  1  0.92450000  0.77700000  0.70450000  1.0 0.1386614995
H  H30  1  0.07550000  0.22300000  0.29550000  1.0 0.1386614995
H  H31  1  0.74820000  0.63610000  0.56470000  1.0 0.1188450624
H  H32  1  0.25180000  0.36390000  0.43530000  1.0 0.1188450624
H  H33  1  0.41780000  0.13380000  0.14270000  1.0 0.1188450624
H  H34  1  0.58220000  0.86620000  0.85730000  1.0 0.1188450624
H  H35  1  0.22800000  0.99660000  0.00870000  1.0 0.1300525213
H  H36  1  0.77200000  0.00340000  0.99130000  1.0 0.1300525213
H  H37  1  0.14170000  0.99560000  0.24030000  1.0 0.1300525213
H  H38  1  0.85830000  0.00440000  0.75970000  1.0 0.1300525213
H  H39  1  0.33100000  0.11150000  0.37570000  1.0 0.1188450624
H  H40  1  0.66900000  0.88850000  0.62430000  1.0 0.1188450624
H  H41  1  0.55480000  0.00750000  0.12790000  1.0 0.1300525213
H  H42  1  0.44520000  0.99250000  0.87210000  1.0 0.1300525213
H  H43  1  0.59880000  0.85700000  0.05760000  1.0 0.1300525213
H  H44  1  0.40120000  0.14300000  0.94240000  1.0 0.1300525213
H  H45  1  0.93090000  0.04380000  0.30540000  1.0 0.1386614995
H  H46  1  0.06910000  0.95620000  0.69460000  1.0 0.1386614995
H  H47  1  0.37630000  0.77160000  0.30220000  1.0 0.1386614995
H  H48  1  0.62370000  0.22840000  0.69780000  1.0 0.1386614995
H  H49  1  0.44240000  0.70570000  0.04640000  1.0 0.1300525213
H  H50  1  0.55760000  0.29430000  0.95360000  1.0 0.1300525213
H  H51  1  0.55460000  0.61620000  0.11700000  1.0 0.1300525213
H  H52  1  0.44540000  0.38380000  0.88300000  1.0 0.1300525213
C  C1  1  0.79900000  0.56800000  0.16150000  1.0 0.0849954629
C  C2  1  0.20100000  0.43200000  0.83850000  1.0 0.0849954629
C  C3  1  0.83200000  0.55500000  0.08400000  1.0 -0.1860601311
C  C4  1  0.16800000  0.44500000  0.91600000  1.0 -0.1860601311
C  C5  1  0.94800000  0.61300000  0.11340000  1.0 0.1300525213
C  C6  1  0.05200000  0.38700000  0.88660000  1.0 0.1300525213
C  C7  1  0.02100000  0.69800000  0.21700000  1.0 -0.1581131821
C  C8  1  0.97900000  0.30200000  0.78300000  1.0 -0.1581131821
C  C9  1  0.98600000  0.71500000  0.29700000  1.0 0.0703237548
C  C10  1  0.01400000  0.28500000  0.70300000  1.0 0.0703237548
C  C11  1  0.00580000  0.58500000  0.04750000  1.0 -0.0906913013
C  C12  1  0.99420000  0.41500000  0.95250000  1.0 -0.0906913013
C  C13  1  0.06440000  0.50700000  0.07590000  1.0 -0.0906913013
C  C14  1  0.93560000  0.49300000  0.92410000  1.0 -0.0906913013
C  C15  1  0.05450000  0.48000000  0.16310000  1.0 0.1300525213
C  C16  1  0.94550000  0.52000000  0.83690000  1.0 0.1300525213
C  C17  1  0.14590000  0.54400000  0.27800000  1.0 -0.2203666648
C  C18  1  0.85410000  0.45600000  0.72200000  1.0 -0.2203666648
C  C19  1  0.12500000  0.53300000  0.36510000  1.0 0.0921269451
C  C20  1  0.87500000  0.46700000  0.63490000  1.0 0.0921269451
C  C21  1  0.94480000  0.39700000  0.24790000  1.0 0.1106676566
C  C22  1  0.05520000  0.60300000  0.75210000  1.0 0.1106676566
C  C23  1  0.95860000  0.40300000  0.15450000  1.0 -0.2203666648
C  C24  1  0.04140000  0.59700000  0.84550000  1.0 -0.2203666648
C  C25  1  0.69820000  0.64200000  0.75400000  1.0 0.0921269451
C  C26  1  0.30180000  0.35800000  0.24600000  1.0 0.0921269451
C  C27  1  0.80500000  0.73500000  0.84500000  1.0 -0.201558516
C  C28  1  0.19500000  0.26500000  0.15500000  1.0 -0.201558516
C  C29  1  0.89400000  0.79800000  0.83400000  1.0 0.1386614995
C  C30  1  0.10600000  0.20200000  0.16600000  1.0 0.1386614995
C  C31  1  0.86800000  0.74900000  0.72300000  1.0 -0.201558516
C  C32  1  0.13200000  0.25100000  0.27700000  1.0 -0.201558516
C  C33  1  0.76000000  0.65900000  0.63700000  1.0 0.0703237548
C  C34  1  0.24000000  0.34100000  0.36300000  1.0 0.0703237548
C  C35  1  0.99400000  0.91600000  0.92100000  1.0 -0.0702955393
C  C36  1  0.00600000  0.08400000  0.07900000  1.0 -0.0702955393
C  C37  1  0.36400000  0.10600000  0.16400000  1.0 0.0703237548
C  C38  1  0.63600000  0.89400000  0.83600000  1.0 0.0703237548
C  C39  1  0.24900000  0.02700000  0.08400000  1.0 -0.1581131821
C  C40  1  0.75100000  0.97300000  0.91600000  1.0 -0.1581131821
C  C41  1  0.16700000  0.99200000  0.11400000  1.0 0.1300525213
C  C42  1  0.83300000  0.00800000  0.88600000  1.0 0.1300525213
C  C43  1  0.19700000  0.02300000  0.22000000  1.0 -0.1426325017
C  C44  1  0.80300000  0.97700000  0.78000000  1.0 -0.1426325017
C  C45  1  0.31000000  0.09400000  0.30200000  1.0 0.0582793523
C  C46  1  0.69000000  0.90600000  0.69800000  1.0 0.0582793523
C  C47  1  0.03900000  0.93200000  0.03900000  1.0 -0.0702955393
C  C48  1  0.96100000  0.06800000  0.96100000  1.0 -0.0702955393
C  C49  1  0.67300000  0.19700000  0.30800000  1.0 0.5728244627
C  C50  1  0.32700000  0.80300000  0.69200000  1.0 0.5728244627
C  C51  1  0.71500000  0.11400000  0.26200000  1.0 0.017929546
C  C52  1  0.28500000  0.88600000  0.73800000  1.0 0.017929546
C  C53  1  0.62900000  0.01500000  0.16400000  1.0 -0.1199986046
C  C54  1  0.37100000  0.98500000  0.83600000  1.0 -0.1199986046
C  C55  1  0.65500000  0.92500000  0.12130000  1.0 -0.1426325017
C  C56  1  0.34500000  0.07500000  0.87870000  1.0 -0.1426325017
C  C57  1  0.77000000  0.94200000  0.17800000  1.0 0.0582793523
C  C58  1  0.23000000  0.05800000  0.82200000  1.0 0.0582793523
C  C59  1  0.85700000  0.03800000  0.27200000  1.0 -0.1426325017
C  C60  1  0.14300000  0.96200000  0.72800000  1.0 -0.1426325017
C  C61  1  0.83070000  0.13200000  0.31780000  1.0 -0.0702955393
C  C62  1  0.16930000  0.86800000  0.68220000  1.0 -0.0702955393
C  C63  1  0.92400000  0.24100000  0.41660000  1.0 0.5796589548
C  C64  1  0.07600000  0.75900000  0.58340000  1.0 0.5796589548
C  C65  1  0.62900000  0.61100000  0.30700000  1.0 0.5728244627
C  C66  1  0.37100000  0.38900000  0.69300000  1.0 0.5728244627
C  C67  1  0.54130000  0.65800000  0.25610000  1.0 0.0105914952
C  C68  1  0.45870000  0.34200000  0.74390000  1.0 0.0105914952
C  C69  1  0.47970000  0.69100000  0.30890000  1.0 -0.0316346033
C  C70  1  0.52030000  0.30900000  0.69110000  1.0 -0.0316346033
C  C71  1  0.41240000  0.74100000  0.26600000  1.0 -0.1426325017
C  C72  1  0.58760000  0.25900000  0.73400000  1.0 -0.1426325017
C  C73  1  0.40250000  0.74400000  0.17100000  1.0 0.0582793523
C  C74  1  0.59750000  0.25600000  0.82900000  1.0 0.0582793523
C  C75  1  0.45300000  0.70200000  0.11220000  1.0 -0.1496363511
C  C76  1  0.54700000  0.29800000  0.88780000  1.0 -0.1496363511
C  C77  1  0.52320000  0.65100000  0.15600000  1.0 -0.0906913013
C  C78  1  0.47680000  0.34900000  0.84400000  1.0 -0.0906913013
C  C79  1  0.48890000  0.67700000  0.41140000  1.0 0.5796589548
C  C80  1  0.51110000  0.32300000  0.58860000  1.0 0.5796589548
N  N1  1  0.87420000  0.64420000  0.27100000  1.0 -0.28553626
N  N2  1  0.12580000  0.35580000  0.72900000  1.0 -0.2840338951
N  N3  1  0.02540000  0.46150000  0.35100000  1.0 -0.2203666648
N  N4  1  0.97460000  0.53850000  0.64900000  1.0 -0.2203666648
N  N5  1  0.39640000  0.14200000  0.27600000  1.0 -0.3041816061
N  N6  1  0.60360000  0.85800000  0.72400000  1.0 -0.3041816061
N  N7  1  0.67250000  0.60200000  0.64990000  1.0 -0.2297902113
N  N8  1  0.32750000  0.39800000  0.35010000  1.0 -0.2297902113
N  N9  1  0.32600000  0.79100000  0.12300000  1.0 0.5151182408
N  N10  1  0.67400000  0.20900000  0.87700000  1.0 0.5151182408
N  N11  1  0.79800000  0.84700000  0.13400000  1.0 0.5139204258
N  N12  1  0.20200000  0.15300000  0.86600000  1.0 0.5139204258
O  O1  1  0.72830000  0.68490000  0.38630000  1.0 -0.5295211579
O  O2  1  0.27170000  0.31510000  0.61370000  1.0 -0.5295211579
O  O3  1  0.59520000  0.50800000  0.25690000  1.0 -0.5295211579
O  O4  1  0.40480000  0.49200000  0.74310000  1.0 -0.5295211579
O  O5  1  0.53230000  0.61710000  0.43820000  1.0 -0.5166337198
O  O6  1  0.46770000  0.38290000  0.56180000  1.0 -0.5166337198
O  O7  1  0.44500000  0.72810000  0.46260000  1.0 -0.5390867
O  O8  1  0.55500000  0.27190000  0.53740000  1.0 -0.5390867
O  O9  1  0.26390000  0.81000000  0.16200000  1.0 -0.318935067
O  O10  1  0.73610000  0.19000000  0.83800000  1.0 -0.318935067
O  O11  1  0.33700000  0.81400000  0.05010000  1.0 -0.318935067
O  O12  1  0.66300000  0.18600000  0.94990000  1.0 -0.318935067
O  O13  1  0.56920000  0.42040000  0.42070000  1.0 -0.8342774516
O  O14  1  0.43080000  0.57960000  0.57930000  1.0 -0.8342774516
O  O15  1  0.90600000  0.32480000  0.44400000  1.0 -0.5166337198
O  O16  1  0.09400000  0.67520000  0.55600000  1.0 -0.5166337198
O  O17  1  0.02210000  0.23770000  0.46300000  1.0 -0.5597997015
O  O18  1  0.97790000  0.76230000  0.53700000  1.0 -0.5597997015
O  O19  1  0.66470000  0.25730000  0.25830000  1.0 -0.5597997015
O  O20  1  0.33530000  0.74270000  0.74170000  1.0 -0.5597997015
O  O21  1  0.65370000  0.20210000  0.38700000  1.0 -0.5295211579
O  O22  1  0.34630000  0.79790000  0.61300000  1.0 -0.5295211579
O  O23  1  0.89900000  0.87000000  0.16900000  1.0 -0.3115708983
O  O24  1  0.10100000  0.13000000  0.83100000  1.0 -0.3115708983
O  O25  1  0.71400000  0.75600000  0.05700000  1.0 -0.3409409826
O  O26  1  0.28600000  0.24400000  0.94300000  1.0 -0.3409409826
O  O27  1  0.85010000  0.50380000  0.41720000  1.0 -0.8441619878
O  O28  1  0.14990000  0.49620000  0.58280000  1.0 -0.8441619878
