# DDEC6 charges by PACMAN v1.1 (https://github.com/mtap-research/PACMAN-charge/)
data_GITPIK_FSR_pacman
_symmetry_space_group_name_H-M   'P 1'
_cell_length_a   15.21730000
_cell_length_b   15.21730000
_cell_length_c   35.75700000
_cell_angle_alpha   81.49790000
_cell_angle_beta   98.50210000
_cell_angle_gamma   152.17700000
_symmetry_Int_Tables_number   1
_chemical_formula_structural   Zn2H14C21(N3O5)2
_chemical_formula_sum   'Zn8 H56 C84 N24 O40'
_cell_volume   3819.58213501
_cell_formula_units_Z   4
loop_
 _symmetry_equiv_pos_site_id
 _symmetry_equiv_pos_as_xyz
  1  'x, y, z'
loop_
 _atom_site_type_symbol
 _atom_site_label
 _atom_site_symmetry_multiplicity
 _atom_site_fract_x
 _atom_site_fract_y
 _atom_site_fract_z
 _atom_site_occupancy
 _atom_site_charge
Zn  Zn1  1  0.17181000  0.75245000  0.81534000  1.0 0.9119000927
Zn  Zn2  1  0.75245000  0.17181000  0.68466000  1.0 0.9119000927
Zn  Zn3  1  0.82819000  0.24755000  0.18466000  1.0 0.9119000927
Zn  Zn4  1  0.24755000  0.82819000  0.31534000  1.0 0.9119000927
Zn  Zn5  1  0.99273000  0.89743000  0.78154000  1.0 0.9611778901
Zn  Zn6  1  0.89743000  0.99273000  0.71846000  1.0 0.9611778901
Zn  Zn7  1  0.00727000  0.10257000  0.21846000  1.0 0.9611778901
Zn  Zn8  1  0.10257000  0.00727000  0.28154000  1.0 0.9611778901
H  H1  1  0.24740000  0.84740000  0.97620000  1.0 0.3010442153
H  H2  1  0.84740000  0.24740000  0.52380000  1.0 0.3010442153
H  H3  1  0.75260000  0.15260000  0.02380000  1.0 0.3010442153
H  H4  1  0.15260000  0.75260000  0.47620000  1.0 0.3010442153
H  H5  1  0.58900000  0.86060000  0.93920000  1.0 0.2862324313
H  H6  1  0.86060000  0.58900000  0.56080000  1.0 0.2862324313
H  H7  1  0.41100000  0.13940000  0.06080000  1.0 0.2862324313
H  H8  1  0.13940000  0.41100000  0.43920000  1.0 0.2862324313
H  H9  1  0.10980000  0.73000000  0.02960000  1.0 0.1292462983
H  H10  1  0.73000000  0.10980000  0.47040000  1.0 0.1292462983
H  H11  1  0.89020000  0.27000000  0.97040000  1.0 0.1292462983
H  H12  1  0.27000000  0.89020000  0.52960000  1.0 0.1292462983
H  H13  1  0.00860000  0.57220000  0.08700000  1.0 0.1292462983
H  H14  1  0.57220000  0.00860000  0.41300000  1.0 0.1292462983
H  H15  1  0.99140000  0.42780000  0.91300000  1.0 0.1292462983
H  H16  1  0.42780000  0.99140000  0.58700000  1.0 0.1292462983
H  H17  1  0.23100000  0.53900000  0.06750000  1.0 0.1208603553
H  H18  1  0.53900000  0.23100000  0.43250000  1.0 0.1208603553
H  H19  1  0.76900000  0.46100000  0.93250000  1.0 0.1208603553
H  H20  1  0.46100000  0.76900000  0.56750000  1.0 0.1208603553
H  H21  1  0.32960000  0.69320000  0.00920000  1.0 0.1292462983
H  H22  1  0.69320000  0.32960000  0.49080000  1.0 0.1292462983
H  H23  1  0.67040000  0.30680000  0.99080000  1.0 0.1292462983
H  H24  1  0.30680000  0.67040000  0.50920000  1.0 0.1292462983
H  H25  1  0.73960000  0.87400000  0.92260000  1.0 0.1208603553
H  H26  1  0.87400000  0.73960000  0.57740000  1.0 0.1208603553
H  H27  1  0.26040000  0.12600000  0.07740000  1.0 0.1208603553
H  H28  1  0.12600000  0.26040000  0.42260000  1.0 0.1208603553
H  H29  1  0.84620000  0.89200000  0.87650000  1.0 0.1292462983
H  H30  1  0.89200000  0.84620000  0.62350000  1.0 0.1292462983
H  H31  1  0.15380000  0.10800000  0.12350000  1.0 0.1292462983
H  H32  1  0.10800000  0.15380000  0.37650000  1.0 0.1292462983
H  H33  1  0.73020000  0.99960000  0.79800000  1.0 0.1397379284
H  H34  1  0.99960000  0.73020000  0.70200000  1.0 0.1397379284
H  H35  1  0.26980000  0.00040000  0.20200000  1.0 0.1397379284
H  H36  1  0.00040000  0.26980000  0.29800000  1.0 0.1397379284
H  H37  1  0.61370000  0.97210000  0.84350000  1.0 0.1208603553
H  H38  1  0.97210000  0.61370000  0.65650000  1.0 0.1208603553
H  H39  1  0.38630000  0.02790000  0.15650000  1.0 0.1208603553
H  H40  1  0.02790000  0.38630000  0.34350000  1.0 0.1208603553
H  H41  1  0.31460000  0.02620000  0.87970000  1.0 0.1397379284
H  H42  1  0.02620000  0.31460000  0.62030000  1.0 0.1397379284
H  H43  1  0.68540000  0.97380000  0.12030000  1.0 0.1397379284
H  H44  1  0.97380000  0.68540000  0.37970000  1.0 0.1397379284
H  H45  1  0.49160000  0.22060000  0.85790000  1.0 0.1397379284
H  H46  1  0.22060000  0.49160000  0.64210000  1.0 0.1397379284
H  H47  1  0.50840000  0.77940000  0.14210000  1.0 0.1397379284
H  H48  1  0.77940000  0.50840000  0.35790000  1.0 0.1397379284
H  H49  1  0.62770000  0.25950000  0.81620000  1.0 0.1292462983
H  H50  1  0.25950000  0.62770000  0.68380000  1.0 0.1292462983
H  H51  1  0.37230000  0.74050000  0.18380000  1.0 0.1292462983
H  H52  1  0.74050000  0.37230000  0.31620000  1.0 0.1292462983
H  H53  1  0.71480000  0.25940000  0.84540000  1.0 0.1208603553
H  H54  1  0.25940000  0.71480000  0.65460000  1.0 0.1208603553
H  H55  1  0.28520000  0.74060000  0.15460000  1.0 0.1208603553
H  H56  1  0.74060000  0.28520000  0.34540000  1.0 0.1208603553
C  C1  1  0.44640000  0.98940000  0.88857000  1.0 0.4689505593
C  C2  1  0.98940000  0.44640000  0.61143000  1.0 0.4689505593
C  C3  1  0.55360000  0.01060000  0.11143000  1.0 0.4689505593
C  C4  1  0.01060000  0.55360000  0.38857000  1.0 0.4689505593
C  C5  1  0.35850000  0.86610000  0.94791000  1.0 0.522950937
C  C6  1  0.86610000  0.35850000  0.55209000  1.0 0.522950937
C  C7  1  0.64150000  0.13390000  0.05209000  1.0 0.522950937
C  C8  1  0.13390000  0.64150000  0.44791000  1.0 0.522950937
C  C9  1  0.51089000  0.90731000  0.91643000  1.0 0.5324554042
C  C10  1  0.90731000  0.51089000  0.58357000  1.0 0.5324554042
C  C11  1  0.48911000  0.09269000  0.08357000  1.0 0.5324554042
C  C12  1  0.09269000  0.48911000  0.41643000  1.0 0.5324554042
C  C13  1  0.22759000  0.72561000  0.01316000  1.0 0.2309443773
C  C14  1  0.72561000  0.22759000  0.48684000  1.0 0.2309443773
C  C15  1  0.77241000  0.27439000  0.98684000  1.0 0.2309443773
C  C16  1  0.27439000  0.77241000  0.51316000  1.0 0.2309443773
C  C17  1  0.13266000  0.68994000  0.03707000  1.0 -0.2099270663
C  C18  1  0.68994000  0.13266000  0.46293000  1.0 -0.2099270663
C  C19  1  0.86734000  0.31006000  0.96293000  1.0 -0.2099270663
C  C20  1  0.31006000  0.86734000  0.53707000  1.0 -0.2099270663
C  C21  1  0.07273000  0.59607000  0.07151000  1.0 -0.0700737705
C  C22  1  0.59607000  0.07273000  0.42849000  1.0 -0.0700737705
C  C23  1  0.92727000  0.40393000  0.92849000  1.0 -0.0700737705
C  C24  1  0.40393000  0.92727000  0.57151000  1.0 -0.0700737705
C  C25  1  0.10751000  0.53669000  0.08321000  1.0 -0.0437144592
C  C26  1  0.53669000  0.10751000  0.41679000  1.0 -0.0437144592
C  C27  1  0.89249000  0.46331000  0.91679000  1.0 -0.0437144592
C  C28  1  0.46331000  0.89249000  0.58321000  1.0 -0.0437144592
C  C29  1  0.20506000  0.57594000  0.05969000  1.0 -0.0881629653
C  C30  1  0.57594000  0.20506000  0.44031000  1.0 -0.0881629653
C  C31  1  0.79494000  0.42406000  0.94031000  1.0 -0.0881629653
C  C32  1  0.42406000  0.79494000  0.55969000  1.0 -0.0881629653
C  C33  1  0.26518000  0.66902000  0.02469000  1.0 -0.2099270663
C  C34  1  0.66902000  0.26518000  0.47531000  1.0 -0.2099270663
C  C35  1  0.73482000  0.33098000  0.97531000  1.0 -0.2099270663
C  C36  1  0.33098000  0.73482000  0.52469000  1.0 -0.2099270663
C  C37  1  0.03941000  0.43259000  0.12045000  1.0 0.522950937
C  C38  1  0.43259000  0.03941000  0.37955000  1.0 0.522950937
C  C39  1  0.96059000  0.56741000  0.87955000  1.0 0.522950937
C  C40  1  0.56741000  0.96059000  0.62045000  1.0 0.522950937
C  C41  1  0.66265000  0.91895000  0.88808000  1.0 0.2309443773
C  C42  1  0.91895000  0.66265000  0.61192000  1.0 0.2309443773
C  C43  1  0.33735000  0.08105000  0.11192000  1.0 0.2309443773
C  C44  1  0.08105000  0.33735000  0.38808000  1.0 0.2309443773
C  C45  1  0.73530000  0.89710000  0.89751000  1.0 -0.2039013683
C  C46  1  0.89710000  0.73530000  0.60249000  1.0 -0.2039013683
C  C47  1  0.26470000  0.10290000  0.10249000  1.0 -0.2039013683
C  C48  1  0.10290000  0.26470000  0.39751000  1.0 -0.2039013683
C  C49  1  0.80070000  0.90950000  0.86979000  1.0 -0.0757798992
C  C50  1  0.90950000  0.80070000  0.63021000  1.0 -0.0757798992
C  C51  1  0.19930000  0.09050000  0.13021000  1.0 -0.0757798992
C  C52  1  0.09050000  0.19930000  0.36979000  1.0 -0.0757798992
C  C53  1  0.79970000  0.94770000  0.83214000  1.0 -0.0700737705
C  C54  1  0.94770000  0.79970000  0.66786000  1.0 -0.0700737705
C  C55  1  0.20030000  0.05230000  0.16786000  1.0 -0.0700737705
C  C56  1  0.05230000  0.20030000  0.33214000  1.0 -0.0700737705
C  C57  1  0.73036000  0.97224000  0.82303000  1.0 -0.0700737705
C  C58  1  0.97224000  0.73036000  0.67697000  1.0 -0.0700737705
C  C59  1  0.26964000  0.02776000  0.17697000  1.0 -0.0700737705
C  C60  1  0.02776000  0.26964000  0.32303000  1.0 -0.0700737705
C  C61  1  0.66129000  0.95691000  0.85038000  1.0 -0.1776948874
C  C62  1  0.95691000  0.66129000  0.64962000  1.0 -0.1776948874
C  C63  1  0.33871000  0.04309000  0.14962000  1.0 -0.1776948874
C  C64  1  0.04309000  0.33871000  0.35038000  1.0 -0.1776948874
C  C65  1  0.86780000  0.95940000  0.80173000  1.0 0.5779043332
C  C66  1  0.95940000  0.86780000  0.69827000  1.0 0.5779043332
C  C67  1  0.13220000  0.04060000  0.19827000  1.0 0.5779043332
C  C68  1  0.04060000  0.13220000  0.30173000  1.0 0.5779043332
C  C69  1  0.38414000  0.08646000  0.85696000  1.0 -0.2666210636
C  C70  1  0.08646000  0.38414000  0.64304000  1.0 -0.2666210636
C  C71  1  0.61586000  0.91354000  0.14304000  1.0 -0.2666210636
C  C72  1  0.91354000  0.61586000  0.35696000  1.0 -0.2666210636
C  C73  1  0.25801000  0.00939000  0.82258000  1.0 0.624090393
C  C74  1  0.00939000  0.25801000  0.67742000  1.0 0.624090393
C  C75  1  0.74199000  0.99061000  0.17742000  1.0 0.624090393
C  C76  1  0.99061000  0.74199000  0.32258000  1.0 0.624090393
C  C77  1  0.60181000  0.17879000  0.83035000  1.0 -0.2801684692
C  C78  1  0.17879000  0.60181000  0.66965000  1.0 -0.2801684692
C  C79  1  0.39819000  0.82121000  0.16965000  1.0 -0.2801684692
C  C80  1  0.82121000  0.39819000  0.33035000  1.0 -0.2801684692
C  C81  1  0.56467000  0.08153000  0.80244000  1.0 0.5863553778
C  C82  1  0.08153000  0.56467000  0.69756000  1.0 0.5863553778
C  C83  1  0.43533000  0.91847000  0.19756000  1.0 0.5863553778
C  C84  1  0.91847000  0.43533000  0.30244000  1.0 0.5863553778
N  N1  1  0.36268000  0.93672000  0.91845000  1.0 -0.5105057164
N  N2  1  0.93672000  0.36268000  0.58155000  1.0 -0.5105057164
N  N3  1  0.63732000  0.06328000  0.08155000  1.0 -0.5105057164
N  N4  1  0.06328000  0.63732000  0.41845000  1.0 -0.5105057164
N  N5  1  0.42741000  0.84519000  0.94858000  1.0 -0.5463367208
N  N6  1  0.84519000  0.42741000  0.55142000  1.0 -0.5463367208
N  N7  1  0.57259000  0.15481000  0.05142000  1.0 -0.5463367208
N  N8  1  0.15481000  0.57259000  0.44858000  1.0 -0.5463367208
N  N9  1  0.52643000  0.98117000  0.88567000  1.0 -0.4898914458
N  N10  1  0.98117000  0.52643000  0.61433000  1.0 -0.4898914458
N  N11  1  0.47357000  0.01883000  0.11433000  1.0 -0.4898914458
N  N12  1  0.01883000  0.47357000  0.38567000  1.0 -0.4898914458
N  N13  1  0.27559000  0.81681000  0.97855000  1.0 -0.3470573604
N  N14  1  0.81681000  0.27559000  0.52145000  1.0 -0.3470573604
N  N15  1  0.72441000  0.18319000  0.02145000  1.0 -0.3470573604
N  N16  1  0.18319000  0.72441000  0.47855000  1.0 -0.3470573604
N  N17  1  0.58708000  0.89172000  0.91741000  1.0 -0.3470573604
N  N18  1  0.89172000  0.58708000  0.58259000  1.0 -0.3470573604
N  N19  1  0.41292000  0.10828000  0.08259000  1.0 -0.3470573604
N  N20  1  0.10828000  0.41292000  0.41741000  1.0 -0.3470573604
N  N21  1  0.45069000  0.05551000  0.85619000  1.0 -0.1776948874
N  N22  1  0.05551000  0.45069000  0.64381000  1.0 -0.1776948874
N  N23  1  0.54931000  0.94449000  0.14381000  1.0 -0.1744360655
N  N24  1  0.94449000  0.54931000  0.35619000  1.0 -0.1744360655
O  O1  1  0.94539000  0.39981000  0.13884000  1.0 -0.5597706727
O  O2  1  0.39981000  0.94539000  0.36116000  1.0 -0.5597706727
O  O3  1  0.05461000  0.60019000  0.86116000  1.0 -0.5597706727
O  O4  1  0.60019000  0.05461000  0.63884000  1.0 -0.5597706727
O  O5  1  0.07614000  0.38606000  0.13208000  1.0 -0.4898914458
O  O6  1  0.38606000  0.07614000  0.36792000  1.0 -0.4842574998
O  O7  1  0.92386000  0.61394000  0.86792000  1.0 -0.4898914458
O  O8  1  0.61394000  0.92386000  0.63208000  1.0 -0.4898914458
O  O9  1  0.92380000  0.92960000  0.81177000  1.0 -0.5597706727
O  O10  1  0.92960000  0.92380000  0.68823000  1.0 -0.5597706727
O  O11  1  0.07620000  0.07040000  0.18823000  1.0 -0.5597706727
O  O12  1  0.07040000  0.07620000  0.31177000  1.0 -0.5597706727
O  O13  1  0.86434000  0.99786000  0.76851000  1.0 -0.574248369
O  O14  1  0.99786000  0.86434000  0.73149000  1.0 -0.574248369
O  O15  1  0.13566000  0.00214000  0.23149000  1.0 -0.574248369
O  O16  1  0.00214000  0.13566000  0.26851000  1.0 -0.574248369
O  O17  1  0.19285000  0.90095000  0.80103000  1.0 -0.5597706727
O  O18  1  0.90095000  0.19285000  0.69897000  1.0 -0.5597706727
O  O19  1  0.80715000  0.09905000  0.19897000  1.0 -0.5597706727
O  O20  1  0.09905000  0.80715000  0.30103000  1.0 -0.5597706727
O  O21  1  0.21992000  0.05808000  0.81762000  1.0 -0.5597706727
O  O22  1  0.05808000  0.21992000  0.68238000  1.0 -0.5597706727
O  O23  1  0.78008000  0.94192000  0.18238000  1.0 -0.5597706727
O  O24  1  0.94192000  0.78008000  0.31762000  1.0 -0.5597706727
O  O25  1  0.70353000  0.18487000  0.78486000  1.0 -0.4182889863
O  O26  1  0.18487000  0.70353000  0.71514000  1.0 -0.4182889863
O  O27  1  0.29647000  0.81513000  0.21514000  1.0 -0.4182889863
O  O28  1  0.81513000  0.29647000  0.28486000  1.0 -0.4182889863
O  O29  1  0.40140000  0.90660000  0.79749000  1.0 -0.5352831289
O  O30  1  0.90660000  0.40140000  0.70251000  1.0 -0.5334207221
O  O31  1  0.59860000  0.09340000  0.20251000  1.0 -0.5334207221
O  O32  1  0.09340000  0.59860000  0.29749000  1.0 -0.5334207221
O  O33  1  0.99246000  0.56334000  0.77500000  1.0 0.0993777112
O  O34  1  0.56334000  0.99246000  0.72500000  1.0 0.0993777112
O  O35  1  0.00754000  0.43666000  0.22500000  1.0 0.0918346018
O  O36  1  0.43666000  0.00754000  0.27500000  1.0 0.0918346018
O  O37  1  0.81395000  0.64425000  0.80763000  1.0 0.0356129838
O  O38  1  0.64425000  0.81395000  0.69237000  1.0 0.0316721917
O  O39  1  0.18605000  0.35575000  0.19237000  1.0 0.0356129838
O  O40  1  0.35575000  0.18605000  0.30763000  1.0 0.0356129838
