# DDEC6 charges by PACMAN v1.1 (https://github.com/mtap-research/PACMAN-charge/)
data_GITSUY_FSR_pacman
_symmetry_space_group_name_H-M   'P 1'
_cell_length_a   21.53010000
_cell_length_b   21.53010000
_cell_length_c   21.53010000
_cell_angle_alpha   101.49900000
_cell_angle_beta   101.49900000
_cell_angle_gamma   126.96400000
_symmetry_Int_Tables_number   1
_chemical_formula_structural   Zn2H21C17N8
_chemical_formula_sum   'Zn16 H168 C136 N64'
_cell_volume   7135.28582647
_cell_formula_units_Z   8
loop_
 _symmetry_equiv_pos_site_id
 _symmetry_equiv_pos_as_xyz
  1  'x, y, z'
loop_
 _atom_site_type_symbol
 _atom_site_label
 _atom_site_symmetry_multiplicity
 _atom_site_fract_x
 _atom_site_fract_y
 _atom_site_fract_z
 _atom_site_occupancy
 _atom_site_charge
Zn  Zn1  1  0.42301000  0.26677000  0.37674000  1.0 0.5674682529
Zn  Zn2  1  0.04627000  0.42301000  0.15624000  1.0 0.5674682529
Zn  Zn3  1  0.26677000  0.89003000  0.84376000  1.0 0.5674682529
Zn  Zn4  1  0.95373000  0.10997000  0.37674000  1.0 0.5674682529
Zn  Zn5  1  0.89003000  0.04627000  0.62326000  1.0 0.5674682529
Zn  Zn6  1  0.57699000  0.95373000  0.84376000  1.0 0.5674682529
Zn  Zn7  1  0.10997000  0.73323000  0.15624000  1.0 0.5674682529
Zn  Zn8  1  0.73323000  0.57699000  0.62326000  1.0 0.5674682529
Zn  Zn9  1  0.57699000  0.73323000  0.62326000  1.0 0.5674682529
Zn  Zn10  1  0.95373000  0.57699000  0.84376000  1.0 0.5674682529
Zn  Zn11  1  0.73323000  0.10997000  0.15624000  1.0 0.5674682529
Zn  Zn12  1  0.04627000  0.89003000  0.62326000  1.0 0.5674682529
Zn  Zn13  1  0.10997000  0.95373000  0.37674000  1.0 0.5674682529
Zn  Zn14  1  0.42301000  0.04627000  0.15624000  1.0 0.5674682529
Zn  Zn15  1  0.89003000  0.26677000  0.84376000  1.0 0.5674682529
Zn  Zn16  1  0.26677000  0.42301000  0.37674000  1.0 0.5674682529
H  H1  1  0.55350000  0.44650000  0.50000000  1.0 0.1044703582
H  H2  1  0.05350000  0.55350000  0.10700000  1.0 0.1044703582
H  H3  1  0.44650000  0.94650000  0.89300000  1.0 0.1044703582
H  H4  1  0.94650000  0.05350000  0.50000000  1.0 0.1044703582
H  H5  1  0.44650000  0.55350000  0.50000000  1.0 0.1044703582
H  H6  1  0.94650000  0.44650000  0.89300000  1.0 0.1044703582
H  H7  1  0.55350000  0.05350000  0.10700000  1.0 0.1044703582
H  H8  1  0.05350000  0.94650000  0.50000000  1.0 0.1044703582
H  H9  1  0.42130000  0.12550000  0.29580000  1.0 0.1078484909
H  H10  1  0.12550000  0.42130000  0.29580000  1.0 0.1078484909
H  H11  1  0.12550000  0.82970000  0.70420000  1.0 0.1078484909
H  H12  1  0.87450000  0.17030000  0.29580000  1.0 0.1078484909
H  H13  1  0.82970000  0.12550000  0.70420000  1.0 0.1078484909
H  H14  1  0.57870000  0.87450000  0.70420000  1.0 0.1078484909
H  H15  1  0.17030000  0.87450000  0.29580000  1.0 0.1078484909
H  H16  1  0.87450000  0.57870000  0.70420000  1.0 0.1078484909
H  H17  1  0.49230000  0.42880000  0.34250000  1.0 0.1044703582
H  H18  1  0.14980000  0.49230000  0.06350000  1.0 0.1044703582
H  H19  1  0.42880000  0.08630000  0.93650000  1.0 0.1044703582
H  H20  1  0.85020000  0.91370000  0.34250000  1.0 0.1044703582
H  H21  1  0.08630000  0.14980000  0.65750000  1.0 0.1044703582
H  H22  1  0.50770000  0.85020000  0.93650000  1.0 0.1044703582
H  H23  1  0.91370000  0.57120000  0.06350000  1.0 0.1044703582
H  H24  1  0.57120000  0.50770000  0.65750000  1.0 0.1044703582
H  H25  1  0.50770000  0.57120000  0.65750000  1.0 0.1044703582
H  H26  1  0.85020000  0.50770000  0.93650000  1.0 0.1044703582
H  H27  1  0.57120000  0.91370000  0.06350000  1.0 0.1044703582
H  H28  1  0.14980000  0.08630000  0.65750000  1.0 0.1044703582
H  H29  1  0.91370000  0.85020000  0.34250000  1.0 0.1044703582
H  H30  1  0.49230000  0.14980000  0.06350000  1.0 0.1044703582
H  H31  1  0.08630000  0.42880000  0.93650000  1.0 0.1044703582
H  H32  1  0.42880000  0.49230000  0.34250000  1.0 0.1044703582
H  H33  1  0.29620000  0.29620000  0.38720000  1.0 0.1078484909
H  H34  1  0.90900000  0.29620000  0.00000000  1.0 0.1078484909
H  H35  1  0.29620000  0.90900000  0.00000000  1.0 0.1078484909
H  H36  1  0.09100000  0.09100000  0.38720000  1.0 0.1078484909
H  H37  1  0.90900000  0.90900000  0.61280000  1.0 0.1078484909
H  H38  1  0.70380000  0.09100000  0.00000000  1.0 0.1078484909
H  H39  1  0.09100000  0.70380000  0.00000000  1.0 0.1078484909
H  H40  1  0.70380000  0.70380000  0.61280000  1.0 0.1078484909
H  H41  1  0.41200000  0.22110000  0.50810000  1.0 0.1078484909
H  H42  1  0.90390000  0.41200000  0.19090000  1.0 0.1078484909
H  H43  1  0.22110000  0.71300000  0.80910000  1.0 0.1078484909
H  H44  1  0.09610000  0.28700000  0.50810000  1.0 0.1078484909
H  H45  1  0.71300000  0.90390000  0.49190000  1.0 0.1078484909
H  H46  1  0.58800000  0.09610000  0.80910000  1.0 0.1078484909
H  H47  1  0.28700000  0.77890000  0.19090000  1.0 0.1078484909
H  H48  1  0.77890000  0.58800000  0.49190000  1.0 0.1078484909
H  H49  1  0.58800000  0.77890000  0.49190000  1.0 0.1078484909
H  H50  1  0.09610000  0.58800000  0.80910000  1.0 0.1078484909
H  H51  1  0.77890000  0.28700000  0.19090000  1.0 0.1078484909
H  H52  1  0.90390000  0.71300000  0.49190000  1.0 0.1078484909
H  H53  1  0.28700000  0.09610000  0.50810000  1.0 0.1078484909
H  H54  1  0.41200000  0.90390000  0.19090000  1.0 0.1078484909
H  H55  1  0.71300000  0.22110000  0.80910000  1.0 0.1078484909
H  H56  1  0.22110000  0.41200000  0.50810000  1.0 0.1078484909
H  H57  1  0.22010000  0.04750000  0.26500000  1.0 0.1044703582
H  H58  1  0.95510000  0.22010000  0.17260000  1.0 0.1078484909
H  H59  1  0.04750000  0.78250000  0.82740000  1.0 0.1044703582
H  H60  1  0.04490000  0.21750000  0.26500000  1.0 0.1044703582
H  H61  1  0.78250000  0.95510000  0.73500000  1.0 0.1078484909
H  H62  1  0.77990000  0.04490000  0.82740000  1.0 0.1078484909
H  H63  1  0.21750000  0.95250000  0.17260000  1.0 0.1044703582
H  H64  1  0.95250000  0.77990000  0.73500000  1.0 0.1078484909
H  H65  1  0.77990000  0.95250000  0.73500000  1.0 0.1078484909
H  H66  1  0.04490000  0.77990000  0.82740000  1.0 0.1044703582
H  H67  1  0.95250000  0.21750000  0.17260000  1.0 0.1078484909
H  H68  1  0.95510000  0.78250000  0.73500000  1.0 0.1078484909
H  H69  1  0.21750000  0.04490000  0.26500000  1.0 0.1044703582
H  H70  1  0.22010000  0.95510000  0.17260000  1.0 0.1044703582
H  H71  1  0.78250000  0.04750000  0.82740000  1.0 0.1078484909
H  H72  1  0.04750000  0.22010000  0.26500000  1.0 0.1044703582
H  H73  1  0.15420000  0.04800000  0.28500000  1.0 0.0913666598
H  H74  1  0.86920000  0.15420000  0.10620000  1.0 0.0913666598
H  H75  1  0.04800000  0.76300000  0.89380000  1.0 0.0913666598
H  H76  1  0.13080000  0.23700000  0.28500000  1.0 0.0913666598
H  H77  1  0.76300000  0.86920000  0.71500000  1.0 0.0913666598
H  H78  1  0.84580000  0.13080000  0.89380000  1.0 0.0913666598
H  H79  1  0.23700000  0.95200000  0.10620000  1.0 0.0913666598
H  H80  1  0.95200000  0.84580000  0.71500000  1.0 0.0913666598
H  H81  1  0.84580000  0.95200000  0.71500000  1.0 0.0913666598
H  H82  1  0.13080000  0.84580000  0.89380000  1.0 0.0913666598
H  H83  1  0.95200000  0.23700000  0.10620000  1.0 0.0913666598
H  H84  1  0.86920000  0.76300000  0.71500000  1.0 0.0913666598
H  H85  1  0.23700000  0.13080000  0.28500000  1.0 0.0913666598
H  H86  1  0.15420000  0.86920000  0.10620000  1.0 0.0913666598
H  H87  1  0.76300000  0.04800000  0.89380000  1.0 0.0913666598
H  H88  1  0.04800000  0.15420000  0.28500000  1.0 0.0913666598
H  H89  1  0.23500000  0.13090000  0.28570000  1.0 0.0913666598
H  H90  1  0.94930000  0.23500000  0.10410000  1.0 0.0913666598
H  H91  1  0.13090000  0.84520000  0.89590000  1.0 0.0913666598
H  H92  1  0.05070000  0.15480000  0.28570000  1.0 0.0913666598
H  H93  1  0.84520000  0.94930000  0.71430000  1.0 0.0913666598
H  H94  1  0.76500000  0.05070000  0.89590000  1.0 0.0913666598
H  H95  1  0.15480000  0.86910000  0.10410000  1.0 0.0913666598
H  H96  1  0.86910000  0.76500000  0.71430000  1.0 0.0913666598
H  H97  1  0.76500000  0.86910000  0.71430000  1.0 0.0913666598
H  H98  1  0.05070000  0.76500000  0.89590000  1.0 0.0913666598
H  H99  1  0.86910000  0.15480000  0.10410000  1.0 0.0913666598
H  H100  1  0.94930000  0.84520000  0.71430000  1.0 0.0913666598
H  H101  1  0.15480000  0.05070000  0.28570000  1.0 0.0913666598
H  H102  1  0.23500000  0.94930000  0.10410000  1.0 0.0913666598
H  H103  1  0.84520000  0.13090000  0.89590000  1.0 0.0913666598
H  H104  1  0.13090000  0.23500000  0.28570000  1.0 0.0913666598
H  H105  1  0.57070000  0.27610000  0.47760000  1.0 0.0501334117
H  H106  1  0.09310000  0.57070000  0.29460000  1.0 0.0501334117
H  H107  1  0.27610000  0.79850000  0.70540000  1.0 0.0501334117
H  H108  1  0.90690000  0.20150000  0.47760000  1.0 0.0501334117
H  H109  1  0.79850000  0.09310000  0.52240000  1.0 0.0501334117
H  H110  1  0.42930000  0.90690000  0.70540000  1.0 0.0501334117
H  H111  1  0.20150000  0.72390000  0.29460000  1.0 0.0501334117
H  H112  1  0.72390000  0.42930000  0.52240000  1.0 0.0501334117
H  H113  1  0.42930000  0.72390000  0.52240000  1.0 0.0501334117
H  H114  1  0.90690000  0.42930000  0.70540000  1.0 0.0501334117
H  H115  1  0.72390000  0.20150000  0.29460000  1.0 0.0501334117
H  H116  1  0.09310000  0.79850000  0.52240000  1.0 0.0501334117
H  H117  1  0.20150000  0.90690000  0.47760000  1.0 0.0501334117
H  H118  1  0.57070000  0.09310000  0.29460000  1.0 0.0501334117
H  H119  1  0.79850000  0.27610000  0.70540000  1.0 0.0501334117
H  H120  1  0.27610000  0.57070000  0.47760000  1.0 0.0501334117
H  H121  1  0.37510000  0.24520000  0.21850000  1.0 0.0586190177
H  H122  1  0.15660000  0.37510000  0.12990000  1.0 0.0586190177
H  H123  1  0.24520000  0.02670000  0.87010000  1.0 0.0586190177
H  H124  1  0.84340000  0.97330000  0.21850000  1.0 0.0586190177
H  H125  1  0.02670000  0.15660000  0.78150000  1.0 0.0586190177
H  H126  1  0.62490000  0.84340000  0.87010000  1.0 0.0586190177
H  H127  1  0.97330000  0.75480000  0.12990000  1.0 0.0586190177
H  H128  1  0.75480000  0.62490000  0.78150000  1.0 0.0586190177
H  H129  1  0.62490000  0.75480000  0.78150000  1.0 0.0586190177
H  H130  1  0.84340000  0.62490000  0.87010000  1.0 0.0586190177
H  H131  1  0.75480000  0.97330000  0.12990000  1.0 0.0586190177
H  H132  1  0.15660000  0.02670000  0.78150000  1.0 0.0586190177
H  H133  1  0.97330000  0.84340000  0.21850000  1.0 0.0586190177
H  H134  1  0.37510000  0.15660000  0.12990000  1.0 0.0586190177
H  H135  1  0.02670000  0.24520000  0.87010000  1.0 0.0586190177
H  H136  1  0.24520000  0.37510000  0.21850000  1.0 0.0586190177
H  H137  1  0.60210000  0.30700000  0.43050000  1.0 0.0442328574
H  H138  1  0.17160000  0.60210000  0.29510000  1.0 0.0442328574
H  H139  1  0.30700000  0.87650000  0.70490000  1.0 0.0442328574
H  H140  1  0.82840000  0.12350000  0.43050000  1.0 0.0442328574
H  H141  1  0.87650000  0.17160000  0.56950000  1.0 0.0442328574
H  H142  1  0.39790000  0.82840000  0.70490000  1.0 0.0442328574
H  H143  1  0.12350000  0.69300000  0.29510000  1.0 0.0442328574
H  H144  1  0.69300000  0.39790000  0.56950000  1.0 0.0442328574
H  H145  1  0.39790000  0.69300000  0.56950000  1.0 0.0442328574
H  H146  1  0.82840000  0.39790000  0.70490000  1.0 0.0442328574
H  H147  1  0.69300000  0.12350000  0.29510000  1.0 0.0442328574
H  H148  1  0.17160000  0.87650000  0.56950000  1.0 0.0442328574
H  H149  1  0.12350000  0.82840000  0.43050000  1.0 0.0442328574
H  H150  1  0.60210000  0.17160000  0.29510000  1.0 0.0442328574
H  H151  1  0.87650000  0.30700000  0.70490000  1.0 0.0442328574
H  H152  1  0.30700000  0.60210000  0.43050000  1.0 0.0442328574
H  H153  1  0.45580000  0.30550000  0.24770000  1.0 0.0586190177
H  H154  1  0.20810000  0.45580000  0.15030000  1.0 0.0586190177
H  H155  1  0.30550000  0.05780000  0.84970000  1.0 0.0586190177
H  H156  1  0.79190000  0.94220000  0.24770000  1.0 0.0586190177
H  H157  1  0.05780000  0.20810000  0.75230000  1.0 0.0586190177
H  H158  1  0.54420000  0.79190000  0.84970000  1.0 0.0586190177
H  H159  1  0.94220000  0.69450000  0.15030000  1.0 0.0586190177
H  H160  1  0.69450000  0.54420000  0.75230000  1.0 0.0586190177
H  H161  1  0.54420000  0.69450000  0.75230000  1.0 0.0586190177
H  H162  1  0.79190000  0.54420000  0.84970000  1.0 0.0586190177
H  H163  1  0.69450000  0.94220000  0.15030000  1.0 0.0586190177
H  H164  1  0.20810000  0.05780000  0.75230000  1.0 0.0586190177
H  H165  1  0.94220000  0.79190000  0.24770000  1.0 0.0586190177
H  H166  1  0.45580000  0.20810000  0.15030000  1.0 0.0586190177
H  H167  1  0.05780000  0.30550000  0.84970000  1.0 0.0586190177
H  H168  1  0.30550000  0.45580000  0.24770000  1.0 0.0586190177
C  C1  1  0.57762000  0.42238000  0.50000000  1.0 -0.0482068058
C  C2  1  0.07762000  0.57762000  0.15524000  1.0 -0.0482068058
C  C3  1  0.42238000  0.92238000  0.84476000  1.0 -0.0482068058
C  C4  1  0.92238000  0.07762000  0.50000000  1.0 -0.0482068058
C  C5  1  0.42238000  0.57762000  0.50000000  1.0 -0.0482068058
C  C6  1  0.92238000  0.42238000  0.84476000  1.0 -0.0482068058
C  C7  1  0.57762000  0.07762000  0.15524000  1.0 -0.0482068058
C  C8  1  0.07762000  0.92238000  0.50000000  1.0 -0.0482068058
C  C9  1  0.42160000  0.15360000  0.26800000  1.0 -0.0172052918
C  C10  1  0.15360000  0.42160000  0.26800000  1.0 -0.0172052918
C  C11  1  0.15360000  0.88560000  0.73200000  1.0 -0.0172052918
C  C12  1  0.84640000  0.11440000  0.26800000  1.0 -0.0172052918
C  C13  1  0.88560000  0.15360000  0.73200000  1.0 -0.0172052918
C  C14  1  0.57840000  0.84640000  0.73200000  1.0 -0.0172052918
C  C15  1  0.11440000  0.84640000  0.26800000  1.0 -0.0172052918
C  C16  1  0.84640000  0.57840000  0.73200000  1.0 -0.0172052918
C  C17  1  0.44350000  0.40820000  0.35010000  1.0 -0.0760975401
C  C18  1  0.09340000  0.44350000  0.03530000  1.0 -0.0760975401
C  C19  1  0.40820000  0.05810000  0.96470000  1.0 -0.0760975401
C  C20  1  0.90660000  0.94190000  0.35010000  1.0 -0.0760975401
C  C21  1  0.05810000  0.09340000  0.64990000  1.0 -0.0760975401
C  C22  1  0.55650000  0.90660000  0.96470000  1.0 -0.0760975401
C  C23  1  0.94190000  0.59180000  0.03530000  1.0 -0.0760975401
C  C24  1  0.59180000  0.55650000  0.64990000  1.0 -0.0760975401
C  C25  1  0.55650000  0.59180000  0.64990000  1.0 -0.0760975401
C  C26  1  0.90660000  0.55650000  0.96470000  1.0 -0.0760975401
C  C27  1  0.59180000  0.94190000  0.03530000  1.0 -0.0760975401
C  C28  1  0.09340000  0.05810000  0.64990000  1.0 -0.0760975401
C  C29  1  0.94190000  0.90660000  0.35010000  1.0 -0.0760975401
C  C30  1  0.44350000  0.09340000  0.03530000  1.0 -0.0760975401
C  C31  1  0.05810000  0.40820000  0.96470000  1.0 -0.0760975401
C  C32  1  0.40820000  0.44350000  0.35010000  1.0 -0.0760975401
C  C33  1  0.33585000  0.33585000  0.37370000  1.0 0.1214350247
C  C34  1  0.96215000  0.33585000  0.00000000  1.0 0.1214350247
C  C35  1  0.33585000  0.96215000  0.00000000  1.0 0.1214350247
C  C36  1  0.03785000  0.03785000  0.37370000  1.0 0.1214350247
C  C37  1  0.96215000  0.96215000  0.62630000  1.0 0.1214350247
C  C38  1  0.66415000  0.03785000  0.00000000  1.0 0.1214350247
C  C39  1  0.03785000  0.66415000  0.00000000  1.0 0.1214350247
C  C40  1  0.66415000  0.66415000  0.62630000  1.0 0.1214350247
C  C41  1  0.36000000  0.17910000  0.47010000  1.0 -0.0625794498
C  C42  1  0.88990000  0.36000000  0.18090000  1.0 -0.0625794498
C  C43  1  0.17910000  0.70900000  0.81910000  1.0 -0.0625794498
C  C44  1  0.11010000  0.29100000  0.47010000  1.0 -0.0625794498
C  C45  1  0.70900000  0.88990000  0.52990000  1.0 -0.0625794498
C  C46  1  0.64000000  0.11010000  0.81910000  1.0 -0.0625794498
C  C47  1  0.29100000  0.82090000  0.18090000  1.0 -0.0625794498
C  C48  1  0.82090000  0.64000000  0.52990000  1.0 -0.0625794498
C  C49  1  0.64000000  0.82090000  0.52990000  1.0 -0.0625794498
C  C50  1  0.11010000  0.64000000  0.81910000  1.0 -0.0625794498
C  C51  1  0.82090000  0.29100000  0.18090000  1.0 -0.0625794498
C  C52  1  0.88990000  0.70900000  0.52990000  1.0 -0.0625794498
C  C53  1  0.29100000  0.11010000  0.47010000  1.0 -0.0625794498
C  C54  1  0.36000000  0.88990000  0.18090000  1.0 -0.0625794498
C  C55  1  0.70900000  0.17910000  0.81910000  1.0 -0.0625794498
C  C56  1  0.17910000  0.36000000  0.47010000  1.0 -0.0625794498
C  C57  1  0.26190000  0.10700000  0.36890000  1.0 0.2960720369
C  C58  1  0.89300000  0.26190000  0.15490000  1.0 0.2960720369
C  C59  1  0.10700000  0.73810000  0.84510000  1.0 0.2960720369
C  C60  1  0.10700000  0.26190000  0.36890000  1.0 0.2960720369
C  C61  1  0.73810000  0.89300000  0.63110000  1.0 0.2960720369
C  C62  1  0.73810000  0.10700000  0.84510000  1.0 0.2960720369
C  C63  1  0.26190000  0.89300000  0.15490000  1.0 0.2960720369
C  C64  1  0.89300000  0.73810000  0.63110000  1.0 0.2960720369
C  C65  1  0.21340000  0.08100000  0.29440000  1.0 -0.4976015604
C  C66  1  0.91900000  0.21340000  0.13240000  1.0 -0.4976015604
C  C67  1  0.08100000  0.78660000  0.86760000  1.0 -0.4976015604
C  C68  1  0.08100000  0.21340000  0.29440000  1.0 -0.4976015604
C  C69  1  0.78660000  0.91900000  0.70560000  1.0 -0.4976015604
C  C70  1  0.78660000  0.08100000  0.86760000  1.0 -0.4976015604
C  C71  1  0.21340000  0.91900000  0.13240000  1.0 -0.4976015604
C  C72  1  0.91900000  0.78660000  0.70560000  1.0 -0.4976015604
C  C73  1  0.58750000  0.32830000  0.48160000  1.0 -0.0172052918
C  C74  1  0.10590000  0.58750000  0.25920000  1.0 -0.0172052918
C  C75  1  0.32830000  0.84670000  0.74080000  1.0 -0.0172052918
C  C76  1  0.89410000  0.15330000  0.48160000  1.0 -0.0091795031
C  C77  1  0.84670000  0.10590000  0.51840000  1.0 -0.0172052918
C  C78  1  0.41250000  0.89410000  0.74080000  1.0 -0.0172052918
C  C79  1  0.15330000  0.67170000  0.25920000  1.0 -0.0172052918
C  C80  1  0.67170000  0.41250000  0.51840000  1.0 -0.0172052918
C  C81  1  0.41250000  0.67170000  0.51840000  1.0 -0.0172052918
C  C82  1  0.89410000  0.41250000  0.74080000  1.0 -0.0172052918
C  C83  1  0.67170000  0.15330000  0.25920000  1.0 -0.0091795031
C  C84  1  0.10590000  0.84670000  0.51840000  1.0 -0.0172052918
C  C85  1  0.15330000  0.89410000  0.48160000  1.0 -0.0091795031
C  C86  1  0.58750000  0.10590000  0.25920000  1.0 -0.0091795031
C  C87  1  0.84670000  0.32830000  0.74080000  1.0 -0.0172052918
C  C88  1  0.32830000  0.58750000  0.48160000  1.0 -0.0172052918
C  C89  1  0.39190000  0.21540000  0.22530000  1.0 -0.0351053095
C  C90  1  0.16660000  0.39190000  0.17650000  1.0 -0.0351053095
C  C91  1  0.21540000  0.99010000  0.82350000  1.0 -0.0351053095
C  C92  1  0.83340000  0.00990000  0.22530000  1.0 -0.0346076964
C  C93  1  0.99010000  0.16660000  0.77470000  1.0 -0.0351053095
C  C94  1  0.60810000  0.83340000  0.82350000  1.0 -0.0346076964
C  C95  1  0.00990000  0.78460000  0.17650000  1.0 -0.0346076964
C  C96  1  0.78460000  0.60810000  0.77470000  1.0 -0.0346076964
C  C97  1  0.60810000  0.78460000  0.77470000  1.0 -0.0346076964
C  C98  1  0.83340000  0.60810000  0.82350000  1.0 -0.0346076964
C  C99  1  0.78460000  0.00990000  0.17650000  1.0 -0.0346076964
C  C100  1  0.16660000  0.99010000  0.77470000  1.0 -0.0351053095
C  C101  1  0.00990000  0.83340000  0.22530000  1.0 -0.0351053095
C  C102  1  0.39190000  0.16660000  0.17650000  1.0 -0.0351053095
C  C103  1  0.99010000  0.21540000  0.82350000  1.0 -0.0351053095
C  C104  1  0.21540000  0.39190000  0.22530000  1.0 -0.0351053095
C  C105  1  0.59910000  0.34000000  0.46250000  1.0 -0.0091795031
C  C106  1  0.13660000  0.59910000  0.25910000  1.0 -0.0091795031
C  C107  1  0.34000000  0.87750000  0.74090000  1.0 -0.0091795031
C  C108  1  0.86340000  0.12250000  0.46250000  1.0 -0.0091795031
C  C109  1  0.87750000  0.13660000  0.53750000  1.0 -0.0091795031
C  C110  1  0.40090000  0.86340000  0.74090000  1.0 -0.0091795031
C  C111  1  0.12250000  0.66000000  0.25910000  1.0 -0.0091795031
C  C112  1  0.66000000  0.40090000  0.53750000  1.0 -0.0091795031
C  C113  1  0.40090000  0.66000000  0.53750000  1.0 -0.0091795031
C  C114  1  0.86340000  0.40090000  0.74090000  1.0 -0.0091795031
C  C115  1  0.66000000  0.12250000  0.25910000  1.0 -0.0091795031
C  C116  1  0.13660000  0.87750000  0.53750000  1.0 -0.0091795031
C  C117  1  0.12250000  0.86340000  0.46250000  1.0 -0.0091795031
C  C118  1  0.59910000  0.13660000  0.25910000  1.0 -0.0091795031
C  C119  1  0.87750000  0.34000000  0.74090000  1.0 -0.0091795031
C  C120  1  0.34000000  0.59910000  0.46250000  1.0 -0.0091795031
C  C121  1  0.44390000  0.25530000  0.24420000  1.0 -0.0091795031
C  C122  1  0.19970000  0.44390000  0.18860000  1.0 -0.0091795031
C  C123  1  0.25530000  0.01110000  0.81140000  1.0 -0.0091795031
C  C124  1  0.80030000  0.98890000  0.24420000  1.0 -0.0091795031
C  C125  1  0.01110000  0.19970000  0.75580000  1.0 -0.0091795031
C  C126  1  0.55610000  0.80030000  0.81140000  1.0 -0.0091795031
C  C127  1  0.98890000  0.74470000  0.18860000  1.0 -0.0091795031
C  C128  1  0.74470000  0.55610000  0.75580000  1.0 -0.0091795031
C  C129  1  0.55610000  0.74470000  0.75580000  1.0 -0.0091795031
C  C130  1  0.80030000  0.55610000  0.81140000  1.0 -0.0091795031
C  C131  1  0.74470000  0.98890000  0.18860000  1.0 -0.0091795031
C  C132  1  0.19970000  0.01110000  0.75580000  1.0 -0.0091795031
C  C133  1  0.98890000  0.80030000  0.24420000  1.0 -0.0091795031
C  C134  1  0.44390000  0.19970000  0.18860000  1.0 -0.0091795031
C  C135  1  0.01110000  0.25530000  0.81140000  1.0 -0.0091795031
C  C136  1  0.25530000  0.44390000  0.24420000  1.0 -0.0091795031
N  N1  1  0.53837000  0.34597000  0.45392000  1.0 -0.2558797496
N  N2  1  0.08445000  0.53837000  0.19240000  1.0 -0.2558797496
N  N3  1  0.34597000  0.89205000  0.80760000  1.0 -0.2558797496
N  N4  1  0.91555000  0.10795000  0.45392000  1.0 -0.2558797496
N  N5  1  0.89205000  0.08445000  0.54608000  1.0 -0.2558797496
N  N6  1  0.46163000  0.91555000  0.80760000  1.0 -0.2558797496
N  N7  1  0.10795000  0.65403000  0.19240000  1.0 -0.2558797496
N  N8  1  0.65403000  0.46163000  0.54608000  1.0 -0.2558797496
N  N9  1  0.46163000  0.65403000  0.54608000  1.0 -0.2558797496
N  N10  1  0.91555000  0.46163000  0.80760000  1.0 -0.2558797496
N  N11  1  0.65403000  0.10795000  0.19240000  1.0 -0.2558797496
N  N12  1  0.08445000  0.89205000  0.54608000  1.0 -0.2558797496
N  N13  1  0.10795000  0.91555000  0.45392000  1.0 -0.2558797496
N  N14  1  0.53837000  0.08445000  0.19240000  1.0 -0.2558797496
N  N15  1  0.89205000  0.34597000  0.80760000  1.0 -0.2558797496
N  N16  1  0.34597000  0.53837000  0.45392000  1.0 -0.2558797496
N  N17  1  0.42183000  0.21414000  0.28897000  1.0 -0.2528117365
N  N18  1  0.13286000  0.42183000  0.20769000  1.0 -0.2528117365
N  N19  1  0.21414000  0.92517000  0.79231000  1.0 -0.2528117365
N  N20  1  0.86714000  0.07483000  0.28897000  1.0 -0.2528117365
N  N21  1  0.92517000  0.13286000  0.71103000  1.0 -0.2528117365
N  N22  1  0.57817000  0.86714000  0.79231000  1.0 -0.2528117365
N  N23  1  0.07483000  0.78586000  0.20769000  1.0 -0.2528117365
N  N24  1  0.78586000  0.57817000  0.71103000  1.0 -0.2528117365
N  N25  1  0.57817000  0.78586000  0.71103000  1.0 -0.2528117365
N  N26  1  0.86714000  0.57817000  0.79231000  1.0 -0.2528117365
N  N27  1  0.78586000  0.07483000  0.20769000  1.0 -0.2528117365
N  N28  1  0.13286000  0.92517000  0.71103000  1.0 -0.2528117365
N  N29  1  0.07483000  0.86714000  0.28897000  1.0 -0.2528117365
N  N30  1  0.42183000  0.13286000  0.20769000  1.0 -0.2528117365
N  N31  1  0.92517000  0.21414000  0.79231000  1.0 -0.2528117365
N  N32  1  0.21414000  0.42183000  0.28897000  1.0 -0.2528117365
N  N33  1  0.39544000  0.33777000  0.36321000  1.0 -0.3038039497
N  N34  1  0.03223000  0.39544000  0.05767000  1.0 -0.3038039497
N  N35  1  0.33777000  0.97456000  0.94233000  1.0 -0.3038039497
N  N36  1  0.96777000  0.02544000  0.36321000  1.0 -0.3038039497
N  N37  1  0.97456000  0.03223000  0.63679000  1.0 -0.3038039497
N  N38  1  0.60456000  0.96777000  0.94233000  1.0 -0.3038039497
N  N39  1  0.02544000  0.66223000  0.05767000  1.0 -0.3038039497
N  N40  1  0.66223000  0.60456000  0.63679000  1.0 -0.3038039497
N  N41  1  0.60456000  0.66223000  0.63679000  1.0 -0.3038039497
N  N42  1  0.96777000  0.60456000  0.94233000  1.0 -0.3038039497
N  N43  1  0.66223000  0.02544000  0.05767000  1.0 -0.3038039497
N  N44  1  0.03223000  0.97456000  0.63679000  1.0 -0.3038039497
N  N45  1  0.02544000  0.96777000  0.36321000  1.0 -0.3038039497
N  N46  1  0.39544000  0.03223000  0.05767000  1.0 -0.3038039497
N  N47  1  0.97456000  0.33777000  0.94233000  1.0 -0.3038039497
N  N48  1  0.33777000  0.39544000  0.36321000  1.0 -0.3038039497
N  N49  1  0.34306000  0.17880000  0.40606000  1.0 -0.3479966419
N  N50  1  0.93700000  0.34306000  0.16426000  1.0 -0.3479966419
N  N51  1  0.17880000  0.77274000  0.83574000  1.0 -0.3479966419
N  N52  1  0.06300000  0.22726000  0.40606000  1.0 -0.3479966419
N  N53  1  0.77274000  0.93700000  0.59394000  1.0 -0.3479966419
N  N54  1  0.65694000  0.06300000  0.83574000  1.0 -0.3479966419
N  N55  1  0.22726000  0.82120000  0.16426000  1.0 -0.3479966419
N  N56  1  0.82120000  0.65694000  0.59394000  1.0 -0.3479966419
N  N57  1  0.65694000  0.82120000  0.59394000  1.0 -0.3479966419
N  N58  1  0.06300000  0.65694000  0.83574000  1.0 -0.3479966419
N  N59  1  0.82120000  0.22726000  0.16426000  1.0 -0.3479966419
N  N60  1  0.93700000  0.77274000  0.59394000  1.0 -0.3479966419
N  N61  1  0.22726000  0.06300000  0.40606000  1.0 -0.3479966419
N  N62  1  0.34306000  0.93700000  0.16426000  1.0 -0.3479966419
N  N63  1  0.77274000  0.17880000  0.83574000  1.0 -0.3479966419
N  N64  1  0.17880000  0.34306000  0.40606000  1.0 -0.3479966419
