# DDEC6 charges by PACMAN v1.1 (https://github.com/mtap-research/PACMAN-charge/)
data_GITTOT_FSR_pacman
_symmetry_space_group_name_H-M   'P 1'
_cell_length_a   14.68680000
_cell_length_b   14.68680000
_cell_length_c   14.68680000
_cell_angle_alpha   109.47100000
_cell_angle_beta   109.47100000
_cell_angle_gamma   109.47100000
_symmetry_Int_Tables_number   1
_chemical_formula_structural   CoH16(C2N)4
_chemical_formula_sum   'Co6 H96 C48 N24'
_cell_volume   2438.72707201
_cell_formula_units_Z   6
loop_
 _symmetry_equiv_pos_site_id
 _symmetry_equiv_pos_as_xyz
  1  'x, y, z'
loop_
 _atom_site_type_symbol
 _atom_site_label
 _atom_site_symmetry_multiplicity
 _atom_site_fract_x
 _atom_site_fract_y
 _atom_site_fract_z
 _atom_site_occupancy
 _atom_site_charge
Co  Co1  1  0.25000000  0.75000000  0.50000000  1.0 0.5522888733
Co  Co2  1  0.75000000  0.25000000  0.50000000  1.0 0.5522888733
Co  Co3  1  0.50000000  0.25000000  0.75000000  1.0 0.5522888733
Co  Co4  1  0.50000000  0.75000000  0.25000000  1.0 0.5522888733
Co  Co5  1  0.75000000  0.50000000  0.25000000  1.0 0.5522888733
Co  Co6  1  0.25000000  0.50000000  0.75000000  1.0 0.5522888733
H  H1  1  0.41910000  0.89920000  0.76670000  1.0 0.1242263543
H  H2  1  0.13250000  0.65240000  0.23330000  1.0 0.1242263543
H  H3  1  0.86750000  0.10080000  0.51990000  1.0 0.1242263543
H  H4  1  0.58090000  0.34760000  0.48010000  1.0 0.1242263543
H  H5  1  0.76670000  0.41910000  0.89920000  1.0 0.1242263543
H  H6  1  0.23330000  0.13250000  0.65240000  1.0 0.1242263543
H  H7  1  0.51990000  0.86750000  0.10080000  1.0 0.1242263543
H  H8  1  0.48010000  0.58090000  0.34760000  1.0 0.1242263543
H  H9  1  0.89920000  0.76670000  0.41910000  1.0 0.1242263543
H  H10  1  0.65240000  0.23330000  0.13250000  1.0 0.1242263543
H  H11  1  0.10080000  0.51990000  0.86750000  1.0 0.1242263543
H  H12  1  0.34760000  0.48010000  0.58090000  1.0 0.1242263543
H  H13  1  0.89920000  0.41910000  0.76670000  1.0 0.1242263543
H  H14  1  0.65240000  0.13250000  0.23330000  1.0 0.1242263543
H  H15  1  0.10080000  0.86750000  0.51990000  1.0 0.1242263543
H  H16  1  0.34760000  0.58090000  0.48010000  1.0 0.1242263543
H  H17  1  0.41910000  0.76670000  0.89920000  1.0 0.1242263543
H  H18  1  0.13250000  0.23330000  0.65240000  1.0 0.1242263543
H  H19  1  0.86750000  0.51990000  0.10080000  1.0 0.1242263543
H  H20  1  0.58090000  0.48010000  0.34760000  1.0 0.1242263543
H  H21  1  0.76670000  0.89920000  0.41910000  1.0 0.1242263543
H  H22  1  0.23330000  0.65240000  0.13250000  1.0 0.1242263543
H  H23  1  0.51990000  0.10080000  0.86750000  1.0 0.1242263543
H  H24  1  0.48010000  0.34760000  0.58090000  1.0 0.1242263543
H  H25  1  0.26170000  0.01780000  0.50390000  1.0 0.0875984845
H  H26  1  0.51390000  0.75780000  0.49610000  1.0 0.0875984845
H  H27  1  0.48610000  0.98220000  0.24390000  1.0 0.0875984845
H  H28  1  0.73830000  0.24220000  0.75610000  1.0 0.0875984845
H  H29  1  0.50390000  0.26170000  0.01780000  1.0 0.0875984845
H  H30  1  0.49610000  0.51390000  0.75780000  1.0 0.0875984845
H  H31  1  0.24390000  0.48610000  0.98220000  1.0 0.0875984845
H  H32  1  0.75610000  0.73830000  0.24220000  1.0 0.0875984845
H  H33  1  0.01780000  0.50390000  0.26170000  1.0 0.0875984845
H  H34  1  0.75780000  0.49610000  0.51390000  1.0 0.0875984845
H  H35  1  0.98220000  0.24390000  0.48610000  1.0 0.0875984845
H  H36  1  0.24220000  0.75610000  0.73830000  1.0 0.0875984845
H  H37  1  0.01780000  0.26170000  0.50390000  1.0 0.0875984845
H  H38  1  0.75780000  0.51390000  0.49610000  1.0 0.0875984845
H  H39  1  0.98220000  0.48610000  0.24390000  1.0 0.0875984845
H  H40  1  0.24220000  0.73830000  0.75610000  1.0 0.0875984845
H  H41  1  0.26170000  0.50390000  0.01780000  1.0 0.0875984845
H  H42  1  0.51390000  0.49610000  0.75780000  1.0 0.0875984845
H  H43  1  0.48610000  0.24390000  0.98220000  1.0 0.0875984845
H  H44  1  0.73830000  0.75610000  0.24220000  1.0 0.0875984845
H  H45  1  0.50390000  0.01780000  0.26170000  1.0 0.0875984845
H  H46  1  0.49610000  0.75780000  0.51390000  1.0 0.0875984845
H  H47  1  0.24390000  0.98220000  0.48610000  1.0 0.0875984845
H  H48  1  0.75610000  0.24220000  0.73830000  1.0 0.0875984845
H  H49  1  0.29070000  0.92610000  0.44720000  1.0 0.0875984845
H  H50  1  0.47890000  0.84350000  0.55280000  1.0 0.0875984845
H  H51  1  0.52110000  0.07390000  0.36460000  1.0 0.0875984845
H  H52  1  0.70930000  0.15650000  0.63540000  1.0 0.0875984845
H  H53  1  0.44720000  0.29070000  0.92610000  1.0 0.0875984845
H  H54  1  0.55280000  0.47890000  0.84350000  1.0 0.0875984845
H  H55  1  0.36460000  0.52110000  0.07390000  1.0 0.0875984845
H  H56  1  0.63540000  0.70930000  0.15650000  1.0 0.0875984845
H  H57  1  0.92610000  0.44720000  0.29070000  1.0 0.0875984845
H  H58  1  0.84350000  0.55280000  0.47890000  1.0 0.0875984845
H  H59  1  0.07390000  0.36460000  0.52110000  1.0 0.0875984845
H  H60  1  0.15650000  0.63540000  0.70930000  1.0 0.0875984845
H  H61  1  0.92610000  0.29070000  0.44720000  1.0 0.0875984845
H  H62  1  0.84350000  0.47890000  0.55280000  1.0 0.0875984845
H  H63  1  0.07390000  0.52110000  0.36460000  1.0 0.0875984845
H  H64  1  0.15650000  0.70930000  0.63540000  1.0 0.0875984845
H  H65  1  0.29070000  0.44720000  0.92610000  1.0 0.0875984845
H  H66  1  0.47890000  0.55280000  0.84350000  1.0 0.0875984845
H  H67  1  0.52110000  0.36460000  0.07390000  1.0 0.0875984845
H  H68  1  0.70930000  0.63540000  0.15650000  1.0 0.0875984845
H  H69  1  0.44720000  0.92610000  0.29070000  1.0 0.0875984845
H  H70  1  0.55280000  0.84350000  0.47890000  1.0 0.0875984845
H  H71  1  0.36460000  0.07390000  0.52110000  1.0 0.0875984845
H  H72  1  0.63540000  0.15650000  0.70930000  1.0 0.0875984845
H  H73  1  0.37950000  0.05590000  0.50860000  1.0 0.0875984845
H  H74  1  0.54730000  0.87090000  0.49140000  1.0 0.0875984845
H  H75  1  0.45270000  0.94410000  0.32360000  1.0 0.0875984845
H  H76  1  0.62050000  0.12910000  0.67640000  1.0 0.0875984845
H  H77  1  0.50860000  0.37950000  0.05590000  1.0 0.0875984845
H  H78  1  0.49140000  0.54730000  0.87090000  1.0 0.0875984845
H  H79  1  0.32360000  0.45270000  0.94410000  1.0 0.0875984845
H  H80  1  0.67640000  0.62050000  0.12910000  1.0 0.0875984845
H  H81  1  0.05590000  0.50860000  0.37950000  1.0 0.0875984845
H  H82  1  0.87090000  0.49140000  0.54730000  1.0 0.0875984845
H  H83  1  0.94410000  0.32360000  0.45270000  1.0 0.0875984845
H  H84  1  0.12910000  0.67640000  0.62050000  1.0 0.0875984845
H  H85  1  0.05590000  0.37950000  0.50860000  1.0 0.0875984845
H  H86  1  0.87090000  0.54730000  0.49140000  1.0 0.0875984845
H  H87  1  0.94410000  0.45270000  0.32360000  1.0 0.0875984845
H  H88  1  0.12910000  0.62050000  0.67640000  1.0 0.0875984845
H  H89  1  0.37950000  0.50860000  0.05590000  1.0 0.0875984845
H  H90  1  0.54730000  0.49140000  0.87090000  1.0 0.0875984845
H  H91  1  0.45270000  0.32360000  0.94410000  1.0 0.0875984845
H  H92  1  0.62050000  0.67640000  0.12910000  1.0 0.0875984845
H  H93  1  0.50860000  0.05590000  0.37950000  1.0 0.0875984845
H  H94  1  0.49140000  0.87090000  0.54730000  1.0 0.0875984845
H  H95  1  0.32360000  0.94410000  0.45270000  1.0 0.0875984845
H  H96  1  0.67640000  0.12910000  0.62050000  1.0 0.0875984845
C  C1  1  0.37000000  0.00000000  0.61680000  1.0 0.2900095814
C  C2  1  0.38320000  0.75320000  0.38320000  1.0 0.2900095814
C  C3  1  0.61680000  0.00000000  0.37000000  1.0 0.2900095814
C  C4  1  0.63000000  0.24680000  0.63000000  1.0 0.2900095814
C  C5  1  0.61680000  0.37000000  0.00000000  1.0 0.2900095814
C  C6  1  0.38320000  0.38320000  0.75320000  1.0 0.2900095814
C  C7  1  0.37000000  0.61680000  0.00000000  1.0 0.2900095814
C  C8  1  0.63000000  0.63000000  0.24680000  1.0 0.2900095814
C  C9  1  0.00000000  0.61680000  0.37000000  1.0 0.2900095814
C  C10  1  0.75320000  0.38320000  0.38320000  1.0 0.2900095814
C  C11  1  0.00000000  0.37000000  0.61680000  1.0 0.2900095814
C  C12  1  0.24680000  0.63000000  0.63000000  1.0 0.2900095814
C  C13  1  0.32140000  0.00000000  0.51000000  1.0 -0.4552147952
C  C14  1  0.49000000  0.81140000  0.49000000  1.0 -0.4552147952
C  C15  1  0.51000000  0.00000000  0.32140000  1.0 -0.4552147952
C  C16  1  0.67860000  0.18860000  0.67860000  1.0 -0.4552147952
C  C17  1  0.51000000  0.32140000  0.00000000  1.0 -0.4552147952
C  C18  1  0.49000000  0.49000000  0.81140000  1.0 -0.4552147952
C  C19  1  0.32140000  0.51000000  0.00000000  1.0 -0.4552147952
C  C20  1  0.67860000  0.67860000  0.18860000  1.0 -0.4552147952
C  C21  1  0.00000000  0.51000000  0.32140000  1.0 -0.4552147952
C  C22  1  0.81140000  0.49000000  0.49000000  1.0 -0.4552147952
C  C23  1  0.00000000  0.32140000  0.51000000  1.0 -0.4552147952
C  C24  1  0.18860000  0.67860000  0.67860000  1.0 -0.4552147952
C  C25  1  0.41450000  0.94520000  0.73470000  1.0 -0.0758453922
C  C26  1  0.21050000  0.67980000  0.26530000  1.0 -0.0758453922
C  C27  1  0.78950000  0.05480000  0.46930000  1.0 -0.0758453922
C  C28  1  0.58550000  0.32020000  0.53070000  1.0 -0.0758453922
C  C29  1  0.73470000  0.41450000  0.94520000  1.0 -0.0758453922
C  C30  1  0.26530000  0.21050000  0.67980000  1.0 -0.0758453922
C  C31  1  0.46930000  0.78950000  0.05480000  1.0 -0.0758453922
C  C32  1  0.53070000  0.58550000  0.32020000  1.0 -0.0758453922
C  C33  1  0.94520000  0.73470000  0.41450000  1.0 -0.0758453922
C  C34  1  0.67980000  0.26530000  0.21050000  1.0 -0.0758453922
C  C35  1  0.05480000  0.46930000  0.78950000  1.0 -0.0758453922
C  C36  1  0.32020000  0.53070000  0.58550000  1.0 -0.0758453922
C  C37  1  0.94520000  0.41450000  0.73470000  1.0 -0.0758453922
C  C38  1  0.67980000  0.21050000  0.26530000  1.0 -0.0758453922
C  C39  1  0.05480000  0.78950000  0.46930000  1.0 -0.0758453922
C  C40  1  0.32020000  0.58550000  0.53070000  1.0 -0.0758453922
C  C41  1  0.41450000  0.73470000  0.94520000  1.0 -0.0758453922
C  C42  1  0.21050000  0.26530000  0.67980000  1.0 -0.0758453922
C  C43  1  0.78950000  0.46930000  0.05480000  1.0 -0.0758453922
C  C44  1  0.58550000  0.53070000  0.32020000  1.0 -0.0758453922
C  C45  1  0.73470000  0.94520000  0.41450000  1.0 -0.0758453922
C  C46  1  0.26530000  0.67980000  0.21050000  1.0 -0.0758453922
C  C47  1  0.46930000  0.05480000  0.78950000  1.0 -0.0758453922
C  C48  1  0.53070000  0.32020000  0.58550000  1.0 -0.0758453922
N  N1  1  0.34810000  0.90690000  0.62160000  1.0 -0.366646027
N  N2  1  0.28530000  0.72650000  0.37840000  1.0 -0.366646027
N  N3  1  0.71470000  0.09310000  0.44120000  1.0 -0.366646027
N  N4  1  0.65190000  0.27350000  0.55880000  1.0 -0.366646027
N  N5  1  0.62160000  0.34810000  0.90690000  1.0 -0.366646027
N  N6  1  0.37840000  0.28530000  0.72650000  1.0 -0.366646027
N  N7  1  0.44120000  0.71470000  0.09310000  1.0 -0.366646027
N  N8  1  0.55880000  0.65190000  0.27350000  1.0 -0.366646027
N  N9  1  0.90690000  0.62160000  0.34810000  1.0 -0.366646027
N  N10  1  0.72650000  0.37840000  0.28530000  1.0 -0.366646027
N  N11  1  0.09310000  0.44120000  0.71470000  1.0 -0.366646027
N  N12  1  0.27350000  0.55880000  0.65190000  1.0 -0.366646027
N  N13  1  0.90690000  0.34810000  0.62160000  1.0 -0.366646027
N  N14  1  0.72650000  0.28530000  0.37840000  1.0 -0.366646027
N  N15  1  0.09310000  0.71470000  0.44120000  1.0 -0.366646027
N  N16  1  0.27350000  0.65190000  0.55880000  1.0 -0.366646027
N  N17  1  0.34810000  0.62160000  0.90690000  1.0 -0.366646027
N  N18  1  0.28530000  0.37840000  0.72650000  1.0 -0.366646027
N  N19  1  0.71470000  0.44120000  0.09310000  1.0 -0.366646027
N  N20  1  0.65190000  0.55880000  0.27350000  1.0 -0.366646027
N  N21  1  0.62160000  0.90690000  0.34810000  1.0 -0.366646027
N  N22  1  0.37840000  0.72650000  0.28530000  1.0 -0.366646027
N  N23  1  0.44120000  0.09310000  0.71470000  1.0 -0.366646027
N  N24  1  0.55880000  0.27350000  0.65190000  1.0 -0.366646027
