# DDEC6 charges by PACMAN v1.1 (https://github.com/mtap-research/PACMAN-charge/)
data_GIWBEU_FSR_pacman
_symmetry_space_group_name_H-M   'P 1'
_cell_length_a   16.61660000
_cell_length_b   16.61660000
_cell_length_c   33.62000000
_cell_angle_alpha   67.37500000
_cell_angle_beta   112.62500000
_cell_angle_gamma   133.63700000
_symmetry_Int_Tables_number   1
_chemical_formula_structural   GaAgH30(C14N3)3
_chemical_formula_sum   'Ga4 Ag4 H120 C168 N36'
_cell_volume   6101.67599295
_cell_formula_units_Z   4
loop_
 _symmetry_equiv_pos_site_id
 _symmetry_equiv_pos_as_xyz
  1  'x, y, z'
loop_
 _atom_site_type_symbol
 _atom_site_label
 _atom_site_symmetry_multiplicity
 _atom_site_fract_x
 _atom_site_fract_y
 _atom_site_fract_z
 _atom_site_occupancy
 _atom_site_charge
Ga  Ga1  1  0.97902000  0.10446000  0.08658000  1.0 0.9888595281
Ga  Ga2  1  0.89554000  0.02098000  0.58658000  1.0 0.9888595281
Ga  Ga3  1  0.10446000  0.97902000  0.41342000  1.0 0.9888595281
Ga  Ga4  1  0.02098000  0.89554000  0.91342000  1.0 0.9888595281
Ag  Ag1  1  0.55116000  0.01396000  0.26818000  1.0 0.2034092372
Ag  Ag2  1  0.98604000  0.44884000  0.76818000  1.0 0.2034092372
Ag  Ag3  1  0.01396000  0.55116000  0.23182000  1.0 0.2034092372
Ag  Ag4  1  0.44884000  0.98604000  0.73182000  1.0 0.2034092372
H  H1  1  0.79020000  0.84680000  0.12670000  1.0 0.1102683629
H  H2  1  0.15320000  0.20980000  0.62670000  1.0 0.1102683629
H  H3  1  0.82260000  0.72280000  0.18760000  1.0 0.1102683629
H  H4  1  0.27720000  0.17740000  0.68760000  1.0 0.1102683629
H  H5  1  0.02580000  0.81740000  0.19950000  1.0 0.1102683629
H  H6  1  0.18260000  0.97420000  0.69950000  1.0 0.1102683629
H  H7  1  0.37970000  0.22510000  0.13100000  1.0 0.1189646082
H  H8  1  0.77490000  0.62030000  0.63100000  1.0 0.1189646082
H  H9  1  0.39720000  0.38120000  0.07140000  1.0 0.1189646082
H  H10  1  0.61880000  0.60280000  0.57140000  1.0 0.1189646082
H  H11  1  0.20410000  0.32930000  0.04830000  1.0 0.1002269145
H  H12  1  0.67070000  0.79590000  0.54830000  1.0 0.1002269145
H  H13  1  0.18170000  0.89190000  0.15570000  1.0 0.1189646082
H  H14  1  0.10810000  0.81830000  0.65570000  1.0 0.1189646082
H  H15  1  0.30300000  0.86320000  0.20540000  1.0 0.0907445936
H  H16  1  0.13680000  0.69700000  0.70540000  1.0 0.0907445936
H  H17  1  0.43550000  0.10610000  0.26360000  1.0 0.1002269145
H  H18  1  0.89390000  0.56450000  0.76360000  1.0 0.1002269145
H  H19  1  0.31410000  0.13810000  0.21550000  1.0 0.1304595093
H  H20  1  0.86190000  0.68590000  0.71550000  1.0 0.1304595093
H  H21  1  0.73360000  0.96400000  0.02950000  1.0 0.1002269145
H  H22  1  0.03600000  0.26640000  0.52950000  1.0 0.1002269145
H  H23  1  0.55360000  0.88200000  0.04550000  1.0 0.1189646082
H  H24  1  0.11800000  0.44640000  0.54550000  1.0 0.1189646082
H  H25  1  0.60270000  0.95950000  0.10900000  1.0 0.1189646082
H  H26  1  0.04050000  0.39730000  0.60900000  1.0 0.1189646082
H  H27  1  0.99900000  0.20700000  0.21950000  1.0 0.1102683629
H  H28  1  0.79300000  0.00100000  0.71950000  1.0 0.1102683629
H  H29  1  0.19770000  0.29950000  0.22120000  1.0 0.1102683629
H  H30  1  0.70050000  0.80230000  0.72120000  1.0 0.1102683629
H  H31  1  0.19450000  0.25430000  0.15670000  1.0 0.1002269145
H  H32  1  0.74570000  0.80550000  0.65670000  1.0 0.1002269145
H  H33  1  0.84610000  0.23790000  0.16410000  1.0 0.1389583323
H  H34  1  0.76210000  0.15390000  0.66410000  1.0 0.1389583323
H  H35  1  0.73930000  0.20550000  0.20770000  1.0 0.0907445936
H  H36  1  0.79450000  0.26070000  0.70770000  1.0 0.0907445936
H  H37  1  0.59220000  0.88420000  0.23960000  1.0 0.1002269145
H  H38  1  0.11580000  0.40780000  0.73960000  1.0 0.1002269145
H  H39  1  0.68850000  0.90150000  0.20010000  1.0 0.1389583323
H  H40  1  0.09850000  0.31150000  0.70010000  1.0 0.1389583323
H  H41  1  0.12030000  0.12810000  0.55610000  1.0 0.1002269145
H  H42  1  0.87190000  0.87970000  0.05610000  1.0 0.1002269145
H  H43  1  0.14260000  0.17760000  0.47880000  1.0 0.1189646082
H  H44  1  0.82240000  0.85740000  0.97880000  1.0 0.1189646082
H  H45  1  0.96460000  0.12740000  0.42990000  1.0 0.1102683629
H  H46  1  0.87260000  0.03540000  0.92990000  1.0 0.1102683629
H  H47  1  0.56900000  0.95800000  0.45830000  1.0 0.1189646082
H  H48  1  0.04200000  0.43100000  0.95830000  1.0 0.1189646082
H  H49  1  0.50150000  0.91090000  0.52690000  1.0 0.1102683629
H  H50  1  0.08910000  0.49850000  0.02690000  1.0 0.1102683629
H  H51  1  0.66750000  0.95250000  0.58950000  1.0 0.1002269145
H  H52  1  0.04750000  0.33250000  0.08950000  1.0 0.1002269145
H  H53  1  0.77560000  0.18460000  0.41180000  1.0 0.1389583323
H  H54  1  0.81540000  0.22440000  0.91180000  1.0 0.1389583323
H  H55  1  0.69100000  0.17380000  0.33840000  1.0 0.0907445936
H  H56  1  0.82620000  0.30900000  0.83840000  1.0 0.0907445936
H  H57  1  0.62250000  0.89010000  0.35060000  1.0 0.0907445936
H  H58  1  0.10990000  0.37750000  0.85060000  1.0 0.0907445936
H  H59  1  0.70350000  0.88910000  0.42490000  1.0 0.1389583323
H  H60  1  0.11090000  0.29650000  0.92490000  1.0 0.1389583323
H  H61  1  0.84680000  0.79020000  0.37330000  1.0 0.1102683629
H  H62  1  0.20980000  0.15320000  0.87330000  1.0 0.1102683629
H  H63  1  0.72280000  0.82260000  0.31240000  1.0 0.1102683629
H  H64  1  0.17740000  0.27720000  0.81240000  1.0 0.1102683629
H  H65  1  0.81740000  0.02580000  0.30050000  1.0 0.1102683629
H  H66  1  0.97420000  0.18260000  0.80050000  1.0 0.1102683629
H  H67  1  0.22510000  0.37970000  0.36900000  1.0 0.1189646082
H  H68  1  0.62030000  0.77490000  0.86900000  1.0 0.1189646082
H  H69  1  0.38120000  0.39720000  0.42860000  1.0 0.1189646082
H  H70  1  0.60280000  0.61880000  0.92860000  1.0 0.1189646082
H  H71  1  0.32930000  0.20410000  0.45170000  1.0 0.1002269145
H  H72  1  0.79590000  0.67070000  0.95170000  1.0 0.1002269145
H  H73  1  0.89190000  0.18170000  0.34430000  1.0 0.1189646082
H  H74  1  0.81830000  0.10810000  0.84430000  1.0 0.1189646082
H  H75  1  0.86320000  0.30300000  0.29460000  1.0 0.0907445936
H  H76  1  0.69700000  0.13680000  0.79460000  1.0 0.0907445936
H  H77  1  0.10610000  0.43550000  0.23640000  1.0 0.1002269145
H  H78  1  0.56450000  0.89390000  0.73640000  1.0 0.1002269145
H  H79  1  0.13810000  0.31410000  0.28450000  1.0 0.1304595093
H  H80  1  0.68590000  0.86190000  0.78450000  1.0 0.1304595093
H  H81  1  0.96400000  0.73360000  0.47050000  1.0 0.1002269145
H  H82  1  0.26640000  0.03600000  0.97050000  1.0 0.1002269145
H  H83  1  0.88200000  0.55360000  0.45450000  1.0 0.1189646082
H  H84  1  0.44640000  0.11800000  0.95450000  1.0 0.1189646082
H  H85  1  0.95950000  0.60270000  0.39100000  1.0 0.1189646082
H  H86  1  0.39730000  0.04050000  0.89100000  1.0 0.1189646082
H  H87  1  0.20700000  0.99900000  0.28050000  1.0 0.1102683629
H  H88  1  0.00100000  0.79300000  0.78050000  1.0 0.1102683629
H  H89  1  0.29950000  0.19770000  0.27880000  1.0 0.1102683629
H  H90  1  0.80230000  0.70050000  0.77880000  1.0 0.1102683629
H  H91  1  0.25430000  0.19450000  0.34330000  1.0 0.1002269145
H  H92  1  0.80550000  0.74570000  0.84330000  1.0 0.1002269145
H  H93  1  0.23790000  0.84610000  0.33590000  1.0 0.1389583323
H  H94  1  0.15390000  0.76210000  0.83590000  1.0 0.1389583323
H  H95  1  0.20550000  0.73930000  0.29230000  1.0 0.0907445936
H  H96  1  0.26070000  0.79450000  0.79230000  1.0 0.0907445936
H  H97  1  0.88420000  0.59220000  0.26040000  1.0 0.1002269145
H  H98  1  0.40780000  0.11580000  0.76040000  1.0 0.1002269145
H  H99  1  0.90150000  0.68850000  0.29990000  1.0 0.1389583323
H  H100  1  0.31150000  0.09850000  0.79990000  1.0 0.1389583323
H  H101  1  0.12810000  0.12030000  0.94390000  1.0 0.1002269145
H  H102  1  0.87970000  0.87190000  0.44390000  1.0 0.1002269145
H  H103  1  0.17760000  0.14260000  0.02120000  1.0 0.1189646082
H  H104  1  0.85740000  0.82240000  0.52120000  1.0 0.1189646082
H  H105  1  0.12740000  0.96460000  0.07010000  1.0 0.1102683629
H  H106  1  0.03540000  0.87260000  0.57010000  1.0 0.1102683629
H  H107  1  0.95800000  0.56900000  0.04170000  1.0 0.1189646082
H  H108  1  0.43100000  0.04200000  0.54170000  1.0 0.1189646082
H  H109  1  0.91090000  0.50150000  0.97310000  1.0 0.1102683629
H  H110  1  0.49850000  0.08910000  0.47310000  1.0 0.1102683629
H  H111  1  0.95250000  0.66750000  0.91050000  1.0 0.1002269145
H  H112  1  0.33250000  0.04750000  0.41050000  1.0 0.1002269145
H  H113  1  0.18460000  0.77560000  0.08820000  1.0 0.1389583323
H  H114  1  0.22440000  0.81540000  0.58820000  1.0 0.1389583323
H  H115  1  0.17380000  0.69100000  0.16160000  1.0 0.0907445936
H  H116  1  0.30900000  0.82620000  0.66160000  1.0 0.0907445936
H  H117  1  0.89010000  0.62250000  0.14940000  1.0 0.0907445936
H  H118  1  0.37750000  0.10990000  0.64940000  1.0 0.0907445936
H  H119  1  0.88910000  0.70350000  0.07510000  1.0 0.1389583323
H  H120  1  0.29650000  0.11090000  0.57510000  1.0 0.1389583323
C  C1  1  0.86220000  0.86620000  0.13983000  1.0 0.0389096073
C  C2  1  0.13380000  0.13780000  0.63983000  1.0 0.0389096073
C  C3  1  0.87850000  0.79470000  0.17280000  1.0 -0.1727889596
C  C4  1  0.20530000  0.12150000  0.67280000  1.0 -0.1727889596
C  C5  1  0.98910000  0.84690000  0.17990000  1.0 -0.2293741268
C  C6  1  0.15310000  0.01090000  0.67990000  1.0 -0.2293741268
C  C7  1  0.04200000  0.95740000  0.15166000  1.0 0.1485673873
C  C8  1  0.04260000  0.95800000  0.65166000  1.0 0.1485673873
C  C9  1  0.15354000  0.03966000  0.14858000  1.0 -0.0840721974
C  C10  1  0.96034000  0.84646000  0.64858000  1.0 -0.0840721974
C  C11  1  0.20476000  0.14604000  0.12015000  1.0 0.1485673873
C  C12  1  0.85396000  0.79524000  0.62015000  1.0 0.1485673873
C  C13  1  0.32100000  0.22920000  0.11490000  1.0 -0.2124576108
C  C14  1  0.77080000  0.67900000  0.61490000  1.0 -0.2124576108
C  C15  1  0.33090000  0.31430000  0.08280000  1.0 -0.1609018618
C  C16  1  0.68570000  0.66910000  0.58280000  1.0 -0.1609018618
C  C17  1  0.22070000  0.28270000  0.06959000  1.0 0.0389096073
C  C18  1  0.71730000  0.77930000  0.56959000  1.0 0.0389096073
C  C19  1  0.23618000  0.02122000  0.17907000  1.0 0.1304595093
C  C20  1  0.97878000  0.76382000  0.67907000  1.0 0.1304595093
C  C21  1  0.23490000  0.93870000  0.17730000  1.0 -0.1906872006
C  C22  1  0.06130000  0.76510000  0.67730000  1.0 -0.1906872006
C  C23  1  0.30940000  0.92400000  0.20620000  1.0 0.0277716624
C  C24  1  0.07600000  0.69060000  0.70620000  1.0 0.0277716624
C  C25  1  0.38640000  0.06500000  0.24024000  1.0 0.0389096073
C  C26  1  0.93500000  0.61360000  0.74024000  1.0 0.0389096073
C  C27  1  0.31250000  0.08270000  0.21209000  1.0 -0.1906872006
C  C28  1  0.91730000  0.68750000  0.71209000  1.0 -0.1906872006
C  C29  1  0.72820000  0.97400000  0.05410000  1.0 0.0520919733
C  C30  1  0.02600000  0.27180000  0.55410000  1.0 0.0520919733
C  C31  1  0.62690000  0.93010000  0.06180000  1.0 -0.1792260619
C  C32  1  0.06990000  0.37310000  0.56180000  1.0 -0.1792260619
C  C33  1  0.65320000  0.96940000  0.09720000  1.0 -0.2001291817
C  C34  1  0.03060000  0.34680000  0.59720000  1.0 -0.2001291817
C  C35  1  0.77290000  0.02930000  0.11362000  1.0 0.1304595093
C  C36  1  0.97070000  0.22710000  0.61362000  1.0 0.1304595093
C  C37  1  0.83920000  0.08300000  0.14908000  1.0 -0.0568263127
C  C38  1  0.91700000  0.16080000  0.64908000  1.0 -0.0568263127
C  C39  1  0.95647000  0.14873000  0.16260000  1.0 0.1485673873
C  C40  1  0.85127000  0.04353000  0.66260000  1.0 0.1485673873
C  C41  1  0.02490000  0.20530000  0.19940000  1.0 -0.2187788486
C  C42  1  0.79470000  0.97510000  0.69940000  1.0 -0.2187788486
C  C43  1  0.13320000  0.25580000  0.20049000  1.0 -0.1727889596
C  C44  1  0.74420000  0.86680000  0.70049000  1.0 -0.1727889596
C  C45  1  0.12980000  0.22960000  0.16397000  1.0 0.0669776876
C  C46  1  0.77040000  0.87020000  0.66397000  1.0 0.0669776876
C  C47  1  0.77760000  0.07240000  0.17696000  1.0 0.1304595093
C  C48  1  0.92760000  0.22240000  0.67696000  1.0 0.1304595093
C  C49  1  0.79430000  0.16430000  0.17930000  1.0 -0.2293741268
C  C50  1  0.83570000  0.20570000  0.67930000  1.0 -0.2293741268
C  C51  1  0.72910000  0.14290000  0.20620000  1.0 0.0907445936
C  C52  1  0.85710000  0.27090000  0.70620000  1.0 0.0907445936
C  C53  1  0.64510000  0.95710000  0.22430000  1.0 -0.0034130154
C  C54  1  0.04290000  0.35490000  0.72430000  1.0 -0.0034130154
C  C55  1  0.70072000  0.96592000  0.20073000  1.0 -0.1792260619
C  C56  1  0.03408000  0.29928000  0.70073000  1.0 -0.1792260619
C  C57  1  0.06350000  0.11670000  0.53096000  1.0 0.0389096073
C  C58  1  0.88330000  0.93650000  0.03096000  1.0 0.0389096073
C  C59  1  0.07620000  0.14460000  0.48779000  1.0 -0.1380744191
C  C60  1  0.85540000  0.92380000  0.98779000  1.0 -0.1380744191
C  C61  1  0.97910000  0.11710000  0.46093000  1.0 -0.2187788486
C  C62  1  0.88290000  0.02090000  0.96093000  1.0 -0.2187788486
C  C63  1  0.90199000  0.06961000  0.48804000  1.0 0.1485673873
C  C64  1  0.93039000  0.09801000  0.98804000  1.0 0.1485673873
C  C65  1  0.79430000  0.03710000  0.47505000  1.0 -0.0735809566
C  C66  1  0.96290000  0.20570000  0.97505000  1.0 -0.0735809566
C  C67  1  0.72420000  0.00260000  0.50082000  1.0 0.159603977
C  C68  1  0.99740000  0.27580000  0.00082000  1.0 0.159603977
C  C69  1  0.61070000  0.96430000  0.48730000  1.0 -0.2293741268
C  C70  1  0.03570000  0.38930000  0.98730000  1.0 -0.2293741268
C  C71  1  0.57230000  0.93750000  0.52500000  1.0 -0.1609018618
C  C72  1  0.06250000  0.42770000  0.02500000  1.0 -0.1609018618
C  C73  1  0.66666667  0.96050000  0.55980000  1.0 0.0520919733
C  C74  1  0.03950000  0.33333333  0.05980000  1.0 0.0520919733
C  C75  1  0.74550000  0.03530000  0.42673000  1.0 0.1189646082
C  C76  1  0.96470000  0.25450000  0.92673000  1.0 0.1189646082
C  C77  1  0.74310000  0.12170000  0.40029000  1.0 -0.1906872006
C  C78  1  0.87830000  0.25690000  0.90029000  1.0 -0.1906872006
C  C79  1  0.69200000  0.11420000  0.35657000  1.0 0.0277716624
C  C80  1  0.88580000  0.30800000  0.85657000  1.0 0.0277716624
C  C81  1  0.65190000  0.94950000  0.36350000  1.0 0.0669776876
C  C82  1  0.05050000  0.34810000  0.86350000  1.0 0.0669776876
C  C83  1  0.70100000  0.94840000  0.40802000  1.0 -0.2001291817
C  C84  1  0.05160000  0.29900000  0.90802000  1.0 -0.2001291817
C  C85  1  0.86620000  0.86220000  0.36017000  1.0 0.0389096073
C  C86  1  0.13780000  0.13380000  0.86017000  1.0 0.0389096073
C  C87  1  0.79470000  0.87850000  0.32720000  1.0 -0.1727889596
C  C88  1  0.12150000  0.20530000  0.82720000  1.0 -0.1727889596
C  C89  1  0.84690000  0.98910000  0.32010000  1.0 -0.2293741268
C  C90  1  0.01090000  0.15310000  0.82010000  1.0 -0.2293741268
C  C91  1  0.95740000  0.04200000  0.34834000  1.0 0.1485673873
C  C92  1  0.95800000  0.04260000  0.84834000  1.0 0.1485673873
C  C93  1  0.03966000  0.15354000  0.35142000  1.0 -0.0840721974
C  C94  1  0.84646000  0.96034000  0.85142000  1.0 -0.0840721974
C  C95  1  0.14604000  0.20476000  0.37985000  1.0 0.1485673873
C  C96  1  0.79524000  0.85396000  0.87985000  1.0 0.1485673873
C  C97  1  0.22920000  0.32100000  0.38510000  1.0 -0.2124576108
C  C98  1  0.67900000  0.77080000  0.88510000  1.0 -0.2124576108
C  C99  1  0.31430000  0.33090000  0.41720000  1.0 -0.1609018618
C  C100  1  0.66910000  0.68570000  0.91720000  1.0 -0.1609018618
C  C101  1  0.28270000  0.22070000  0.43041000  1.0 0.0389096073
C  C102  1  0.77930000  0.71730000  0.93041000  1.0 0.0389096073
C  C103  1  0.02122000  0.23618000  0.32093000  1.0 0.1304595093
C  C104  1  0.76382000  0.97878000  0.82093000  1.0 0.1304595093
C  C105  1  0.93870000  0.23490000  0.32270000  1.0 -0.1906872006
C  C106  1  0.76510000  0.06130000  0.82270000  1.0 -0.1906872006
C  C107  1  0.92400000  0.30940000  0.29380000  1.0 0.0277716624
C  C108  1  0.69060000  0.07600000  0.79380000  1.0 0.0277716624
C  C109  1  0.06500000  0.38640000  0.25976000  1.0 0.0389096073
C  C110  1  0.61360000  0.93500000  0.75976000  1.0 0.0389096073
C  C111  1  0.08270000  0.31250000  0.28791000  1.0 -0.1906872006
C  C112  1  0.68750000  0.91730000  0.78791000  1.0 -0.1906872006
C  C113  1  0.97400000  0.72820000  0.44590000  1.0 0.0520919733
C  C114  1  0.27180000  0.02600000  0.94590000  1.0 0.0520919733
C  C115  1  0.93010000  0.62690000  0.43820000  1.0 -0.1792260619
C  C116  1  0.37310000  0.06990000  0.93820000  1.0 -0.1792260619
C  C117  1  0.96940000  0.65320000  0.40280000  1.0 -0.2001291817
C  C118  1  0.34680000  0.03060000  0.90280000  1.0 -0.2001291817
C  C119  1  0.02930000  0.77290000  0.38638000  1.0 0.1304595093
C  C120  1  0.22710000  0.97070000  0.88638000  1.0 0.1304595093
C  C121  1  0.08300000  0.83920000  0.35092000  1.0 -0.0568263127
C  C122  1  0.16080000  0.91700000  0.85092000  1.0 -0.0568263127
C  C123  1  0.14873000  0.95647000  0.33740000  1.0 0.1485673873
C  C124  1  0.04353000  0.85127000  0.83740000  1.0 0.1389583323
C  C125  1  0.20530000  0.02490000  0.30060000  1.0 -0.2187788486
C  C126  1  0.97510000  0.79470000  0.80060000  1.0 -0.2187788486
C  C127  1  0.25580000  0.13320000  0.29951000  1.0 -0.1727889596
C  C128  1  0.86680000  0.74420000  0.79951000  1.0 -0.1727889596
C  C129  1  0.22960000  0.12980000  0.33603000  1.0 0.0669776876
C  C130  1  0.87020000  0.77040000  0.83603000  1.0 0.0669776876
C  C131  1  0.07240000  0.77760000  0.32304000  1.0 0.1304595093
C  C132  1  0.22240000  0.92760000  0.82304000  1.0 0.1304595093
C  C133  1  0.16430000  0.79430000  0.32070000  1.0 -0.2293741268
C  C134  1  0.20570000  0.83570000  0.82070000  1.0 -0.2293741268
C  C135  1  0.14290000  0.72910000  0.29380000  1.0 0.0907445936
C  C136  1  0.27090000  0.85710000  0.79380000  1.0 0.0907445936
C  C137  1  0.95710000  0.64510000  0.27570000  1.0 -0.0034130154
C  C138  1  0.35490000  0.04290000  0.77570000  1.0 -0.0034130154
C  C139  1  0.96592000  0.70072000  0.29927000  1.0 -0.1792260619
C  C140  1  0.29928000  0.03408000  0.79927000  1.0 -0.1792260619
C  C141  1  0.11670000  0.06350000  0.96904000  1.0 0.0389096073
C  C142  1  0.93650000  0.88330000  0.46904000  1.0 0.0389096073
C  C143  1  0.14460000  0.07620000  0.01221000  1.0 -0.1380744191
C  C144  1  0.92380000  0.85540000  0.51221000  1.0 -0.1380744191
C  C145  1  0.11710000  0.97910000  0.03907000  1.0 -0.2187788486
C  C146  1  0.02090000  0.88290000  0.53907000  1.0 -0.2187788486
C  C147  1  0.06961000  0.90199000  0.01196000  1.0 0.1485673873
C  C148  1  0.09801000  0.93039000  0.51196000  1.0 0.1485673873
C  C149  1  0.03710000  0.79430000  0.02495000  1.0 -0.0735809566
C  C150  1  0.20570000  0.96290000  0.52495000  1.0 -0.0735809566
C  C151  1  0.00260000  0.72420000  0.99918000  1.0 0.159603977
C  C152  1  0.27580000  0.99740000  0.49918000  1.0 0.159603977
C  C153  1  0.96430000  0.61070000  0.01270000  1.0 -0.2293741268
C  C154  1  0.38930000  0.03570000  0.51270000  1.0 -0.2293741268
C  C155  1  0.93750000  0.57230000  0.97500000  1.0 -0.1609018618
C  C156  1  0.42770000  0.06250000  0.47500000  1.0 -0.1609018618
C  C157  1  0.96050000  0.66666667  0.94020000  1.0 0.0520919733
C  C158  1  0.33333333  0.03950000  0.44020000  1.0 0.0520919733
C  C159  1  0.03530000  0.74550000  0.07327000  1.0 0.1189646082
C  C160  1  0.25450000  0.96470000  0.57327000  1.0 0.1189646082
C  C161  1  0.12170000  0.74310000  0.09971000  1.0 -0.1906872006
C  C162  1  0.25690000  0.87830000  0.59971000  1.0 -0.1906872006
C  C163  1  0.11420000  0.69200000  0.14343000  1.0 0.0277716624
C  C164  1  0.30800000  0.88580000  0.64343000  1.0 0.0277716624
C  C165  1  0.94950000  0.65190000  0.13650000  1.0 0.0669776876
C  C166  1  0.34810000  0.05050000  0.63650000  1.0 0.0669776876
C  C167  1  0.94840000  0.70100000  0.09198000  1.0 -0.2001291817
C  C168  1  0.29900000  0.05160000  0.59198000  1.0 -0.2001291817
N  N1  1  0.95943000  0.96557000  0.12844000  1.0 -0.3318344168
N  N2  1  0.03443000  0.04057000  0.62844000  1.0 -0.3318344168
N  N3  1  0.14371000  0.18049000  0.09044000  1.0 -0.345407723
N  N4  1  0.81951000  0.85629000  0.59044000  1.0 -0.345407723
N  N5  1  0.39232000  0.99148000  0.23613000  1.0 -0.2001291817
N  N6  1  0.00852000  0.60768000  0.73613000  1.0 -0.2001291817
N  N7  1  0.81525000  0.03015000  0.08372000  1.0 -0.3318344168
N  N8  1  0.96985000  0.18475000  0.58372000  1.0 -0.3318344168
N  N9  1  0.02677000  0.16743000  0.14140000  1.0 -0.3318344168
N  N10  1  0.83257000  0.97323000  0.64140000  1.0 -0.3318344168
N  N11  1  0.65888000  0.04692000  0.22816000  1.0 -0.2187788486
N  N12  1  0.95308000  0.34112000  0.72816000  1.0 -0.2187788486
N  N13  1  0.95799000  0.07101000  0.53162000  1.0 -0.3594803573
N  N14  1  0.92899000  0.04201000  0.03162000  1.0 -0.3594803573
N  N15  1  0.75285000  0.99395000  0.54604000  1.0 -0.3379523815
N  N16  1  0.00605000  0.24715000  0.04604000  1.0 -0.3379523815
N  N17  1  0.64423000  0.02777000  0.33874000  1.0 -0.2001291817
N  N18  1  0.97223000  0.35577000  0.83874000  1.0 -0.2001291817
N  N19  1  0.96557000  0.95943000  0.37156000  1.0 -0.3318344168
N  N20  1  0.04057000  0.03443000  0.87156000  1.0 -0.3318344168
N  N21  1  0.18049000  0.14371000  0.40956000  1.0 -0.345407723
N  N22  1  0.85629000  0.81951000  0.90956000  1.0 -0.345407723
N  N23  1  0.99148000  0.39232000  0.26387000  1.0 -0.2001291817
N  N24  1  0.60768000  0.00852000  0.76387000  1.0 -0.2001291817
N  N25  1  0.03015000  0.81525000  0.41628000  1.0 -0.3318344168
N  N26  1  0.18475000  0.96985000  0.91628000  1.0 -0.3318344168
N  N27  1  0.16743000  0.02677000  0.35860000  1.0 -0.3318344168
N  N28  1  0.97323000  0.83257000  0.85860000  1.0 -0.3318344168
N  N29  1  0.04692000  0.65888000  0.27184000  1.0 -0.2187788486
N  N30  1  0.34112000  0.95308000  0.77184000  1.0 -0.2187788486
N  N31  1  0.07101000  0.95799000  0.96838000  1.0 -0.3594803573
N  N32  1  0.04201000  0.92899000  0.46838000  1.0 -0.3594803573
N  N33  1  0.99395000  0.75285000  0.95396000  1.0 -0.3379523815
N  N34  1  0.24715000  0.00605000  0.45396000  1.0 -0.3379523815
N  N35  1  0.02777000  0.64423000  0.16126000  1.0 -0.2001291817
N  N36  1  0.35577000  0.97223000  0.66126000  1.0 -0.2001291817
