# DDEC6 charges by PACMAN v1.1 (https://github.com/mtap-research/PACMAN-charge/)
data_GIXYOF_ASR_pacman
_symmetry_space_group_name_H-M   'P 1'
_cell_length_a   12.76400000
_cell_length_b   12.82700000
_cell_length_c   15.22100000
_cell_angle_alpha   70.49500000
_cell_angle_beta   77.48400000
_cell_angle_gamma   68.51600000
_symmetry_Int_Tables_number   1
_chemical_formula_structural   U3Si2P8H50(C7O3)8
_chemical_formula_sum   'U3 Si2 P8 H50 C56 O24'
_cell_volume   2173.11350194
_cell_formula_units_Z   1
loop_
 _symmetry_equiv_pos_site_id
 _symmetry_equiv_pos_as_xyz
  1  'x, y, z'
loop_
 _atom_site_type_symbol
 _atom_site_label
 _atom_site_symmetry_multiplicity
 _atom_site_fract_x
 _atom_site_fract_y
 _atom_site_fract_z
 _atom_site_occupancy
 _atom_site_charge
U  U1  1  0.00000000  0.00000000  0.50000000  1.0 2.114219403
U  U2  1  0.40023000  0.65970000  0.52106000  1.0 1.7937683818
U  U3  1  0.59977000  0.34030000  0.47894000  1.0 1.7958827969
Si  Si1  1  0.17536000  0.14118000  0.92033000  1.0 0.483761659
Si  Si2  1  0.82464000  0.85882000  0.07967000  1.0 0.483761659
P  P1  1  0.64934000  0.46010000  0.93255000  1.0 1.2456822154
P  P2  1  0.35066000  0.53990000  0.06745000  1.0 1.2456822154
P  P3  1  0.21040000  0.82581000  0.35075000  1.0 1.2755019423
P  P4  1  0.78960000  0.17419000  0.64925000  1.0 1.2755019423
P  P5  1  0.50007000  0.45242000  0.69198000  1.0 1.0606932995
P  P6  1  0.49993000  0.54758000  0.30802000  1.0 1.0606932995
P  P7  1  0.20020000  0.81478000  0.66636000  1.0 1.1637935397
P  P8  1  0.79980000  0.18522000  0.33364000  1.0 1.165835118
H  H1  1  0.34261000  0.78673000  0.63316000  1.0 0.192273466
H  H2  1  0.65739000  0.21327000  0.36684000  1.0 0.192273466
H  H3  1  0.60433000  0.49496000  0.80650000  1.0 0.3625924942
H  H4  1  0.39567000  0.50504000  0.19350000  1.0 0.3625924942
H  H5  1  0.23755000  0.64179000  0.70588000  1.0 0.2667063233
H  H6  1  0.76245000  0.35821000  0.29412000  1.0 0.2667063233
H  H7  1  0.26121000  0.67236000  0.32559000  1.0 0.3650330064
H  H8  1  0.73879000  0.32764000  0.67441000  1.0 0.3650330064
H  H9  1  0.40380000  0.55700000  0.74240000  1.0 0.235350391
H  H10  1  0.59620000  0.44300000  0.25760000  1.0 0.235350391
H  H11  1  0.03443000  0.12791000  0.09635000  1.0 0.1083534044
H  H12  1  0.96557000  0.87209000  0.90365000  1.0 0.1083534044
H  H13  1  0.25182000  0.77140000  0.85301000  1.0 0.1253730711
H  H14  1  0.74818000  0.22860000  0.14699000  1.0 0.1211908218
H  H15  1  0.35909000  0.96635000  0.03325000  1.0 0.1018271968
H  H16  1  0.64091000  0.03365000  0.96675000  1.0 0.1018271968
H  H17  1  0.77980000  0.26534000  0.87261000  1.0 0.1083534044
H  H18  1  0.22020000  0.73466000  0.12739000  1.0 0.1083534044
H  H19  1  0.96534000  0.14928000  0.86811000  1.0 0.1018271968
H  H20  1  0.03466000  0.85072000  0.13189000  1.0 0.1018271968
H  H21  1  0.04415000  0.01670000  0.24851000  1.0 0.1018271968
H  H22  1  0.95585000  0.98330000  0.75149000  1.0 0.1018271968
H  H23  1  0.24139000  0.88678000  0.94376000  1.0 0.1083534044
H  H24  1  0.75861000  0.11322000  0.05624000  1.0 0.1083534044
H  H25  1  0.04284000  0.36191000  0.96422000  1.0 0.0918010095
H  H26  1  0.95716000  0.63809000  0.03578000  1.0 0.0918010095
H  H27  1  0.85385000  0.46626000  0.98376000  1.0 0.1018271968
H  H28  1  0.14615000  0.53374000  0.01624000  1.0 0.1018271968
H  H29  1  0.15532000  0.05319000  0.64057000  1.0 0.1018271968
H  H30  1  0.84468000  0.94681000  0.35943000  1.0 0.1018271968
H  H31  1  0.13714000  0.16837000  0.73447000  1.0 0.1018271968
H  H32  1  0.86286000  0.83163000  0.26553000  1.0 0.1018271968
H  H33  1  0.37085000  0.85799000  0.18593000  1.0 0.1083534044
H  H34  1  0.62915000  0.14201000  0.81407000  1.0 0.1083534044
H  H35  1  0.45581000  0.26107000  0.67609000  1.0 0.0918010095
H  H36  1  0.54419000  0.73893000  0.32391000  1.0 0.0918010095
H  H37  1  0.34580000  0.14290000  0.76269000  1.0 0.1018271968
H  H38  1  0.65420000  0.85710000  0.23731000  1.0 0.1018271968
H  H39  1  0.25382000  0.30885000  0.95427000  1.0 0.1018271968
H  H40  1  0.74618000  0.69115000  0.04573000  1.0 0.1018271968
H  H41  1  0.35674000  0.43728000  0.86334000  1.0 0.1211908218
H  H42  1  0.64326000  0.56272000  0.13666000  1.0 0.1211908218
H  H43  1  0.19357000  0.30935000  0.74881000  1.0 0.1018271968
H  H44  1  0.80643000  0.69065000  0.25119000  1.0 0.1018271968
H  H45  1  0.30369000  0.41948000  0.66356000  1.0 0.0918010095
H  H46  1  0.69631000  0.58052000  0.33644000  1.0 0.0918010095
H  H47  1  0.37315000  0.18573000  0.96145000  1.0 0.1018271968
H  H48  1  0.62685000  0.81427000  0.03855000  1.0 0.1018271968
H  H49  1  0.47746000  0.30855000  0.87971000  1.0 0.1211908218
H  H50  1  0.52254000  0.69145000  0.12029000  1.0 0.1211908218
C  C1  1  0.10300000  0.07180000  0.11340000  1.0 -0.0894316257
C  C2  1  0.89700000  0.92820000  0.88660000  1.0 -0.0894316257
C  C3  1  0.41600000  0.36190000  0.76110000  1.0 -0.1356155145
C  C4  1  0.58400000  0.63810000  0.23890000  1.0 -0.1356155145
C  C5  1  0.27540000  0.22540000  0.86390000  1.0 -0.1193467732
C  C6  1  0.72460000  0.77460000  0.13610000  1.0 -0.1193467732
C  C7  1  0.20330000  0.89980000  0.73790000  1.0 -0.1912418498
C  C8  1  0.79670000  0.10020000  0.26210000  1.0 -0.1912418498
C  C9  1  0.22950000  0.85210000  0.82780000  1.0 -0.0587606672
C  C10  1  0.77050000  0.14790000  0.17220000  1.0 -0.0587606672
C  C11  1  0.19400000  0.05930000  0.04500000  1.0 -0.198109487
C  C12  1  0.80600000  0.94070000  0.95500000  1.0 -0.198109487
C  C13  1  0.29450000  0.97740000  0.07590000  1.0 -0.1082735284
C  C14  1  0.70550000  0.02260000  0.92410000  1.0 -0.1082735284
C  C15  1  0.20960000  0.92230000  0.23480000  1.0 -0.1912418498
C  C16  1  0.79040000  0.07770000  0.76520000  1.0 -0.1912418498
C  C17  1  0.79710000  0.37720000  0.92770000  1.0 -0.198109487
C  C18  1  0.20290000  0.62280000  0.07230000  1.0 -0.198109487
C  C19  1  0.83230000  0.28350000  0.89380000  1.0 -0.0812219735
C  C20  1  0.16770000  0.71650000  0.10620000  1.0 -0.0812219735
C  C21  1  0.94390000  0.21450000  0.89000000  1.0 -0.0985555331
C  C22  1  0.05610000  0.78550000  0.11000000  1.0 -0.0985555331
C  C23  1  0.10850000  0.00560000  0.20560000  1.0 -0.0812219735
C  C24  1  0.89150000  0.99440000  0.79440000  1.0 -0.0812219735
C  C25  1  0.22330000  0.92190000  0.88240000  1.0 -0.0894316257
C  C26  1  0.77670000  0.07810000  0.11760000  1.0 -0.0894316257
C  C27  1  0.19170000  0.04010000  0.84910000  1.0 -0.1912418498
C  C28  1  0.80830000  0.95990000  0.15090000  1.0 -0.1912418498
C  C29  1  0.02500000  0.24130000  0.91850000  1.0 -0.2099048289
C  C30  1  0.97500000  0.75870000  0.08150000  1.0 -0.2099048289
C  C31  1  0.98950000  0.33890000  0.94900000  1.0 -0.1082735284
C  C32  1  0.01050000  0.66110000  0.05100000  1.0 -0.1082735284
C  C33  1  0.87660000  0.40420000  0.95780000  1.0 -0.0812219735
C  C34  1  0.12340000  0.59580000  0.04220000  1.0 -0.0812219735
C  C35  1  0.17140000  0.01860000  0.70250000  1.0 -0.0894316257
C  C36  1  0.82860000  0.98140000  0.29750000  1.0 -0.0894316257
C  C37  1  0.16300000  0.08760000  0.75860000  1.0 -0.1193467732
C  C38  1  0.83700000  0.91240000  0.24140000  1.0 -0.1193467732
C  C39  1  0.30140000  0.91160000  0.16820000  1.0 -0.0812219735
C  C40  1  0.69860000  0.08840000  0.83180000  1.0 -0.0812219735
C  C41  1  0.41270000  0.27460000  0.73120000  1.0 -0.0688460785
C  C42  1  0.58730000  0.72540000  0.26880000  1.0 -0.0688460785
C  C43  1  0.34460000  0.20430000  0.78290000  1.0 -0.0894316257
C  C44  1  0.65540000  0.79570000  0.21710000  1.0 -0.0894316257
C  C45  1  0.28870000  0.30210000  0.89520000  1.0 -0.0385262254
C  C46  1  0.71130000  0.69790000  0.10480000  1.0 -0.0347658824
C  C47  1  0.35590000  0.37800000  0.84150000  1.0 -0.0385262254
C  C48  1  0.64410000  0.62200000  0.15850000  1.0 -0.0385262254
C  C49  1  0.25610000  0.30320000  0.77450000  1.0 -0.0688460785
C  C50  1  0.74390000  0.69680000  0.22550000  1.0 -0.0688460785
C  C51  1  0.32100000  0.36980000  0.72270000  1.0 -0.0985555331
C  C52  1  0.67900000  0.63020000  0.27730000  1.0 -0.0985555331
C  C53  1  0.35860000  0.23070000  0.90060000  1.0 -0.0516636986
C  C54  1  0.64140000  0.76930000  0.09940000  1.0 -0.0516636986
C  C55  1  0.42480000  0.30270000  0.84940000  1.0 -0.0385262254
C  C56  1  0.57520000  0.69730000  0.15060000  1.0 -0.0385262254
O  O1  1  0.51670000  0.44990000  0.58900000  1.0 -0.8673320058
O  O2  1  0.48330000  0.55010000  0.41100000  1.0 -0.8673320058
O  O3  1  0.30030000  0.80730000  0.59250000  1.0 -0.6671700521
O  O4  1  0.69970000  0.19270000  0.40750000  1.0 -0.6671700521
O  O5  1  0.32090000  0.79850000  0.38780000  1.0 -0.8105762246
O  O6  1  0.67910000  0.20150000  0.61220000  1.0 -0.8105762246
O  O7  1  0.10460000  0.87860000  0.40850000  1.0 -0.8830104711
O  O8  1  0.89540000  0.12140000  0.59150000  1.0 -0.8830104711
O  O9  1  0.62520000  0.53170000  0.83030000  1.0 -0.6002072635
O  O10  1  0.37480000  0.46830000  0.16970000  1.0 -0.6002072635
O  O11  1  0.58420000  0.37260000  0.97060000  1.0 -0.7227985504
O  O12  1  0.41580000  0.62740000  0.02940000  1.0 -0.7227985504
O  O13  1  0.21110000  0.69050000  0.73530000  1.0 -0.5727737191
O  O14  1  0.78890000  0.30950000  0.26470000  1.0 -0.5727737191
O  O15  1  0.19880000  0.71440000  0.34140000  1.0 -0.6002072635
O  O16  1  0.80120000  0.28560000  0.65860000  1.0 -0.6002072635
O  O17  1  0.62520000  0.54570000  0.98690000  1.0 -0.6942484322
O  O18  1  0.37480000  0.45430000  0.01310000  1.0 -0.6942484322
O  O19  1  0.42820000  0.57860000  0.68720000  1.0 -0.6543501857
O  O20  1  0.57180000  0.42140000  0.31280000  1.0 -0.6543501857
O  O21  1  0.61150000  0.41260000  0.73180000  1.0 -0.6671700521
O  O22  1  0.38850000  0.58740000  0.26820000  1.0 -0.6646780017
O  O23  1  0.08600000  0.86600000  0.62920000  1.0 -0.8462524655
O  O24  1  0.91400000  0.13400000  0.37080000  1.0 -0.8462524655
