# DDEC6 charges by PACMAN v1.1 (https://github.com/mtap-research/PACMAN-charge/)
data_GIYDIE_ASR_pacman
_symmetry_space_group_name_H-M   'P 1'
_cell_length_a   23.78270000
_cell_length_b   11.86350000
_cell_length_c   25.85060000
_cell_angle_alpha   90.00000000
_cell_angle_beta   118.70700000
_cell_angle_gamma   90.00000000
_symmetry_Int_Tables_number   1
_chemical_formula_structural   Pr2P8H18RuC30(NO4)6
_chemical_formula_sum   'Pr8 P32 H72 Ru4 C120 N24 O96'
_cell_volume   6397.16474165
_cell_formula_units_Z   4
loop_
 _symmetry_equiv_pos_site_id
 _symmetry_equiv_pos_as_xyz
  1  'x, y, z'
loop_
 _atom_site_type_symbol
 _atom_site_label
 _atom_site_symmetry_multiplicity
 _atom_site_fract_x
 _atom_site_fract_y
 _atom_site_fract_z
 _atom_site_occupancy
 _atom_site_charge
Pr  Pr1  1  0.06184000  0.50714000  0.94724000  1.0 2.3108319581
Pr  Pr2  1  0.46417000  0.99883000  0.00684000  1.0 1.2105873466
Pr  Pr3  1  0.93816000  0.00714000  0.55276000  1.0 2.3108319581
Pr  Pr4  1  0.53583000  0.49883000  0.49316000  1.0 1.2105873466
Pr  Pr5  1  0.93816000  0.49286000  0.05276000  1.0 2.3108319581
Pr  Pr6  1  0.53583000  0.00117000  0.99316000  1.0 1.2105873466
Pr  Pr7  1  0.06184000  0.99286000  0.44724000  1.0 2.3108319581
Pr  Pr8  1  0.46417000  0.50117000  0.50684000  1.0 1.2105873466
P  P1  1  0.99852000  0.23990000  0.49327000  1.0 1.3371296943
P  P2  1  0.11242000  0.01150000  0.60982000  1.0 1.3371296943
P  P3  1  0.03800000  0.34270000  0.80970000  1.0 1.2558312953
P  P4  1  0.48040000  0.69360000  0.97000000  1.0 1.2784817756
P  P5  1  0.35380000  0.68860000  0.53930000  1.0 0.4588277877
P  P6  1  0.41760000  0.06500000  0.84950000  1.0 0.3702596442
P  P7  1  0.44080000  0.07280000  0.83540000  1.0 0.3702596442
P  P8  1  0.35180000  0.82200000  0.53270000  1.0 0.5439740957
P  P9  1  0.00148000  0.73990000  0.00673000  1.0 1.3371296943
P  P10  1  0.88758000  0.51150000  0.89018000  1.0 1.3347023071
P  P11  1  0.96200000  0.84270000  0.69030000  1.0 1.252783233
P  P12  1  0.51960000  0.19360000  0.53000000  1.0 1.2784817756
P  P13  1  0.64620000  0.18860000  0.96070000  1.0 0.4588277877
P  P14  1  0.58240000  0.56500000  0.65050000  1.0 0.3702596442
P  P15  1  0.55920000  0.57280000  0.66460000  1.0 0.3702596442
P  P16  1  0.64820000  0.32200000  0.96730000  1.0 0.5454338929
P  P17  1  0.00148000  0.76010000  0.50673000  1.0 1.3371296943
P  P18  1  0.88758000  0.98850000  0.39018000  1.0 1.3347023071
P  P19  1  0.96200000  0.65730000  0.19030000  1.0 1.252783233
P  P20  1  0.51960000  0.30640000  0.03000000  1.0 1.2784817756
P  P21  1  0.64620000  0.31140000  0.46070000  1.0 0.4588277877
P  P22  1  0.58240000  0.93500000  0.15050000  1.0 0.3702596442
P  P23  1  0.55920000  0.92720000  0.16460000  1.0 0.3702596442
P  P24  1  0.64820000  0.17800000  0.46730000  1.0 0.5454338929
P  P25  1  0.99852000  0.26010000  0.99327000  1.0 1.3371296943
P  P26  1  0.11242000  0.48850000  0.10982000  1.0 1.3347023071
P  P27  1  0.03800000  0.15730000  0.30970000  1.0 1.2558312953
P  P28  1  0.48040000  0.80640000  0.47000000  1.0 1.2784817756
P  P29  1  0.35380000  0.81140000  0.03930000  1.0 0.4588277877
P  P30  1  0.41760000  0.43500000  0.34950000  1.0 0.3702596442
P  P31  1  0.44080000  0.42720000  0.33540000  1.0 0.3702596442
P  P32  1  0.35180000  0.67800000  0.03270000  1.0 0.5454338929
H  H1  1  0.03346000  0.30084000  0.61336000  1.0 0.1577554534
H  H2  1  0.20292000  0.43285000  0.58973000  1.0 0.1190000726
H  H3  1  0.13761000  0.66716000  0.71686000  1.0 0.126423322
H  H4  1  0.24921000  0.26128000  0.69029000  1.0 0.126423322
H  H5  1  0.29262000  0.73475000  0.78269000  1.0 0.1190000726
H  H6  1  0.43548000  0.47654000  0.91005000  1.0 0.1696642963
H  H7  1  0.09161000  0.84043000  0.67974000  1.0 0.1772220448
H  H8  1  0.11875000  0.33957000  0.51154000  1.0 0.1577554534
H  H9  1  0.22884000  0.51901000  0.83027000  1.0 0.126423322
H  H10  1  0.20435000  0.86346000  0.60414000  1.0 0.1577554534
H  H11  1  0.37346000  0.79658000  0.87280000  1.0 0.1577554534
H  H12  1  0.04781000  0.32558000  0.70269000  1.0 0.1577554534
H  H13  1  0.34869000  0.44050000  0.68727000  1.0 0.1190000726
H  H14  1  0.16281000  0.45914000  0.86285000  1.0 0.1696642963
H  H15  1  0.41778000  0.29989000  0.87582000  1.0 0.1696642963
H  H16  1  0.39854000  0.51589000  0.63524000  1.0 0.1393890124
H  H17  1  0.28501000  0.79005000  0.59675000  1.0 0.1577554534
H  H18  1  0.30484000  0.10188000  0.73747000  1.0 0.1524218262
H  H19  1  0.96654000  0.80084000  0.88664000  1.0 0.1577554534
H  H20  1  0.79708000  0.93285000  0.91027000  1.0 0.1190000726
H  H21  1  0.86239000  0.16716000  0.78314000  1.0 0.126423322
H  H22  1  0.75079000  0.76128000  0.80971000  1.0 0.126423322
H  H23  1  0.70738000  0.23475000  0.71731000  1.0 0.1190000726
H  H24  1  0.56452000  0.97654000  0.58995000  1.0 0.1696642963
H  H25  1  0.90839000  0.34043000  0.82026000  1.0 0.1772220448
H  H26  1  0.88125000  0.83957000  0.98846000  1.0 0.1577554534
H  H27  1  0.77116000  0.01901000  0.66973000  1.0 0.126423322
H  H28  1  0.79565000  0.36346000  0.89586000  1.0 0.1577554534
H  H29  1  0.62654000  0.29658000  0.62720000  1.0 0.1577554534
H  H30  1  0.95219000  0.82558000  0.79731000  1.0 0.1577554534
H  H31  1  0.65131000  0.94050000  0.81273000  1.0 0.1190000726
H  H32  1  0.83719000  0.95914000  0.63715000  1.0 0.1696642963
H  H33  1  0.58222000  0.79989000  0.62418000  1.0 0.1696642963
H  H34  1  0.60146000  0.01589000  0.86476000  1.0 0.1393890124
H  H35  1  0.71499000  0.29005000  0.90325000  1.0 0.1577554534
H  H36  1  0.69516000  0.60188000  0.76253000  1.0 0.1524218262
H  H37  1  0.96654000  0.69916000  0.38664000  1.0 0.1577554534
H  H38  1  0.79708000  0.56715000  0.41027000  1.0 0.1190000726
H  H39  1  0.86239000  0.33284000  0.28314000  1.0 0.126423322
H  H40  1  0.75079000  0.73872000  0.30971000  1.0 0.126423322
H  H41  1  0.70738000  0.26525000  0.21731000  1.0 0.1190000726
H  H42  1  0.56452000  0.52346000  0.08995000  1.0 0.1696642963
H  H43  1  0.90839000  0.15957000  0.32026000  1.0 0.1772220448
H  H44  1  0.88125000  0.66043000  0.48846000  1.0 0.1577554534
H  H45  1  0.77116000  0.48099000  0.16973000  1.0 0.126423322
H  H46  1  0.79565000  0.13654000  0.39586000  1.0 0.1577554534
H  H47  1  0.62654000  0.20342000  0.12720000  1.0 0.1577554534
H  H48  1  0.95219000  0.67442000  0.29731000  1.0 0.1577554534
H  H49  1  0.65131000  0.55950000  0.31273000  1.0 0.1190000726
H  H50  1  0.83719000  0.54086000  0.13715000  1.0 0.1696642963
H  H51  1  0.58222000  0.70011000  0.12418000  1.0 0.1696642963
H  H52  1  0.60146000  0.48411000  0.36476000  1.0 0.1393890124
H  H53  1  0.71499000  0.20995000  0.40325000  1.0 0.1577554534
H  H54  1  0.69516000  0.89812000  0.26253000  1.0 0.1524218262
H  H55  1  0.03346000  0.19916000  0.11336000  1.0 0.1577554534
H  H56  1  0.20292000  0.06715000  0.08973000  1.0 0.1190000726
H  H57  1  0.13761000  0.83284000  0.21686000  1.0 0.126423322
H  H58  1  0.24921000  0.23872000  0.19029000  1.0 0.126423322
H  H59  1  0.29262000  0.76525000  0.28269000  1.0 0.1190000726
H  H60  1  0.43548000  0.02346000  0.41005000  1.0 0.1696642963
H  H61  1  0.09161000  0.65957000  0.17974000  1.0 0.1772220448
H  H62  1  0.11875000  0.16043000  0.01154000  1.0 0.1577554534
H  H63  1  0.22884000  0.98099000  0.33027000  1.0 0.126423322
H  H64  1  0.20435000  0.63654000  0.10414000  1.0 0.1577554534
H  H65  1  0.37346000  0.70342000  0.37280000  1.0 0.1577554534
H  H66  1  0.04781000  0.17442000  0.20269000  1.0 0.1577554534
H  H67  1  0.34869000  0.05950000  0.18727000  1.0 0.1190000726
H  H68  1  0.16281000  0.04086000  0.36285000  1.0 0.1696642963
H  H69  1  0.41778000  0.20011000  0.37582000  1.0 0.1696642963
H  H70  1  0.39854000  0.98411000  0.13524000  1.0 0.1393890124
H  H71  1  0.28501000  0.70995000  0.09675000  1.0 0.1577554534
H  H72  1  0.30484000  0.39812000  0.23747000  1.0 0.1524218262
Ru  Ru1  1  0.24015000  0.50953000  0.71610000  1.0 0.6013021559
Ru  Ru2  1  0.75985000  0.00953000  0.78390000  1.0 0.6013021559
Ru  Ru3  1  0.75985000  0.49047000  0.28390000  1.0 0.6013021559
Ru  Ru4  1  0.24015000  0.99047000  0.21610000  1.0 0.6013021559
C  C1  1  0.06650000  0.31000000  0.55400000  1.0 -0.0694582372
C  C2  1  0.06740000  0.32780000  0.60720000  1.0 -0.1101454465
C  C3  1  0.14420000  0.87200000  0.63890000  1.0 -0.0796981929
C  C4  1  0.16760000  0.40720000  0.59410000  1.0 0.0638387442
C  C5  1  0.11880000  0.38610000  0.65160000  1.0 0.1978237868
C  C6  1  0.35680000  0.49980000  0.83040000  1.0 0.1577554534
C  C7  1  0.15120000  0.70730000  0.69300000  1.0 0.0978275404
C  C8  1  0.41480000  0.64350000  0.89990000  1.0 -0.0444582378
C  C9  1  0.12780000  0.40450000  0.71150000  1.0 0.1393890124
C  C10  1  0.34500000  0.38080000  0.80770000  1.0 0.1577554534
C  C11  1  0.28360000  0.26860000  0.72940000  1.0 0.0799337051
C  C12  1  0.32160000  0.68070000  0.80920000  1.0 0.0799337051
C  C13  1  0.21550000  0.72150000  0.64970000  1.0 0.1393890124
C  C14  1  0.40680000  0.53160000  0.88410000  1.0 -0.1101454465
C  C15  1  0.12390000  0.81150000  0.67170000  1.0 -0.0796981929
C  C16  1  0.11780000  0.35060000  0.54750000  1.0 -0.089693053
C  C17  1  0.09620000  0.38800000  0.78720000  1.0 -0.0571744985
C  C18  1  0.19150000  0.47900000  0.80350000  1.0 0.0799337051
C  C19  1  0.19020000  0.82390000  0.62770000  1.0 -0.1101454465
C  C20  1  0.37070000  0.71910000  0.86250000  1.0 -0.1204609539
C  C21  1  0.08490000  0.36630000  0.72940000  1.0 -0.1006515169
C  C22  1  0.26510000  0.66940000  0.64310000  1.0 0.1577554534
C  C23  1  0.33450000  0.51070000  0.66750000  1.0 0.0507655234
C  C24  1  0.15220000  0.44450000  0.82310000  1.0 -0.1204609539
C  C25  1  0.37160000  0.18790000  0.81110000  1.0 -0.0796981929
C  C26  1  0.38320000  0.29040000  0.83710000  1.0 -0.1101454465
C  C27  1  0.33470000  0.65500000  0.60090000  1.0 -0.1101454465
C  C28  1  0.36280000  0.55200000  0.63510000  1.0 -0.1006515169
C  C29  1  0.29460000  0.71490000  0.61110000  1.0 -0.1101454465
C  C30  1  0.31720000  0.17380000  0.75560000  1.0 -0.1101454465
C  C31  1  0.93350000  0.81000000  0.94600000  1.0 -0.0694582372
C  C32  1  0.93260000  0.82780000  0.89280000  1.0 -0.1101454465
C  C33  1  0.85580000  0.37200000  0.86110000  1.0 -0.0796981929
C  C34  1  0.83240000  0.90720000  0.90590000  1.0 0.0638387442
C  C35  1  0.88120000  0.88610000  0.84840000  1.0 0.1978237868
C  C36  1  0.64320000  0.99980000  0.66960000  1.0 0.1577554534
C  C37  1  0.84880000  0.20730000  0.80700000  1.0 0.0978275404
C  C38  1  0.58520000  0.14350000  0.60010000  1.0 -0.0444582378
C  C39  1  0.87220000  0.90450000  0.78850000  1.0 0.1393890124
C  C40  1  0.65500000  0.88080000  0.69230000  1.0 0.1577554534
C  C41  1  0.71640000  0.76860000  0.77060000  1.0 0.0799337051
C  C42  1  0.67840000  0.18070000  0.69080000  1.0 0.0799337051
C  C43  1  0.78450000  0.22150000  0.85030000  1.0 0.1393890124
C  C44  1  0.59320000  0.03160000  0.61590000  1.0 -0.1101454465
C  C45  1  0.87610000  0.31150000  0.82830000  1.0 -0.0796981929
C  C46  1  0.88220000  0.85060000  0.95250000  1.0 -0.089693053
C  C47  1  0.90380000  0.88800000  0.71280000  1.0 -0.0571744985
C  C48  1  0.80850000  0.97900000  0.69650000  1.0 0.0799337051
C  C49  1  0.80980000  0.32390000  0.87230000  1.0 -0.1101454465
C  C50  1  0.62930000  0.21910000  0.63750000  1.0 -0.1204609539
C  C51  1  0.91510000  0.86630000  0.77060000  1.0 -0.1006515169
C  C52  1  0.73490000  0.16940000  0.85690000  1.0 0.1577554534
C  C53  1  0.66550000  0.01070000  0.83250000  1.0 0.0507655234
C  C54  1  0.84780000  0.94450000  0.67690000  1.0 -0.1204609539
C  C55  1  0.62840000  0.68790000  0.68890000  1.0 -0.0796981929
C  C56  1  0.61680000  0.79040000  0.66290000  1.0 -0.1101454465
C  C57  1  0.66530000  0.15500000  0.89910000  1.0 -0.1101454465
C  C58  1  0.63720000  0.05200000  0.86490000  1.0 -0.1006515169
C  C59  1  0.70540000  0.21490000  0.88890000  1.0 -0.1101454465
C  C60  1  0.68280000  0.67380000  0.74440000  1.0 -0.1101454465
C  C61  1  0.93350000  0.69000000  0.44600000  1.0 -0.0694582372
C  C62  1  0.93260000  0.67220000  0.39280000  1.0 -0.1101454465
C  C63  1  0.85580000  0.12800000  0.36110000  1.0 -0.0796981929
C  C64  1  0.83240000  0.59280000  0.40590000  1.0 0.0638387442
C  C65  1  0.88120000  0.61390000  0.34840000  1.0 0.1978237868
C  C66  1  0.64320000  0.50020000  0.16960000  1.0 0.1577554534
C  C67  1  0.84880000  0.29270000  0.30700000  1.0 0.0978275404
C  C68  1  0.58520000  0.35650000  0.10010000  1.0 -0.0444582378
C  C69  1  0.87220000  0.59550000  0.28850000  1.0 0.1393890124
C  C70  1  0.65500000  0.61920000  0.19230000  1.0 0.1577554534
C  C71  1  0.71640000  0.73140000  0.27060000  1.0 0.0799337051
C  C72  1  0.67840000  0.31930000  0.19080000  1.0 0.0799337051
C  C73  1  0.78450000  0.27850000  0.35030000  1.0 0.1393890124
C  C74  1  0.59320000  0.46840000  0.11590000  1.0 -0.1101454465
C  C75  1  0.87610000  0.18850000  0.32830000  1.0 -0.0796981929
C  C76  1  0.88220000  0.64940000  0.45250000  1.0 -0.089693053
C  C77  1  0.90380000  0.61200000  0.21280000  1.0 -0.0571744985
C  C78  1  0.80850000  0.52100000  0.19650000  1.0 0.0799337051
C  C79  1  0.80980000  0.17610000  0.37230000  1.0 -0.1101454465
C  C80  1  0.62930000  0.28090000  0.13750000  1.0 -0.1204609539
C  C81  1  0.91510000  0.63370000  0.27060000  1.0 -0.1006515169
C  C82  1  0.73490000  0.33060000  0.35690000  1.0 0.1577554534
C  C83  1  0.66550000  0.48930000  0.33250000  1.0 0.0507655234
C  C84  1  0.84780000  0.55550000  0.17690000  1.0 -0.1204609539
C  C85  1  0.62840000  0.81210000  0.18890000  1.0 -0.0796981929
C  C86  1  0.61680000  0.70960000  0.16290000  1.0 -0.1101454465
C  C87  1  0.66530000  0.34500000  0.39910000  1.0 -0.1101454465
C  C88  1  0.63720000  0.44800000  0.36490000  1.0 -0.1006515169
C  C89  1  0.70540000  0.28510000  0.38890000  1.0 -0.1101454465
C  C90  1  0.68280000  0.82620000  0.24440000  1.0 -0.1101454465
C  C91  1  0.06650000  0.19000000  0.05400000  1.0 -0.0694582372
C  C92  1  0.06740000  0.17220000  0.10720000  1.0 -0.1101454465
C  C93  1  0.14420000  0.62800000  0.13890000  1.0 -0.0796981929
C  C94  1  0.16760000  0.09280000  0.09410000  1.0 0.0638387442
C  C95  1  0.11880000  0.11390000  0.15160000  1.0 0.1978237868
C  C96  1  0.35680000  0.00020000  0.33040000  1.0 0.1577554534
C  C97  1  0.15120000  0.79270000  0.19300000  1.0 0.0978275404
C  C98  1  0.41480000  0.85650000  0.39990000  1.0 -0.0444582378
C  C99  1  0.12780000  0.09550000  0.21150000  1.0 0.1393890124
C  C100  1  0.34500000  0.11920000  0.30770000  1.0 0.1577554534
C  C101  1  0.28360000  0.23140000  0.22940000  1.0 0.0799337051
C  C102  1  0.32160000  0.81930000  0.30920000  1.0 0.0799337051
C  C103  1  0.21550000  0.77850000  0.14970000  1.0 0.1393890124
C  C104  1  0.40680000  0.96840000  0.38410000  1.0 -0.1101454465
C  C105  1  0.12390000  0.68850000  0.17170000  1.0 -0.0796981929
C  C106  1  0.11780000  0.14940000  0.04750000  1.0 -0.089693053
C  C107  1  0.09620000  0.11200000  0.28720000  1.0 -0.0571744985
C  C108  1  0.19150000  0.02100000  0.30350000  1.0 0.0799337051
C  C109  1  0.19020000  0.67610000  0.12770000  1.0 -0.1101454465
C  C110  1  0.37070000  0.78090000  0.36250000  1.0 -0.1204609539
C  C111  1  0.08490000  0.13370000  0.22940000  1.0 -0.1006515169
C  C112  1  0.26510000  0.83060000  0.14310000  1.0 0.1577554534
C  C113  1  0.33450000  0.98930000  0.16750000  1.0 0.0507655234
C  C114  1  0.15220000  0.05550000  0.32310000  1.0 -0.1204609539
C  C115  1  0.37160000  0.31210000  0.31110000  1.0 -0.0796981929
C  C116  1  0.38320000  0.20960000  0.33710000  1.0 -0.1101454465
C  C117  1  0.33470000  0.84500000  0.10090000  1.0 -0.1101454465
C  C118  1  0.36280000  0.94800000  0.13510000  1.0 -0.1006515169
C  C119  1  0.29460000  0.78510000  0.11110000  1.0 -0.1101454465
C  C120  1  0.31720000  0.32620000  0.25560000  1.0 -0.1101454465
N  N1  1  0.16710000  0.42680000  0.64570000  1.0 -0.2020402729
N  N2  1  0.19480000  0.65990000  0.68250000  1.0 -0.2086128701
N  N3  1  0.31270000  0.57340000  0.79290000  1.0 -0.2020402729
N  N4  1  0.29410000  0.36920000  0.75310000  1.0 -0.1908634811
N  N5  1  0.18290000  0.46210000  0.75060000  1.0 -0.2086128701
N  N6  1  0.28730000  0.56720000  0.67170000  1.0 -0.2086128701
N  N7  1  0.83290000  0.92680000  0.85430000  1.0 -0.2020402729
N  N8  1  0.80520000  0.15990000  0.81750000  1.0 -0.2020402729
N  N9  1  0.68730000  0.07340000  0.70710000  1.0 -0.2020402729
N  N10  1  0.70590000  0.86920000  0.74690000  1.0 -0.1908634811
N  N11  1  0.81710000  0.96210000  0.74940000  1.0 -0.2086128701
N  N12  1  0.71270000  0.06720000  0.82830000  1.0 -0.2086128701
N  N13  1  0.83290000  0.57320000  0.35430000  1.0 -0.2020402729
N  N14  1  0.80520000  0.34010000  0.31750000  1.0 -0.2020402729
N  N15  1  0.68730000  0.42660000  0.20710000  1.0 -0.2020402729
N  N16  1  0.70590000  0.63080000  0.24690000  1.0 -0.1908634811
N  N17  1  0.81710000  0.53790000  0.24940000  1.0 -0.2086128701
N  N18  1  0.71270000  0.43280000  0.32830000  1.0 -0.2086128701
N  N19  1  0.16710000  0.07320000  0.14570000  1.0 -0.2020402729
N  N20  1  0.19480000  0.84010000  0.18250000  1.0 -0.2020402729
N  N21  1  0.31270000  0.92660000  0.29290000  1.0 -0.2020402729
N  N22  1  0.29410000  0.13080000  0.25310000  1.0 -0.1908634811
N  N23  1  0.18290000  0.03790000  0.25060000  1.0 -0.2086128701
N  N24  1  0.28730000  0.93280000  0.17170000  1.0 -0.2086128701
O  O1  1  0.95650000  0.34130000  0.45450000  1.0 -0.6995090305
O  O2  1  0.16620000  0.09250000  0.65350000  1.0 -0.7183389127
O  O3  1  0.02150000  0.17330000  0.45850000  1.0 -0.8528191655
O  O4  1  0.05250000  0.02830000  0.61290000  1.0 -0.8528191655
O  O5  1  0.96060000  0.18370000  0.51820000  1.0 -0.9051347434
O  O6  1  0.04910000  0.41340000  0.86120000  1.0 -0.8995441406
O  O7  1  0.10960000  0.02200000  0.55180000  1.0 -0.8995441406
O  O8  1  0.04300000  0.21620000  0.82020000  1.0 -0.6995090305
O  O9  1  0.46820000  0.64270000  0.02030000  1.0 -0.6300540029
O  O10  1  0.47610000  0.81980000  0.96850000  1.0 -0.8698259949
O  O11  1  0.54140000  0.64610000  0.97470000  1.0 -0.6300540029
O  O12  1  0.97070000  0.37040000  0.75780000  1.0 -0.6805043726
O  O13  1  0.29380000  0.63490000  0.47530000  1.0 -0.4807462006
O  O14  1  0.41970000  0.61600000  0.55390000  1.0 -0.2578691526
O  O15  1  0.40790000  0.75620000  0.60110000  1.0 -0.166917032
O  O16  1  0.42630000  0.07300000  0.91260000  1.0 -0.2857512742
O  O17  1  0.37550000  0.96110000  0.81480000  1.0 -0.1821965485
O  O18  1  0.48310000  0.08200000  0.84720000  1.0 -0.089693053
O  O19  1  0.44770000  0.05600000  0.89860000  1.0 -0.2350670903
O  O20  1  0.40590000  0.97200000  0.79190000  1.0 -0.2020402729
O  O21  1  0.49780000  0.14200000  0.83500000  1.0 -0.0313199315
O  O22  1  0.28820000  0.89900000  0.47620000  1.0 -0.5974991827
O  O23  1  0.40700000  0.71300000  0.55000000  1.0 -0.011561223
O  O24  1  0.37790000  0.89800000  0.59630000  1.0 -0.3280026152
O  O25  1  0.04350000  0.84130000  0.04550000  1.0 -0.6995090305
O  O26  1  0.83380000  0.59250000  0.84650000  1.0 -0.7183389127
O  O27  1  0.97850000  0.67330000  0.04150000  1.0 -0.8528191655
O  O28  1  0.94750000  0.52830000  0.88710000  1.0 -0.8528191655
O  O29  1  0.03940000  0.68370000  0.98180000  1.0 -0.9051347434
O  O30  1  0.95090000  0.91340000  0.63880000  1.0 -0.8995441406
O  O31  1  0.89040000  0.52200000  0.94820000  1.0 -0.8995441406
O  O32  1  0.95700000  0.71620000  0.67980000  1.0 -0.6995090305
O  O33  1  0.53180000  0.14270000  0.47970000  1.0 -0.6300540029
O  O34  1  0.52390000  0.31980000  0.53150000  1.0 -0.8698259949
O  O35  1  0.45860000  0.14610000  0.52530000  1.0 -0.6300540029
O  O36  1  0.02930000  0.87040000  0.74220000  1.0 -0.6805043726
O  O37  1  0.70620000  0.13490000  0.02470000  1.0 -0.4807462006
O  O38  1  0.58030000  0.11600000  0.94610000  1.0 -0.2578691526
O  O39  1  0.59210000  0.25620000  0.89890000  1.0 -0.166917032
O  O40  1  0.57370000  0.57300000  0.58740000  1.0 -0.2857512742
O  O41  1  0.62450000  0.46110000  0.68520000  1.0 -0.1821965485
O  O42  1  0.51690000  0.58200000  0.65280000  1.0 -0.089693053
O  O43  1  0.55230000  0.55600000  0.60140000  1.0 -0.2350670903
O  O44  1  0.59410000  0.47200000  0.70810000  1.0 -0.2020402729
O  O45  1  0.50220000  0.64200000  0.66500000  1.0 -0.0313199315
O  O46  1  0.71180000  0.39900000  0.02380000  1.0 -0.5974991827
O  O47  1  0.59300000  0.21300000  0.95000000  1.0 -0.011561223
O  O48  1  0.62210000  0.39800000  0.90370000  1.0 -0.3280026152
O  O49  1  0.04350000  0.65870000  0.54550000  1.0 -0.6995090305
O  O50  1  0.83380000  0.90750000  0.34650000  1.0 -0.7183389127
O  O51  1  0.97850000  0.82670000  0.54150000  1.0 -0.8528191655
O  O52  1  0.94750000  0.97170000  0.38710000  1.0 -0.8528191655
O  O53  1  0.03940000  0.81630000  0.48180000  1.0 -0.9051347434
O  O54  1  0.95090000  0.58660000  0.13880000  1.0 -0.8995441406
O  O55  1  0.89040000  0.97800000  0.44820000  1.0 -0.8995441406
O  O56  1  0.95700000  0.78380000  0.17980000  1.0 -0.6995090305
O  O57  1  0.53180000  0.35730000  0.97970000  1.0 -0.6300540029
O  O58  1  0.52390000  0.18020000  0.03150000  1.0 -0.8698259949
O  O59  1  0.45860000  0.35390000  0.02530000  1.0 -0.6300540029
O  O60  1  0.02930000  0.62960000  0.24220000  1.0 -0.6805043726
O  O61  1  0.70620000  0.36510000  0.52470000  1.0 -0.4807462006
O  O62  1  0.58030000  0.38400000  0.44610000  1.0 -0.2578691526
O  O63  1  0.59210000  0.24380000  0.39890000  1.0 -0.166917032
O  O64  1  0.57370000  0.92700000  0.08740000  1.0 -0.2857512742
O  O65  1  0.62450000  0.03890000  0.18520000  1.0 -0.1821965485
O  O66  1  0.51690000  0.91800000  0.15280000  1.0 -0.089693053
O  O67  1  0.55230000  0.94400000  0.10140000  1.0 -0.2350670903
O  O68  1  0.59410000  0.02800000  0.20810000  1.0 -0.2020402729
O  O69  1  0.50220000  0.85800000  0.16500000  1.0 -0.0313199315
O  O70  1  0.71180000  0.10100000  0.52380000  1.0 -0.5974991827
O  O71  1  0.59300000  0.28700000  0.45000000  1.0 -0.011561223
O  O72  1  0.62210000  0.10200000  0.40370000  1.0 -0.3280026152
O  O73  1  0.95650000  0.15870000  0.95450000  1.0 -0.6995090305
O  O74  1  0.16620000  0.40750000  0.15350000  1.0 -0.7183389127
O  O75  1  0.02150000  0.32670000  0.95850000  1.0 -0.8528191655
O  O76  1  0.05250000  0.47170000  0.11290000  1.0 -0.8528191655
O  O77  1  0.96060000  0.31630000  0.01820000  1.0 -0.9051347434
O  O78  1  0.04910000  0.08660000  0.36120000  1.0 -0.8995441406
O  O79  1  0.10960000  0.47800000  0.05180000  1.0 -0.8995441406
O  O80  1  0.04300000  0.28380000  0.32020000  1.0 -0.6995090305
O  O81  1  0.46820000  0.85730000  0.52030000  1.0 -0.6300540029
O  O82  1  0.47610000  0.68020000  0.46850000  1.0 -0.8698259949
O  O83  1  0.54140000  0.85390000  0.47470000  1.0 -0.6300540029
O  O84  1  0.97070000  0.12960000  0.25780000  1.0 -0.6805043726
O  O85  1  0.29380000  0.86510000  0.97530000  1.0 -0.4807462006
O  O86  1  0.41970000  0.88400000  0.05390000  1.0 -0.2578691526
O  O87  1  0.40790000  0.74380000  0.10110000  1.0 -0.166917032
O  O88  1  0.42630000  0.42700000  0.41260000  1.0 -0.2857512742
O  O89  1  0.37550000  0.53890000  0.31480000  1.0 -0.1821965485
O  O90  1  0.48310000  0.41800000  0.34720000  1.0 -0.089693053
O  O91  1  0.44770000  0.44400000  0.39860000  1.0 -0.2350670903
O  O92  1  0.40590000  0.52800000  0.29190000  1.0 -0.2020402729
O  O93  1  0.49780000  0.35800000  0.33500000  1.0 -0.0313199315
O  O94  1  0.28820000  0.60100000  0.97620000  1.0 -0.5974991827
O  O95  1  0.40700000  0.78700000  0.05000000  1.0 -0.011561223
O  O96  1  0.37790000  0.60200000  0.09630000  1.0 -0.3280026152
