# DDEC6 charges by PACMAN v1.1 (https://github.com/mtap-research/PACMAN-charge/)
data_GIYSEN_FSR_pacman
_symmetry_space_group_name_H-M   'P 1'
_cell_length_a   9.67010000
_cell_length_b   11.74200000
_cell_length_c   18.85200000
_cell_angle_alpha   90.00000000
_cell_angle_beta   97.91000000
_cell_angle_gamma   90.00000000
_symmetry_Int_Tables_number   1
_chemical_formula_structural   Cu4MoH28C28(S2N3)2
_chemical_formula_sum   'Cu8 Mo2 H56 C56 S8 N12'
_cell_volume   2120.20852678
_cell_formula_units_Z   2
loop_
 _symmetry_equiv_pos_site_id
 _symmetry_equiv_pos_as_xyz
  1  'x, y, z'
loop_
 _atom_site_type_symbol
 _atom_site_label
 _atom_site_symmetry_multiplicity
 _atom_site_fract_x
 _atom_site_fract_y
 _atom_site_fract_z
 _atom_site_occupancy
 _atom_site_charge
Cu  Cu1  1  0.96186000  0.62483000  0.88966000  1.0 0.3289500965
Cu  Cu2  1  0.03814000  0.62483000  0.61034000  1.0 0.3289500965
Cu  Cu3  1  0.03814000  0.37517000  0.11034000  1.0 0.3289500965
Cu  Cu4  1  0.96186000  0.37517000  0.38966000  1.0 0.3289500965
Cu  Cu5  1  0.27939000  0.62714000  0.78959000  1.0 0.362139341
Cu  Cu6  1  0.72061000  0.62714000  0.71041000  1.0 0.362139341
Cu  Cu7  1  0.72061000  0.37286000  0.21041000  1.0 0.362139341
Cu  Cu8  1  0.27939000  0.37286000  0.28959000  1.0 0.362139341
Mo  Mo1  1  0.00000000  0.62719000  0.75000000  1.0 0.8008457167
Mo  Mo2  1  0.00000000  0.37281000  0.25000000  1.0 0.8008457167
H  H1  1  0.57130000  0.55700000  0.85400000  1.0 0.1130037648
H  H2  1  0.42870000  0.55700000  0.64600000  1.0 0.1130037648
H  H3  1  0.42870000  0.44300000  0.14600000  1.0 0.1130037648
H  H4  1  0.57130000  0.44300000  0.35400000  1.0 0.1130037648
H  H5  1  0.68780000  0.42790000  0.93270000  1.0 0.1395423914
H  H6  1  0.31220000  0.42790000  0.56730000  1.0 0.1395423914
H  H7  1  0.31220000  0.57210000  0.06730000  1.0 0.1395423914
H  H8  1  0.68780000  0.57210000  0.43270000  1.0 0.1395423914
H  H9  1  0.31670000  0.30550000  0.96820000  1.0 0.1205878807
H  H10  1  0.68330000  0.30550000  0.53180000  1.0 0.1205878807
H  H11  1  0.68330000  0.69450000  0.03180000  1.0 0.1205878807
H  H12  1  0.31670000  0.69450000  0.46820000  1.0 0.1205878807
H  H13  1  0.20760000  0.44200000  0.89200000  1.0 0.0998765962
H  H14  1  0.79240000  0.44200000  0.60800000  1.0 0.0998765962
H  H15  1  0.79240000  0.55800000  0.10800000  1.0 0.0998765962
H  H16  1  0.20760000  0.55800000  0.39200000  1.0 0.0998765962
H  H17  1  0.52640000  0.24040000  0.04470000  1.0 0.1205878807
H  H18  1  0.47360000  0.24040000  0.45530000  1.0 0.1205878807
H  H19  1  0.47360000  0.75960000  0.95530000  1.0 0.1205878807
H  H20  1  0.52640000  0.75960000  0.54470000  1.0 0.1205878807
H  H21  1  0.67440000  0.29440000  0.03490000  1.0 0.1205878807
H  H22  1  0.32560000  0.29440000  0.46510000  1.0 0.1205878807
H  H23  1  0.32560000  0.70560000  0.96510000  1.0 0.1205878807
H  H24  1  0.67440000  0.70560000  0.53490000  1.0 0.1205878807
H  H25  1  0.68320000  0.17600000  0.93360000  1.0 0.0998765962
H  H26  1  0.31680000  0.17600000  0.56640000  1.0 0.0998765962
H  H27  1  0.31680000  0.82400000  0.06640000  1.0 0.0998765962
H  H28  1  0.68320000  0.82400000  0.43360000  1.0 0.0998765962
H  H29  1  0.53760000  0.12010000  0.94610000  1.0 0.0911835623
H  H30  1  0.46240000  0.12010000  0.55390000  1.0 0.0911835623
H  H31  1  0.46240000  0.87990000  0.05390000  1.0 0.0911835623
H  H32  1  0.53760000  0.87990000  0.44610000  1.0 0.0911835623
H  H33  1  0.63790000  0.04380000  0.05460000  1.0 0.1205878807
H  H34  1  0.36210000  0.04380000  0.44540000  1.0 0.1205878807
H  H35  1  0.36210000  0.95620000  0.94540000  1.0 0.1205878807
H  H36  1  0.63790000  0.95620000  0.55460000  1.0 0.1205878807
H  H37  1  0.78140000  0.10750000  0.04880000  1.0 0.1288552029
H  H38  1  0.21860000  0.10750000  0.45120000  1.0 0.1288552029
H  H39  1  0.21860000  0.89250000  0.95120000  1.0 0.1288552029
H  H40  1  0.78140000  0.89250000  0.54880000  1.0 0.1288552029
H  H41  1  0.90510000  0.92650000  0.07040000  1.0 0.1395423914
H  H42  1  0.09490000  0.92650000  0.42960000  1.0 0.1395423914
H  H43  1  0.09490000  0.07350000  0.92960000  1.0 0.1395423914
H  H44  1  0.90510000  0.07350000  0.57040000  1.0 0.1395423914
H  H45  1  0.98610000  0.76510000  0.02260000  1.0 0.0998765962
H  H46  1  0.01390000  0.76510000  0.47740000  1.0 0.0998765962
H  H47  1  0.01390000  0.23490000  0.97740000  1.0 0.0998765962
H  H48  1  0.98610000  0.23490000  0.52260000  1.0 0.0998765962
H  H49  1  0.71170000  0.80180000  0.84820000  1.0 0.1205878807
H  H50  1  0.28830000  0.80180000  0.65180000  1.0 0.1205878807
H  H51  1  0.28830000  0.19820000  0.15180000  1.0 0.1205878807
H  H52  1  0.71170000  0.19820000  0.34820000  1.0 0.1205878807
H  H53  1  0.62280000  0.95910000  0.89520000  1.0 0.1395423914
H  H54  1  0.37720000  0.95910000  0.60480000  1.0 0.1395423914
H  H55  1  0.37720000  0.04090000  0.10480000  1.0 0.1395423914
H  H56  1  0.62280000  0.04090000  0.39520000  1.0 0.1395423914
C  C1  1  0.44530000  0.69910000  0.75990000  1.0 -0.393688595
C  C2  1  0.55470000  0.69910000  0.74010000  1.0 -0.393688595
C  C3  1  0.55470000  0.30090000  0.24010000  1.0 -0.393688595
C  C4  1  0.44530000  0.30090000  0.25990000  1.0 -0.3954108613
C  C5  1  0.51810000  0.50460000  0.87750000  1.0 0.0998765962
C  C6  1  0.48190000  0.50460000  0.62250000  1.0 0.0998765962
C  C7  1  0.48190000  0.49540000  0.12250000  1.0 0.0998765962
C  C8  1  0.51810000  0.49540000  0.37750000  1.0 0.0998765962
C  C9  1  0.58860000  0.42750000  0.92450000  1.0 -0.1977016287
C  C10  1  0.41140000  0.42750000  0.57550000  1.0 -0.1977016287
C  C11  1  0.41140000  0.57250000  0.07550000  1.0 -0.1977016287
C  C12  1  0.58860000  0.57250000  0.42450000  1.0 -0.1977016287
C  C13  1  0.51520000  0.35040000  0.95930000  1.0 0.1655185265
C  C14  1  0.48480000  0.35040000  0.54070000  1.0 0.1655185265
C  C15  1  0.48480000  0.64960000  0.04070000  1.0 0.1655185265
C  C16  1  0.51520000  0.64960000  0.45930000  1.0 0.1655185265
C  C17  1  0.37190000  0.35720000  0.94540000  1.0 -0.2105292995
C  C18  1  0.62810000  0.35720000  0.55460000  1.0 -0.2105292995
C  C19  1  0.62810000  0.64280000  0.05460000  1.0 -0.2105292995
C  C20  1  0.37190000  0.64280000  0.44540000  1.0 -0.2105292995
C  C21  1  0.30670000  0.43760000  0.89890000  1.0 0.0773238172
C  C22  1  0.69330000  0.43760000  0.60110000  1.0 0.0773238172
C  C23  1  0.69330000  0.56240000  0.10110000  1.0 0.0773238172
C  C24  1  0.30670000  0.56240000  0.39890000  1.0 0.0773238172
C  C25  1  0.58780000  0.26130000  0.00890000  1.0 -0.2588478284
C  C26  1  0.41220000  0.26130000  0.49110000  1.0 -0.2588478284
C  C27  1  0.41220000  0.73870000  0.99110000  1.0 -0.2588478284
C  C28  1  0.58780000  0.73870000  0.50890000  1.0 -0.2588478284
C  C29  1  0.62440000  0.15500000  0.97070000  1.0 -0.1419249358
C  C30  1  0.37560000  0.15500000  0.52930000  1.0 -0.1419249358
C  C31  1  0.37560000  0.84500000  0.02930000  1.0 -0.1419249358
C  C32  1  0.62440000  0.84500000  0.47070000  1.0 -0.1419249358
C  C33  1  0.70110000  0.06870000  0.02050000  1.0 -0.2588478284
C  C34  1  0.29890000  0.06870000  0.47950000  1.0 -0.2588478284
C  C35  1  0.29890000  0.93130000  0.97950000  1.0 -0.2588478284
C  C36  1  0.70110000  0.93130000  0.52050000  1.0 -0.2588478284
C  C37  1  0.75450000  0.96510000  0.98760000  1.0 0.1608475042
C  C38  1  0.24550000  0.96510000  0.51240000  1.0 0.1608475042
C  C39  1  0.24550000  0.03490000  0.01240000  1.0 0.1608475042
C  C40  1  0.75450000  0.03490000  0.48760000  1.0 0.1608475042
C  C41  1  0.86360000  0.90200000  0.02430000  1.0 -0.2220120946
C  C42  1  0.13640000  0.90200000  0.47570000  1.0 -0.2220120946
C  C43  1  0.13640000  0.09800000  0.97570000  1.0 -0.2220120946
C  C44  1  0.86360000  0.09800000  0.52430000  1.0 -0.2220120946
C  C45  1  0.91200000  0.80560000  0.99540000  1.0 0.0596888853
C  C46  1  0.08800000  0.80560000  0.50460000  1.0 0.0596888853
C  C47  1  0.08800000  0.19440000  0.00460000  1.0 0.0596888853
C  C48  1  0.91200000  0.19440000  0.49540000  1.0 0.0596888853
C  C49  1  0.75210000  0.82650000  0.89440000  1.0 0.0773238172
C  C50  1  0.24790000  0.82650000  0.60560000  1.0 0.0773238172
C  C51  1  0.24790000  0.17350000  0.10560000  1.0 0.0773238172
C  C52  1  0.75210000  0.17350000  0.39440000  1.0 0.0773238172
C  C53  1  0.69980000  0.92150000  0.92200000  1.0 -0.2105292995
C  C54  1  0.30020000  0.92150000  0.57800000  1.0 -0.2105292995
C  C55  1  0.30020000  0.07850000  0.07800000  1.0 -0.2105292995
C  C56  1  0.69980000  0.07850000  0.42200000  1.0 -0.2105292995
S  S1  1  0.11840000  0.73280000  0.83622000  1.0 -0.514135118
S  S2  1  0.88160000  0.73280000  0.66378000  1.0 -0.514135118
S  S3  1  0.88160000  0.26720000  0.16378000  1.0 -0.514135118
S  S4  1  0.11840000  0.26720000  0.33622000  1.0 -0.5154487448
S  S5  1  0.84680000  0.52000000  0.79839000  1.0 -0.487356055
S  S6  1  0.15320000  0.52000000  0.70161000  1.0 -0.487356055
S  S7  1  0.15320000  0.48000000  0.20161000  1.0 -0.487356055
S  S8  1  0.84680000  0.48000000  0.29839000  1.0 -0.487356055
N  N1  1  0.99620000  0.52960000  0.97490000  1.0 -0.0817677541
N  N2  1  0.00380000  0.52960000  0.52510000  1.0 -0.0817677541
N  N3  1  0.00380000  0.47040000  0.02510000  1.0 -0.0817677541
N  N4  1  0.99620000  0.47040000  0.47490000  1.0 -0.0817677541
N  N5  1  0.37920000  0.50950000  0.86320000  1.0 -0.1977016287
N  N6  1  0.62080000  0.50950000  0.63680000  1.0 -0.1977016287
N  N7  1  0.62080000  0.49050000  0.13680000  1.0 -0.1977016287
N  N8  1  0.37920000  0.49050000  0.36320000  1.0 -0.1977016287
N  N9  1  0.85980000  0.76480000  0.92970000  1.0 -0.2105292995
N  N10  1  0.14020000  0.76480000  0.57030000  1.0 -0.2105292995
N  N11  1  0.14020000  0.23520000  0.07030000  1.0 -0.2105292995
N  N12  1  0.85980000  0.23520000  0.42970000  1.0 -0.2105292995
