# DDEC6 charges by PACMAN v1.1 (https://github.com/mtap-research/PACMAN-charge/)
data_GOBTAT_FSR_pacman
_symmetry_space_group_name_H-M   'P 1'
_cell_length_a   14.61570000
_cell_length_b   14.61570000
_cell_length_c   17.29200000
_cell_angle_alpha   87.39710000
_cell_angle_beta   92.60290000
_cell_angle_gamma   87.07800000
_symmetry_Int_Tables_number   1
_chemical_formula_structural   Co3H42C48(NO6)2
_chemical_formula_sum   'Co6 H84 C96 N4 O24'
_cell_volume   3681.06597941
_cell_formula_units_Z   2
loop_
 _symmetry_equiv_pos_site_id
 _symmetry_equiv_pos_as_xyz
  1  'x, y, z'
loop_
 _atom_site_type_symbol
 _atom_site_label
 _atom_site_symmetry_multiplicity
 _atom_site_fract_x
 _atom_site_fract_y
 _atom_site_fract_z
 _atom_site_occupancy
 _atom_site_charge
Co  Co1  1  0.63642000  0.84950000  0.89410000  1.0 0.7402204216
Co  Co2  1  0.84950000  0.63642000  0.60590000  1.0 0.7402204216
Co  Co3  1  0.36358000  0.15050000  0.10590000  1.0 0.7402204216
Co  Co4  1  0.15050000  0.36358000  0.39410000  1.0 0.7402204216
Co  Co5  1  0.50000000  0.00000000  0.00000000  1.0 1.1617001534
Co  Co6  1  0.00000000  0.50000000  0.50000000  1.0 1.1617001534
H  H1  1  0.41960000  0.75660000  0.76490000  1.0 0.1197486588
H  H2  1  0.75660000  0.41960000  0.73510000  1.0 0.1197486588
H  H3  1  0.58040000  0.24340000  0.23510000  1.0 0.1197486588
H  H4  1  0.24340000  0.58040000  0.26490000  1.0 0.1197486588
H  H5  1  0.34890000  0.65210000  0.67220000  1.0 0.1197486588
H  H6  1  0.65210000  0.34890000  0.82780000  1.0 0.1197486588
H  H7  1  0.65110000  0.34790000  0.32780000  1.0 0.1197486588
H  H8  1  0.34790000  0.65110000  0.17220000  1.0 0.1197486588
H  H9  1  0.21990000  0.59930000  0.61020000  1.0 0.1311711601
H  H10  1  0.59930000  0.21990000  0.88980000  1.0 0.1311711601
H  H11  1  0.78010000  0.40070000  0.38980000  1.0 0.1311711601
H  H12  1  0.40070000  0.78010000  0.11020000  1.0 0.1311711601
H  H13  1  0.05910000  0.79350000  0.70590000  1.0 0.1311711601
H  H14  1  0.79350000  0.05910000  0.79410000  1.0 0.1311711601
H  H15  1  0.94090000  0.20650000  0.29410000  1.0 0.1311711601
H  H16  1  0.20650000  0.94090000  0.20590000  1.0 0.1311711601
H  H17  1  0.13140000  0.90240000  0.79650000  1.0 0.1197486588
H  H18  1  0.90240000  0.13140000  0.70350000  1.0 0.1197486588
H  H19  1  0.86860000  0.09760000  0.20350000  1.0 0.1197486588
H  H20  1  0.09760000  0.86860000  0.29650000  1.0 0.1197486588
H  H21  1  0.26010000  0.95010000  0.86250000  1.0 0.1311711601
H  H22  1  0.95010000  0.26010000  0.63750000  1.0 0.1311711601
H  H23  1  0.73990000  0.04990000  0.13750000  1.0 0.1311711601
H  H24  1  0.04990000  0.73990000  0.36250000  1.0 0.1311711601
H  H25  1  0.56060000  0.87780000  0.16010000  1.0 0.1197486588
H  H26  1  0.87780000  0.56060000  0.33990000  1.0 0.1197486588
H  H27  1  0.43940000  0.12220000  0.83990000  1.0 0.1197486588
H  H28  1  0.12220000  0.43940000  0.66010000  1.0 0.1197486588
H  H29  1  0.58740000  0.83720000  0.29090000  1.0 0.1197486588
H  H30  1  0.83720000  0.58740000  0.20910000  1.0 0.1197486588
H  H31  1  0.41260000  0.16280000  0.70910000  1.0 0.1197486588
H  H32  1  0.16280000  0.41260000  0.79090000  1.0 0.1197486588
H  H33  1  0.74520000  0.67920000  0.10390000  1.0 0.1311711601
H  H34  1  0.67920000  0.74520000  0.39610000  1.0 0.1311711601
H  H35  1  0.25480000  0.32080000  0.89610000  1.0 0.1311711601
H  H36  1  0.32080000  0.25480000  0.60390000  1.0 0.1311711601
H  H37  1  0.81450000  0.76030000  0.86840000  1.0 0.0819434124
H  H38  1  0.76030000  0.81450000  0.63160000  1.0 0.0819434124
H  H39  1  0.18550000  0.23970000  0.13160000  1.0 0.0819434124
H  H40  1  0.23970000  0.18550000  0.36840000  1.0 0.0819434124
H  H41  1  0.75000000  0.67500000  0.86700000  1.0 0.0717778796
H  H42  1  0.67500000  0.75000000  0.63300000  1.0 0.0717778796
H  H43  1  0.25000000  0.32500000  0.13300000  1.0 0.0717778796
H  H44  1  0.32500000  0.25000000  0.36700000  1.0 0.0717778796
H  H45  1  0.78100000  0.89140000  0.77030000  1.0 0.0717778796
H  H46  1  0.89140000  0.78100000  0.72970000  1.0 0.0717778796
H  H47  1  0.21900000  0.10860000  0.22970000  1.0 0.0717778796
H  H48  1  0.10860000  0.21900000  0.27030000  1.0 0.0717778796
H  H49  1  0.68030000  0.89870000  0.72850000  1.0 0.0855882854
H  H50  1  0.89870000  0.68030000  0.77150000  1.0 0.0855882854
H  H51  1  0.31970000  0.10130000  0.27150000  1.0 0.0819434124
H  H52  1  0.10130000  0.31970000  0.22850000  1.0 0.0819434124
H  H53  1  0.59500000  0.69400000  0.79260000  1.0 0.1001006902
H  H54  1  0.69400000  0.59500000  0.70740000  1.0 0.1001006902
H  H55  1  0.40500000  0.30600000  0.20740000  1.0 0.1001006902
H  H56  1  0.30600000  0.40500000  0.29260000  1.0 0.1001006902
H  H57  1  0.58640000  0.77840000  0.72930000  1.0 0.0717778796
H  H58  1  0.77840000  0.58640000  0.77070000  1.0 0.0717778796
H  H59  1  0.41360000  0.22160000  0.27070000  1.0 0.0717778796
H  H60  1  0.22160000  0.41360000  0.22930000  1.0 0.0717778796
H  H61  1  0.81860000  0.72660000  0.86900000  1.0 0.0819434124
H  H62  1  0.72660000  0.81860000  0.63100000  1.0 0.0819434124
H  H63  1  0.18140000  0.27340000  0.13100000  1.0 0.0819434124
H  H64  1  0.27340000  0.18140000  0.36900000  1.0 0.0819434124
H  H65  1  0.83140000  0.82940000  0.83650000  1.0 0.0717778796
H  H66  1  0.82940000  0.83140000  0.66350000  1.0 0.0717778796
H  H67  1  0.16860000  0.17060000  0.16350000  1.0 0.0717778796
H  H68  1  0.17060000  0.16860000  0.33650000  1.0 0.0717778796
H  H69  1  0.61930000  0.83870000  0.71930000  1.0 0.0717778796
H  H70  1  0.83870000  0.61930000  0.78070000  1.0 0.0717778796
H  H71  1  0.38070000  0.16130000  0.28070000  1.0 0.0717778796
H  H72  1  0.16130000  0.38070000  0.21930000  1.0 0.0717778796
H  H73  1  0.71400000  0.88780000  0.73060000  1.0 0.0819434124
H  H74  1  0.88780000  0.71400000  0.76940000  1.0 0.0819434124
H  H75  1  0.28600000  0.11220000  0.26940000  1.0 0.0819434124
H  H76  1  0.11220000  0.28600000  0.23060000  1.0 0.0819434124
H  H77  1  0.68260000  0.65120000  0.85170000  1.0 0.0717778796
H  H78  1  0.65120000  0.68260000  0.64830000  1.0 0.0717778796
H  H79  1  0.31740000  0.34880000  0.14830000  1.0 0.0717778796
H  H80  1  0.34880000  0.31740000  0.35170000  1.0 0.0717778796
H  H81  1  0.60890000  0.68130000  0.78270000  1.0 0.1062720806
H  H82  1  0.68130000  0.60890000  0.71730000  1.0 0.1062720806
H  H83  1  0.39110000  0.31870000  0.21730000  1.0 0.1062720806
H  H84  1  0.31870000  0.39110000  0.28270000  1.0 0.1062720806
C  C1  1  0.43540000  0.88424000  0.86624000  1.0 0.5684304029
C  C2  1  0.88424000  0.43540000  0.63376000  1.0 0.5684304029
C  C3  1  0.56460000  0.11576000  0.13376000  1.0 0.5684304029
C  C4  1  0.11576000  0.56460000  0.36624000  1.0 0.5684304029
C  C5  1  0.35271000  0.85551000  0.82046000  1.0 -0.0119227707
C  C6  1  0.85551000  0.35271000  0.67954000  1.0 -0.0119227707
C  C7  1  0.64729000  0.14449000  0.17954000  1.0 -0.0119227707
C  C8  1  0.14449000  0.64729000  0.32046000  1.0 -0.0119227707
C  C9  1  0.36085000  0.78521000  0.77145000  1.0 -0.1757755019
C  C10  1  0.78521000  0.36085000  0.72855000  1.0 -0.1757755019
C  C11  1  0.63915000  0.21479000  0.22855000  1.0 -0.1757755019
C  C12  1  0.21479000  0.63915000  0.27145000  1.0 -0.1757755019
C  C13  1  0.28353000  0.75413000  0.73015000  1.0 0.0717778796
C  C14  1  0.75413000  0.28353000  0.76985000  1.0 0.0717778796
C  C15  1  0.71647000  0.24587000  0.26985000  1.0 0.0717778796
C  C16  1  0.24587000  0.71647000  0.23015000  1.0 0.0717778796
C  C17  1  0.29040000  0.68060000  0.68010000  1.0 -0.1530513375
C  C18  1  0.68060000  0.29040000  0.81990000  1.0 -0.1530513375
C  C19  1  0.70960000  0.31940000  0.31990000  1.0 -0.1530513375
C  C20  1  0.31940000  0.70960000  0.18010000  1.0 -0.1530513375
C  C21  1  0.21421000  0.64959000  0.64290000  1.0 -0.1095310533
C  C22  1  0.64959000  0.21421000  0.85710000  1.0 -0.1095310533
C  C23  1  0.78579000  0.35041000  0.35710000  1.0 -0.1095310533
C  C24  1  0.35041000  0.78579000  0.14290000  1.0 -0.1095310533
C  C25  1  0.12711000  0.69267000  0.65306000  1.0 -0.0195003844
C  C26  1  0.69267000  0.12711000  0.84694000  1.0 -0.0195003844
C  C27  1  0.87289000  0.30733000  0.34694000  1.0 -0.0195003844
C  C28  1  0.30733000  0.87289000  0.15306000  1.0 -0.0195003844
C  C29  1  0.11801000  0.76489000  0.70008000  1.0 -0.1757755019
C  C30  1  0.76489000  0.11801000  0.79992000  1.0 -0.1757755019
C  C31  1  0.88199000  0.23511000  0.29992000  1.0 -0.1757755019
C  C32  1  0.23511000  0.88199000  0.20008000  1.0 -0.1738218128
C  C33  1  0.19596000  0.79758000  0.74047000  1.0 0.0717778796
C  C34  1  0.79758000  0.19596000  0.75953000  1.0 0.0717778796
C  C35  1  0.80404000  0.20242000  0.25953000  1.0 0.0717778796
C  C36  1  0.20242000  0.80404000  0.24047000  1.0 0.0717778796
C  C37  1  0.18939000  0.87189000  0.79020000  1.0 -0.1530513375
C  C38  1  0.87189000  0.18939000  0.70980000  1.0 -0.1530513375
C  C39  1  0.81061000  0.12811000  0.20980000  1.0 -0.1530513375
C  C40  1  0.12811000  0.81061000  0.29020000  1.0 -0.1530513375
C  C41  1  0.26557000  0.90025000  0.82930000  1.0 -0.1095310533
C  C42  1  0.90025000  0.26557000  0.67070000  1.0 -0.1095310533
C  C43  1  0.73443000  0.09975000  0.17070000  1.0 -0.1095310533
C  C44  1  0.09975000  0.73443000  0.32930000  1.0 -0.1095310533
C  C45  1  0.63893000  0.81097000  0.03621000  1.0 0.5684304029
C  C46  1  0.81097000  0.63893000  0.46379000  1.0 0.5684304029
C  C47  1  0.36107000  0.18903000  0.96379000  1.0 0.5684304029
C  C48  1  0.18903000  0.36107000  0.53621000  1.0 0.5684304029
C  C49  1  0.04479000  0.65391000  0.61430000  1.0 0.5684304029
C  C50  1  0.65391000  0.04479000  0.88570000  1.0 0.5684304029
C  C51  1  0.95521000  0.34609000  0.38570000  1.0 0.5684304029
C  C52  1  0.34609000  0.95521000  0.11430000  1.0 0.5684304029
C  C53  1  0.65273000  0.78281000  0.12029000  1.0 -0.0195003844
C  C54  1  0.78281000  0.65273000  0.37971000  1.0 -0.0195003844
C  C55  1  0.34727000  0.21719000  0.87971000  1.0 -0.0195003844
C  C56  1  0.21719000  0.34727000  0.62029000  1.0 -0.0195003844
C  C57  1  0.60468000  0.82972000  0.17589000  1.0 -0.101348108
C  C58  1  0.82972000  0.60468000  0.32411000  1.0 -0.101348108
C  C59  1  0.39532000  0.17028000  0.82411000  1.0 -0.101348108
C  C60  1  0.17028000  0.39532000  0.67589000  1.0 -0.101348108
C  C61  1  0.62138000  0.80622000  0.25350000  1.0 -0.1530513375
C  C62  1  0.80622000  0.62138000  0.24650000  1.0 -0.1530513375
C  C63  1  0.37862000  0.19378000  0.74650000  1.0 -0.1530513375
C  C64  1  0.19378000  0.37862000  0.75350000  1.0 -0.1530513375
C  C65  1  0.71542000  0.71240000  0.14239000  1.0 -0.1591664314
C  C66  1  0.71240000  0.71542000  0.35761000  1.0 -0.1591664314
C  C67  1  0.28458000  0.28760000  0.85761000  1.0 -0.1591664314
C  C68  1  0.28760000  0.28458000  0.64239000  1.0 -0.1591664314
C  C69  1  0.68848000  0.73634000  0.27825000  1.0 0.0717778796
C  C70  1  0.73634000  0.68848000  0.22175000  1.0 0.0717778796
C  C71  1  0.31152000  0.26366000  0.72175000  1.0 0.0717778796
C  C72  1  0.26366000  0.31152000  0.77825000  1.0 0.0717778796
C  C73  1  0.77360000  0.72560000  0.83490000  1.0 -0.0689799673
C  C74  1  0.72560000  0.77360000  0.66510000  1.0 -0.0689799673
C  C75  1  0.22640000  0.27440000  0.16510000  1.0 -0.0689799673
C  C76  1  0.27440000  0.22640000  0.33490000  1.0 -0.0689799673
C  C77  1  0.73260000  0.85580000  0.74590000  1.0 -0.101348108
C  C78  1  0.85580000  0.73260000  0.75410000  1.0 -0.101348108
C  C79  1  0.26740000  0.14420000  0.25410000  1.0 -0.101348108
C  C80  1  0.14420000  0.26740000  0.24590000  1.0 -0.101348108
C  C81  1  0.62990000  0.73350000  0.75790000  1.0 -0.1250777602
C  C82  1  0.73350000  0.62990000  0.74210000  1.0 -0.1250777602
C  C83  1  0.37010000  0.26650000  0.24210000  1.0 -0.1244277641
C  C84  1  0.26650000  0.37010000  0.25790000  1.0 -0.1250777602
C  C85  1  0.80680000  0.76980000  0.82350000  1.0 -0.087677563
C  C86  1  0.76980000  0.80680000  0.67650000  1.0 -0.087677563
C  C87  1  0.19320000  0.23020000  0.17650000  1.0 -0.087677563
C  C88  1  0.23020000  0.19320000  0.32350000  1.0 -0.087677563
C  C89  1  0.68610000  0.82750000  0.73020000  1.0 -0.046346838
C  C90  1  0.82750000  0.68610000  0.76980000  1.0 -0.046346838
C  C91  1  0.31390000  0.17250000  0.26980000  1.0 -0.046346838
C  C92  1  0.17250000  0.31390000  0.23020000  1.0 -0.046346838
C  C93  1  0.67450000  0.68250000  0.79970000  1.0 -0.0689799673
C  C94  1  0.68250000  0.67450000  0.70030000  1.0 -0.0689799673
C  C95  1  0.32550000  0.31750000  0.20030000  1.0 -0.0689799673
C  C96  1  0.31750000  0.32550000  0.29970000  1.0 -0.0689799673
N  N1  1  0.70087000  0.78299000  0.80488000  1.0 -0.1095310533
N  N2  1  0.78299000  0.70087000  0.69512000  1.0 -0.1095310533
N  N3  1  0.29913000  0.21701000  0.19512000  1.0 -0.1095310533
N  N4  1  0.21701000  0.29913000  0.30488000  1.0 -0.1095310533
O  O1  1  0.51150000  0.84468000  0.85077000  1.0 -0.5801449254
O  O2  1  0.84468000  0.51150000  0.64923000  1.0 -0.5801449254
O  O3  1  0.48850000  0.15532000  0.14923000  1.0 -0.5801449254
O  O4  1  0.15532000  0.48850000  0.35077000  1.0 -0.5801449254
O  O5  1  0.42325000  0.94365000  0.91434000  1.0 -0.5413350969
O  O6  1  0.94365000  0.42325000  0.58566000  1.0 -0.5413350969
O  O7  1  0.57675000  0.05635000  0.08566000  1.0 -0.5413350969
O  O8  1  0.05635000  0.57675000  0.41434000  1.0 -0.5413350969
O  O9  1  0.58800000  0.88014000  0.01430000  1.0 -0.5801449254
O  O10  1  0.88014000  0.58800000  0.48570000  1.0 -0.5801449254
O  O11  1  0.41200000  0.11986000  0.98570000  1.0 -0.5801449254
O  O12  1  0.11986000  0.41200000  0.51430000  1.0 -0.5801449254
O  O13  1  0.68124000  0.76594000  0.98623000  1.0 -0.553909266
O  O14  1  0.76594000  0.68124000  0.51377000  1.0 -0.553909266
O  O15  1  0.31876000  0.23406000  0.01377000  1.0 -0.553909266
O  O16  1  0.23406000  0.31876000  0.48623000  1.0 -0.553909266
O  O17  1  0.05896000  0.58240000  0.57899000  1.0 -0.5564840197
O  O18  1  0.58240000  0.05896000  0.92101000  1.0 -0.553909266
O  O19  1  0.94104000  0.41760000  0.42101000  1.0 -0.5564840197
O  O20  1  0.41760000  0.94104000  0.07899000  1.0 -0.5564840197
O  O21  1  0.96701000  0.69467000  0.62237000  1.0 -0.5718893319
O  O22  1  0.69467000  0.96701000  0.87763000  1.0 -0.5718893319
O  O23  1  0.03299000  0.30533000  0.37763000  1.0 -0.5718893319
O  O24  1  0.30533000  0.03299000  0.12237000  1.0 -0.5718893319
