# DDEC6 charges by PACMAN v1.1 (https://github.com/mtap-research/PACMAN-charge/)
data_GODMUK_ASR_pacman
_symmetry_space_group_name_H-M   'P 1'
_cell_length_a   12.59790000
_cell_length_b   12.59790000
_cell_length_c   15.80850000
_cell_angle_alpha   80.16600000
_cell_angle_beta   99.83400000
_cell_angle_gamma   77.15660000
_symmetry_Int_Tables_number   1
_chemical_formula_structural   CdH34C48(S2N3)2
_chemical_formula_sum   'Cd2 H68 C96 S8 N12'
_cell_volume   2352.61156435
_cell_formula_units_Z   2
loop_
 _symmetry_equiv_pos_site_id
 _symmetry_equiv_pos_as_xyz
  1  'x, y, z'
loop_
 _atom_site_type_symbol
 _atom_site_label
 _atom_site_symmetry_multiplicity
 _atom_site_fract_x
 _atom_site_fract_y
 _atom_site_fract_z
 _atom_site_occupancy
 _atom_site_charge
Cd  Cd1  1  0.50000000  0.00000000  0.00000000  1.0 0.7140348091
Cd  Cd2  1  0.00000000  0.50000000  0.00000000  1.0 0.7140348091
H  H1  1  0.86655000  0.03071000  0.19736000  1.0 0.1010401201
H  H2  1  0.75406000  0.99382000  0.08363000  1.0 0.0683896778
H  H3  1  0.48805000  0.12617000  0.16272000  1.0 0.0785277866
H  H4  1  0.59304000  0.15758000  0.28191000  1.0 0.1010401201
H  H5  1  0.88076000  0.99896000  0.90390000  1.0 0.1010401201
H  H6  1  0.75877000  0.98221000  0.99153000  1.0 0.0683896778
H  H7  1  0.49895000  0.12659000  0.80428000  1.0 0.0909511268
H  H8  1  0.61242000  0.15612000  0.70540000  1.0 0.0909511268
H  H9  1  0.37381000  0.51185000  0.08907000  1.0 0.1241158455
H  H10  1  0.75819000  0.93579000  0.30603000  1.0 0.0909511268
H  H11  1  0.63816000  0.90368000  0.18964000  1.0 0.0909511268
H  H12  1  0.59417000  0.20963000  0.06108000  1.0 0.0785277866
H  H13  1  0.70377000  0.24845000  0.17868000  1.0 0.0785277866
H  H14  1  0.73105000  0.21997000  0.83332000  1.0 0.0785277866
H  H15  1  0.62582000  0.17238000  0.92778000  1.0 0.0785277866
H  H16  1  0.65242000  0.88044000  0.87406000  1.0 0.0909511268
H  H17  1  0.76543000  0.91381000  0.77817000  1.0 0.1010401201
H  H18  1  0.03071000  0.86655000  0.80264000  1.0 0.1010401201
H  H19  1  0.99382000  0.75406000  0.91637000  1.0 0.0683896778
H  H20  1  0.12617000  0.48805000  0.83728000  1.0 0.0785277866
H  H21  1  0.15758000  0.59304000  0.71809000  1.0 0.1010401201
H  H22  1  0.99896000  0.88076000  0.09610000  1.0 0.1010401201
H  H23  1  0.98221000  0.75877000  0.00847000  1.0 0.0683896778
H  H24  1  0.12659000  0.49895000  0.19572000  1.0 0.0909511268
H  H25  1  0.15612000  0.61242000  0.29460000  1.0 0.0909511268
H  H26  1  0.51185000  0.37381000  0.91093000  1.0 0.1241158455
H  H27  1  0.93579000  0.75819000  0.69397000  1.0 0.0909511268
H  H28  1  0.90368000  0.63816000  0.81036000  1.0 0.0909511268
H  H29  1  0.20963000  0.59417000  0.93892000  1.0 0.0785277866
H  H30  1  0.24845000  0.70377000  0.82132000  1.0 0.0785277866
H  H31  1  0.21997000  0.73105000  0.16668000  1.0 0.0785277866
H  H32  1  0.17238000  0.62582000  0.07222000  1.0 0.0785277866
H  H33  1  0.88044000  0.65242000  0.12594000  1.0 0.0909511268
H  H34  1  0.91381000  0.76543000  0.22183000  1.0 0.1010401201
H  H35  1  0.13345000  0.96929000  0.80264000  1.0 0.1010401201
H  H36  1  0.24594000  0.00618000  0.91637000  1.0 0.0683896778
H  H37  1  0.51195000  0.87383000  0.83728000  1.0 0.0785277866
H  H38  1  0.40696000  0.84242000  0.71809000  1.0 0.1010401201
H  H39  1  0.11924000  0.00104000  0.09610000  1.0 0.1010401201
H  H40  1  0.24123000  0.01779000  0.00847000  1.0 0.0683896778
H  H41  1  0.50105000  0.87341000  0.19572000  1.0 0.0909511268
H  H42  1  0.38758000  0.84388000  0.29460000  1.0 0.0909511268
H  H43  1  0.62619000  0.48815000  0.91093000  1.0 0.1241158455
H  H44  1  0.24181000  0.06421000  0.69397000  1.0 0.0909511268
H  H45  1  0.36184000  0.09632000  0.81036000  1.0 0.0909511268
H  H46  1  0.40583000  0.79037000  0.93892000  1.0 0.0785277866
H  H47  1  0.29623000  0.75155000  0.82132000  1.0 0.0785277866
H  H48  1  0.26895000  0.78003000  0.16668000  1.0 0.0785277866
H  H49  1  0.37418000  0.82762000  0.07222000  1.0 0.0785277866
H  H50  1  0.34758000  0.11956000  0.12594000  1.0 0.0909511268
H  H51  1  0.23457000  0.08619000  0.22183000  1.0 0.1010401201
H  H52  1  0.96929000  0.13345000  0.19736000  1.0 0.1010401201
H  H53  1  0.00618000  0.24594000  0.08363000  1.0 0.0683896778
H  H54  1  0.87383000  0.51195000  0.16272000  1.0 0.0785277866
H  H55  1  0.84242000  0.40696000  0.28191000  1.0 0.1010401201
H  H56  1  0.00104000  0.11924000  0.90390000  1.0 0.1010401201
H  H57  1  0.01779000  0.24123000  0.99153000  1.0 0.0683896778
H  H58  1  0.87341000  0.50105000  0.80428000  1.0 0.0909511268
H  H59  1  0.84388000  0.38758000  0.70540000  1.0 0.0909511268
H  H60  1  0.48815000  0.62619000  0.08907000  1.0 0.1241158455
H  H61  1  0.06421000  0.24181000  0.30603000  1.0 0.0909511268
H  H62  1  0.09632000  0.36184000  0.18964000  1.0 0.0909511268
H  H63  1  0.79037000  0.40583000  0.06108000  1.0 0.0785277866
H  H64  1  0.75155000  0.29623000  0.17868000  1.0 0.0785277866
H  H65  1  0.78003000  0.26895000  0.83332000  1.0 0.0785277866
H  H66  1  0.82762000  0.37418000  0.92778000  1.0 0.0785277866
H  H67  1  0.11956000  0.34758000  0.87406000  1.0 0.0909511268
H  H68  1  0.08619000  0.23457000  0.77817000  1.0 0.1010401201
C  C1  1  0.76090000  0.07690000  0.79110000  1.0 0.0631663561
C  C2  1  0.81320000  0.11760000  0.33210000  1.0 -0.0766893752
C  C3  1  0.74310000  0.09850000  0.25410000  1.0 0.0631663561
C  C4  1  0.78970000  0.04910000  0.19230000  1.0 -0.1389927084
C  C5  1  0.72160000  0.02780000  0.12410000  1.0 -0.0310064579
C  C6  1  0.56530000  0.10430000  0.17100000  1.0 -0.0212194256
C  C7  1  0.62750000  0.12530000  0.24160000  1.0 -0.0987999082
C  C8  1  0.80440000  0.02380000  0.88080000  1.0 -0.1389927084
C  C9  1  0.72950000  0.01070000  0.93170000  1.0 -0.0022648323
C  C10  1  0.57580000  0.09700000  0.82180000  1.0 -0.0398075891
C  C11  1  0.64400000  0.11680000  0.76290000  1.0 -0.1114402935
C  C12  1  0.83210000  0.09930000  0.72880000  1.0 -0.0893176548
C  C13  1  0.37430000  0.25910000  0.96560000  1.0 0.1572582744
C  C14  1  0.42480000  0.50680000  0.05290000  1.0 -0.1735702768
C  C15  1  0.72400000  0.99300000  0.25690000  1.0 -0.0987999082
C  C16  1  0.65390000  0.97290000  0.18600000  1.0 -0.0212194256
C  C17  1  0.62700000  0.15320000  0.11100000  1.0 -0.0212194256
C  C18  1  0.69380000  0.17700000  0.18210000  1.0 -0.1114402935
C  C19  1  0.71640000  0.15020000  0.83900000  1.0 -0.0893176548
C  C20  1  0.65090000  0.12110000  0.89500000  1.0 0.0042506404
C  C21  1  0.66830000  0.94950000  0.86330000  1.0 -0.0694852002
C  C22  1  0.73600000  0.96880000  0.80640000  1.0 -0.1270773501
C  C23  1  0.07690000  0.76090000  0.20890000  1.0 0.0631663561
C  C24  1  0.11760000  0.81320000  0.66790000  1.0 -0.0766893752
C  C25  1  0.09850000  0.74310000  0.74590000  1.0 0.0631663561
C  C26  1  0.04910000  0.78970000  0.80770000  1.0 -0.1389927084
C  C27  1  0.02780000  0.72160000  0.87590000  1.0 -0.0310064579
C  C28  1  0.10430000  0.56530000  0.82900000  1.0 -0.0212194256
C  C29  1  0.12530000  0.62750000  0.75840000  1.0 -0.0987999082
C  C30  1  0.02380000  0.80440000  0.11920000  1.0 -0.1454924807
C  C31  1  0.01070000  0.72950000  0.06830000  1.0 -0.0022648323
C  C32  1  0.09700000  0.57580000  0.17820000  1.0 -0.0398075891
C  C33  1  0.11680000  0.64400000  0.23710000  1.0 -0.1114402935
C  C34  1  0.09930000  0.83210000  0.27120000  1.0 -0.0893176548
C  C35  1  0.25910000  0.37430000  0.03440000  1.0 0.1572582744
C  C36  1  0.50680000  0.42480000  0.94710000  1.0 -0.1735702768
C  C37  1  0.99300000  0.72400000  0.74310000  1.0 -0.0987999082
C  C38  1  0.97290000  0.65390000  0.81400000  1.0 -0.0212194256
C  C39  1  0.15320000  0.62700000  0.88900000  1.0 -0.0212194256
C  C40  1  0.17700000  0.69380000  0.81790000  1.0 -0.1114402935
C  C41  1  0.15020000  0.71640000  0.16100000  1.0 -0.0893176548
C  C42  1  0.12110000  0.65090000  0.10500000  1.0 0.0042506404
C  C43  1  0.94950000  0.66830000  0.13670000  1.0 -0.0694852002
C  C44  1  0.96880000  0.73600000  0.19360000  1.0 -0.1270773501
C  C45  1  0.23910000  0.92310000  0.20890000  1.0 0.0631663561
C  C46  1  0.18680000  0.88240000  0.66790000  1.0 -0.0766893752
C  C47  1  0.25690000  0.90150000  0.74590000  1.0 0.0631663561
C  C48  1  0.21030000  0.95090000  0.80770000  1.0 -0.1389927084
C  C49  1  0.27840000  0.97220000  0.87590000  1.0 -0.0310064579
C  C50  1  0.43470000  0.89570000  0.82900000  1.0 -0.0212194256
C  C51  1  0.37250000  0.87470000  0.75840000  1.0 -0.0987999082
C  C52  1  0.19560000  0.97620000  0.11920000  1.0 -0.1454924807
C  C53  1  0.27050000  0.98930000  0.06830000  1.0 -0.0022648323
C  C54  1  0.42420000  0.90300000  0.17820000  1.0 -0.0398075891
C  C55  1  0.35600000  0.88320000  0.23710000  1.0 -0.1114402935
C  C56  1  0.16790000  0.90070000  0.27120000  1.0 -0.0893176548
C  C57  1  0.62570000  0.74090000  0.03440000  1.0 0.1572582744
C  C58  1  0.57520000  0.49320000  0.94710000  1.0 -0.1735702768
C  C59  1  0.27600000  0.00700000  0.74310000  1.0 -0.0987999082
C  C60  1  0.34610000  0.02710000  0.81400000  1.0 -0.0212194256
C  C61  1  0.37300000  0.84680000  0.88900000  1.0 -0.0212194256
C  C62  1  0.30620000  0.82300000  0.81790000  1.0 -0.1114402935
C  C63  1  0.28360000  0.84980000  0.16100000  1.0 -0.0893176548
C  C64  1  0.34910000  0.87890000  0.10500000  1.0 0.0042506404
C  C65  1  0.33170000  0.05050000  0.13670000  1.0 -0.0694852002
C  C66  1  0.26400000  0.03120000  0.19360000  1.0 -0.1270773501
C  C67  1  0.92310000  0.23910000  0.79110000  1.0 0.0631663561
C  C68  1  0.88240000  0.18680000  0.33210000  1.0 -0.0766893752
C  C69  1  0.90150000  0.25690000  0.25410000  1.0 0.0631663561
C  C70  1  0.95090000  0.21030000  0.19230000  1.0 -0.1389927084
C  C71  1  0.97220000  0.27840000  0.12410000  1.0 -0.0310064579
C  C72  1  0.89570000  0.43470000  0.17100000  1.0 -0.0212194256
C  C73  1  0.87470000  0.37250000  0.24160000  1.0 -0.0987999082
C  C74  1  0.97620000  0.19560000  0.88080000  1.0 -0.1389927084
C  C75  1  0.98930000  0.27050000  0.93170000  1.0 -0.0022648323
C  C76  1  0.90300000  0.42420000  0.82180000  1.0 -0.0398075891
C  C77  1  0.88320000  0.35600000  0.76290000  1.0 -0.1114402935
C  C78  1  0.90070000  0.16790000  0.72880000  1.0 -0.0893176548
C  C79  1  0.74090000  0.62570000  0.96560000  1.0 0.1572582744
C  C80  1  0.49320000  0.57520000  0.05290000  1.0 -0.1735702768
C  C81  1  0.00700000  0.27600000  0.25690000  1.0 -0.0987999082
C  C82  1  0.02710000  0.34610000  0.18600000  1.0 -0.0212194256
C  C83  1  0.84680000  0.37300000  0.11100000  1.0 -0.0212194256
C  C84  1  0.82300000  0.30620000  0.18210000  1.0 -0.1114402935
C  C85  1  0.84980000  0.28360000  0.83900000  1.0 -0.0893176548
C  C86  1  0.87890000  0.34910000  0.89500000  1.0 0.0042506404
C  C87  1  0.05050000  0.33170000  0.86330000  1.0 -0.0694852002
C  C88  1  0.03120000  0.26400000  0.80640000  1.0 -0.1270773501
C  C89  1  0.89880000  0.10120000  0.58340000  1.0 -0.1114402935
C  C90  1  0.89030000  0.10970000  0.49490000  1.0 -0.1218411341
C  C91  1  0.10120000  0.89880000  0.41660000  1.0 -0.1114402935
C  C92  1  0.10970000  0.89030000  0.50510000  1.0 -0.1218411341
C  C93  1  0.35330000  0.35330000  0.00000000  1.0 -0.1915566191
C  C94  1  0.42850000  0.42850000  0.00000000  1.0 0.1010401201
C  C95  1  0.64670000  0.64670000  0.00000000  1.0 -0.1915566191
C  C96  1  0.57150000  0.57150000  0.00000000  1.0 0.1010401201
S  S1  1  0.82738000  0.02394000  0.64445000  1.0 0.0434651304
S  S2  1  0.81118000  0.03946000  0.43501000  1.0 0.0468427412
S  S3  1  0.02394000  0.82738000  0.35555000  1.0 0.0434651304
S  S4  1  0.03946000  0.81118000  0.56499000  1.0 0.0468427412
S  S5  1  0.17262000  0.97606000  0.35555000  1.0 0.0434651304
S  S6  1  0.18882000  0.96054000  0.56499000  1.0 0.0468427412
S  S7  1  0.97606000  0.17262000  0.64445000  1.0 0.0434651304
S  S8  1  0.96054000  0.18882000  0.43501000  1.0 0.0468427412
N  N1  1  0.62190000  0.03350000  0.90620000  1.0 -0.0398075891
N  N2  1  0.39350000  0.17910000  0.93680000  1.0 -0.5125150249
N  N3  1  0.60880000  0.05360000  0.11220000  1.0 -0.0694852002
N  N4  1  0.03350000  0.62190000  0.09380000  1.0 -0.0398075891
N  N5  1  0.17910000  0.39350000  0.06320000  1.0 -0.5125150249
N  N6  1  0.05360000  0.60880000  0.88780000  1.0 -0.0694852002
N  N7  1  0.37810000  0.96650000  0.09380000  1.0 -0.0398075891
N  N8  1  0.60650000  0.82090000  0.06320000  1.0 -0.5125150249
N  N9  1  0.39120000  0.94640000  0.88780000  1.0 -0.0694852002
N  N10  1  0.96650000  0.37810000  0.90620000  1.0 -0.0398075891
N  N11  1  0.82090000  0.60650000  0.93680000  1.0 -0.5125150249
N  N12  1  0.94640000  0.39120000  0.11220000  1.0 -0.0694852002
