# DDEC6 charges by PACMAN v1.1 (https://github.com/mtap-research/PACMAN-charge/)
data_GODNUL_ASR_pacman
_symmetry_space_group_name_H-M   'P 1'
_cell_length_a   12.52110000
_cell_length_b   12.52110000
_cell_length_c   15.88800000
_cell_angle_alpha   79.92080000
_cell_angle_beta   100.07900000
_cell_angle_gamma   75.57940000
_symmetry_Int_Tables_number   1
_chemical_formula_structural   CdH34C48(S2N3)2
_chemical_formula_sum   'Cd2 H68 C96 S8 N12'
_cell_volume   2311.92758309
_cell_formula_units_Z   2
loop_
 _symmetry_equiv_pos_site_id
 _symmetry_equiv_pos_as_xyz
  1  'x, y, z'
loop_
 _atom_site_type_symbol
 _atom_site_label
 _atom_site_symmetry_multiplicity
 _atom_site_fract_x
 _atom_site_fract_y
 _atom_site_fract_z
 _atom_site_occupancy
 _atom_site_charge
Cd  Cd1  1  0.00000000  0.50000000  0.00000000  1.0 0.6886946615
Cd  Cd2  1  0.50000000  0.00000000  0.00000000  1.0 0.6886946615
H  H1  1  0.49509000  0.62121000  0.09494000  1.0 0.1208838579
H  H2  1  0.23848000  0.03212000  0.01351000  1.0 0.0708460998
H  H3  1  0.11784000  0.99514000  0.09984000  1.0 0.0995201811
H  H4  1  0.39801000  0.83453000  0.29624000  1.0 0.0904055646
H  H5  1  0.50678000  0.87334000  0.19764000  1.0 0.0797731846
H  H6  1  0.03434000  0.87014000  0.80317000  1.0 0.0995201811
H  H7  1  0.99468000  0.75590000  0.91549000  1.0 0.0708460998
H  H8  1  0.13164000  0.48530000  0.84173000  1.0 0.0708460998
H  H9  1  0.16671000  0.58939000  0.72159000  1.0 0.0995201811
H  H10  1  0.34625000  0.11429000  0.12646000  1.0 0.0904055646
H  H11  1  0.23394000  0.08152000  0.22033000  1.0 0.0995201811
H  H12  1  0.26934000  0.77408000  0.16818000  1.0 0.0708460998
H  H13  1  0.37969000  0.81893000  0.07452000  1.0 0.0708460998
H  H14  1  0.93458000  0.75156000  0.69039000  1.0 0.0904055646
H  H15  1  0.90303000  0.63977000  0.80957000  1.0 0.0904055646
H  H16  1  0.20397000  0.59657000  0.94399000  1.0 0.0797731846
H  H17  1  0.25009000  0.69959000  0.83119000  1.0 0.0797731846
H  H18  1  0.62121000  0.49509000  0.90506000  1.0 0.1208838579
H  H19  1  0.03212000  0.23848000  0.98649000  1.0 0.0708460998
H  H20  1  0.99514000  0.11784000  0.90016000  1.0 0.0995201811
H  H21  1  0.83453000  0.39801000  0.70376000  1.0 0.0904055646
H  H22  1  0.87334000  0.50678000  0.80236000  1.0 0.0797731846
H  H23  1  0.87014000  0.03434000  0.19683000  1.0 0.0904055646
H  H24  1  0.75590000  0.99468000  0.08451000  1.0 0.0708460998
H  H25  1  0.48530000  0.13164000  0.15827000  1.0 0.0708460998
H  H26  1  0.58939000  0.16671000  0.27841000  1.0 0.0995201811
H  H27  1  0.11429000  0.34625000  0.87354000  1.0 0.0904055646
H  H28  1  0.08152000  0.23394000  0.77967000  1.0 0.0995201811
H  H29  1  0.77408000  0.26934000  0.83182000  1.0 0.0708460998
H  H30  1  0.81893000  0.37969000  0.92548000  1.0 0.0708460998
H  H31  1  0.75156000  0.93458000  0.30961000  1.0 0.0904055646
H  H32  1  0.63977000  0.90303000  0.19043000  1.0 0.0904055646
H  H33  1  0.59657000  0.20397000  0.05601000  1.0 0.0797731846
H  H34  1  0.69959000  0.25009000  0.16881000  1.0 0.0797731846
H  H35  1  0.50491000  0.37879000  0.90506000  1.0 0.1208838579
H  H36  1  0.76152000  0.96788000  0.98649000  1.0 0.0708460998
H  H37  1  0.88216000  0.00486000  0.90016000  1.0 0.0995201811
H  H38  1  0.60199000  0.16547000  0.70376000  1.0 0.0904055646
H  H39  1  0.49322000  0.12666000  0.80236000  1.0 0.0797731846
H  H40  1  0.96566000  0.12986000  0.19683000  1.0 0.0904055646
H  H41  1  0.00532000  0.24410000  0.08451000  1.0 0.0708460998
H  H42  1  0.86836000  0.51470000  0.15827000  1.0 0.0708460998
H  H43  1  0.83329000  0.41061000  0.27841000  1.0 0.0995201811
H  H44  1  0.65375000  0.88571000  0.87354000  1.0 0.0904055646
H  H45  1  0.76606000  0.91848000  0.77967000  1.0 0.0995201811
H  H46  1  0.73066000  0.22592000  0.83182000  1.0 0.0708460998
H  H47  1  0.62031000  0.18107000  0.92548000  1.0 0.0708460998
H  H48  1  0.06542000  0.24844000  0.30961000  1.0 0.0904055646
H  H49  1  0.09697000  0.36023000  0.19043000  1.0 0.0904055646
H  H50  1  0.79603000  0.40343000  0.05601000  1.0 0.0797731846
H  H51  1  0.74991000  0.30041000  0.16881000  1.0 0.0797731846
H  H52  1  0.37879000  0.50491000  0.09494000  1.0 0.1208838579
H  H53  1  0.96788000  0.76152000  0.01351000  1.0 0.0708460998
H  H54  1  0.00486000  0.88216000  0.09984000  1.0 0.0995201811
H  H55  1  0.16547000  0.60199000  0.29624000  1.0 0.0904055646
H  H56  1  0.12666000  0.49322000  0.19764000  1.0 0.0797731846
H  H57  1  0.12986000  0.96566000  0.80317000  1.0 0.0904055646
H  H58  1  0.24410000  0.00532000  0.91549000  1.0 0.0708460998
H  H59  1  0.51470000  0.86836000  0.84173000  1.0 0.0708460998
H  H60  1  0.41061000  0.83329000  0.72159000  1.0 0.0995201811
H  H61  1  0.88571000  0.65375000  0.12646000  1.0 0.0904055646
H  H62  1  0.91848000  0.76606000  0.22033000  1.0 0.0995201811
H  H63  1  0.22592000  0.73066000  0.16818000  1.0 0.0708460998
H  H64  1  0.18107000  0.62031000  0.07452000  1.0 0.0708460998
H  H65  1  0.24844000  0.06542000  0.69039000  1.0 0.0904055646
H  H66  1  0.36023000  0.09697000  0.80957000  1.0 0.0904055646
H  H67  1  0.40343000  0.79603000  0.94399000  1.0 0.0797731846
H  H68  1  0.30041000  0.74991000  0.83119000  1.0 0.0797731846
C  C1  1  0.24360000  0.91820000  0.21010000  1.0 0.0622109752
C  C2  1  0.17360000  0.89400000  0.27340000  1.0 -0.080607919
C  C3  1  0.11970000  0.81230000  0.66920000  1.0 -0.0672995285
C  C4  1  0.09850000  0.74210000  0.74650000  1.0 0.0622109752
C  C5  1  0.74280000  0.62640000  0.96280000  1.0 0.1988288779
C  C6  1  0.49700000  0.57260000  0.05690000  1.0 -0.1813905108
C  C7  1  0.27070000  0.99350000  0.07160000  1.0 0.0095774923
C  C8  1  0.19560000  0.97320000  0.12270000  1.0 -0.1342476848
C  C9  1  0.36400000  0.87660000  0.23930000  1.0 -0.1178937498
C  C10  1  0.42820000  0.90080000  0.18000000  1.0 -0.0424996335
C  C11  1  0.05080000  0.79240000  0.80770000  1.0 -0.1474769842
C  C12  1  0.02870000  0.72230000  0.87530000  1.0 -0.0190297958
C  C13  1  0.10750000  0.56390000  0.83150000  1.0 -0.0309636723
C  C14  1  0.13070000  0.62530000  0.75980000  1.0 -0.1083524873
C  C15  1  0.33190000  0.04430000  0.13670000  1.0 -0.0455509591
C  C16  1  0.26520000  0.02520000  0.19310000  1.0 -0.1178937498
C  C17  1  0.28540000  0.84320000  0.16270000  1.0 -0.1083524873
C  C18  1  0.35220000  0.87140000  0.10610000  1.0 -0.0122773605
C  C19  1  0.99150000  0.72090000  0.74140000  1.0 -0.1083524873
C  C20  1  0.97280000  0.65420000  0.81320000  1.0 -0.0190297958
C  C21  1  0.14930000  0.62830000  0.89180000  1.0 -0.0122773605
C  C22  1  0.17760000  0.69120000  0.82440000  1.0 -0.088773733
C  C23  1  0.91820000  0.24360000  0.78990000  1.0 0.0622109752
C  C24  1  0.89400000  0.17360000  0.72660000  1.0 -0.080607919
C  C25  1  0.81230000  0.11970000  0.33080000  1.0 -0.0672995285
C  C26  1  0.74210000  0.09850000  0.25350000  1.0 0.0622109752
C  C27  1  0.62640000  0.74280000  0.03720000  1.0 0.1988288779
C  C28  1  0.57260000  0.49700000  0.94310000  1.0 -0.1813905108
C  C29  1  0.99350000  0.27070000  0.92840000  1.0 0.0095774923
C  C30  1  0.97320000  0.19560000  0.87730000  1.0 -0.1342476848
C  C31  1  0.87660000  0.36400000  0.76070000  1.0 -0.1178937498
C  C32  1  0.90080000  0.42820000  0.82000000  1.0 -0.0424996335
C  C33  1  0.79240000  0.05080000  0.19230000  1.0 -0.1474769842
C  C34  1  0.72230000  0.02870000  0.12470000  1.0 -0.0190297958
C  C35  1  0.56390000  0.10750000  0.16850000  1.0 -0.0309636723
C  C36  1  0.62530000  0.13070000  0.24020000  1.0 -0.1083524873
C  C37  1  0.04430000  0.33190000  0.86330000  1.0 -0.0455509591
C  C38  1  0.02520000  0.26520000  0.80690000  1.0 -0.1178937498
C  C39  1  0.84320000  0.28540000  0.83730000  1.0 -0.1083524873
C  C40  1  0.87140000  0.35220000  0.89390000  1.0 -0.0122773605
C  C41  1  0.72090000  0.99150000  0.25860000  1.0 -0.1083524873
C  C42  1  0.65420000  0.97280000  0.18680000  1.0 -0.0190297958
C  C43  1  0.62830000  0.14930000  0.10820000  1.0 -0.0122773605
C  C44  1  0.69120000  0.17760000  0.17560000  1.0 -0.088773733
C  C45  1  0.75640000  0.08180000  0.78990000  1.0 0.0622109752
C  C46  1  0.82640000  0.10600000  0.72660000  1.0 -0.080607919
C  C47  1  0.88030000  0.18770000  0.33080000  1.0 -0.0672995285
C  C48  1  0.90150000  0.25790000  0.25350000  1.0 0.0622109752
C  C49  1  0.25720000  0.37360000  0.03720000  1.0 0.1988288779
C  C50  1  0.50300000  0.42740000  0.94310000  1.0 -0.1813905108
C  C51  1  0.72930000  0.00650000  0.92840000  1.0 0.0095774923
C  C52  1  0.80440000  0.02680000  0.87730000  1.0 -0.1342476848
C  C53  1  0.63600000  0.12340000  0.76070000  1.0 -0.1178937498
C  C54  1  0.57180000  0.09920000  0.82000000  1.0 -0.0424996335
C  C55  1  0.94920000  0.20760000  0.19230000  1.0 -0.1474769842
C  C56  1  0.97130000  0.27770000  0.12470000  1.0 -0.0190297958
C  C57  1  0.89250000  0.43610000  0.16850000  1.0 -0.0309636723
C  C58  1  0.86930000  0.37470000  0.24020000  1.0 -0.1083524873
C  C59  1  0.66810000  0.95570000  0.86330000  1.0 -0.0455509591
C  C60  1  0.73480000  0.97480000  0.80690000  1.0 -0.1178937498
C  C61  1  0.71460000  0.15680000  0.83730000  1.0 -0.1083524873
C  C62  1  0.64780000  0.12860000  0.89390000  1.0 -0.0122773605
C  C63  1  0.00850000  0.27910000  0.25860000  1.0 -0.1083524873
C  C64  1  0.02720000  0.34580000  0.18680000  1.0 -0.0190297958
C  C65  1  0.85070000  0.37170000  0.10820000  1.0 -0.0122773605
C  C66  1  0.82240000  0.30880000  0.17560000  1.0 -0.088773733
C  C67  1  0.08180000  0.75640000  0.21010000  1.0 0.0622109752
C  C68  1  0.10600000  0.82640000  0.27340000  1.0 -0.080607919
C  C69  1  0.18770000  0.88030000  0.66920000  1.0 -0.0672995285
C  C70  1  0.25790000  0.90150000  0.74650000  1.0 0.0622109752
C  C71  1  0.37360000  0.25720000  0.96280000  1.0 0.1988288779
C  C72  1  0.42740000  0.50300000  0.05690000  1.0 -0.1813905108
C  C73  1  0.00650000  0.72930000  0.07160000  1.0 0.0095774923
C  C74  1  0.02680000  0.80440000  0.12270000  1.0 -0.1342476848
C  C75  1  0.12340000  0.63600000  0.23930000  1.0 -0.1178937498
C  C76  1  0.09920000  0.57180000  0.18000000  1.0 -0.0424996335
C  C77  1  0.20760000  0.94920000  0.80770000  1.0 -0.1474769842
C  C78  1  0.27770000  0.97130000  0.87530000  1.0 -0.0190297958
C  C79  1  0.43610000  0.89250000  0.83150000  1.0 -0.0309636723
C  C80  1  0.37470000  0.86930000  0.75980000  1.0 -0.1083524873
C  C81  1  0.95570000  0.66810000  0.13670000  1.0 -0.0455509591
C  C82  1  0.97480000  0.73480000  0.19310000  1.0 -0.1178937498
C  C83  1  0.15680000  0.71460000  0.16270000  1.0 -0.1083524873
C  C84  1  0.12860000  0.64780000  0.10610000  1.0 -0.0122773605
C  C85  1  0.27910000  0.00850000  0.74140000  1.0 -0.1083524873
C  C86  1  0.34580000  0.02720000  0.81320000  1.0 -0.0190297958
C  C87  1  0.37170000  0.85070000  0.89180000  1.0 -0.0122773605
C  C88  1  0.30880000  0.82240000  0.82440000  1.0 -0.088773733
C  C89  1  0.10850000  0.89150000  0.41950000  1.0 -0.1083524873
C  C90  1  0.11440000  0.88560000  0.50550000  1.0 -0.1178937498
C  C91  1  0.89150000  0.10850000  0.58050000  1.0 -0.1083524873
C  C92  1  0.88560000  0.11440000  0.49450000  1.0 -0.1178937498
C  C93  1  0.64640000  0.64640000  0.00000000  1.0 -0.2004851046
C  C94  1  0.57030000  0.57030000  0.00000000  1.0 0.0904055646
C  C95  1  0.35360000  0.35360000  0.00000000  1.0 -0.2004851046
C  C96  1  0.42970000  0.42970000  0.00000000  1.0 0.0904055646
S  S1  1  0.04335000  0.80771000  0.56628000  1.0 0.0347368327
S  S2  1  0.17927000  0.96895000  0.35849000  1.0 0.0374191925
S  S3  1  0.80771000  0.04335000  0.43372000  1.0 0.0347368327
S  S4  1  0.96895000  0.17927000  0.64151000  1.0 0.0374191925
S  S5  1  0.95665000  0.19229000  0.43372000  1.0 0.0347368327
S  S6  1  0.82073000  0.03105000  0.64151000  1.0 0.0374191925
S  S7  1  0.19229000  0.95665000  0.56628000  1.0 0.0347368327
S  S8  1  0.03105000  0.82073000  0.35849000  1.0 0.0374191925
N  N1  1  0.05236000  0.60996000  0.88780000  1.0 -0.0672995285
N  N2  1  0.37870000  0.96550000  0.09440000  1.0 -0.0621879659
N  N3  1  0.81690000  0.61110000  0.93640000  1.0 -0.4767123256
N  N4  1  0.60996000  0.05236000  0.11220000  1.0 -0.0672995285
N  N5  1  0.96550000  0.37870000  0.90560000  1.0 -0.0621879659
N  N6  1  0.61110000  0.81690000  0.06360000  1.0 -0.4767123256
N  N7  1  0.94764000  0.39004000  0.11220000  1.0 -0.0672995285
N  N8  1  0.62130000  0.03450000  0.90560000  1.0 -0.0621879659
N  N9  1  0.18310000  0.38890000  0.06360000  1.0 -0.4767123256
N  N10  1  0.39004000  0.94764000  0.88780000  1.0 -0.0672995285
N  N11  1  0.03450000  0.62130000  0.09440000  1.0 -0.0621879659
N  N12  1  0.38890000  0.18310000  0.93640000  1.0 -0.4767123256
