# DDEC6 charges by PACMAN v1.1 (https://github.com/mtap-research/PACMAN-charge/)
data_GODNIZ_ion_pacman
_symmetry_space_group_name_H-M   'P 1'
_cell_length_a   12.67050000
_cell_length_b   12.67050000
_cell_length_c   31.35260000
_cell_angle_alpha   81.47670000
_cell_angle_beta   98.52330000
_cell_angle_gamma   77.50680000
_symmetry_Int_Tables_number   1
_chemical_formula_structural   Cd2H36C64S8N13O3
_chemical_formula_sum   'Cd4 H72 C128 S16 N26 O6'
_cell_volume   4774.47984414
_cell_formula_units_Z   2
loop_
 _symmetry_equiv_pos_site_id
 _symmetry_equiv_pos_as_xyz
  1  'x, y, z'
loop_
 _atom_site_type_symbol
 _atom_site_label
 _atom_site_symmetry_multiplicity
 _atom_site_fract_x
 _atom_site_fract_y
 _atom_site_fract_z
 _atom_site_occupancy
 _atom_site_charge
Cd  Cd1  1  0.74720000  0.25320000  0.75055000  1.0 0.7182097588
Cd  Cd2  1  0.25320000  0.74720000  0.74945000  1.0 0.7182097588
Cd  Cd3  1  0.25280000  0.74680000  0.24945000  1.0 0.7182097588
Cd  Cd4  1  0.74680000  0.25280000  0.25055000  1.0 0.7182097588
H  H1  1  0.80979000  0.24289000  0.65720000  1.0 0.1059772004
H  H2  1  0.85970000  0.33310000  0.59823000  1.0 0.1317891904
H  H3  1  0.86036000  0.58740000  0.66040000  1.0 0.1376508335
H  H4  1  0.80875000  0.48959000  0.71747000  1.0 0.0908174431
H  H5  1  0.12314000  0.48102000  0.65103000  1.0 0.1376508335
H  H6  1  0.21741000  0.53589000  0.70836000  1.0 0.1000666403
H  H7  1  0.04064000  0.84024000  0.67040000  1.0 0.1000666403
H  H8  1  0.95376000  0.79472000  0.60855000  1.0 0.1376508335
H  H9  1  0.62651000  0.55791000  0.36160000  1.0 0.1376508335
H  H10  1  0.46685000  0.56987000  0.31359000  1.0 0.1000666403
H  H11  1  0.41052000  0.88770000  0.28734000  1.0 0.1000666403
H  H12  1  0.56798000  0.88626000  0.33346000  1.0 0.1317891904
H  H13  1  0.80319000  0.82222000  0.30188000  1.0 0.1376508335
H  H14  1  0.78724000  0.98544000  0.25599000  1.0 0.1059772004
H  H15  1  0.72410000  0.15250000  0.34758000  1.0 0.1059772004
H  H16  1  0.73910000  0.99616000  0.39703000  1.0 0.1317891904
H  H17  1  0.92285000  0.68803000  0.79125000  1.0 0.1228336895
H  H18  1  0.80723000  0.57257000  0.79141000  1.0 0.1228336895
H  H19  1  0.24289000  0.80979000  0.84280000  1.0 0.1059772004
H  H20  1  0.33310000  0.85970000  0.90177000  1.0 0.1317891904
H  H21  1  0.58740000  0.86036000  0.83960000  1.0 0.1376508335
H  H22  1  0.48959000  0.80875000  0.78253000  1.0 0.0908174431
H  H23  1  0.48102000  0.12314000  0.84897000  1.0 0.1376508335
H  H24  1  0.53589000  0.21741000  0.79164000  1.0 0.1000666403
H  H25  1  0.84024000  0.04064000  0.82960000  1.0 0.1000666403
H  H26  1  0.79472000  0.95376000  0.89145000  1.0 0.1376508335
H  H27  1  0.55791000  0.62651000  0.13840000  1.0 0.1376508335
H  H28  1  0.56987000  0.46685000  0.18641000  1.0 0.1000666403
H  H29  1  0.88770000  0.41052000  0.21266000  1.0 0.1000666403
H  H30  1  0.88626000  0.56798000  0.16654000  1.0 0.1317891904
H  H31  1  0.82223000  0.80318000  0.19812000  1.0 0.1376508335
H  H32  1  0.98544000  0.78724000  0.24401000  1.0 0.1059772004
H  H33  1  0.15250000  0.72410000  0.15242000  1.0 0.1059772004
H  H34  1  0.99616000  0.73910000  0.10297000  1.0 0.1317891904
H  H35  1  0.68803000  0.92285000  0.70875000  1.0 0.1228336895
H  H36  1  0.57257000  0.80723000  0.70859000  1.0 0.1228336895
H  H37  1  0.19021000  0.75711000  0.34280000  1.0 0.1059772004
H  H38  1  0.14030000  0.66690000  0.40177000  1.0 0.1317891904
H  H39  1  0.13964000  0.41260000  0.33960000  1.0 0.1376508335
H  H40  1  0.19125000  0.51041000  0.28253000  1.0 0.0908174431
H  H41  1  0.87686000  0.51898000  0.34897000  1.0 0.1376508335
H  H42  1  0.78259000  0.46411000  0.29164000  1.0 0.1000666403
H  H43  1  0.95936000  0.15976000  0.32960000  1.0 0.1000666403
H  H44  1  0.04624000  0.20528000  0.39145000  1.0 0.1376508335
H  H45  1  0.37349000  0.44209000  0.63840000  1.0 0.1376508335
H  H46  1  0.53315000  0.43013000  0.68641000  1.0 0.1000666403
H  H47  1  0.58948000  0.11230000  0.71266000  1.0 0.1000666403
H  H48  1  0.43202000  0.11374000  0.66654000  1.0 0.1317891904
H  H49  1  0.19681000  0.17777000  0.69812000  1.0 0.1376508335
H  H50  1  0.21276000  0.01456000  0.74401000  1.0 0.1059772004
H  H51  1  0.27590000  0.84750000  0.65242000  1.0 0.1059772004
H  H52  1  0.26090000  0.00384000  0.60297000  1.0 0.1317891904
H  H53  1  0.07715000  0.31197000  0.20875000  1.0 0.1228336895
H  H54  1  0.19277000  0.42743000  0.20859000  1.0 0.1228336895
H  H55  1  0.75711000  0.19021000  0.15720000  1.0 0.1059772004
H  H56  1  0.66690000  0.14030000  0.09823000  1.0 0.1317891904
H  H57  1  0.41260000  0.13964000  0.16040000  1.0 0.1376508335
H  H58  1  0.51041000  0.19125000  0.21746000  1.0 0.0908174431
H  H59  1  0.51898000  0.87686000  0.15103000  1.0 0.1376508335
H  H60  1  0.46411000  0.78259000  0.20836000  1.0 0.1000666403
H  H61  1  0.15976000  0.95936000  0.17040000  1.0 0.1000666403
H  H62  1  0.20528000  0.04624000  0.10855000  1.0 0.1376508335
H  H63  1  0.44209000  0.37349000  0.86160000  1.0 0.1376508335
H  H64  1  0.43013000  0.53315000  0.81359000  1.0 0.1000666403
H  H65  1  0.11230000  0.58948000  0.78734000  1.0 0.1000666403
H  H66  1  0.11374000  0.43202000  0.83346000  1.0 0.1317891904
H  H67  1  0.17778000  0.19681000  0.80188000  1.0 0.1376508335
H  H68  1  0.01456000  0.21276000  0.75599000  1.0 0.1059772004
H  H69  1  0.84750000  0.27590000  0.84758000  1.0 0.1059772004
H  H70  1  0.00384000  0.26090000  0.89703000  1.0 0.1317891904
H  H71  1  0.31197000  0.07715000  0.29125000  1.0 0.1228336895
H  H72  1  0.42743000  0.19277000  0.29141000  1.0 0.1228336895
C  C1  1  0.82010000  0.31310000  0.65784000  1.0 0.0908174431
C  C2  1  0.85110000  0.36650000  0.62240000  1.0 -0.2072456202
C  C3  1  0.87002000  0.47102000  0.62240000  1.0 0.1317891904
C  C4  1  0.85140000  0.51700000  0.65900000  1.0 -0.1902674052
C  C5  1  0.81980000  0.45780000  0.69309000  1.0 0.0594283419
C  C6  1  0.90230000  0.53050000  0.58425000  1.0 -0.0790341199
C  C7  1  0.96720000  0.60100000  0.58446000  1.0 -0.0790341199
C  C8  1  0.02525000  0.63325000  0.62275000  1.0 0.1228336895
C  C9  1  0.10700000  0.55460000  0.65382000  1.0 -0.1902674052
C  C10  1  0.16251000  0.58811000  0.68833000  1.0 0.0908174431
C  C11  1  0.05980000  0.76840000  0.66557000  1.0 0.0594283419
C  C12  1  0.00510000  0.74030000  0.62914000  1.0 -0.1902674052
C  C13  1  0.89348000  0.60768000  0.50229000  1.0 -0.1022961564
C  C14  1  0.85602000  0.64682000  0.45906000  1.0 -0.110521331
C  C15  1  0.71880000  0.71420000  0.38554000  1.0 -0.0790341199
C  C16  1  0.61780000  0.72020000  0.35392000  1.0 0.1376508335
C  C17  1  0.58400000  0.62660000  0.34689000  1.0 -0.1999004658
C  C18  1  0.48710000  0.63430000  0.31799000  1.0 0.1000666403
C  C19  1  0.45470000  0.82030000  0.30267000  1.0 0.0693041444
C  C20  1  0.54940000  0.82040000  0.33036000  1.0 -0.1902674052
C  C21  1  0.78090000  0.78710000  0.38708000  1.0 -0.0790341199
C  C22  1  0.77092000  0.89012000  0.35537000  1.0 0.1317891904
C  C23  1  0.78690000  0.88830000  0.31193000  1.0 -0.1902674052
C  C24  1  0.77790000  0.98690000  0.28478000  1.0 0.0831308444
C  C25  1  0.74100000  0.08500000  0.33867000  1.0 0.0693041444
C  C26  1  0.74870000  0.99170000  0.36845000  1.0 -0.1999004658
C  C27  1  0.85530000  0.00730000  0.73543000  1.0 0.2732551847
C  C28  1  0.85220000  0.71280000  0.77452000  1.0 -0.1660578321
C  C29  1  0.78310000  0.64330000  0.77467000  1.0 -0.176030993
C  C30  1  0.64030000  0.49050000  0.76810000  1.0 0.2630247329
C  C31  1  0.31310000  0.82010000  0.84216000  1.0 0.0908174431
C  C32  1  0.36650000  0.85110000  0.87760000  1.0 -0.2072456202
C  C33  1  0.47102000  0.87002000  0.87760000  1.0 0.1376508335
C  C34  1  0.51700000  0.85140000  0.84100000  1.0 -0.1902674052
C  C35  1  0.45780000  0.81980000  0.80691000  1.0 0.0594283419
C  C36  1  0.53050000  0.90230000  0.91575000  1.0 -0.0790341199
C  C37  1  0.60100000  0.96720000  0.91554000  1.0 -0.0790341199
C  C38  1  0.63325000  0.02525000  0.87725000  1.0 0.1228336895
C  C39  1  0.55460000  0.10700000  0.84618000  1.0 -0.1902674052
C  C40  1  0.58811000  0.16251000  0.81167000  1.0 0.0908174431
C  C41  1  0.76840000  0.05980000  0.83443000  1.0 0.0594283419
C  C42  1  0.74030000  0.00510000  0.87086000  1.0 -0.1902674052
C  C43  1  0.60768000  0.89348000  0.99771000  1.0 -0.1022961564
C  C44  1  0.64682000  0.85602000  0.04094000  1.0 -0.110521331
C  C45  1  0.71420000  0.71880000  0.11446000  1.0 -0.0790341199
C  C46  1  0.72020000  0.61780000  0.14608000  1.0 0.1376508335
C  C47  1  0.62660000  0.58400000  0.15311000  1.0 -0.1999004658
C  C48  1  0.63430000  0.48710000  0.18201000  1.0 0.1000666403
C  C49  1  0.82030000  0.45470000  0.19733000  1.0 0.0693041444
C  C50  1  0.82040000  0.54940000  0.16964000  1.0 -0.1902674052
C  C51  1  0.78710000  0.78090000  0.11292000  1.0 -0.0790341199
C  C52  1  0.89012000  0.77092000  0.14463000  1.0 0.1317891904
C  C53  1  0.88830000  0.78690000  0.18807000  1.0 -0.1902674052
C  C54  1  0.98690000  0.77790000  0.21522000  1.0 0.0831308444
C  C55  1  0.08500000  0.74100000  0.16133000  1.0 0.0693041444
C  C56  1  0.99170000  0.74870000  0.13155000  1.0 -0.1999004658
C  C57  1  0.00730000  0.85530000  0.76457000  1.0 0.2732551847
C  C58  1  0.71280000  0.85220000  0.72548000  1.0 -0.1660578321
C  C59  1  0.64330000  0.78310000  0.72533000  1.0 -0.176030993
C  C60  1  0.49050000  0.64030000  0.73190000  1.0 0.2630247329
C  C61  1  0.17990000  0.68690000  0.34216000  1.0 0.0908174431
C  C62  1  0.14890000  0.63350000  0.37760000  1.0 -0.2072456202
C  C63  1  0.12998000  0.52898000  0.37760000  1.0 0.1376508335
C  C64  1  0.14860000  0.48300000  0.34100000  1.0 -0.1902674052
C  C65  1  0.18020000  0.54220000  0.30691000  1.0 0.0594283419
C  C66  1  0.09770000  0.46950000  0.41575000  1.0 -0.0790341199
C  C67  1  0.03280000  0.39900000  0.41554000  1.0 -0.0790341199
C  C68  1  0.97475000  0.36675000  0.37725000  1.0 0.1228336895
C  C69  1  0.89300000  0.44540000  0.34618000  1.0 -0.1902674052
C  C70  1  0.83749000  0.41189000  0.31167000  1.0 0.0908174431
C  C71  1  0.94020000  0.23160000  0.33443000  1.0 0.0594283419
C  C72  1  0.99490000  0.25970000  0.37086000  1.0 -0.1902674052
C  C73  1  0.10652000  0.39232000  0.49771000  1.0 -0.1022961564
C  C74  1  0.14398000  0.35318000  0.54094000  1.0 -0.110521331
C  C75  1  0.28120000  0.28580000  0.61446000  1.0 -0.0790341199
C  C76  1  0.38220000  0.27980000  0.64608000  1.0 0.1376508335
C  C77  1  0.41600000  0.37340000  0.65311000  1.0 -0.1999004658
C  C78  1  0.51290000  0.36570000  0.68201000  1.0 0.1000666403
C  C79  1  0.54530000  0.17970000  0.69733000  1.0 0.0693041444
C  C80  1  0.45060000  0.17960000  0.66964000  1.0 -0.1902674052
C  C81  1  0.21910000  0.21290000  0.61292000  1.0 -0.0790341199
C  C82  1  0.22908000  0.10988000  0.64463000  1.0 0.1317891904
C  C83  1  0.21310000  0.11170000  0.68807000  1.0 -0.1902674052
C  C84  1  0.22210000  0.01310000  0.71522000  1.0 0.0831308444
C  C85  1  0.25900000  0.91500000  0.66133000  1.0 0.0693041444
C  C86  1  0.25130000  0.00830000  0.63155000  1.0 -0.1999004658
C  C87  1  0.14470000  0.99270000  0.26457000  1.0 0.2732551847
C  C88  1  0.14780000  0.28720000  0.22548000  1.0 -0.1660578321
C  C89  1  0.21690000  0.35670000  0.22533000  1.0 -0.176030993
C  C90  1  0.35970000  0.50950000  0.23190000  1.0 0.2630247329
C  C91  1  0.68690000  0.17990000  0.15784000  1.0 0.0908174431
C  C92  1  0.63350000  0.14890000  0.12240000  1.0 -0.2072456202
C  C93  1  0.52898000  0.12998000  0.12240000  1.0 0.1376508335
C  C94  1  0.48300000  0.14860000  0.15900000  1.0 -0.1902674052
C  C95  1  0.54220000  0.18020000  0.19309000  1.0 0.0594283419
C  C96  1  0.46950000  0.09770000  0.08425000  1.0 -0.0790341199
C  C97  1  0.39900000  0.03280000  0.08446000  1.0 -0.0790341199
C  C98  1  0.36675000  0.97475000  0.12275000  1.0 0.1228336895
C  C99  1  0.44540000  0.89300000  0.15382000  1.0 -0.1902674052
C  C100  1  0.41189000  0.83749000  0.18833000  1.0 0.0908174431
C  C101  1  0.23160000  0.94020000  0.16557000  1.0 0.0594283419
C  C102  1  0.25970000  0.99490000  0.12914000  1.0 -0.1902674052
C  C103  1  0.39232000  0.10652000  0.00229000  1.0 -0.1022961564
C  C104  1  0.35318000  0.14398000  0.95906000  1.0 -0.110521331
C  C105  1  0.28580000  0.28120000  0.88554000  1.0 -0.0790341199
C  C106  1  0.27980000  0.38220000  0.85392000  1.0 0.1376508335
C  C107  1  0.37340000  0.41600000  0.84689000  1.0 -0.1999004658
C  C108  1  0.36570000  0.51290000  0.81799000  1.0 0.1000666403
C  C109  1  0.17970000  0.54530000  0.80267000  1.0 0.0693041444
C  C110  1  0.17960000  0.45060000  0.83036000  1.0 -0.1902674052
C  C111  1  0.21290000  0.21910000  0.88708000  1.0 -0.0790341199
C  C112  1  0.10988000  0.22908000  0.85537000  1.0 0.1317891904
C  C113  1  0.11170000  0.21310000  0.81193000  1.0 -0.1902674052
C  C114  1  0.01310000  0.22210000  0.78478000  1.0 0.0831308444
C  C115  1  0.91500000  0.25900000  0.83867000  1.0 0.0693041444
C  C116  1  0.00830000  0.25130000  0.86845000  1.0 -0.1999004658
C  C117  1  0.99270000  0.14470000  0.23543000  1.0 0.2732551847
C  C118  1  0.28720000  0.14780000  0.27452000  1.0 -0.1660578321
C  C119  1  0.35670000  0.21690000  0.27467000  1.0 -0.176030993
C  C120  1  0.50950000  0.35970000  0.26810000  1.0 0.2630247329
C  C121  1  0.89360000  0.89360000  0.75000000  1.0 -0.1999004658
C  C122  1  0.81980000  0.81980000  0.75000000  1.0 0.0908174431
C  C123  1  0.67750000  0.67750000  0.75000000  1.0 0.0908174431
C  C124  1  0.60200000  0.60200000  0.75000000  1.0 -0.2072456202
C  C125  1  0.10640000  0.10640000  0.25000000  1.0 -0.1999004658
C  C126  1  0.18020000  0.18020000  0.25000000  1.0 0.0908174431
C  C127  1  0.32250000  0.32250000  0.25000000  1.0 0.0908174431
C  C128  1  0.39800000  0.39800000  0.25000000  1.0 -0.2072456202
S  S1  1  0.76016000  0.59574000  0.42783000  1.0 0.0594283419
S  S2  1  0.89595000  0.75597000  0.42983000  1.0 0.0509633203
S  S3  1  0.85062000  0.50264000  0.53251000  1.0 0.0594283419
S  S4  1  0.99143000  0.65969000  0.53349000  1.0 0.0509633203
S  S5  1  0.59574000  0.76016000  0.07217000  1.0 0.0594283419
S  S6  1  0.75597000  0.89595000  0.07017000  1.0 0.0509633203
S  S7  1  0.50264000  0.85062000  0.96749000  1.0 0.0594283419
S  S8  1  0.65969000  0.99143000  0.96651000  1.0 0.0509633203
S  S9  1  0.23984000  0.40426000  0.57217000  1.0 0.0594283419
S  S10  1  0.10405000  0.24403000  0.57017000  1.0 0.0509633203
S  S11  1  0.14938000  0.49736000  0.46749000  1.0 0.0594283419
S  S12  1  0.00857000  0.34031000  0.46651000  1.0 0.0509633203
S  S13  1  0.40426000  0.23984000  0.92783000  1.0 0.0594283419
S  S14  1  0.24403000  0.10405000  0.92983000  1.0 0.0509633203
S  S15  1  0.49736000  0.14938000  0.03251000  1.0 0.0594283419
S  S16  1  0.34031000  0.00857000  0.03349000  1.0 0.0509633203
N  N1  1  0.80398000  0.35618000  0.69306000  1.0 -0.2383473288
N  N2  1  0.14147000  0.69227000  0.69453000  1.0 -0.2491708878
N  N3  1  0.75659000  0.08399000  0.29707000  1.0 -0.2491708878
N  N4  1  0.42218000  0.72978000  0.29643000  1.0 -0.2348260466
N  N5  1  0.82024000  0.10004000  0.72363000  1.0 -0.4588695611
N  N6  1  0.67433000  0.39853000  0.78253000  1.0 -0.4480947699
N  N7  1  0.35618000  0.80398000  0.80694000  1.0 -0.2383473288
N  N8  1  0.69227000  0.14147000  0.80547000  1.0 -0.2491708878
N  N9  1  0.08399000  0.75659000  0.20293000  1.0 -0.2491708878
N  N10  1  0.72978000  0.42218000  0.20357000  1.0 -0.2348260466
N  N11  1  0.10004000  0.82024000  0.77637000  1.0 -0.4588695611
N  N12  1  0.39853000  0.67433000  0.71747000  1.0 -0.4480947699
N  N13  1  0.19602000  0.64382000  0.30694000  1.0 -0.2383473288
N  N14  1  0.85853000  0.30773000  0.30547000  1.0 -0.2491708878
N  N15  1  0.24341000  0.91601000  0.70293000  1.0 -0.2491708878
N  N16  1  0.57782000  0.27022000  0.70357000  1.0 -0.2348260466
N  N17  1  0.17976000  0.89996000  0.27637000  1.0 -0.4588695611
N  N18  1  0.32567000  0.60147000  0.21747000  1.0 -0.4480947699
N  N19  1  0.64382000  0.19602000  0.19306000  1.0 -0.2383473288
N  N20  1  0.30773000  0.85853000  0.19453000  1.0 -0.2491708878
N  N21  1  0.91601000  0.24341000  0.79707000  1.0 -0.2491708878
N  N22  1  0.27022000  0.57782000  0.79643000  1.0 -0.2348260466
N  N23  1  0.89996000  0.17976000  0.22363000  1.0 -0.4588695611
N  N24  1  0.60147000  0.32567000  0.28253000  1.0 -0.4480947699
N  N25  1  0.30110000  0.30110000  0.75000000  1.0 0.6808646177
N  N26  1  0.69890000  0.69890000  0.25000000  1.0 0.6808646177
O  O1  1  0.33279000  0.20721000  0.77310000  1.0 -0.4661992784
O  O2  1  0.20721000  0.33279000  0.72690000  1.0 -0.4661992784
O  O3  1  0.36380000  0.36380000  0.75000000  1.0 -0.4358115639
O  O4  1  0.66721000  0.79279000  0.22690000  1.0 -0.4661992784
O  O5  1  0.79279000  0.66721000  0.27310000  1.0 -0.4661992784
O  O6  1  0.63620000  0.63620000  0.25000000  1.0 -0.4358115639
