# DDEC6 charges by PACMAN v1.1 (https://github.com/mtap-research/PACMAN-charge/)
data_GODPEX_ASR_pacman
_symmetry_space_group_name_H-M   'P 1'
_cell_length_a   16.27980000
_cell_length_b   16.81490000
_cell_length_c   16.95200000
_cell_angle_alpha   107.91700000
_cell_angle_beta   107.43200000
_cell_angle_gamma   104.82700000
_symmetry_Int_Tables_number   1
_chemical_formula_structural   CdH17C23O4
_chemical_formula_sum   'Cd4 H68 C92 O16'
_cell_volume   3890.71770570
_cell_formula_units_Z   4
loop_
 _symmetry_equiv_pos_site_id
 _symmetry_equiv_pos_as_xyz
  1  'x, y, z'
loop_
 _atom_site_type_symbol
 _atom_site_label
 _atom_site_symmetry_multiplicity
 _atom_site_fract_x
 _atom_site_fract_y
 _atom_site_fract_z
 _atom_site_occupancy
 _atom_site_charge
Cd  Cd1  1  0.80137000  0.72594000  0.22990000  1.0 1.0030761449
Cd  Cd2  1  0.78745000  0.84110000  0.08394000  1.0 1.1166223972
Cd  Cd3  1  0.19863000  0.27406000  0.77010000  1.0 1.0030761449
Cd  Cd4  1  0.21255000  0.15890000  0.91606000  1.0 1.1166223972
H  H1  1  0.58220000  0.59320000  0.33850000  1.0 0.1138000799
H  H2  1  0.57260000  0.93660000  0.43030000  1.0 0.1213560347
H  H3  1  0.75940000  0.44500000  0.79690000  1.0 0.1213560347
H  H4  1  0.53950000  0.52400000  0.42430000  1.0 0.1213560347
H  H5  1  0.78090000  0.49090000  0.49610000  1.0 0.1213560347
H  H6  1  0.68360000  0.22670000  0.56340000  1.0 0.1302551574
H  H7  1  0.68840000  0.16130000  0.47770000  1.0 0.1302551574
H  H8  1  0.67730000  0.25190000  0.48060000  1.0 0.1302551574
H  H9  1  0.64480000  0.85930000  0.36680000  1.0 0.1302551574
H  H10  1  0.27280000  0.95530000  0.43760000  1.0 0.1138000799
H  H11  1  0.80900000  0.51400000  0.95290000  1.0 0.1213560347
H  H12  1  0.57880000  0.56260000  0.75860000  1.0 0.1213560347
H  H13  1  0.10730000  0.87800000  0.38490000  1.0 0.1302551574
H  H14  1  0.07320000  0.96520000  0.19150000  1.0 0.1213560347
H  H15  1  0.62150000  0.63060000  0.91420000  1.0 0.1213560347
H  H16  1  0.53330000  0.33020000  0.71490000  1.0 0.1302551574
H  H17  1  0.51110000  0.23840000  0.63590000  1.0 0.1213560347
H  H18  1  0.61290000  0.29470000  0.71120000  1.0 0.1302551574
H  H19  1  0.22300000  0.06130000  0.26250000  1.0 0.1302551574
H  H20  1  0.32440000  0.23030000  0.41090000  1.0 0.1352349384
H  H21  1  0.29320000  0.17730000  0.46530000  1.0 0.1302551574
H  H22  1  0.38160000  0.26770000  0.51610000  1.0 0.1302551574
H  H23  1  0.81790000  0.55480000  0.40320000  1.0 0.1213560347
H  H24  1  0.59630000  0.08180000  0.28920000  1.0 0.1302551574
H  H25  1  0.68370000  0.01590000  0.23540000  1.0 0.1213560347
H  H26  1  0.46360000  0.28060000  0.34620000  1.0 0.1302551574
H  H27  1  0.54920000  0.34990000  0.34670000  1.0 0.1213560347
H  H28  1  0.55300000  0.25940000  0.35190000  1.0 0.1302551574
H  H29  1  0.73430000  0.61080000  0.72490000  1.0 0.1213560347
H  H30  1  0.76330000  0.60390000  0.64360000  1.0 0.1302551574
H  H31  1  0.67590000  0.62700000  0.64360000  1.0 0.1302551574
H  H32  1  0.38510000  0.88620000  0.34280000  1.0 0.1302551574
H  H33  1  0.31030000  0.89940000  0.27010000  1.0 0.1302551574
H  H34  1  0.40610000  0.90570000  0.26470000  1.0 0.1302551574
H  H35  1  0.41780000  0.40680000  0.66150000  1.0 0.1138000799
H  H36  1  0.42740000  0.06340000  0.56970000  1.0 0.1213560347
H  H37  1  0.24060000  0.55500000  0.20310000  1.0 0.1213560347
H  H38  1  0.46050000  0.47600000  0.57570000  1.0 0.1213560347
H  H39  1  0.21910000  0.50910000  0.50390000  1.0 0.1213560347
H  H40  1  0.31640000  0.77330000  0.43660000  1.0 0.1302551574
H  H41  1  0.31160000  0.83870000  0.52230000  1.0 0.1302551574
H  H42  1  0.32270000  0.74810000  0.51940000  1.0 0.1302551574
H  H43  1  0.35520000  0.14070000  0.63320000  1.0 0.1302551574
H  H44  1  0.72720000  0.04470000  0.56240000  1.0 0.1138000799
H  H45  1  0.19100000  0.48600000  0.04710000  1.0 0.1213560347
H  H46  1  0.42120000  0.43740000  0.24140000  1.0 0.1213560347
H  H47  1  0.89270000  0.12200000  0.61510000  1.0 0.1302551574
H  H48  1  0.92680000  0.03480000  0.80850000  1.0 0.1213560347
H  H49  1  0.37850000  0.36940000  0.08580000  1.0 0.1213560347
H  H50  1  0.46670000  0.66980000  0.28510000  1.0 0.1302551574
H  H51  1  0.48890000  0.76160000  0.36410000  1.0 0.1213560347
H  H52  1  0.38710000  0.70530000  0.28880000  1.0 0.1302551574
H  H53  1  0.77700000  0.93870000  0.73750000  1.0 0.1302551574
H  H54  1  0.67560000  0.76970000  0.58910000  1.0 0.1352349384
H  H55  1  0.70680000  0.82270000  0.53470000  1.0 0.1302551574
H  H56  1  0.61840000  0.73230000  0.48390000  1.0 0.1302551574
H  H57  1  0.18210000  0.44520000  0.59680000  1.0 0.1213560347
H  H58  1  0.40370000  0.91820000  0.71080000  1.0 0.1302551574
H  H59  1  0.31630000  0.98410000  0.76460000  1.0 0.1213560347
H  H60  1  0.53640000  0.71940000  0.65380000  1.0 0.1302551574
H  H61  1  0.45080000  0.65010000  0.65330000  1.0 0.1213560347
H  H62  1  0.44700000  0.74060000  0.64810000  1.0 0.1302551574
H  H63  1  0.26570000  0.38920000  0.27510000  1.0 0.1213560347
H  H64  1  0.23670000  0.39610000  0.35640000  1.0 0.1302551574
H  H65  1  0.32410000  0.37300000  0.35640000  1.0 0.1302551574
H  H66  1  0.61490000  0.11380000  0.65720000  1.0 0.1302551574
H  H67  1  0.68970000  0.10060000  0.72990000  1.0 0.1302551574
H  H68  1  0.59390000  0.09430000  0.73530000  1.0 0.1302551574
C  C1  1  0.07350000  0.91570000  0.28810000  1.0 -0.0517856046
C  C2  1  0.66180000  0.49430000  0.76390000  1.0 0.0874018161
C  C3  1  0.62140000  0.57030000  0.36840000  1.0 -0.1239636527
C  C4  1  0.62780000  0.44320000  0.66190000  1.0 -0.0661661202
C  C5  1  0.50440000  0.20190000  0.47600000  1.0 -0.0275985808
C  C6  1  0.70660000  0.57880000  0.35990000  1.0 -0.0200931472
C  C7  1  0.54840000  0.30680000  0.52670000  1.0 -0.0404837416
C  C8  1  0.59250000  0.95210000  0.38910000  1.0 -0.1382131812
C  C9  1  0.73170000  0.48230000  0.82130000  1.0 -0.1504130071
C  C10  1  0.59590000  0.52880000  0.41970000  1.0 -0.1382131812
C  C11  1  0.57180000  0.01870000  0.36780000  1.0 0.077155474
C  C12  1  0.73920000  0.50870000  0.46160000  1.0 -0.1382131812
C  C13  1  0.64950000  0.49570000  0.46270000  1.0 0.077155474
C  C14  1  0.56120000  0.15720000  0.45830000  1.0 0.0621524181
C  C15  1  0.66090000  0.20310000  0.49830000  1.0 -0.4465485475
C  C16  1  0.62290000  0.44640000  0.51930000  1.0 -0.0809864603
C  C17  1  0.63910000  0.90830000  0.35450000  1.0 -0.0986842599
C  C18  1  0.23120000  0.96140000  0.39060000  1.0 -0.1504130071
C  C19  1  0.76250000  0.52360000  0.91390000  1.0 -0.0809864603
C  C20  1  0.62360000  0.55160000  0.79790000  1.0 -0.1504130071
C  C21  1  0.41720000  0.02000000  0.36480000  1.0 0.0718666124
C  C22  1  0.57180000  0.35410000  0.47630000  1.0 0.077155474
C  C23  1  0.71810000  0.58360000  0.94790000  1.0 -0.0275985808
C  C24  1  0.13010000  0.91200000  0.35650000  1.0 -0.0809864603
C  C25  1  0.57890000  0.35020000  0.61680000  1.0 0.0621524181
C  C26  1  0.64900000  0.49060000  0.61050000  1.0 0.0621524181
C  C27  1  0.11150000  0.96760000  0.24610000  1.0 -0.0986842599
C  C28  1  0.65100000  0.59430000  0.89160000  1.0 -0.0986842599
C  C29  1  0.97490000  0.85270000  0.24260000  1.0 0.6097413985
C  C30  1  0.26300000  0.01610000  0.35240000  1.0 0.077155474
C  C31  1  0.55690000  0.29830000  0.67540000  1.0 -0.43869572
C  C32  1  0.40600000  0.16090000  0.44380000  1.0 0.0718666124
C  C33  1  0.20210000  0.01990000  0.28500000  1.0 -0.1260191785
C  C34  1  0.75240000  0.63390000  0.05070000  1.0 0.5679167597
C  C35  1  0.51710000  0.06390000  0.39980000  1.0 -0.0809864603
C  C36  1  0.34580000  0.21390000  0.46060000  1.0 -0.4806141691
C  C37  1  0.76100000  0.54870000  0.40710000  1.0 -0.0905427994
C  C38  1  0.36350000  0.06320000  0.38680000  1.0 -0.0661661202
C  C39  1  0.60890000  0.03800000  0.30770000  1.0 -0.1504130071
C  C40  1  0.73610000  0.62730000  0.30760000  1.0 0.5311163156
C  C41  1  0.66120000  0.99880000  0.27450000  1.0 -0.0905427994
C  C42  1  0.53040000  0.30640000  0.37000000  1.0 -0.4465485475
C  C43  1  0.71160000  0.59280000  0.66040000  1.0 -0.43869572
C  C44  1  0.37580000  0.91840000  0.30500000  1.0 -0.4465485475
C  C45  1  0.68040000  0.93390000  0.29920000  1.0 -0.0517856046
C  C46  1  0.73400000  0.88800000  0.26000000  1.0 0.5853997855
C  C47  1  0.92650000  0.08430000  0.71190000  1.0 -0.0517856046
C  C48  1  0.33820000  0.50570000  0.23610000  1.0 0.0874018161
C  C49  1  0.37860000  0.42970000  0.63160000  1.0 -0.1239636527
C  C50  1  0.37220000  0.55680000  0.33810000  1.0 -0.0661661202
C  C51  1  0.49560000  0.79810000  0.52400000  1.0 -0.0275985808
C  C52  1  0.29340000  0.42120000  0.64010000  1.0 -0.0200931472
C  C53  1  0.45160000  0.69320000  0.47330000  1.0 -0.0404837416
C  C54  1  0.40750000  0.04790000  0.61090000  1.0 -0.1382131812
C  C55  1  0.26830000  0.51770000  0.17870000  1.0 -0.1504130071
C  C56  1  0.40410000  0.47120000  0.58030000  1.0 -0.1382131812
C  C57  1  0.42820000  0.98130000  0.63220000  1.0 0.077155474
C  C58  1  0.26080000  0.49130000  0.53840000  1.0 -0.1382131812
C  C59  1  0.35050000  0.50430000  0.53730000  1.0 0.077155474
C  C60  1  0.43880000  0.84280000  0.54170000  1.0 0.0621524181
C  C61  1  0.33910000  0.79690000  0.50170000  1.0 -0.4465485475
C  C62  1  0.37710000  0.55360000  0.48070000  1.0 -0.0809864603
C  C63  1  0.36090000  0.09170000  0.64550000  1.0 -0.0986842599
C  C64  1  0.76880000  0.03860000  0.60940000  1.0 -0.1504130071
C  C65  1  0.23750000  0.47640000  0.08610000  1.0 -0.0809864603
C  C66  1  0.37640000  0.44840000  0.20210000  1.0 -0.1504130071
C  C67  1  0.58280000  0.98000000  0.63520000  1.0 0.0718666124
C  C68  1  0.42820000  0.64590000  0.52370000  1.0 0.077155474
C  C69  1  0.28190000  0.41640000  0.05210000  1.0 -0.0275985808
C  C70  1  0.86990000  0.08800000  0.64350000  1.0 -0.0809864603
C  C71  1  0.42110000  0.64980000  0.38320000  1.0 0.0621524181
C  C72  1  0.35100000  0.50940000  0.38950000  1.0 0.0621524181
C  C73  1  0.88850000  0.03240000  0.75390000  1.0 -0.0986842599
C  C74  1  0.34900000  0.40570000  0.10840000  1.0 -0.0986842599
C  C75  1  0.02510000  0.14730000  0.75740000  1.0 0.6097413985
C  C76  1  0.73700000  0.98390000  0.64760000  1.0 0.077155474
C  C77  1  0.44310000  0.70170000  0.32460000  1.0 -0.43869572
C  C78  1  0.59400000  0.83910000  0.55620000  1.0 0.0718666124
C  C79  1  0.79790000  0.98010000  0.71500000  1.0 -0.1260191785
C  C80  1  0.24760000  0.36610000  0.94930000  1.0 0.5679167597
C  C81  1  0.48290000  0.93610000  0.60020000  1.0 -0.0809864603
C  C82  1  0.65420000  0.78610000  0.53940000  1.0 -0.4806141691
C  C83  1  0.23900000  0.45130000  0.59290000  1.0 -0.0905427994
C  C84  1  0.63650000  0.93680000  0.61320000  1.0 -0.0661661202
C  C85  1  0.39110000  0.96200000  0.69230000  1.0 -0.1504130071
C  C86  1  0.26390000  0.37270000  0.69240000  1.0 0.5311163156
C  C87  1  0.33880000  0.00120000  0.72550000  1.0 -0.0905427994
C  C88  1  0.46960000  0.69360000  0.63000000  1.0 -0.4465485475
C  C89  1  0.28840000  0.40720000  0.33960000  1.0 -0.43869572
C  C90  1  0.62420000  0.08160000  0.69500000  1.0 -0.4465485475
C  C91  1  0.31960000  0.06610000  0.70080000  1.0 -0.0517856046
C  C92  1  0.26600000  0.11200000  0.74000000  1.0 0.5853997855
O  O1  1  0.80310000  0.61190000  0.10140000  1.0 -0.4896133007
O  O2  1  0.92030000  0.85460000  0.17340000  1.0 -0.6027928503
O  O3  1  0.72500000  0.69750000  0.07620000  1.0 -0.6121964665
O  O4  1  0.82790000  0.65480000  0.32630000  1.0 -0.5773989322
O  O5  1  0.68090000  0.63850000  0.25390000  1.0 -0.4720660062
O  O6  1  0.95120000  0.81260000  0.28770000  1.0 -0.4963753434
O  O7  1  0.74120000  0.89580000  0.18890000  1.0 -0.5773989322
O  O8  1  0.75200000  0.83050000  0.27920000  1.0 -0.4806141691
O  O9  1  0.19690000  0.38810000  0.89860000  1.0 -0.4896133007
O  O10  1  0.07970000  0.14540000  0.82660000  1.0 -0.6027928503
O  O11  1  0.27500000  0.30250000  0.92380000  1.0 -0.6121964665
O  O12  1  0.17210000  0.34520000  0.67370000  1.0 -0.5773989322
O  O13  1  0.31910000  0.36150000  0.74610000  1.0 -0.4720660062
O  O14  1  0.04880000  0.18740000  0.71230000  1.0 -0.4963753434
O  O15  1  0.25880000  0.10420000  0.81110000  1.0 -0.5773989322
O  O16  1  0.24800000  0.16950000  0.72080000  1.0 -0.4806141691
