# DDEC6 charges by PACMAN v1.1 (https://github.com/mtap-research/PACMAN-charge/)
data_GOJDOZ_ASR_pacman
_symmetry_space_group_name_H-M   'P 1'
_cell_length_a   6.60590000
_cell_length_b   9.86380000
_cell_length_c   13.18700000
_cell_angle_alpha   79.31700000
_cell_angle_beta   86.34900000
_cell_angle_gamma   83.79400000
_symmetry_Int_Tables_number   1
_chemical_formula_structural   UH2(CO)4
_chemical_formula_sum   'U4 H8 C16 O16'
_cell_volume   838.57643608
_cell_formula_units_Z   4
loop_
 _symmetry_equiv_pos_site_id
 _symmetry_equiv_pos_as_xyz
  1  'x, y, z'
loop_
 _atom_site_type_symbol
 _atom_site_label
 _atom_site_symmetry_multiplicity
 _atom_site_fract_x
 _atom_site_fract_y
 _atom_site_fract_z
 _atom_site_occupancy
 _atom_site_charge
U  U1  1  0.38316000  0.61360000  0.80652000  1.0 1.7215536245
U  U2  1  0.61684000  0.38640000  0.19348000  1.0 1.7215536245
U  U3  1  0.05124000  0.16834000  0.74522000  1.0 2.0301751502
U  U4  1  0.94876000  0.83166000  0.25478000  1.0 2.0301751502
H  H1  1  0.66020000  0.60200000  0.55180000  1.0 0.079533846
H  H2  1  0.33980000  0.39800000  0.44820000  1.0 0.079533846
H  H3  1  0.31940000  0.64050000  0.53110000  1.0 0.0702509752
H  H4  1  0.68060000  0.35950000  0.46890000  1.0 0.0702509752
H  H5  1  0.22700000  0.03550000  0.02380000  1.0 0.0702509752
H  H6  1  0.77300000  0.96450000  0.97620000  1.0 0.0702509752
H  H7  1  0.45640000  0.18170000  0.94840000  1.0 0.0702509752
H  H8  1  0.54360000  0.81830000  0.05160000  1.0 0.0702509752
C  C1  1  0.67160000  0.41720000  0.65580000  1.0 0.6173514285
C  C2  1  0.32840000  0.58280000  0.34420000  1.0 0.6173514285
C  C3  1  0.60080000  0.51370000  0.55870000  1.0 -0.2196705085
C  C4  1  0.39920000  0.48630000  0.44130000  1.0 -0.2196705085
C  C5  1  0.36610000  0.54130000  0.54250000  1.0 -0.2070582725
C  C6  1  0.63390000  0.45870000  0.45750000  1.0 -0.2070582725
C  C7  1  0.24130000  0.45890000  0.62790000  1.0 0.6005575963
C  C8  1  0.75870000  0.54110000  0.37210000  1.0 0.6005575963
C  C9  1  0.25960000  0.89990000  0.92040000  1.0 0.6173514285
C  C10  1  0.74040000  0.10010000  0.07960000  1.0 0.6173514285
C  C11  1  0.33880000  0.98640000  0.98840000  1.0 -0.2196705085
C  C12  1  0.66120000  0.01360000  0.01160000  1.0 -0.2196705085
C  C13  1  0.49780000  0.08820000  0.93460000  1.0 -0.2196705085
C  C14  1  0.50220000  0.91180000  0.06540000  1.0 -0.2196705085
C  C15  1  0.55220000  0.09480000  0.82230000  1.0 0.6318529257
C  C16  1  0.44780000  0.90520000  0.17770000  1.0 0.6318529257
O  O1  1  0.59320000  0.43730000  0.74250000  1.0 -0.7409740678
O  O2  1  0.40680000  0.56270000  0.25750000  1.0 -0.7409740678
O  O3  1  0.80580000  0.32090000  0.64500000  1.0 -0.6612998835
O  O4  1  0.19420000  0.67910000  0.35500000  1.0 -0.6612998835
O  O5  1  0.18250000  0.51430000  0.70460000  1.0 -0.7409740678
O  O6  1  0.81750000  0.48570000  0.29540000  1.0 -0.7409740678
O  O7  1  0.21480000  0.33820000  0.62110000  1.0 -0.6506456724
O  O8  1  0.78520000  0.66180000  0.37890000  1.0 -0.6506456724
O  O9  1  0.34470000  0.78190000  0.91600000  1.0 -0.7124589673
O  O10  1  0.65530000  0.21810000  0.08400000  1.0 -0.7124589673
O  O11  1  0.10590000  0.95370000  0.86790000  1.0 -0.7409740678
O  O12  1  0.89410000  0.04630000  0.13210000  1.0 -0.7409740678
O  O13  1  0.41230000  0.11250000  0.75860000  1.0 -0.7161090962
O  O14  1  0.58770000  0.88750000  0.24140000  1.0 -0.7161090962
O  O15  1  0.73640000  0.07730000  0.79150000  1.0 -0.679623305
O  O16  1  0.26360000  0.92270000  0.20850000  1.0 -0.679623305
