# DDEC6 charges by PACMAN v1.1 (https://github.com/mtap-research/PACMAN-charge/)
data_GOJFAN_ASR_pacman
_symmetry_space_group_name_H-M   'P 1'
_cell_length_a   22.57100000
_cell_length_b   22.57100000
_cell_length_c   22.57100000
_cell_angle_alpha   90.00000000
_cell_angle_beta   90.00000000
_cell_angle_gamma   90.00000000
_symmetry_Int_Tables_number   1
_chemical_formula_structural   U5H12(C2O5)12
_chemical_formula_sum   'U20 H48 C96 O240'
_cell_volume   11498.79687541
_cell_formula_units_Z   4
loop_
 _symmetry_equiv_pos_site_id
 _symmetry_equiv_pos_as_xyz
  1  'x, y, z'
loop_
 _atom_site_type_symbol
 _atom_site_label
 _atom_site_symmetry_multiplicity
 _atom_site_fract_x
 _atom_site_fract_y
 _atom_site_fract_z
 _atom_site_occupancy
 _atom_site_charge
U  U1  1  0.20308000  0.20308000  0.20308000  1.0 2.173144025
U  U2  1  0.20308000  0.20308000  0.79692000  1.0 2.173144025
U  U3  1  0.20308000  0.79692000  0.20308000  1.0 2.173144025
U  U4  1  0.79692000  0.20308000  0.20308000  1.0 2.173144025
U  U5  1  0.79692000  0.79692000  0.20308000  1.0 2.173144025
U  U6  1  0.79692000  0.20308000  0.79692000  1.0 2.173144025
U  U7  1  0.20308000  0.79692000  0.79692000  1.0 2.173144025
U  U8  1  0.79692000  0.79692000  0.79692000  1.0 2.173144025
U  U9  1  0.50000000  0.00000000  0.22922000  1.0 0.6681588017
U  U10  1  0.22922000  0.50000000  0.00000000  1.0 0.6681588017
U  U11  1  0.00000000  0.22922000  0.50000000  1.0 0.6681588017
U  U12  1  0.00000000  0.50000000  0.77078000  1.0 0.6681588017
U  U13  1  0.00000000  0.50000000  0.22922000  1.0 0.6681588017
U  U14  1  0.50000000  0.22922000  0.00000000  1.0 0.6681588017
U  U15  1  0.50000000  0.77078000  0.00000000  1.0 0.6681588017
U  U16  1  0.22922000  0.00000000  0.50000000  1.0 0.6681588017
U  U17  1  0.77078000  0.00000000  0.50000000  1.0 0.6681588017
U  U18  1  0.50000000  0.00000000  0.77078000  1.0 0.6681588017
U  U19  1  0.77078000  0.50000000  0.00000000  1.0 0.6681588017
U  U20  1  0.00000000  0.77078000  0.50000000  1.0 0.6681588017
H  H1  1  0.31140000  0.06000000  0.31140000  1.0 0.0902330272
H  H2  1  0.31140000  0.31140000  0.06000000  1.0 0.0902330272
H  H3  1  0.06000000  0.31140000  0.31140000  1.0 0.0902330272
H  H4  1  0.06000000  0.31140000  0.68860000  1.0 0.0902330272
H  H5  1  0.06000000  0.68860000  0.31140000  1.0 0.0902330272
H  H6  1  0.94000000  0.31140000  0.31140000  1.0 0.0902330272
H  H7  1  0.31140000  0.31140000  0.94000000  1.0 0.0902330272
H  H8  1  0.68860000  0.31140000  0.06000000  1.0 0.0902330272
H  H9  1  0.31140000  0.68860000  0.06000000  1.0 0.0902330272
H  H10  1  0.31140000  0.06000000  0.68860000  1.0 0.0902330272
H  H11  1  0.31140000  0.94000000  0.31140000  1.0 0.0902330272
H  H12  1  0.68860000  0.06000000  0.31140000  1.0 0.0902330272
H  H13  1  0.68860000  0.94000000  0.31140000  1.0 0.0902330272
H  H14  1  0.68860000  0.06000000  0.68860000  1.0 0.0902330272
H  H15  1  0.31140000  0.94000000  0.68860000  1.0 0.0902330272
H  H16  1  0.31140000  0.68860000  0.94000000  1.0 0.0902330272
H  H17  1  0.68860000  0.68860000  0.06000000  1.0 0.0902330272
H  H18  1  0.68860000  0.31140000  0.94000000  1.0 0.0902330272
H  H19  1  0.94000000  0.31140000  0.68860000  1.0 0.0902330272
H  H20  1  0.06000000  0.68860000  0.68860000  1.0 0.0902330272
H  H21  1  0.94000000  0.68860000  0.31140000  1.0 0.0902330272
H  H22  1  0.94000000  0.68860000  0.68860000  1.0 0.0902330272
H  H23  1  0.68860000  0.68860000  0.94000000  1.0 0.0902330272
H  H24  1  0.68860000  0.94000000  0.68860000  1.0 0.0902330272
H  H25  1  0.28820000  0.00000000  0.20170000  1.0 0.1190700952
H  H26  1  0.20170000  0.28820000  0.00000000  1.0 0.1190700952
H  H27  1  0.00000000  0.20170000  0.28820000  1.0 0.1190700952
H  H28  1  0.00000000  0.28820000  0.79830000  1.0 0.1190700952
H  H29  1  0.00000000  0.71180000  0.20170000  1.0 0.1190700952
H  H30  1  0.00000000  0.28820000  0.20170000  1.0 0.1190700952
H  H31  1  0.28820000  0.20170000  0.00000000  1.0 0.1190700952
H  H32  1  0.71180000  0.20170000  0.00000000  1.0 0.1190700952
H  H33  1  0.28820000  0.79830000  0.00000000  1.0 0.1190700952
H  H34  1  0.20170000  0.00000000  0.71180000  1.0 0.1190700952
H  H35  1  0.20170000  0.00000000  0.28820000  1.0 0.1190700952
H  H36  1  0.79830000  0.00000000  0.28820000  1.0 0.1190700952
H  H37  1  0.71180000  0.00000000  0.20170000  1.0 0.1190700952
H  H38  1  0.71180000  0.00000000  0.79830000  1.0 0.1190700952
H  H39  1  0.28820000  0.00000000  0.79830000  1.0 0.1190700952
H  H40  1  0.20170000  0.71180000  0.00000000  1.0 0.1190700952
H  H41  1  0.79830000  0.71180000  0.00000000  1.0 0.1190700952
H  H42  1  0.79830000  0.28820000  0.00000000  1.0 0.1190700952
H  H43  1  0.00000000  0.20170000  0.71180000  1.0 0.1190700952
H  H44  1  0.00000000  0.79830000  0.71180000  1.0 0.1190700952
H  H45  1  0.00000000  0.79830000  0.28820000  1.0 0.1190700952
H  H46  1  0.00000000  0.71180000  0.79830000  1.0 0.1190700952
H  H47  1  0.71180000  0.79830000  0.00000000  1.0 0.1190700952
H  H48  1  0.79830000  0.00000000  0.71180000  1.0 0.1190700952
C  C1  1  0.25490000  0.10150000  0.25490000  1.0 0.5759043419
C  C2  1  0.25490000  0.25490000  0.10150000  1.0 0.5759043419
C  C3  1  0.10150000  0.25490000  0.25490000  1.0 0.5759043419
C  C4  1  0.10150000  0.25490000  0.74510000  1.0 0.5759043419
C  C5  1  0.10150000  0.74510000  0.25490000  1.0 0.5759043419
C  C6  1  0.89850000  0.25490000  0.25490000  1.0 0.5759043419
C  C7  1  0.25490000  0.25490000  0.89850000  1.0 0.5759043419
C  C8  1  0.74510000  0.25490000  0.10150000  1.0 0.5759043419
C  C9  1  0.25490000  0.74510000  0.10150000  1.0 0.5759043419
C  C10  1  0.25490000  0.10150000  0.74510000  1.0 0.5759043419
C  C11  1  0.25490000  0.89850000  0.25490000  1.0 0.5759043419
C  C12  1  0.74510000  0.10150000  0.25490000  1.0 0.5759043419
C  C13  1  0.74510000  0.89850000  0.25490000  1.0 0.5759043419
C  C14  1  0.74510000  0.10150000  0.74510000  1.0 0.5759043419
C  C15  1  0.25490000  0.89850000  0.74510000  1.0 0.5759043419
C  C16  1  0.25490000  0.74510000  0.89850000  1.0 0.5759043419
C  C17  1  0.74510000  0.74510000  0.10150000  1.0 0.5759043419
C  C18  1  0.74510000  0.25490000  0.89850000  1.0 0.5759043419
C  C19  1  0.89850000  0.25490000  0.74510000  1.0 0.5759043419
C  C20  1  0.10150000  0.74510000  0.74510000  1.0 0.5759043419
C  C21  1  0.89850000  0.74510000  0.25490000  1.0 0.5759043419
C  C22  1  0.89850000  0.74510000  0.74510000  1.0 0.5759043419
C  C23  1  0.74510000  0.74510000  0.89850000  1.0 0.5759043419
C  C24  1  0.74510000  0.89850000  0.74510000  1.0 0.5759043419
C  C25  1  0.28190000  0.04820000  0.28190000  1.0 -0.2099633535
C  C26  1  0.28190000  0.28190000  0.04820000  1.0 -0.2099633535
C  C27  1  0.04820000  0.28190000  0.28190000  1.0 -0.2099633535
C  C28  1  0.04820000  0.28190000  0.71810000  1.0 -0.2099633535
C  C29  1  0.04820000  0.71810000  0.28190000  1.0 -0.2099633535
C  C30  1  0.95180000  0.28190000  0.28190000  1.0 -0.2099633535
C  C31  1  0.28190000  0.28190000  0.95180000  1.0 -0.2099633535
C  C32  1  0.71810000  0.28190000  0.04820000  1.0 -0.2099633535
C  C33  1  0.28190000  0.71810000  0.04820000  1.0 -0.2099633535
C  C34  1  0.28190000  0.04820000  0.71810000  1.0 -0.2099633535
C  C35  1  0.28190000  0.95180000  0.28190000  1.0 -0.2099633535
C  C36  1  0.71810000  0.04820000  0.28190000  1.0 -0.2099633535
C  C37  1  0.71810000  0.95180000  0.28190000  1.0 -0.2099633535
C  C38  1  0.71810000  0.04820000  0.71810000  1.0 -0.2099633535
C  C39  1  0.28190000  0.95180000  0.71810000  1.0 -0.2099633535
C  C40  1  0.28190000  0.71810000  0.95180000  1.0 -0.2099633535
C  C41  1  0.71810000  0.71810000  0.04820000  1.0 -0.2099633535
C  C42  1  0.71810000  0.28190000  0.95180000  1.0 -0.2099633535
C  C43  1  0.95180000  0.28190000  0.71810000  1.0 -0.2099633535
C  C44  1  0.04820000  0.71810000  0.71810000  1.0 -0.2099633535
C  C45  1  0.95180000  0.71810000  0.28190000  1.0 -0.2099633535
C  C46  1  0.95180000  0.71810000  0.71810000  1.0 -0.2099633535
C  C47  1  0.71810000  0.71810000  0.95180000  1.0 -0.2099633535
C  C48  1  0.71810000  0.95180000  0.71810000  1.0 -0.2099633535
C  C49  1  0.30830000  0.00000000  0.24020000  1.0 -0.1518447872
C  C50  1  0.24020000  0.30830000  0.00000000  1.0 -0.1518447872
C  C51  1  0.00000000  0.24020000  0.30830000  1.0 -0.1518447872
C  C52  1  0.00000000  0.30830000  0.75980000  1.0 -0.1518447872
C  C53  1  0.00000000  0.69170000  0.24020000  1.0 -0.1518447872
C  C54  1  0.00000000  0.30830000  0.24020000  1.0 -0.1518447872
C  C55  1  0.30830000  0.24020000  0.00000000  1.0 -0.1518447872
C  C56  1  0.69170000  0.24020000  0.00000000  1.0 -0.1518447872
C  C57  1  0.30830000  0.75980000  0.00000000  1.0 -0.1518447872
C  C58  1  0.24020000  0.00000000  0.69170000  1.0 -0.1518447872
C  C59  1  0.24020000  0.00000000  0.30830000  1.0 -0.1518447872
C  C60  1  0.75980000  0.00000000  0.30830000  1.0 -0.1518447872
C  C61  1  0.69170000  0.00000000  0.24020000  1.0 -0.1518447872
C  C62  1  0.69170000  0.00000000  0.75980000  1.0 -0.1518447872
C  C63  1  0.30830000  0.00000000  0.75980000  1.0 -0.1518447872
C  C64  1  0.24020000  0.69170000  0.00000000  1.0 -0.1518447872
C  C65  1  0.75980000  0.69170000  0.00000000  1.0 -0.1518447872
C  C66  1  0.75980000  0.30830000  0.00000000  1.0 -0.1518447872
C  C67  1  0.00000000  0.24020000  0.69170000  1.0 -0.1518447872
C  C68  1  0.00000000  0.75980000  0.69170000  1.0 -0.1518447872
C  C69  1  0.00000000  0.75980000  0.30830000  1.0 -0.1518447872
C  C70  1  0.00000000  0.69170000  0.75980000  1.0 -0.1518447872
C  C71  1  0.69170000  0.75980000  0.00000000  1.0 -0.1518447872
C  C72  1  0.75980000  0.00000000  0.69170000  1.0 -0.1518447872
C  C73  1  0.37370000  0.00000000  0.23260000  1.0 0.4398579472
C  C74  1  0.23260000  0.37370000  0.00000000  1.0 0.4398579472
C  C75  1  0.00000000  0.23260000  0.37370000  1.0 0.4398579472
C  C76  1  0.00000000  0.37370000  0.76740000  1.0 0.4398579472
C  C77  1  0.00000000  0.62630000  0.23260000  1.0 0.4398579472
C  C78  1  0.00000000  0.37370000  0.23260000  1.0 0.4398579472
C  C79  1  0.37370000  0.23260000  0.00000000  1.0 0.4398579472
C  C80  1  0.62630000  0.23260000  0.00000000  1.0 0.4398579472
C  C81  1  0.37370000  0.76740000  0.00000000  1.0 0.4398579472
C  C82  1  0.23260000  0.00000000  0.62630000  1.0 0.4398579472
C  C83  1  0.23260000  0.00000000  0.37370000  1.0 0.4398579472
C  C84  1  0.76740000  0.00000000  0.37370000  1.0 0.4398579472
C  C85  1  0.62630000  0.00000000  0.23260000  1.0 0.4398579472
C  C86  1  0.62630000  0.00000000  0.76740000  1.0 0.4398579472
C  C87  1  0.37370000  0.00000000  0.76740000  1.0 0.4398579472
C  C88  1  0.23260000  0.62630000  0.00000000  1.0 0.4398579472
C  C89  1  0.76740000  0.62630000  0.00000000  1.0 0.4398579472
C  C90  1  0.76740000  0.37370000  0.00000000  1.0 0.4398579472
C  C91  1  0.00000000  0.23260000  0.62630000  1.0 0.4398579472
C  C92  1  0.00000000  0.76740000  0.62630000  1.0 0.4398579472
C  C93  1  0.00000000  0.76740000  0.37370000  1.0 0.4398579472
C  C94  1  0.00000000  0.62630000  0.76740000  1.0 0.4398579472
C  C95  1  0.62630000  0.76740000  0.00000000  1.0 0.4398579472
C  C96  1  0.76740000  0.00000000  0.62630000  1.0 0.4398579472
O  O1  1  0.50000000  0.96550000  0.15710000  1.0 -0.075561079
O  O2  1  0.15710000  0.50000000  0.96550000  1.0 -0.0743466247
O  O3  1  0.96550000  0.15710000  0.50000000  1.0 -0.0743466247
O  O4  1  0.96550000  0.50000000  0.84290000  1.0 -0.0743466247
O  O5  1  0.96550000  0.50000000  0.15710000  1.0 -0.0743466247
O  O6  1  0.03450000  0.50000000  0.15710000  1.0 -0.0743466247
O  O7  1  0.50000000  0.15710000  0.03450000  1.0 -0.0743466247
O  O8  1  0.50000000  0.15710000  0.96550000  1.0 -0.0743466247
O  O9  1  0.50000000  0.84290000  0.96550000  1.0 -0.0743466247
O  O10  1  0.15710000  0.96550000  0.50000000  1.0 -0.0743466247
O  O11  1  0.15710000  0.03450000  0.50000000  1.0 -0.0743466247
O  O12  1  0.84290000  0.96550000  0.50000000  1.0 -0.0743466247
O  O13  1  0.50000000  0.03450000  0.15710000  1.0 -0.0743466247
O  O14  1  0.50000000  0.96550000  0.84290000  1.0 -0.0743466247
O  O15  1  0.50000000  0.03450000  0.84290000  1.0 -0.0743466247
O  O16  1  0.15710000  0.50000000  0.03450000  1.0 -0.0743466247
O  O17  1  0.84290000  0.50000000  0.96550000  1.0 -0.0743466247
O  O18  1  0.84290000  0.50000000  0.03450000  1.0 -0.0743466247
O  O19  1  0.03450000  0.15710000  0.50000000  1.0 -0.0743466247
O  O20  1  0.96550000  0.84290000  0.50000000  1.0 -0.0743466247
O  O21  1  0.03450000  0.84290000  0.50000000  1.0 -0.0743466247
O  O22  1  0.03450000  0.50000000  0.84290000  1.0 -0.0743466247
O  O23  1  0.50000000  0.84290000  0.03450000  1.0 -0.0743466247
O  O24  1  0.84290000  0.03450000  0.50000000  1.0 -0.0743466247
O  O25  1  0.50000000  0.02580000  0.30110000  1.0 0.0053048232
O  O26  1  0.30110000  0.50000000  0.02580000  1.0 0.0053048232
O  O27  1  0.02580000  0.30110000  0.50000000  1.0 0.0053048232
O  O28  1  0.02580000  0.50000000  0.69890000  1.0 0.0053048232
O  O29  1  0.02580000  0.50000000  0.30110000  1.0 0.0053048232
O  O30  1  0.97420000  0.50000000  0.30110000  1.0 0.0053048232
O  O31  1  0.50000000  0.30110000  0.97420000  1.0 0.0053048232
O  O32  1  0.50000000  0.30110000  0.02580000  1.0 0.0053048232
O  O33  1  0.50000000  0.69890000  0.02580000  1.0 0.0053048232
O  O34  1  0.30110000  0.02580000  0.50000000  1.0 0.0053048232
O  O35  1  0.30110000  0.97420000  0.50000000  1.0 0.0053048232
O  O36  1  0.69890000  0.02580000  0.50000000  1.0 0.0053048232
O  O37  1  0.50000000  0.97420000  0.30110000  1.0 0.0053048232
O  O38  1  0.50000000  0.02580000  0.69890000  1.0 0.0053048232
O  O39  1  0.50000000  0.97420000  0.69890000  1.0 0.0053048232
O  O40  1  0.30110000  0.50000000  0.97420000  1.0 0.0053048232
O  O41  1  0.69890000  0.50000000  0.02580000  1.0 0.0053048232
O  O42  1  0.69890000  0.50000000  0.97420000  1.0 0.0053048232
O  O43  1  0.97420000  0.30110000  0.50000000  1.0 0.0053048232
O  O44  1  0.02580000  0.69890000  0.50000000  1.0 0.0053048232
O  O45  1  0.97420000  0.69890000  0.50000000  1.0 0.0053048232
O  O46  1  0.97420000  0.50000000  0.69890000  1.0 0.0053048232
O  O47  1  0.50000000  0.69890000  0.97420000  1.0 0.0053048232
O  O48  1  0.69890000  0.97420000  0.50000000  1.0 0.0053048232
O  O49  1  0.20970000  0.12390000  0.27770000  1.0 -0.5757385369
O  O50  1  0.27770000  0.20970000  0.12390000  1.0 -0.5757385369
O  O51  1  0.12390000  0.27770000  0.20970000  1.0 -0.5757385369
O  O52  1  0.12390000  0.20970000  0.72230000  1.0 -0.5757385369
O  O53  1  0.12390000  0.79030000  0.27770000  1.0 -0.5757385369
O  O54  1  0.87610000  0.20970000  0.27770000  1.0 -0.5757385369
O  O55  1  0.20970000  0.27770000  0.87610000  1.0 -0.5757385369
O  O56  1  0.79030000  0.27770000  0.12390000  1.0 -0.5757385369
O  O57  1  0.20970000  0.72230000  0.12390000  1.0 -0.5757385369
O  O58  1  0.27770000  0.12390000  0.79030000  1.0 -0.5757385369
O  O59  1  0.27770000  0.87610000  0.20970000  1.0 -0.5757385369
O  O60  1  0.72230000  0.12390000  0.20970000  1.0 -0.5757385369
O  O61  1  0.79030000  0.87610000  0.27770000  1.0 -0.5757385369
O  O62  1  0.79030000  0.12390000  0.72230000  1.0 -0.5757385369
O  O63  1  0.20970000  0.87610000  0.72230000  1.0 -0.5757385369
O  O64  1  0.27770000  0.79030000  0.87610000  1.0 -0.5757385369
O  O65  1  0.72230000  0.79030000  0.12390000  1.0 -0.5757385369
O  O66  1  0.72230000  0.20970000  0.87610000  1.0 -0.5757385369
O  O67  1  0.87610000  0.27770000  0.79030000  1.0 -0.5757385369
O  O68  1  0.12390000  0.72230000  0.79030000  1.0 -0.5757385369
O  O69  1  0.87610000  0.72230000  0.20970000  1.0 -0.5757385369
O  O70  1  0.87610000  0.79030000  0.72230000  1.0 -0.5757385369
O  O71  1  0.79030000  0.72230000  0.87610000  1.0 -0.5757385369
O  O72  1  0.72230000  0.87610000  0.79030000  1.0 -0.5757385369
O  O73  1  0.79030000  0.87610000  0.72230000  1.0 -0.5757385369
O  O74  1  0.72230000  0.79030000  0.87610000  1.0 -0.5757385369
O  O75  1  0.87610000  0.72230000  0.79030000  1.0 -0.5757385369
O  O76  1  0.87610000  0.79030000  0.27770000  1.0 -0.5757385369
O  O77  1  0.87610000  0.20970000  0.72230000  1.0 -0.5757385369
O  O78  1  0.12390000  0.79030000  0.72230000  1.0 -0.5757385369
O  O79  1  0.79030000  0.72230000  0.12390000  1.0 -0.5757385369
O  O80  1  0.20970000  0.72230000  0.87610000  1.0 -0.5757385369
O  O81  1  0.79030000  0.27770000  0.87610000  1.0 -0.5757385369
O  O82  1  0.72230000  0.87610000  0.20970000  1.0 -0.5757385369
O  O83  1  0.72230000  0.12390000  0.79030000  1.0 -0.5757385369
O  O84  1  0.27770000  0.87610000  0.79030000  1.0 -0.5757385369
O  O85  1  0.20970000  0.12390000  0.72230000  1.0 -0.5757385369
O  O86  1  0.20970000  0.87610000  0.27770000  1.0 -0.5757385369
O  O87  1  0.79030000  0.12390000  0.27770000  1.0 -0.5757385369
O  O88  1  0.72230000  0.20970000  0.12390000  1.0 -0.5757385369
O  O89  1  0.27770000  0.20970000  0.87610000  1.0 -0.5757385369
O  O90  1  0.27770000  0.79030000  0.12390000  1.0 -0.5757385369
O  O91  1  0.12390000  0.72230000  0.20970000  1.0 -0.5757385369
O  O92  1  0.87610000  0.27770000  0.20970000  1.0 -0.5757385369
O  O93  1  0.12390000  0.27770000  0.79030000  1.0 -0.5757385369
O  O94  1  0.12390000  0.20970000  0.27770000  1.0 -0.5757385369
O  O95  1  0.20970000  0.27770000  0.12390000  1.0 -0.5757385369
O  O96  1  0.27770000  0.12390000  0.20970000  1.0 -0.5757385369
O  O97  1  0.40130000  0.95200000  0.24160000  1.0 -0.0379661714
O  O98  1  0.24160000  0.40130000  0.95200000  1.0 -0.0379661714
O  O99  1  0.95200000  0.24160000  0.40130000  1.0 -0.0379661714
O  O100  1  0.95200000  0.40130000  0.75840000  1.0 -0.0379661714
O  O101  1  0.95200000  0.59870000  0.24160000  1.0 -0.0379661714
O  O102  1  0.04800000  0.40130000  0.24160000  1.0 -0.0379661714
O  O103  1  0.40130000  0.24160000  0.04800000  1.0 -0.0379661714
O  O104  1  0.59870000  0.24160000  0.95200000  1.0 -0.0379661714
O  O105  1  0.40130000  0.75840000  0.95200000  1.0 -0.0379661714
O  O106  1  0.24160000  0.95200000  0.59870000  1.0 -0.0379661714
O  O107  1  0.24160000  0.04800000  0.40130000  1.0 -0.0379661714
O  O108  1  0.75840000  0.95200000  0.40130000  1.0 -0.0379661714
O  O109  1  0.59870000  0.04800000  0.24160000  1.0 -0.0379661714
O  O110  1  0.59870000  0.95200000  0.75840000  1.0 -0.0379661714
O  O111  1  0.40130000  0.04800000  0.75840000  1.0 -0.0379661714
O  O112  1  0.24160000  0.59870000  0.04800000  1.0 -0.0379661714
O  O113  1  0.75840000  0.59870000  0.95200000  1.0 -0.0379661714
O  O114  1  0.75840000  0.40130000  0.04800000  1.0 -0.0379661714
O  O115  1  0.04800000  0.24160000  0.59870000  1.0 -0.0379661714
O  O116  1  0.95200000  0.75840000  0.59870000  1.0 -0.0379661714
O  O117  1  0.04800000  0.75840000  0.40130000  1.0 -0.0379661714
O  O118  1  0.04800000  0.59870000  0.75840000  1.0 -0.0379661714
O  O119  1  0.59870000  0.75840000  0.04800000  1.0 -0.0379661714
O  O120  1  0.75840000  0.04800000  0.59870000  1.0 -0.0379661714
O  O121  1  0.59870000  0.04800000  0.75840000  1.0 -0.0379661714
O  O122  1  0.75840000  0.59870000  0.04800000  1.0 -0.0379661714
O  O123  1  0.04800000  0.75840000  0.59870000  1.0 -0.0379661714
O  O124  1  0.04800000  0.59870000  0.24160000  1.0 -0.0379661714
O  O125  1  0.04800000  0.40130000  0.75840000  1.0 -0.0379661714
O  O126  1  0.95200000  0.59870000  0.75840000  1.0 -0.0379661714
O  O127  1  0.59870000  0.75840000  0.95200000  1.0 -0.0379661714
O  O128  1  0.40130000  0.75840000  0.04800000  1.0 -0.0379661714
O  O129  1  0.59870000  0.24160000  0.04800000  1.0 -0.0379661714
O  O130  1  0.75840000  0.04800000  0.40130000  1.0 -0.0379661714
O  O131  1  0.75840000  0.95200000  0.59870000  1.0 -0.0379661714
O  O132  1  0.24160000  0.04800000  0.59870000  1.0 -0.0379661714
O  O133  1  0.40130000  0.95200000  0.75840000  1.0 -0.0379661714
O  O134  1  0.40130000  0.04800000  0.24160000  1.0 -0.0379661714
O  O135  1  0.59870000  0.95200000  0.24160000  1.0 -0.0379661714
O  O136  1  0.75840000  0.40130000  0.95200000  1.0 -0.0379661714
O  O137  1  0.24160000  0.40130000  0.04800000  1.0 -0.0379661714
O  O138  1  0.24160000  0.59870000  0.95200000  1.0 -0.0379661714
O  O139  1  0.95200000  0.75840000  0.40130000  1.0 -0.0379661714
O  O140  1  0.04800000  0.24160000  0.40130000  1.0 -0.0379661714
O  O141  1  0.95200000  0.24160000  0.59870000  1.0 -0.0379661714
O  O142  1  0.95200000  0.40130000  0.24160000  1.0 -0.0379661714
O  O143  1  0.40130000  0.24160000  0.95200000  1.0 -0.0379661714
O  O144  1  0.24160000  0.95200000  0.40130000  1.0 -0.0379661714
O  O145  1  0.50000000  0.89760000  0.27630000  1.0 -0.2899120774
O  O146  1  0.27630000  0.50000000  0.89760000  1.0 -0.2899120774
O  O147  1  0.89760000  0.27630000  0.50000000  1.0 -0.2899120774
O  O148  1  0.89760000  0.50000000  0.72370000  1.0 -0.2899120774
O  O149  1  0.89760000  0.50000000  0.27630000  1.0 -0.2899120774
O  O150  1  0.10240000  0.50000000  0.27630000  1.0 -0.2899120774
O  O151  1  0.50000000  0.27630000  0.10240000  1.0 -0.2899120774
O  O152  1  0.50000000  0.27630000  0.89760000  1.0 -0.2899120774
O  O153  1  0.50000000  0.72370000  0.89760000  1.0 -0.2899120774
O  O154  1  0.27630000  0.89760000  0.50000000  1.0 -0.2899120774
O  O155  1  0.27630000  0.10240000  0.50000000  1.0 -0.2899120774
O  O156  1  0.72370000  0.89760000  0.50000000  1.0 -0.2899120774
O  O157  1  0.50000000  0.10240000  0.27630000  1.0 -0.2899120774
O  O158  1  0.50000000  0.89760000  0.72370000  1.0 -0.2899120774
O  O159  1  0.50000000  0.10240000  0.72370000  1.0 -0.2899120774
O  O160  1  0.27630000  0.50000000  0.10240000  1.0 -0.2899120774
O  O161  1  0.72370000  0.50000000  0.89760000  1.0 -0.2899120774
O  O162  1  0.72370000  0.50000000  0.10240000  1.0 -0.2899120774
O  O163  1  0.10240000  0.27630000  0.50000000  1.0 -0.2899120774
O  O164  1  0.89760000  0.72370000  0.50000000  1.0 -0.2899120774
O  O165  1  0.10240000  0.72370000  0.50000000  1.0 -0.2899120774
O  O166  1  0.10240000  0.50000000  0.72370000  1.0 -0.2899120774
O  O167  1  0.50000000  0.72370000  0.10240000  1.0 -0.2899120774
O  O168  1  0.72370000  0.10240000  0.50000000  1.0 -0.2899120774
O  O169  1  0.40290000  0.95830000  0.21220000  1.0 0.0017000578
O  O170  1  0.21220000  0.40290000  0.95830000  1.0 0.0017000578
O  O171  1  0.95830000  0.21220000  0.40290000  1.0 0.0017000578
O  O172  1  0.95830000  0.40290000  0.78780000  1.0 0.0017000578
O  O173  1  0.95830000  0.59710000  0.21220000  1.0 0.0017000578
O  O174  1  0.04170000  0.40290000  0.21220000  1.0 0.0017000578
O  O175  1  0.40290000  0.21220000  0.04170000  1.0 0.0017000578
O  O176  1  0.59710000  0.21220000  0.95830000  1.0 0.0017000578
O  O177  1  0.40290000  0.78780000  0.95830000  1.0 0.0017000578
O  O178  1  0.21220000  0.95830000  0.59710000  1.0 0.0017000578
O  O179  1  0.21220000  0.04170000  0.40290000  1.0 0.0017000578
O  O180  1  0.78780000  0.95830000  0.40290000  1.0 0.0017000578
O  O181  1  0.59710000  0.04170000  0.21220000  1.0 0.0017000578
O  O182  1  0.59710000  0.95830000  0.78780000  1.0 0.0017000578
O  O183  1  0.40290000  0.04170000  0.78780000  1.0 0.0017000578
O  O184  1  0.21220000  0.59710000  0.04170000  1.0 0.0017000578
O  O185  1  0.78780000  0.59710000  0.95830000  1.0 0.0017000578
O  O186  1  0.78780000  0.40290000  0.04170000  1.0 0.0017000578
O  O187  1  0.04170000  0.21220000  0.59710000  1.0 0.0017000578
O  O188  1  0.95830000  0.78780000  0.59710000  1.0 0.0017000578
O  O189  1  0.04170000  0.78780000  0.40290000  1.0 0.0017000578
O  O190  1  0.04170000  0.59710000  0.78780000  1.0 0.0017000578
O  O191  1  0.59710000  0.78780000  0.04170000  1.0 0.0017000578
O  O192  1  0.78780000  0.04170000  0.59710000  1.0 0.0017000578
O  O193  1  0.59710000  0.04170000  0.78780000  1.0 0.0017000578
O  O194  1  0.78780000  0.59710000  0.04170000  1.0 0.0017000578
O  O195  1  0.04170000  0.78780000  0.59710000  1.0 0.0017000578
O  O196  1  0.04170000  0.59710000  0.21220000  1.0 0.0017000578
O  O197  1  0.04170000  0.40290000  0.78780000  1.0 0.0017000578
O  O198  1  0.95830000  0.59710000  0.78780000  1.0 0.0017000578
O  O199  1  0.59710000  0.78780000  0.95830000  1.0 0.0017000578
O  O200  1  0.40290000  0.78780000  0.04170000  1.0 0.0017000578
O  O201  1  0.59710000  0.21220000  0.04170000  1.0 0.0017000578
O  O202  1  0.78780000  0.04170000  0.40290000  1.0 0.0017000578
O  O203  1  0.78780000  0.95830000  0.59710000  1.0 0.0017000578
O  O204  1  0.21220000  0.04170000  0.59710000  1.0 0.0017000578
O  O205  1  0.40290000  0.95830000  0.78780000  1.0 0.0017000578
O  O206  1  0.40290000  0.04170000  0.21220000  1.0 0.0017000578
O  O207  1  0.59710000  0.95830000  0.21220000  1.0 0.0017000578
O  O208  1  0.78780000  0.40290000  0.95830000  1.0 0.0017000578
O  O209  1  0.21220000  0.40290000  0.04170000  1.0 0.0017000578
O  O210  1  0.21220000  0.59710000  0.95830000  1.0 0.0017000578
O  O211  1  0.95830000  0.78780000  0.40290000  1.0 0.0017000578
O  O212  1  0.04170000  0.21220000  0.40290000  1.0 0.0017000578
O  O213  1  0.95830000  0.21220000  0.59710000  1.0 0.0017000578
O  O214  1  0.95830000  0.40290000  0.21220000  1.0 0.0017000578
O  O215  1  0.40290000  0.21220000  0.95830000  1.0 0.0017000578
O  O216  1  0.21220000  0.95830000  0.40290000  1.0 0.0017000578
O  O217  1  0.50000000  0.90400000  0.18440000  1.0 -0.3387042311
O  O218  1  0.18440000  0.50000000  0.90400000  1.0 -0.3387042311
O  O219  1  0.90400000  0.18440000  0.50000000  1.0 -0.3387042311
O  O220  1  0.90400000  0.50000000  0.81560000  1.0 -0.3387042311
O  O221  1  0.90400000  0.50000000  0.18440000  1.0 -0.3387042311
O  O222  1  0.09600000  0.50000000  0.18440000  1.0 -0.3387042311
O  O223  1  0.50000000  0.18440000  0.09600000  1.0 -0.3387042311
O  O224  1  0.50000000  0.18440000  0.90400000  1.0 -0.3387042311
O  O225  1  0.50000000  0.81560000  0.90400000  1.0 -0.3387042311
O  O226  1  0.18440000  0.90400000  0.50000000  1.0 -0.3387042311
O  O227  1  0.18440000  0.09600000  0.50000000  1.0 -0.3387042311
O  O228  1  0.81560000  0.90400000  0.50000000  1.0 -0.3387042311
O  O229  1  0.50000000  0.09600000  0.18440000  1.0 -0.3387042311
O  O230  1  0.50000000  0.90400000  0.81560000  1.0 -0.3387042311
O  O231  1  0.50000000  0.09600000  0.81560000  1.0 -0.3387042311
O  O232  1  0.18440000  0.50000000  0.09600000  1.0 -0.3387042311
O  O233  1  0.81560000  0.50000000  0.90400000  1.0 -0.3387042311
O  O234  1  0.81560000  0.50000000  0.09600000  1.0 -0.3387042311
O  O235  1  0.09600000  0.18440000  0.50000000  1.0 -0.3387042311
O  O236  1  0.90400000  0.81560000  0.50000000  1.0 -0.3387042311
O  O237  1  0.09600000  0.81560000  0.50000000  1.0 -0.3387042311
O  O238  1  0.09600000  0.50000000  0.81560000  1.0 -0.3387042311
O  O239  1  0.50000000  0.81560000  0.09600000  1.0 -0.3387042311
O  O240  1  0.81560000  0.09600000  0.50000000  1.0 -0.3387042311
