# DDEC6 charges by PACMAN v1.1 (https://github.com/mtap-research/PACMAN-charge/)
data_GOLDAO_ASR_pacman
_symmetry_space_group_name_H-M   'P 1'
_cell_length_a   15.97310000
_cell_length_b   15.97310000
_cell_length_c   18.41490000
_cell_angle_alpha   90.00000000
_cell_angle_beta   90.00000000
_cell_angle_gamma   120.00000000
_symmetry_Int_Tables_number   1
_chemical_formula_structural   CaP2H18Pd(CO3)3
_chemical_formula_sum   'Ca12 P24 H216 Pd12 C36 O108'
_cell_volume   4068.91312780
_cell_formula_units_Z   12
loop_
 _symmetry_equiv_pos_site_id
 _symmetry_equiv_pos_as_xyz
  1  'x, y, z'
loop_
 _atom_site_type_symbol
 _atom_site_label
 _atom_site_symmetry_multiplicity
 _atom_site_fract_x
 _atom_site_fract_y
 _atom_site_fract_z
 _atom_site_occupancy
 _atom_site_charge
Ca  Ca1  1  0.37002000  0.37002000  0.25000000  1.0 1.3425380661
Ca  Ca2  1  0.62998000  0.62998000  0.25000000  1.0 1.3452461286
Ca  Ca3  1  0.00000000  0.62998000  0.25000000  1.0 1.3452461286
Ca  Ca4  1  0.00000000  0.37002000  0.25000000  1.0 1.3425380661
Ca  Ca5  1  0.37002000  0.00000000  0.25000000  1.0 1.3425380661
Ca  Ca6  1  0.62998000  0.00000000  0.25000000  1.0 1.3425380661
Ca  Ca7  1  0.62998000  0.62998000  0.75000000  1.0 1.3452461286
Ca  Ca8  1  0.37002000  0.37002000  0.75000000  1.0 1.3425380661
Ca  Ca9  1  0.00000000  0.37002000  0.75000000  1.0 1.3425380661
Ca  Ca10  1  0.00000000  0.62998000  0.75000000  1.0 1.3452461286
Ca  Ca11  1  0.62998000  0.00000000  0.75000000  1.0 1.3425380661
Ca  Ca12  1  0.37002000  0.00000000  0.75000000  1.0 1.3425380661
P  P1  1  0.45030000  0.28992000  0.08236000  1.0 0.8415365516
P  P2  1  0.54970000  0.71008000  0.08236000  1.0 0.8415365516
P  P3  1  0.71008000  0.54970000  0.41764000  1.0 0.8415365516
P  P4  1  0.28992000  0.45030000  0.41764000  1.0 0.8415365516
P  P5  1  0.16038000  0.71008000  0.41764000  1.0 0.8415365516
P  P6  1  0.83962000  0.28992000  0.41764000  1.0 0.8415365516
P  P7  1  0.45030000  0.16038000  0.41764000  1.0 0.8415365516
P  P8  1  0.54970000  0.83962000  0.41764000  1.0 0.8415365516
P  P9  1  0.71008000  0.16038000  0.08236000  1.0 0.8415365516
P  P10  1  0.28992000  0.83962000  0.08236000  1.0 0.8415365516
P  P11  1  0.16038000  0.45030000  0.08236000  1.0 0.8415365516
P  P12  1  0.83962000  0.54970000  0.08236000  1.0 0.8415365516
P  P13  1  0.54970000  0.71008000  0.91764000  1.0 0.8415365516
P  P14  1  0.45030000  0.28992000  0.91764000  1.0 0.8415365516
P  P15  1  0.28992000  0.45030000  0.58236000  1.0 0.8415365516
P  P16  1  0.71008000  0.54970000  0.58236000  1.0 0.8415365516
P  P17  1  0.83962000  0.28992000  0.58236000  1.0 0.8415365516
P  P18  1  0.16038000  0.71008000  0.58236000  1.0 0.8415365516
P  P19  1  0.54970000  0.83962000  0.58236000  1.0 0.8415365516
P  P20  1  0.45030000  0.16038000  0.58236000  1.0 0.8415365516
P  P21  1  0.28992000  0.83962000  0.91764000  1.0 0.8415365516
P  P22  1  0.71008000  0.16038000  0.91764000  1.0 0.8415365516
P  P23  1  0.83962000  0.54970000  0.91764000  1.0 0.8415365516
P  P24  1  0.16038000  0.45030000  0.91764000  1.0 0.8415365516
H  H1  1  0.48400000  0.52600000  0.14070000  1.0 0.2868538424
H  H2  1  0.51600000  0.47400000  0.14070000  1.0 0.2868538424
H  H3  1  0.47400000  0.51600000  0.35930000  1.0 0.2868538424
H  H4  1  0.52600000  0.48400000  0.35930000  1.0 0.2868538424
H  H5  1  0.95800000  0.47400000  0.35930000  1.0 0.2868538424
H  H6  1  0.04200000  0.52600000  0.35930000  1.0 0.2868538424
H  H7  1  0.48400000  0.95800000  0.35930000  1.0 0.2868538424
H  H8  1  0.51600000  0.04200000  0.35930000  1.0 0.2868538424
H  H9  1  0.47400000  0.95800000  0.14070000  1.0 0.2868538424
H  H10  1  0.52600000  0.04200000  0.14070000  1.0 0.2868538424
H  H11  1  0.95800000  0.48400000  0.14070000  1.0 0.2868538424
H  H12  1  0.04200000  0.51600000  0.14070000  1.0 0.2868538424
H  H13  1  0.51600000  0.47400000  0.85930000  1.0 0.2868538424
H  H14  1  0.48400000  0.52600000  0.85930000  1.0 0.2868538424
H  H15  1  0.52600000  0.48400000  0.64070000  1.0 0.2868538424
H  H16  1  0.47400000  0.51600000  0.64070000  1.0 0.2868538424
H  H17  1  0.04200000  0.52600000  0.64070000  1.0 0.2868538424
H  H18  1  0.95800000  0.47400000  0.64070000  1.0 0.2868538424
H  H19  1  0.51600000  0.04200000  0.64070000  1.0 0.2868538424
H  H20  1  0.48400000  0.95800000  0.64070000  1.0 0.2868538424
H  H21  1  0.52600000  0.04200000  0.85930000  1.0 0.2868538424
H  H22  1  0.47400000  0.95800000  0.85930000  1.0 0.2868538424
H  H23  1  0.04200000  0.51600000  0.85930000  1.0 0.2868538424
H  H24  1  0.95800000  0.48400000  0.85930000  1.0 0.2868538424
H  H25  1  0.32510000  0.36000000  0.95840000  1.0 0.1300338779
H  H26  1  0.67490000  0.64000000  0.95840000  1.0 0.1300338779
H  H27  1  0.64000000  0.67490000  0.54160000  1.0 0.1300338779
H  H28  1  0.36000000  0.32510000  0.54160000  1.0 0.1300338779
H  H29  1  0.96510000  0.64000000  0.54160000  1.0 0.1300338779
H  H30  1  0.03490000  0.36000000  0.54160000  1.0 0.1300338779
H  H31  1  0.32510000  0.96510000  0.54160000  1.0 0.1300338779
H  H32  1  0.67490000  0.03490000  0.54160000  1.0 0.1300338779
H  H33  1  0.64000000  0.96510000  0.95840000  1.0 0.1300338779
H  H34  1  0.36000000  0.03490000  0.95840000  1.0 0.1300338779
H  H35  1  0.96510000  0.32510000  0.95840000  1.0 0.1300338779
H  H36  1  0.03490000  0.67490000  0.95840000  1.0 0.1300338779
H  H37  1  0.67490000  0.64000000  0.04160000  1.0 0.1300338779
H  H38  1  0.32510000  0.36000000  0.04160000  1.0 0.1300338779
H  H39  1  0.36000000  0.32510000  0.45840000  1.0 0.1300338779
H  H40  1  0.64000000  0.67490000  0.45840000  1.0 0.1300338779
H  H41  1  0.03490000  0.36000000  0.45840000  1.0 0.1300338779
H  H42  1  0.96510000  0.64000000  0.45840000  1.0 0.1300338779
H  H43  1  0.67490000  0.03490000  0.45840000  1.0 0.1300338779
H  H44  1  0.32510000  0.96510000  0.45840000  1.0 0.1300338779
H  H45  1  0.36000000  0.03490000  0.04160000  1.0 0.1300338779
H  H46  1  0.64000000  0.96510000  0.04160000  1.0 0.1300338779
H  H47  1  0.03490000  0.67490000  0.04160000  1.0 0.1300338779
H  H48  1  0.96510000  0.32510000  0.04160000  1.0 0.1300338779
H  H49  1  0.33990000  0.13100000  0.97810000  1.0 0.0249773449
H  H50  1  0.66010000  0.86900000  0.97810000  1.0 0.0249773449
H  H51  1  0.86900000  0.66010000  0.52190000  1.0 0.0249773449
H  H52  1  0.13100000  0.33990000  0.52190000  1.0 0.0249773449
H  H53  1  0.20890000  0.86900000  0.52190000  1.0 0.0249773449
H  H54  1  0.79110000  0.13100000  0.52190000  1.0 0.0249773449
H  H55  1  0.33990000  0.20890000  0.52190000  1.0 0.0249773449
H  H56  1  0.66010000  0.79110000  0.52190000  1.0 0.0249773449
H  H57  1  0.86900000  0.20890000  0.97810000  1.0 0.0249773449
H  H58  1  0.13100000  0.79110000  0.97810000  1.0 0.0249773449
H  H59  1  0.20890000  0.33990000  0.97810000  1.0 0.0249773449
H  H60  1  0.79110000  0.66010000  0.97810000  1.0 0.0249773449
H  H61  1  0.66010000  0.86900000  0.02190000  1.0 0.0249773449
H  H62  1  0.33990000  0.13100000  0.02190000  1.0 0.0249773449
H  H63  1  0.13100000  0.33990000  0.47810000  1.0 0.0249773449
H  H64  1  0.86900000  0.66010000  0.47810000  1.0 0.0249773449
H  H65  1  0.79110000  0.13100000  0.47810000  1.0 0.0249773449
H  H66  1  0.20890000  0.86900000  0.47810000  1.0 0.0249773449
H  H67  1  0.66010000  0.79110000  0.47810000  1.0 0.0249773449
H  H68  1  0.33990000  0.20890000  0.47810000  1.0 0.0249773449
H  H69  1  0.13100000  0.79110000  0.02190000  1.0 0.0249773449
H  H70  1  0.86900000  0.20890000  0.02190000  1.0 0.0249773449
H  H71  1  0.79110000  0.66010000  0.02190000  1.0 0.0249773449
H  H72  1  0.20890000  0.33990000  0.02190000  1.0 0.0249773449
H  H73  1  0.29800000  0.32100000  0.96700000  1.0 0.0784087039
H  H74  1  0.70200000  0.67900000  0.96700000  1.0 0.0784087039
H  H75  1  0.67900000  0.70200000  0.53300000  1.0 0.0784087039
H  H76  1  0.32100000  0.29800000  0.53300000  1.0 0.0784087039
H  H77  1  0.97700000  0.67900000  0.53300000  1.0 0.0784087039
H  H78  1  0.02300000  0.32100000  0.53300000  1.0 0.0784087039
H  H79  1  0.29800000  0.97700000  0.53300000  1.0 0.0784087039
H  H80  1  0.70200000  0.02300000  0.53300000  1.0 0.0784087039
H  H81  1  0.67900000  0.97700000  0.96700000  1.0 0.0784087039
H  H82  1  0.32100000  0.02300000  0.96700000  1.0 0.0784087039
H  H83  1  0.97700000  0.29800000  0.96700000  1.0 0.0784087039
H  H84  1  0.02300000  0.70200000  0.96700000  1.0 0.0784087039
H  H85  1  0.70200000  0.67900000  0.03300000  1.0 0.0784087039
H  H86  1  0.29800000  0.32100000  0.03300000  1.0 0.0784087039
H  H87  1  0.32100000  0.29800000  0.46700000  1.0 0.0784087039
H  H88  1  0.67900000  0.70200000  0.46700000  1.0 0.0784087039
H  H89  1  0.02300000  0.32100000  0.46700000  1.0 0.0784087039
H  H90  1  0.97700000  0.67900000  0.46700000  1.0 0.0784087039
H  H91  1  0.70200000  0.02300000  0.46700000  1.0 0.0784087039
H  H92  1  0.29800000  0.97700000  0.46700000  1.0 0.0784087039
H  H93  1  0.32100000  0.02300000  0.03300000  1.0 0.0784087039
H  H94  1  0.67900000  0.97700000  0.03300000  1.0 0.0784087039
H  H95  1  0.02300000  0.70200000  0.03300000  1.0 0.0784087039
H  H96  1  0.97700000  0.29800000  0.03300000  1.0 0.0784087039
H  H97  1  0.32910000  0.36260000  0.04340000  1.0 0.1300338779
H  H98  1  0.67090000  0.63740000  0.04340000  1.0 0.1300338779
H  H99  1  0.63740000  0.67090000  0.45660000  1.0 0.1300338779
H  H100  1  0.36260000  0.32910000  0.45660000  1.0 0.1300338779
H  H101  1  0.96650000  0.63740000  0.45660000  1.0 0.1300338779
H  H102  1  0.03350000  0.36260000  0.45660000  1.0 0.1300338779
H  H103  1  0.32910000  0.96650000  0.45660000  1.0 0.1300338779
H  H104  1  0.67090000  0.03350000  0.45660000  1.0 0.1300338779
H  H105  1  0.63740000  0.96650000  0.04340000  1.0 0.1300338779
H  H106  1  0.36260000  0.03350000  0.04340000  1.0 0.1300338779
H  H107  1  0.96650000  0.32910000  0.04340000  1.0 0.1300338779
H  H108  1  0.03350000  0.67090000  0.04340000  1.0 0.1300338779
H  H109  1  0.67090000  0.63740000  0.95660000  1.0 0.1300338779
H  H110  1  0.32910000  0.36260000  0.95660000  1.0 0.1300338779
H  H111  1  0.36260000  0.32910000  0.54340000  1.0 0.1300338779
H  H112  1  0.63740000  0.67090000  0.54340000  1.0 0.1300338779
H  H113  1  0.03350000  0.36260000  0.54340000  1.0 0.1300338779
H  H114  1  0.96650000  0.63740000  0.54340000  1.0 0.1300338779
H  H115  1  0.67090000  0.03350000  0.54340000  1.0 0.1300338779
H  H116  1  0.32910000  0.96650000  0.54340000  1.0 0.1300338779
H  H117  1  0.36260000  0.03350000  0.95660000  1.0 0.1300338779
H  H118  1  0.63740000  0.96650000  0.95660000  1.0 0.1300338779
H  H119  1  0.03350000  0.67090000  0.95660000  1.0 0.1300338779
H  H120  1  0.96650000  0.32910000  0.95660000  1.0 0.1300338779
H  H121  1  0.42420000  0.42180000  0.99820000  1.0 0.1385269338
H  H122  1  0.57580000  0.57820000  0.99820000  1.0 0.1385269338
H  H123  1  0.57820000  0.57580000  0.50180000  1.0 0.1385269338
H  H124  1  0.42180000  0.42420000  0.50180000  1.0 0.1385269338
H  H125  1  0.00240000  0.57820000  0.50180000  1.0 0.1385269338
H  H126  1  0.99760000  0.42180000  0.50180000  1.0 0.1385269338
H  H127  1  0.42420000  0.00240000  0.50180000  1.0 0.1385269338
H  H128  1  0.57580000  0.99760000  0.50180000  1.0 0.1385269338
H  H129  1  0.57820000  0.00240000  0.99820000  1.0 0.1385269338
H  H130  1  0.42180000  0.99760000  0.99820000  1.0 0.1385269338
H  H131  1  0.00240000  0.42420000  0.99820000  1.0 0.1385269338
H  H132  1  0.99760000  0.57580000  0.99820000  1.0 0.1385269338
H  H133  1  0.57580000  0.57820000  0.00180000  1.0 0.1385269338
H  H134  1  0.42420000  0.42180000  0.00180000  1.0 0.1385269338
H  H135  1  0.42180000  0.42420000  0.49820000  1.0 0.1385269338
H  H136  1  0.57820000  0.57580000  0.49820000  1.0 0.1385269338
H  H137  1  0.99760000  0.42180000  0.49820000  1.0 0.1385269338
H  H138  1  0.00240000  0.57820000  0.49820000  1.0 0.1385269338
H  H139  1  0.57580000  0.99760000  0.49820000  1.0 0.1385269338
H  H140  1  0.42420000  0.00240000  0.49820000  1.0 0.1385269338
H  H141  1  0.42180000  0.99760000  0.00180000  1.0 0.1385269338
H  H142  1  0.57820000  0.00240000  0.00180000  1.0 0.1385269338
H  H143  1  0.99760000  0.57580000  0.00180000  1.0 0.1385269338
H  H144  1  0.00240000  0.42420000  0.00180000  1.0 0.1385269338
H  H145  1  0.29100000  0.14030000  0.04910000  1.0 0.0784087039
H  H146  1  0.70900000  0.85970000  0.04910000  1.0 0.0784087039
H  H147  1  0.85970000  0.70900000  0.45090000  1.0 0.0784087039
H  H148  1  0.14030000  0.29100000  0.45090000  1.0 0.0784087039
H  H149  1  0.15070000  0.85970000  0.45090000  1.0 0.0784087039
H  H150  1  0.84930000  0.14030000  0.45090000  1.0 0.0784087039
H  H151  1  0.29100000  0.15070000  0.45090000  1.0 0.0784087039
H  H152  1  0.70900000  0.84930000  0.45090000  1.0 0.0784087039
H  H153  1  0.85970000  0.15070000  0.04910000  1.0 0.0784087039
H  H154  1  0.14030000  0.84930000  0.04910000  1.0 0.0784087039
H  H155  1  0.15070000  0.29100000  0.04910000  1.0 0.0784087039
H  H156  1  0.84930000  0.70900000  0.04910000  1.0 0.0784087039
H  H157  1  0.70900000  0.85970000  0.95090000  1.0 0.0784087039
H  H158  1  0.29100000  0.14030000  0.95090000  1.0 0.0784087039
H  H159  1  0.14030000  0.29100000  0.54910000  1.0 0.0784087039
H  H160  1  0.85970000  0.70900000  0.54910000  1.0 0.0784087039
H  H161  1  0.84930000  0.14030000  0.54910000  1.0 0.0784087039
H  H162  1  0.15070000  0.85970000  0.54910000  1.0 0.0784087039
H  H163  1  0.70900000  0.84930000  0.54910000  1.0 0.0784087039
H  H164  1  0.29100000  0.15070000  0.54910000  1.0 0.0784087039
H  H165  1  0.14030000  0.84930000  0.95090000  1.0 0.0784087039
H  H166  1  0.85970000  0.15070000  0.95090000  1.0 0.0784087039
H  H167  1  0.84930000  0.70900000  0.95090000  1.0 0.0784087039
H  H168  1  0.15070000  0.29100000  0.95090000  1.0 0.0784087039
H  H169  1  0.25150000  0.14780000  0.97290000  1.0 0.062128527
H  H170  1  0.74850000  0.85220000  0.97290000  1.0 0.062128527
H  H171  1  0.85220000  0.74850000  0.52710000  1.0 0.062128527
H  H172  1  0.14780000  0.25150000  0.52710000  1.0 0.062128527
H  H173  1  0.10370000  0.85220000  0.52710000  1.0 0.062128527
H  H174  1  0.89630000  0.14780000  0.52710000  1.0 0.062128527
H  H175  1  0.25150000  0.10370000  0.52710000  1.0 0.062128527
H  H176  1  0.74850000  0.89630000  0.52710000  1.0 0.062128527
H  H177  1  0.85220000  0.10370000  0.97290000  1.0 0.062128527
H  H178  1  0.14780000  0.89630000  0.97290000  1.0 0.062128527
H  H179  1  0.10370000  0.25150000  0.97290000  1.0 0.062128527
H  H180  1  0.89630000  0.74850000  0.97290000  1.0 0.062128527
H  H181  1  0.74850000  0.85220000  0.02710000  1.0 0.062128527
H  H182  1  0.25150000  0.14780000  0.02710000  1.0 0.062128527
H  H183  1  0.14780000  0.25150000  0.47290000  1.0 0.062128527
H  H184  1  0.85220000  0.74850000  0.47290000  1.0 0.062128527
H  H185  1  0.89630000  0.14780000  0.47290000  1.0 0.062128527
H  H186  1  0.10370000  0.85220000  0.47290000  1.0 0.062128527
H  H187  1  0.74850000  0.89630000  0.47290000  1.0 0.062128527
H  H188  1  0.25150000  0.10370000  0.47290000  1.0 0.062128527
H  H189  1  0.14780000  0.89630000  0.02710000  1.0 0.062128527
H  H190  1  0.85220000  0.10370000  0.02710000  1.0 0.062128527
H  H191  1  0.89630000  0.74850000  0.02710000  1.0 0.062128527
H  H192  1  0.10370000  0.25150000  0.02710000  1.0 0.062128527
H  H193  1  0.25300000  0.18500000  0.96900000  1.0 0.062128527
H  H194  1  0.74700000  0.81500000  0.96900000  1.0 0.062128527
H  H195  1  0.81500000  0.74700000  0.53100000  1.0 0.062128527
H  H196  1  0.18500000  0.25300000  0.53100000  1.0 0.062128527
H  H197  1  0.06800000  0.81500000  0.53100000  1.0 0.062128527
H  H198  1  0.93200000  0.18500000  0.53100000  1.0 0.062128527
H  H199  1  0.25300000  0.06800000  0.53100000  1.0 0.062128527
H  H200  1  0.74700000  0.93200000  0.53100000  1.0 0.062128527
H  H201  1  0.81500000  0.06800000  0.96900000  1.0 0.062128527
H  H202  1  0.18500000  0.93200000  0.96900000  1.0 0.062128527
H  H203  1  0.06800000  0.25300000  0.96900000  1.0 0.062128527
H  H204  1  0.93200000  0.74700000  0.96900000  1.0 0.062128527
H  H205  1  0.74700000  0.81500000  0.03100000  1.0 0.062128527
H  H206  1  0.25300000  0.18500000  0.03100000  1.0 0.062128527
H  H207  1  0.18500000  0.25300000  0.46900000  1.0 0.062128527
H  H208  1  0.81500000  0.74700000  0.46900000  1.0 0.062128527
H  H209  1  0.93200000  0.18500000  0.46900000  1.0 0.062128527
H  H210  1  0.06800000  0.81500000  0.46900000  1.0 0.062128527
H  H211  1  0.74700000  0.93200000  0.46900000  1.0 0.062128527
H  H212  1  0.25300000  0.06800000  0.46900000  1.0 0.062128527
H  H213  1  0.18500000  0.93200000  0.03100000  1.0 0.062128527
H  H214  1  0.81500000  0.06800000  0.03100000  1.0 0.062128527
H  H215  1  0.93200000  0.74700000  0.03100000  1.0 0.062128527
H  H216  1  0.06800000  0.25300000  0.03100000  1.0 0.062128527
Pd  Pd1  1  0.63688000  0.44960000  0.00000000  1.0 0.5612645074
Pd  Pd2  1  0.36312000  0.55040000  0.00000000  1.0 0.5612645074
Pd  Pd3  1  0.55040000  0.36312000  0.50000000  1.0 0.5612645074
Pd  Pd4  1  0.44960000  0.63688000  0.50000000  1.0 0.5612645074
Pd  Pd5  1  0.18728000  0.55040000  0.50000000  1.0 0.5612645074
Pd  Pd6  1  0.81272000  0.44960000  0.50000000  1.0 0.5612645074
Pd  Pd7  1  0.63688000  0.18728000  0.50000000  1.0 0.5612645074
Pd  Pd8  1  0.36312000  0.81272000  0.50000000  1.0 0.5612645074
Pd  Pd9  1  0.55040000  0.18728000  0.00000000  1.0 0.5612645074
Pd  Pd10  1  0.44960000  0.81272000  0.00000000  1.0 0.5612645074
Pd  Pd11  1  0.18728000  0.63688000  0.00000000  1.0 0.5612645074
Pd  Pd12  1  0.81272000  0.36312000  0.00000000  1.0 0.5612645074
C  C1  1  0.37870000  0.27400000  0.00000000  1.0 -0.0314441249
C  C2  1  0.62130000  0.72600000  0.00000000  1.0 -0.0314441249
C  C3  1  0.72600000  0.62130000  0.50000000  1.0 -0.0314441249
C  C4  1  0.27400000  0.37870000  0.50000000  1.0 -0.0314441249
C  C5  1  0.10470000  0.72600000  0.50000000  1.0 -0.0314441249
C  C6  1  0.89530000  0.27400000  0.50000000  1.0 -0.0314441249
C  C7  1  0.37870000  0.10470000  0.50000000  1.0 -0.0314441249
C  C8  1  0.62130000  0.89530000  0.50000000  1.0 -0.0314441249
C  C9  1  0.72600000  0.10470000  0.00000000  1.0 -0.0314441249
C  C10  1  0.27400000  0.89530000  0.00000000  1.0 -0.0314441249
C  C11  1  0.10470000  0.37870000  0.00000000  1.0 -0.0314441249
C  C12  1  0.89530000  0.62130000  0.00000000  1.0 -0.0314441249
C  C13  1  0.36270000  0.36330000  0.00000000  1.0 -0.3552378268
C  C14  1  0.63730000  0.63670000  0.00000000  1.0 -0.3552378268
C  C15  1  0.63670000  0.63730000  0.50000000  1.0 -0.3552378268
C  C16  1  0.36330000  0.36270000  0.50000000  1.0 -0.3552378268
C  C17  1  0.99940000  0.63670000  0.50000000  1.0 -0.3552378268
C  C18  1  0.00060000  0.36330000  0.50000000  1.0 -0.3552378268
C  C19  1  0.36270000  0.99940000  0.50000000  1.0 -0.3552378268
C  C20  1  0.63730000  0.00060000  0.50000000  1.0 -0.3552378268
C  C21  1  0.63670000  0.99940000  0.00000000  1.0 -0.3552378268
C  C22  1  0.36330000  0.00060000  0.00000000  1.0 -0.3552378268
C  C23  1  0.99940000  0.36270000  0.00000000  1.0 -0.3552378268
C  C24  1  0.00060000  0.63730000  0.00000000  1.0 -0.3552378268
C  C25  1  0.30850000  0.16260000  0.00000000  1.0 -0.200754963
C  C26  1  0.69150000  0.83740000  0.00000000  1.0 -0.200754963
C  C27  1  0.83740000  0.69150000  0.50000000  1.0 -0.200754963
C  C28  1  0.16260000  0.30850000  0.50000000  1.0 -0.200754963
C  C29  1  0.14590000  0.83740000  0.50000000  1.0 -0.200754963
C  C30  1  0.85410000  0.16260000  0.50000000  1.0 -0.200754963
C  C31  1  0.30850000  0.14590000  0.50000000  1.0 -0.200754963
C  C32  1  0.69150000  0.85410000  0.50000000  1.0 -0.200754963
C  C33  1  0.83740000  0.14590000  0.00000000  1.0 -0.200754963
C  C34  1  0.16260000  0.85410000  0.00000000  1.0 -0.200754963
C  C35  1  0.14590000  0.30850000  0.00000000  1.0 -0.200754963
C  C36  1  0.85410000  0.69150000  0.00000000  1.0 -0.200754963
O  O1  1  0.48149000  0.21370000  0.08028000  1.0 -0.5783096627
O  O2  1  0.51851000  0.78630000  0.08028000  1.0 -0.5783096627
O  O3  1  0.78630000  0.51851000  0.41972000  1.0 -0.5783096627
O  O4  1  0.21370000  0.48149000  0.41972000  1.0 -0.5783096627
O  O5  1  0.26779000  0.78630000  0.41972000  1.0 -0.5783096627
O  O6  1  0.73221000  0.21370000  0.41972000  1.0 -0.5783096627
O  O7  1  0.48149000  0.26779000  0.41972000  1.0 -0.5783096627
O  O8  1  0.51851000  0.73221000  0.41972000  1.0 -0.5783096627
O  O9  1  0.78630000  0.26779000  0.08028000  1.0 -0.5783096627
O  O10  1  0.21370000  0.73221000  0.08028000  1.0 -0.5783096627
O  O11  1  0.26779000  0.48149000  0.08028000  1.0 -0.5783096627
O  O12  1  0.73221000  0.51851000  0.08028000  1.0 -0.5783096627
O  O13  1  0.51851000  0.78630000  0.91972000  1.0 -0.5783096627
O  O14  1  0.48149000  0.21370000  0.91972000  1.0 -0.5783096627
O  O15  1  0.21370000  0.48149000  0.58028000  1.0 -0.5783096627
O  O16  1  0.78630000  0.51851000  0.58028000  1.0 -0.5783096627
O  O17  1  0.73221000  0.21370000  0.58028000  1.0 -0.5783096627
O  O18  1  0.26779000  0.78630000  0.58028000  1.0 -0.5783096627
O  O19  1  0.51851000  0.73221000  0.58028000  1.0 -0.5783096627
O  O20  1  0.48149000  0.26779000  0.58028000  1.0 -0.5783096627
O  O21  1  0.21370000  0.73221000  0.91972000  1.0 -0.5783096627
O  O22  1  0.78630000  0.26779000  0.91972000  1.0 -0.5783096627
O  O23  1  0.73221000  0.51851000  0.91972000  1.0 -0.5783096627
O  O24  1  0.26779000  0.48149000  0.91972000  1.0 -0.5783096627
O  O25  1  0.53726000  0.39316000  0.07897000  1.0 -0.5939067479
O  O26  1  0.46274000  0.60684000  0.07897000  1.0 -0.5939067479
O  O27  1  0.60684000  0.46274000  0.42103000  1.0 -0.5939067479
O  O28  1  0.39316000  0.53726000  0.42103000  1.0 -0.5939067479
O  O29  1  0.14410000  0.60684000  0.42103000  1.0 -0.5939067479
O  O30  1  0.85590000  0.39316000  0.42103000  1.0 -0.5939067479
O  O31  1  0.53726000  0.14410000  0.42103000  1.0 -0.5939067479
O  O32  1  0.46274000  0.85590000  0.42103000  1.0 -0.5939067479
O  O33  1  0.60684000  0.14410000  0.07897000  1.0 -0.5939067479
O  O34  1  0.39316000  0.85590000  0.07897000  1.0 -0.5939067479
O  O35  1  0.14410000  0.53726000  0.07897000  1.0 -0.5939067479
O  O36  1  0.85590000  0.46274000  0.07897000  1.0 -0.5939067479
O  O37  1  0.46274000  0.60684000  0.92103000  1.0 -0.5939067479
O  O38  1  0.53726000  0.39316000  0.92103000  1.0 -0.5939067479
O  O39  1  0.39316000  0.53726000  0.57897000  1.0 -0.5939067479
O  O40  1  0.60684000  0.46274000  0.57897000  1.0 -0.5939067479
O  O41  1  0.85590000  0.39316000  0.57897000  1.0 -0.5939067479
O  O42  1  0.14410000  0.60684000  0.57897000  1.0 -0.5939067479
O  O43  1  0.46274000  0.85590000  0.57897000  1.0 -0.5939067479
O  O44  1  0.53726000  0.14410000  0.57897000  1.0 -0.5939067479
O  O45  1  0.39316000  0.85590000  0.92103000  1.0 -0.5939067479
O  O46  1  0.60684000  0.14410000  0.92103000  1.0 -0.5939067479
O  O47  1  0.85590000  0.46274000  0.92103000  1.0 -0.5939067479
O  O48  1  0.14410000  0.53726000  0.92103000  1.0 -0.5939067479
O  O49  1  0.38931000  0.27739000  0.14777000  1.0 -0.680690614
O  O50  1  0.61069000  0.72261000  0.14777000  1.0 -0.680690614
O  O51  1  0.72261000  0.61069000  0.35223000  1.0 -0.680690614
O  O52  1  0.27739000  0.38931000  0.35223000  1.0 -0.680690614
O  O53  1  0.11192000  0.72261000  0.35223000  1.0 -0.680690614
O  O54  1  0.88808000  0.27739000  0.35223000  1.0 -0.680690614
O  O55  1  0.38931000  0.11192000  0.35223000  1.0 -0.680690614
O  O56  1  0.61069000  0.88808000  0.35223000  1.0 -0.680690614
O  O57  1  0.72261000  0.11192000  0.14777000  1.0 -0.680690614
O  O58  1  0.27739000  0.88808000  0.14777000  1.0 -0.680690614
O  O59  1  0.11192000  0.38931000  0.14777000  1.0 -0.680690614
O  O60  1  0.88808000  0.61069000  0.14777000  1.0 -0.680690614
O  O61  1  0.61069000  0.72261000  0.85223000  1.0 -0.680690614
O  O62  1  0.38931000  0.27739000  0.85223000  1.0 -0.680690614
O  O63  1  0.27739000  0.38931000  0.64777000  1.0 -0.680690614
O  O64  1  0.72261000  0.61069000  0.64777000  1.0 -0.680690614
O  O65  1  0.88808000  0.27739000  0.64777000  1.0 -0.680690614
O  O66  1  0.11192000  0.72261000  0.64777000  1.0 -0.680690614
O  O67  1  0.61069000  0.88808000  0.64777000  1.0 -0.680690614
O  O68  1  0.38931000  0.11192000  0.64777000  1.0 -0.680690614
O  O69  1  0.27739000  0.88808000  0.85223000  1.0 -0.680690614
O  O70  1  0.72261000  0.11192000  0.85223000  1.0 -0.680690614
O  O71  1  0.88808000  0.61069000  0.85223000  1.0 -0.680690614
O  O72  1  0.11192000  0.38931000  0.85223000  1.0 -0.680690614
O  O73  1  0.50000000  0.50000000  0.17187000  1.0 -0.7492207165
O  O74  1  0.50000000  0.50000000  0.32813000  1.0 -0.7492207165
O  O75  1  0.00000000  0.50000000  0.32813000  1.0 -0.7492207165
O  O76  1  0.50000000  0.00000000  0.32813000  1.0 -0.7492207165
O  O77  1  0.50000000  0.00000000  0.17187000  1.0 -0.7492207165
O  O78  1  0.00000000  0.50000000  0.17187000  1.0 -0.7492207165
O  O79  1  0.50000000  0.50000000  0.82813000  1.0 -0.7492207165
O  O80  1  0.50000000  0.50000000  0.67187000  1.0 -0.7492207165
O  O81  1  0.00000000  0.50000000  0.67187000  1.0 -0.7492207165
O  O82  1  0.50000000  0.00000000  0.67187000  1.0 -0.7492207165
O  O83  1  0.50000000  0.00000000  0.82813000  1.0 -0.7492207165
O  O84  1  0.00000000  0.50000000  0.82813000  1.0 -0.7492207165
O  O85  1  0.28830000  0.18360000  0.00000000  1.0 -0.2171903378
O  O86  1  0.71170000  0.81640000  0.00000000  1.0 -0.2171903378
O  O87  1  0.81640000  0.71170000  0.50000000  1.0 -0.2171903378
O  O88  1  0.18360000  0.28830000  0.50000000  1.0 -0.2171903378
O  O89  1  0.10470000  0.81640000  0.50000000  1.0 -0.2171903378
O  O90  1  0.89530000  0.18360000  0.50000000  1.0 -0.2171903378
O  O91  1  0.28830000  0.10470000  0.50000000  1.0 -0.2171903378
O  O92  1  0.71170000  0.89530000  0.50000000  1.0 -0.2171903378
O  O93  1  0.81640000  0.10470000  0.00000000  1.0 -0.2171903378
O  O94  1  0.18360000  0.89530000  0.00000000  1.0 -0.2171903378
O  O95  1  0.10470000  0.28830000  0.00000000  1.0 -0.2171903378
O  O96  1  0.89530000  0.71170000  0.00000000  1.0 -0.2171903378
O  O97  1  0.33860000  0.33700000  0.00000000  1.0 -0.3111170233
O  O98  1  0.66140000  0.66300000  0.00000000  1.0 -0.3111170233
O  O99  1  0.66300000  0.66140000  0.50000000  1.0 -0.3111170233
O  O100  1  0.33700000  0.33860000  0.50000000  1.0 -0.3111170233
O  O101  1  0.00160000  0.66300000  0.50000000  1.0 -0.3111170233
O  O102  1  0.99840000  0.33700000  0.50000000  1.0 -0.3111170233
O  O103  1  0.33860000  0.00160000  0.50000000  1.0 -0.3111170233
O  O104  1  0.66140000  0.99840000  0.50000000  1.0 -0.3111170233
O  O105  1  0.66300000  0.00160000  0.00000000  1.0 -0.3111170233
O  O106  1  0.33700000  0.99840000  0.00000000  1.0 -0.3111170233
O  O107  1  0.00160000  0.33860000  0.00000000  1.0 -0.3111170233
O  O108  1  0.99840000  0.66140000  0.00000000  1.0 -0.3111170233
