# DDEC6 charges by PACMAN v1.1 (https://github.com/mtap-research/PACMAN-charge/)
data_GOMPOO_ASR_pacman
_symmetry_space_group_name_H-M   'P 1'
_cell_length_a   8.61910000
_cell_length_b   17.80310000
_cell_length_c   10.45640000
_cell_angle_alpha   90.00000000
_cell_angle_beta   124.52600000
_cell_angle_gamma   90.00000000
_symmetry_Int_Tables_number   1
_chemical_formula_structural   Al3P3HO13
_chemical_formula_sum   'Al12 P12 H4 O52'
_cell_volume   1321.89798776
_cell_formula_units_Z   4
loop_
 _symmetry_equiv_pos_site_id
 _symmetry_equiv_pos_as_xyz
  1  'x, y, z'
loop_
 _atom_site_type_symbol
 _atom_site_label
 _atom_site_symmetry_multiplicity
 _atom_site_fract_x
 _atom_site_fract_y
 _atom_site_fract_z
 _atom_site_occupancy
 _atom_site_charge
Al  Al1  1  0.78977000  0.29557000  0.71257000  1.0 1.8112844721
Al  Al2  1  0.21023000  0.79557000  0.78743000  1.0 1.8112844721
Al  Al3  1  0.21023000  0.70443000  0.28743000  1.0 1.8112844721
Al  Al4  1  0.78977000  0.20443000  0.21257000  1.0 1.8112844721
Al  Al5  1  0.97610000  0.10962000  0.83906000  1.0 1.7742602125
Al  Al6  1  0.02390000  0.60962000  0.66094000  1.0 1.7786135768
Al  Al7  1  0.02390000  0.89038000  0.16094000  1.0 1.7786135768
Al  Al8  1  0.97610000  0.39038000  0.33906000  1.0 1.7786135768
Al  Al9  1  0.33049000  0.17754000  0.30684000  1.0 1.7455046668
Al  Al10  1  0.66951000  0.67754000  0.19316000  1.0 1.7455046668
Al  Al11  1  0.66951000  0.82246000  0.69316000  1.0 1.7455046668
Al  Al12  1  0.33049000  0.32246000  0.80684000  1.0 1.7444021001
P  P1  1  0.98660000  0.42755000  0.63900000  1.0 1.5898917809
P  P2  1  0.01340000  0.92755000  0.86100000  1.0 1.5974623457
P  P3  1  0.01340000  0.57245000  0.36100000  1.0 1.5898917809
P  P4  1  0.98660000  0.07245000  0.13900000  1.0 1.5898917809
P  P5  1  0.33258000  0.29217000  0.52569000  1.0 1.6160438552
P  P6  1  0.66742000  0.79217000  0.97431000  1.0 1.6160438552
P  P7  1  0.66742000  0.70783000  0.47431000  1.0 1.6140640274
P  P8  1  0.33258000  0.20783000  0.02569000  1.0 1.6140640274
P  P9  1  0.77024000  0.16905000  0.50390000  1.0 1.5804267421
P  P10  1  0.22976000  0.66905000  0.99610000  1.0 1.5898917809
P  P11  1  0.22976000  0.83095000  0.49610000  1.0 1.5804267421
P  P12  1  0.77024000  0.33095000  0.00390000  1.0 1.5804267421
H  H1  1  0.91280000  0.21430000  0.91280000  1.0 0.4471344843
H  H2  1  0.08720000  0.71430000  0.58720000  1.0 0.4471344843
H  H3  1  0.08720000  0.78570000  0.08720000  1.0 0.4471344843
H  H4  1  0.91280000  0.28570000  0.41280000  1.0 0.4471344843
O  O1  1  0.86530000  0.20608000  0.82050000  1.0 -0.9138935114
O  O2  1  0.13470000  0.70608000  0.67950000  1.0 -0.9162096485
O  O3  1  0.13470000  0.79392000  0.17950000  1.0 -0.9138935114
O  O4  1  0.86530000  0.29392000  0.32050000  1.0 -0.9138935114
O  O5  1  0.88470000  0.38098000  0.69160000  1.0 -0.7902916655
O  O6  1  0.11530000  0.88098000  0.80840000  1.0 -0.7902916655
O  O7  1  0.11530000  0.61902000  0.30840000  1.0 -0.7902916655
O  O8  1  0.88470000  0.11902000  0.19160000  1.0 -0.7902916655
O  O9  1  0.80820000  0.25081000  0.56160000  1.0 -0.8254522785
O  O10  1  0.19180000  0.75081000  0.93840000  1.0 -0.8254522785
O  O11  1  0.19180000  0.74919000  0.43840000  1.0 -0.8254522785
O  O12  1  0.80820000  0.24919000  0.06160000  1.0 -0.8254522785
O  O13  1  0.53820000  0.30645000  0.59250000  1.0 -0.8105881446
O  O14  1  0.46180000  0.80645000  0.90750000  1.0 -0.8105881446
O  O15  1  0.46180000  0.69355000  0.40750000  1.0 -0.8105881446
O  O16  1  0.53820000  0.19355000  0.09250000  1.0 -0.8105881446
O  O17  1  0.81950000  0.15892000  0.38680000  1.0 -0.7719085321
O  O18  1  0.18050000  0.65892000  0.11320000  1.0 -0.7719085321
O  O19  1  0.18050000  0.84108000  0.61320000  1.0 -0.7719085321
O  O20  1  0.81950000  0.34108000  0.88680000  1.0 -0.7719085321
O  O21  1  0.19830000  0.40524000  0.73680000  1.0 -0.8254522785
O  O22  1  0.80170000  0.90524000  0.76320000  1.0 -0.8254522785
O  O23  1  0.80170000  0.59476000  0.26320000  1.0 -0.8208051428
O  O24  1  0.19830000  0.09476000  0.23680000  1.0 -0.8208051428
O  O25  1  0.25780000  0.22697000  0.40840000  1.0 -0.8105881446
O  O26  1  0.74220000  0.72697000  0.09160000  1.0 -0.8105881446
O  O27  1  0.74220000  0.77303000  0.59160000  1.0 -0.8105881446
O  O28  1  0.25780000  0.27303000  0.90840000  1.0 -0.8105881446
O  O29  1  0.56170000  0.14924000  0.42940000  1.0 -0.8105881446
O  O30  1  0.43830000  0.64924000  0.07060000  1.0 -0.8105881446
O  O31  1  0.43830000  0.85076000  0.57060000  1.0 -0.8105881446
O  O32  1  0.56170000  0.35076000  0.92940000  1.0 -0.8105881446
O  O33  1  0.30560000  0.26930000  0.65470000  1.0 -0.8208051428
O  O34  1  0.69440000  0.76930000  0.84530000  1.0 -0.8208051428
O  O35  1  0.69440000  0.73070000  0.34530000  1.0 -0.8208051428
O  O36  1  0.30560000  0.23070000  0.15470000  1.0 -0.8208051428
O  O37  1  0.88570000  0.11346000  0.63680000  1.0 -0.7813841805
O  O38  1  0.11430000  0.61346000  0.86320000  1.0 -0.7813841805
O  O39  1  0.11430000  0.88654000  0.36320000  1.0 -0.7813841805
O  O40  1  0.88570000  0.38654000  0.13680000  1.0 -0.7813841805
O  O41  1  0.90560000  0.41341000  0.46810000  1.0 -0.8208051428
O  O42  1  0.09440000  0.91341000  0.03190000  1.0 -0.8208051428
O  O43  1  0.09440000  0.58659000  0.53190000  1.0 -0.8208051428
O  O44  1  0.90560000  0.08659000  0.96810000  1.0 -0.8208051428
O  O45  1  0.96840000  0.50925000  0.66760000  1.0 -0.7902916655
O  O46  1  0.03160000  0.00925000  0.83240000  1.0 -0.7813841805
O  O47  1  0.03160000  0.49075000  0.33240000  1.0 -0.7813841805
O  O48  1  0.96840000  0.99075000  0.16760000  1.0 -0.7813841805
O  O49  1  0.21990000  0.36298000  0.44670000  1.0 -0.803773652
O  O50  1  0.78010000  0.86298000  0.05330000  1.0 -0.8105881446
O  O51  1  0.78010000  0.63702000  0.55330000  1.0 -0.8105881446
O  O52  1  0.21990000  0.13702000  0.94670000  1.0 -0.803773652
