# DDEC6 charges by PACMAN v1.1 (https://github.com/mtap-research/PACMAN-charge/)
data_GOMREG_FSR_pacman
_symmetry_space_group_name_H-M   'P 1'
_cell_length_a   9.89952000
_cell_length_b   9.89952000
_cell_length_c   15.41910000
_cell_angle_alpha   74.56360000
_cell_angle_beta   105.43600000
_cell_angle_gamma   97.43150000
_symmetry_Int_Tables_number   1
_chemical_formula_structural   AlPO4
_chemical_formula_sum   'Al12 P12 O48'
_cell_volume   1401.24342391
_cell_formula_units_Z   12
loop_
 _symmetry_equiv_pos_site_id
 _symmetry_equiv_pos_as_xyz
  1  'x, y, z'
loop_
 _atom_site_type_symbol
 _atom_site_label
 _atom_site_symmetry_multiplicity
 _atom_site_fract_x
 _atom_site_fract_y
 _atom_site_fract_z
 _atom_site_occupancy
 _atom_site_charge
Al  Al1  1  0.31515000  0.06975000  0.87591000  1.0 1.7638553414
Al  Al2  1  0.06975000  0.31515000  0.62409000  1.0 1.7638553414
Al  Al3  1  0.68485000  0.93025000  0.12409000  1.0 1.7638553414
Al  Al4  1  0.93025000  0.68485000  0.37591000  1.0 1.7638553414
Al  Al5  1  0.88302000  0.36868000  0.92033000  1.0 1.7326442037
Al  Al6  1  0.36868000  0.88302000  0.57967000  1.0 1.7326442037
Al  Al7  1  0.11698000  0.63132000  0.07967000  1.0 1.7326442037
Al  Al8  1  0.63132000  0.11698000  0.42033000  1.0 1.7326442037
Al  Al9  1  0.80676000  0.97444000  0.83623000  1.0 1.8229558799
Al  Al10  1  0.97444000  0.80676000  0.66377000  1.0 1.8229558799
Al  Al11  1  0.19324000  0.02556000  0.16377000  1.0 1.8229558799
Al  Al12  1  0.02556000  0.19324000  0.33623000  1.0 1.8229558799
P  P1  1  0.64102000  0.13040000  0.92449000  1.0 1.4940852556
P  P2  1  0.13040000  0.64102000  0.57551000  1.0 1.4987486038
P  P3  1  0.35898000  0.86960000  0.07551000  1.0 1.4987486038
P  P4  1  0.86960000  0.35898000  0.42449000  1.0 1.4940852556
P  P5  1  0.93492000  0.68318000  0.87344000  1.0 1.4987486038
P  P6  1  0.68318000  0.93492000  0.62656000  1.0 1.5075477593
P  P7  1  0.06508000  0.31682000  0.12656000  1.0 1.5075477593
P  P8  1  0.31682000  0.06508000  0.37344000  1.0 1.5075477593
P  P9  1  0.04521000  0.22275000  0.82902000  1.0 1.5179697905
P  P10  1  0.22275000  0.04521000  0.67098000  1.0 1.5179697905
P  P11  1  0.95479000  0.77725000  0.17098000  1.0 1.5179697905
P  P12  1  0.77725000  0.95479000  0.32902000  1.0 1.5179697905
O  O1  1  0.83910000  0.78530000  0.87990000  1.0 -0.8284710016
O  O2  1  0.78530000  0.83910000  0.62010000  1.0 -0.8284710016
O  O3  1  0.16090000  0.21470000  0.12010000  1.0 -0.8284710016
O  O4  1  0.21470000  0.16090000  0.37990000  1.0 -0.8284710016
O  O5  1  0.48610000  0.15970000  0.89120000  1.0 -0.8006865051
O  O6  1  0.15970000  0.48610000  0.60880000  1.0 -0.8006865051
O  O7  1  0.51390000  0.84030000  0.10880000  1.0 -0.8006865051
O  O8  1  0.84030000  0.51390000  0.39120000  1.0 -0.8006865051
O  O9  1  0.01400000  0.32980000  0.87370000  1.0 -0.8092284766
O  O10  1  0.32980000  0.01400000  0.62630000  1.0 -0.8092284766
O  O11  1  0.98600000  0.67020000  0.12630000  1.0 -0.8092284766
O  O12  1  0.67020000  0.98600000  0.37370000  1.0 -0.8092284766
O  O13  1  0.99930000  0.73630000  0.79210000  1.0 -0.8284710016
O  O14  1  0.73630000  0.99930000  0.70790000  1.0 -0.8284710016
O  O15  1  0.00070000  0.26370000  0.20790000  1.0 -0.8284710016
O  O16  1  0.26370000  0.00070000  0.29210000  1.0 -0.8284710016
O  O17  1  0.20260000  0.20500000  0.86040000  1.0 -0.8092284766
O  O18  1  0.20500000  0.20260000  0.63960000  1.0 -0.8092284766
O  O19  1  0.79740000  0.79500000  0.13960000  1.0 -0.8092284766
O  O20  1  0.79500000  0.79740000  0.36040000  1.0 -0.8092284766
O  O21  1  0.66900000  0.01820000  0.88380000  1.0 -0.8284710016
O  O22  1  0.01820000  0.66900000  0.61620000  1.0 -0.8284710016
O  O23  1  0.33100000  0.98180000  0.11620000  1.0 -0.8284710016
O  O24  1  0.98180000  0.33100000  0.38380000  1.0 -0.8284710016
O  O25  1  0.99840000  0.27240000  0.72450000  1.0 -0.8284710016
O  O26  1  0.27240000  0.99840000  0.77550000  1.0 -0.8284710016
O  O27  1  0.00160000  0.72760000  0.27550000  1.0 -0.8284710016
O  O28  1  0.72760000  0.00160000  0.22450000  1.0 -0.8284710016
O  O29  1  0.84650000  0.54570000  0.86960000  1.0 -0.8006865051
O  O30  1  0.54570000  0.84650000  0.63040000  1.0 -0.8006865051
O  O31  1  0.15350000  0.45430000  0.13040000  1.0 -0.8006865051
O  O32  1  0.45430000  0.15350000  0.36960000  1.0 -0.8006865051
O  O33  1  0.05830000  0.65450000  0.95790000  1.0 -0.8197937724
O  O34  1  0.65450000  0.05830000  0.54210000  1.0 -0.8197937724
O  O35  1  0.94170000  0.34550000  0.04210000  1.0 -0.8197937724
O  O36  1  0.34550000  0.94170000  0.45790000  1.0 -0.8197937724
O  O37  1  0.96730000  0.08450000  0.85950000  1.0 -0.8625680324
O  O38  1  0.08450000  0.96730000  0.64050000  1.0 -0.8625680324
O  O39  1  0.03270000  0.91550000  0.14050000  1.0 -0.8625680324
O  O40  1  0.91550000  0.03270000  0.35950000  1.0 -0.8625680324
O  O41  1  0.72380000  0.26760000  0.89370000  1.0 -0.7946433392
O  O42  1  0.26760000  0.72380000  0.60630000  1.0 -0.7946433392
O  O43  1  0.27620000  0.73240000  0.10630000  1.0 -0.7946433392
O  O44  1  0.73240000  0.27620000  0.39370000  1.0 -0.7946433392
O  O45  1  0.68170000  0.08490000  0.02940000  1.0 -0.8284710016
O  O46  1  0.08490000  0.68170000  0.47060000  1.0 -0.8284710016
O  O47  1  0.31830000  0.91510000  0.97060000  1.0 -0.8284710016
O  O48  1  0.91510000  0.31830000  0.52940000  1.0 -0.8284710016
