# DDEC6 charges by PACMAN v1.1 (https://github.com/mtap-research/PACMAN-charge/)
data_GOMRAC_ASR_pacman
_symmetry_space_group_name_H-M   'P 1'
_cell_length_a   9.85040000
_cell_length_b   9.85040000
_cell_length_c   15.21000000
_cell_angle_alpha   74.46190000
_cell_angle_beta   105.53800000
_cell_angle_gamma   96.80680000
_symmetry_Int_Tables_number   1
_chemical_formula_structural   AlPO4
_chemical_formula_sum   'Al12 P12 O48'
_cell_volume   1368.18868459
_cell_formula_units_Z   12
loop_
 _symmetry_equiv_pos_site_id
 _symmetry_equiv_pos_as_xyz
  1  'x, y, z'
loop_
 _atom_site_type_symbol
 _atom_site_label
 _atom_site_symmetry_multiplicity
 _atom_site_fract_x
 _atom_site_fract_y
 _atom_site_fract_z
 _atom_site_occupancy
 _atom_site_charge
Al  Al1  1  0.31537000  0.06567000  0.87611000  1.0 1.7603801522
Al  Al2  1  0.06567000  0.31537000  0.62389000  1.0 1.7603801522
Al  Al3  1  0.68463000  0.93433000  0.12389000  1.0 1.7603801522
Al  Al4  1  0.93433000  0.68463000  0.37611000  1.0 1.7603801522
Al  Al5  1  0.81011000  0.97637000  0.83721000  1.0 1.7603801522
Al  Al6  1  0.97637000  0.81011000  0.66279000  1.0 1.7603801522
Al  Al7  1  0.18989000  0.02363000  0.16279000  1.0 1.7603801522
Al  Al8  1  0.02363000  0.18989000  0.33721000  1.0 1.7603801522
Al  Al9  1  0.37506000  0.87718000  0.58201000  1.0 1.7655609879
Al  Al10  1  0.87718000  0.37506000  0.91799000  1.0 1.7655609879
Al  Al11  1  0.62494000  0.12282000  0.41799000  1.0 1.7603801522
Al  Al12  1  0.12282000  0.62494000  0.08201000  1.0 1.7655609879
P  P1  1  0.93827000  0.68961000  0.87228000  1.0 1.5209299657
P  P2  1  0.68961000  0.93827000  0.62772000  1.0 1.5209299657
P  P3  1  0.06173000  0.31039000  0.12772000  1.0 1.5209299657
P  P4  1  0.31039000  0.06173000  0.37228000  1.0 1.5209299657
P  P5  1  0.64119000  0.13335000  0.92087000  1.0 1.5075835023
P  P6  1  0.13335000  0.64119000  0.57913000  1.0 1.5075835023
P  P7  1  0.35881000  0.86665000  0.07913000  1.0 1.5075835023
P  P8  1  0.86665000  0.35881000  0.42087000  1.0 1.5048551593
P  P9  1  0.22331000  0.04161000  0.67012000  1.0 1.5209299657
P  P10  1  0.04161000  0.22331000  0.82988000  1.0 1.5209299657
P  P11  1  0.77669000  0.95839000  0.32988000  1.0 1.5209299657
P  P12  1  0.95839000  0.77669000  0.17012000  1.0 1.5209299657
O  O1  1  0.85440000  0.79860000  0.88670000  1.0 -0.8227086503
O  O2  1  0.79860000  0.85440000  0.61330000  1.0 -0.8227086503
O  O3  1  0.14560000  0.20140000  0.11330000  1.0 -0.8227086503
O  O4  1  0.20140000  0.14560000  0.38670000  1.0 -0.8227086503
O  O5  1  0.83840000  0.56020000  0.86360000  1.0 -0.8105515283
O  O6  1  0.56020000  0.83840000  0.63640000  1.0 -0.8105515283
O  O7  1  0.16160000  0.43980000  0.13640000  1.0 -0.8105515283
O  O8  1  0.43980000  0.16160000  0.36360000  1.0 -0.8105515283
O  O9  1  0.99580000  0.74820000  0.78550000  1.0 -0.8273056891
O  O10  1  0.74820000  0.99580000  0.71450000  1.0 -0.8273056891
O  O11  1  0.00420000  0.25180000  0.21450000  1.0 -0.8273056891
O  O12  1  0.25180000  0.00420000  0.28550000  1.0 -0.8273056891
O  O13  1  0.48490000  0.15410000  0.88960000  1.0 -0.8105515283
O  O14  1  0.15410000  0.48490000  0.61040000  1.0 -0.8105515283
O  O15  1  0.51510000  0.84590000  0.11040000  1.0 -0.8105515283
O  O16  1  0.84590000  0.51510000  0.38960000  1.0 -0.8105515283
O  O17  1  0.27090000  0.98990000  0.77690000  1.0 -0.8227086503
O  O18  1  0.98990000  0.27090000  0.72310000  1.0 -0.8227086503
O  O19  1  0.72910000  0.01010000  0.22310000  1.0 -0.8273056891
O  O20  1  0.01010000  0.72910000  0.27690000  1.0 -0.8273056891
O  O21  1  0.67520000  0.01980000  0.87950000  1.0 -0.8273056891
O  O22  1  0.01980000  0.67520000  0.62050000  1.0 -0.8273056891
O  O23  1  0.32480000  0.98020000  0.12050000  1.0 -0.8273056891
O  O24  1  0.98020000  0.32480000  0.37950000  1.0 -0.8273056891
O  O25  1  0.68580000  0.08680000  0.02720000  1.0 -0.8227086503
O  O26  1  0.08680000  0.68580000  0.47280000  1.0 -0.8227086503
O  O27  1  0.31420000  0.91320000  0.97280000  1.0 -0.8227086503
O  O28  1  0.91320000  0.31420000  0.52720000  1.0 -0.8227086503
O  O29  1  0.33510000  0.01730000  0.62590000  1.0 -0.8105515283
O  O30  1  0.01730000  0.33510000  0.87410000  1.0 -0.8105515283
O  O31  1  0.66490000  0.98270000  0.37410000  1.0 -0.8105515283
O  O32  1  0.98270000  0.66490000  0.12590000  1.0 -0.8105515283
O  O33  1  0.06590000  0.64890000  0.95430000  1.0 -0.8227086503
O  O34  1  0.64890000  0.06590000  0.54570000  1.0 -0.8227086503
O  O35  1  0.93410000  0.35110000  0.04570000  1.0 -0.8227086503
O  O36  1  0.35110000  0.93410000  0.45430000  1.0 -0.8227086503
O  O37  1  0.71520000  0.27280000  0.88730000  1.0 -0.7979632583
O  O38  1  0.27280000  0.71520000  0.61270000  1.0 -0.7979632583
O  O39  1  0.28480000  0.72720000  0.11270000  1.0 -0.7979632583
O  O40  1  0.72720000  0.28480000  0.38730000  1.0 -0.7979632583
O  O41  1  0.08660000  0.96180000  0.63650000  1.0 -0.8461745944
O  O42  1  0.96180000  0.08660000  0.86350000  1.0 -0.8449704614
O  O43  1  0.91340000  0.03820000  0.36350000  1.0 -0.8461745944
O  O44  1  0.03820000  0.91340000  0.13650000  1.0 -0.8461745944
O  O45  1  0.20130000  0.20090000  0.64010000  1.0 -0.8105515283
O  O46  1  0.20090000  0.20130000  0.85990000  1.0 -0.8105515283
O  O47  1  0.79870000  0.79910000  0.35990000  1.0 -0.8105515283
O  O48  1  0.79910000  0.79870000  0.14010000  1.0 -0.8105515283
