# DDEC6 charges by PACMAN v1.1 (https://github.com/mtap-research/PACMAN-charge/)
data_GONSUZ_ASR_pacman
_symmetry_space_group_name_H-M   'P 1'
_cell_length_a   14.83570000
_cell_length_b   14.83570000
_cell_length_c   6.78540000
_cell_angle_alpha   90.00000000
_cell_angle_beta   90.00000000
_cell_angle_gamma   90.00000000
_symmetry_Int_Tables_number   1
_chemical_formula_structural   CaH8C8(O2F)4
_chemical_formula_sum   'Ca4 H32 C32 O32 F16'
_cell_volume   1493.45293181
_cell_formula_units_Z   4
loop_
 _symmetry_equiv_pos_site_id
 _symmetry_equiv_pos_as_xyz
  1  'x, y, z'
loop_
 _atom_site_type_symbol
 _atom_site_label
 _atom_site_symmetry_multiplicity
 _atom_site_fract_x
 _atom_site_fract_y
 _atom_site_fract_z
 _atom_site_occupancy
 _atom_site_charge
Ca  Ca1  1  0.54852000  0.54852000  0.00000000  1.0 0.9389931745
Ca  Ca2  1  0.45148000  0.45148000  0.50000000  1.0 0.9389931745
Ca  Ca3  1  0.04852000  0.95148000  0.25000000  1.0 0.9389931745
Ca  Ca4  1  0.95148000  0.04852000  0.75000000  1.0 0.9389931745
H  H1  1  0.68720000  0.67200000  0.98860000  1.0 0.1101940664
H  H2  1  0.31280000  0.32800000  0.48860000  1.0 0.1101940664
H  H3  1  0.17200000  0.81280000  0.23860000  1.0 0.1101940664
H  H4  1  0.82800000  0.18720000  0.73860000  1.0 0.1101940664
H  H5  1  0.18720000  0.82800000  0.26140000  1.0 0.1101940664
H  H6  1  0.81280000  0.17200000  0.76140000  1.0 0.1101940664
H  H7  1  0.67200000  0.68720000  0.01140000  1.0 0.1101940664
H  H8  1  0.32800000  0.31280000  0.51140000  1.0 0.1101940664
H  H9  1  0.72150000  0.59790000  0.08850000  1.0 0.122616846
H  H10  1  0.27850000  0.40210000  0.58850000  1.0 0.122616846
H  H11  1  0.09790000  0.77850000  0.33850000  1.0 0.122616846
H  H12  1  0.90210000  0.22150000  0.83850000  1.0 0.122616846
H  H13  1  0.22150000  0.90210000  0.16150000  1.0 0.122616846
H  H14  1  0.77850000  0.09790000  0.66150000  1.0 0.122616846
H  H15  1  0.59790000  0.72150000  0.91150000  1.0 0.122616846
H  H16  1  0.40210000  0.27850000  0.41150000  1.0 0.122616846
H  H17  1  0.66550000  0.68290000  0.05270000  1.0 0.0977525319
H  H18  1  0.33450000  0.31710000  0.55270000  1.0 0.0977525319
H  H19  1  0.18290000  0.83450000  0.30270000  1.0 0.0977525319
H  H20  1  0.81710000  0.16550000  0.80270000  1.0 0.0977525319
H  H21  1  0.16550000  0.81710000  0.19730000  1.0 0.0977525319
H  H22  1  0.83450000  0.18290000  0.69730000  1.0 0.0977525319
H  H23  1  0.68290000  0.66550000  0.94730000  1.0 0.0977525319
H  H24  1  0.31710000  0.33450000  0.44730000  1.0 0.0977525319
H  H25  1  0.62330000  0.70340000  0.87570000  1.0 0.0560392801
H  H26  1  0.37670000  0.29660000  0.37570000  1.0 0.0560392801
H  H27  1  0.20340000  0.87670000  0.12570000  1.0 0.0560392801
H  H28  1  0.79660000  0.12330000  0.62570000  1.0 0.0560392801
H  H29  1  0.12330000  0.79660000  0.37430000  1.0 0.0560392801
H  H30  1  0.87670000  0.20340000  0.87430000  1.0 0.0560392801
H  H31  1  0.70340000  0.62330000  0.12430000  1.0 0.0560392801
H  H32  1  0.29660000  0.37670000  0.62430000  1.0 0.0560392801
C  C1  1  0.63170000  0.36830000  0.25000000  1.0 0.4980248249
C  C2  1  0.36830000  0.63170000  0.75000000  1.0 0.4980248249
C  C3  1  0.86830000  0.86830000  0.50000000  1.0 0.4980248249
C  C4  1  0.13170000  0.13170000  0.00000000  1.0 0.4980248249
C  C5  1  0.70340000  0.29660000  0.25000000  1.0 -0.1759299991
C  C6  1  0.29660000  0.70340000  0.75000000  1.0 -0.1759299991
C  C7  1  0.79660000  0.79660000  0.50000000  1.0 -0.1759299991
C  C8  1  0.20340000  0.20340000  0.00000000  1.0 -0.1759299991
C  C9  1  0.79320000  0.31830000  0.24900000  1.0 -0.0184742493
C  C10  1  0.20680000  0.68170000  0.74900000  1.0 -0.0184742493
C  C11  1  0.81830000  0.70680000  0.49900000  1.0 -0.0184742493
C  C12  1  0.18170000  0.29320000  0.99900000  1.0 -0.0184742493
C  C13  1  0.29320000  0.18170000  0.00100000  1.0 -0.0184742493
C  C14  1  0.70680000  0.81830000  0.50100000  1.0 -0.0184742493
C  C15  1  0.31830000  0.79320000  0.75100000  1.0 -0.0184742493
C  C16  1  0.68170000  0.20680000  0.25100000  1.0 -0.0184742493
C  C17  1  0.91020000  0.08980000  0.25000000  1.0 0.4656857586
C  C18  1  0.08980000  0.91020000  0.75000000  1.0 0.4656857586
C  C19  1  0.58980000  0.58980000  0.50000000  1.0 0.4656857586
C  C20  1  0.41020000  0.41020000  0.00000000  1.0 0.4656857586
C  C21  1  0.83880000  0.16120000  0.25000000  1.0 -0.2042691299
C  C22  1  0.16120000  0.83880000  0.75000000  1.0 -0.2042691299
C  C23  1  0.66120000  0.66120000  0.50000000  1.0 -0.2042691299
C  C24  1  0.33880000  0.33880000  0.00000000  1.0 -0.2042691299
C  C25  1  0.85830000  0.25280000  0.25410000  1.0 -0.0495206854
C  C26  1  0.14170000  0.74720000  0.75410000  1.0 -0.0495206854
C  C27  1  0.75280000  0.64170000  0.50410000  1.0 -0.0495206854
C  C28  1  0.24720000  0.35830000  0.00410000  1.0 -0.0495206854
C  C29  1  0.35830000  0.24720000  0.99590000  1.0 -0.0495206854
C  C30  1  0.64170000  0.75280000  0.49590000  1.0 -0.0495206854
C  C31  1  0.25280000  0.85830000  0.74590000  1.0 -0.0495206854
C  C32  1  0.74720000  0.14170000  0.24590000  1.0 -0.0495206854
O  O1  1  0.63330000  0.42630000  0.11400000  1.0 -0.5170052909
O  O2  1  0.36670000  0.57370000  0.61400000  1.0 -0.5170052909
O  O3  1  0.92630000  0.86670000  0.36400000  1.0 -0.5170052909
O  O4  1  0.07370000  0.13330000  0.86400000  1.0 -0.5170052909
O  O5  1  0.13330000  0.07370000  0.13600000  1.0 -0.5170052909
O  O6  1  0.86670000  0.92630000  0.63600000  1.0 -0.5170052909
O  O7  1  0.42630000  0.63330000  0.88600000  1.0 -0.5170052909
O  O8  1  0.57370000  0.36670000  0.38600000  1.0 -0.5170052909
O  O9  1  0.91970000  0.04340000  0.09910000  1.0 -0.5170052909
O  O10  1  0.08030000  0.95660000  0.59910000  1.0 -0.5170052909
O  O11  1  0.54340000  0.58030000  0.34910000  1.0 -0.5170052909
O  O12  1  0.45660000  0.41970000  0.84910000  1.0 -0.5170052909
O  O13  1  0.41970000  0.45660000  0.15090000  1.0 -0.5170052909
O  O14  1  0.58030000  0.54340000  0.65090000  1.0 -0.5170052909
O  O15  1  0.04340000  0.91970000  0.90090000  1.0 -0.5170052909
O  O16  1  0.95660000  0.08030000  0.40090000  1.0 -0.5170052909
O  O17  1  0.69240000  0.61490000  0.98700000  1.0 0.0083909965
O  O18  1  0.30760000  0.38510000  0.48700000  1.0 0.0083909965
O  O19  1  0.11490000  0.80760000  0.23700000  1.0 0.0083909965
O  O20  1  0.88510000  0.19240000  0.73700000  1.0 0.0083909965
O  O21  1  0.19240000  0.88510000  0.26300000  1.0 0.0083909965
O  O22  1  0.80760000  0.11490000  0.76300000  1.0 0.0083909965
O  O23  1  0.61490000  0.69240000  0.01300000  1.0 0.0083909965
O  O24  1  0.38510000  0.30760000  0.51300000  1.0 0.0083909965
O  O25  1  0.64600000  0.66130000  0.94500000  1.0 -0.0495206854
O  O26  1  0.35400000  0.33870000  0.44500000  1.0 -0.0495206854
O  O27  1  0.16130000  0.85400000  0.19500000  1.0 -0.0495206854
O  O28  1  0.83870000  0.14600000  0.69500000  1.0 -0.0495206854
O  O29  1  0.14600000  0.83870000  0.30500000  1.0 -0.0495206854
O  O30  1  0.85400000  0.16130000  0.80500000  1.0 -0.0495206854
O  O31  1  0.66130000  0.64600000  0.05500000  1.0 -0.0495206854
O  O32  1  0.33870000  0.35400000  0.55500000  1.0 -0.0495206854
F  F1  1  0.82010000  0.40440000  0.25240000  1.0 0.0032368474
F  F2  1  0.17990000  0.59560000  0.75240000  1.0 0.0032368474
F  F3  1  0.90440000  0.67990000  0.50240000  1.0 0.0032368474
F  F4  1  0.09560000  0.32010000  0.00240000  1.0 0.0032368474
F  F5  1  0.32010000  0.09560000  0.99760000  1.0 0.0032368474
F  F6  1  0.67990000  0.90440000  0.49760000  1.0 0.0032368474
F  F7  1  0.40440000  0.82010000  0.74760000  1.0 0.0032368474
F  F8  1  0.59560000  0.17990000  0.24760000  1.0 0.0032368474
F  F9  1  0.94600000  0.27830000  0.25340000  1.0 -0.007956681
F  F10  1  0.05400000  0.72170000  0.75340000  1.0 -0.007956681
F  F11  1  0.77830000  0.55400000  0.50340000  1.0 -0.007956681
F  F12  1  0.22170000  0.44600000  0.00340000  1.0 -0.007956681
F  F13  1  0.44600000  0.22170000  0.99660000  1.0 -0.007956681
F  F14  1  0.55400000  0.77830000  0.49660000  1.0 -0.007956681
F  F15  1  0.27830000  0.94600000  0.74660000  1.0 -0.007956681
F  F16  1  0.72170000  0.05400000  0.24660000  1.0 -0.007956681
