# DDEC6 charges by PACMAN v1.1 (https://github.com/mtap-research/PACMAN-charge/)
data_GOPLUS_ion_pacman
_symmetry_space_group_name_H-M   'P 1'
_cell_length_a   8.08500000
_cell_length_b   14.31600000
_cell_length_c   29.03940000
_cell_angle_alpha   90.00000000
_cell_angle_beta   92.69780000
_cell_angle_gamma   90.00000000
_symmetry_Int_Tables_number   1
_chemical_formula_structural   PrH40C20N4ClO12
_chemical_formula_sum   'Pr4 H160 C80 N16 Cl4 O48'
_cell_volume   3357.43605523
_cell_formula_units_Z   4
loop_
 _symmetry_equiv_pos_site_id
 _symmetry_equiv_pos_as_xyz
  1  'x, y, z'
loop_
 _atom_site_type_symbol
 _atom_site_label
 _atom_site_symmetry_multiplicity
 _atom_site_fract_x
 _atom_site_fract_y
 _atom_site_fract_z
 _atom_site_occupancy
 _atom_site_charge
Pr  Pr1  1  0.74273000  0.96233000  0.47996000  1.0 2.1008756094
Pr  Pr2  1  0.25727000  0.46233000  0.02004000  1.0 2.1008756094
Pr  Pr3  1  0.25727000  0.03767000  0.52004000  1.0 2.1008756094
Pr  Pr4  1  0.74273000  0.53767000  0.97996000  1.0 2.1008756094
H  H1  1  0.58440000  0.02720000  0.63990000  1.0 0.1604530148
H  H2  1  0.41560000  0.52720000  0.86010000  1.0 0.1604530148
H  H3  1  0.41560000  0.97280000  0.36010000  1.0 0.1604530148
H  H4  1  0.58440000  0.47280000  0.13990000  1.0 0.1604530148
H  H5  1  0.50690000  0.92840000  0.63010000  1.0 0.1408522571
H  H6  1  0.49310000  0.42840000  0.86990000  1.0 0.1408522571
H  H7  1  0.49310000  0.07160000  0.36990000  1.0 0.1408522571
H  H8  1  0.50690000  0.57160000  0.13010000  1.0 0.1408522571
H  H9  1  0.84600000  0.95970000  0.65180000  1.0 0.1116291743
H  H10  1  0.15400000  0.45970000  0.84820000  1.0 0.1116291743
H  H11  1  0.15400000  0.04030000  0.34820000  1.0 0.1116291743
H  H12  1  0.84600000  0.54030000  0.15180000  1.0 0.1116291743
H  H13  1  0.77310000  0.86070000  0.63970000  1.0 0.1017427203
H  H14  1  0.22690000  0.36070000  0.86030000  1.0 0.1017427203
H  H15  1  0.22690000  0.13930000  0.36030000  1.0 0.1017427203
H  H16  1  0.77310000  0.63930000  0.13970000  1.0 0.1017427203
H  H17  1  0.83690000  0.01940000  0.73180000  1.0 0.1179809419
H  H18  1  0.16310000  0.51940000  0.76820000  1.0 0.1179809419
H  H19  1  0.16310000  0.98060000  0.26820000  1.0 0.1179809419
H  H20  1  0.83690000  0.48060000  0.23180000  1.0 0.1179809419
H  H21  1  0.64730000  0.03270000  0.71980000  1.0 0.1179809419
H  H22  1  0.35270000  0.53270000  0.78020000  1.0 0.1179809419
H  H23  1  0.35270000  0.96730000  0.28020000  1.0 0.1179809419
H  H24  1  0.64730000  0.46730000  0.21980000  1.0 0.1179809419
H  H25  1  0.58010000  0.98720000  0.78770000  1.0 0.1116291743
H  H26  1  0.41990000  0.48720000  0.71230000  1.0 0.1116291743
H  H27  1  0.41990000  0.01280000  0.21230000  1.0 0.1116291743
H  H28  1  0.58010000  0.51280000  0.28770000  1.0 0.1116291743
H  H29  1  0.76750000  0.00010000  0.80260000  1.0 0.1179809419
H  H30  1  0.23250000  0.50010000  0.69740000  1.0 0.1179809419
H  H31  1  0.23250000  0.99990000  0.19740000  1.0 0.1179809419
H  H32  1  0.76750000  0.49990000  0.30260000  1.0 0.1179809419
H  H33  1  0.47640000  0.89060000  0.70640000  1.0 0.1116291743
H  H34  1  0.52360000  0.39060000  0.79360000  1.0 0.1179809419
H  H35  1  0.52360000  0.10940000  0.29360000  1.0 0.1116291743
H  H36  1  0.47640000  0.60940000  0.20640000  1.0 0.1179809419
H  H37  1  0.56140000  0.79700000  0.69250000  1.0 0.1179809419
H  H38  1  0.43860000  0.29700000  0.80750000  1.0 0.1179809419
H  H39  1  0.43860000  0.20300000  0.30750000  1.0 0.1179809419
H  H40  1  0.56140000  0.70300000  0.19250000  1.0 0.1179809419
H  H41  1  0.58810000  0.74910000  0.76410000  1.0 0.1116291743
H  H42  1  0.41190000  0.24910000  0.73590000  1.0 0.1116291743
H  H43  1  0.41190000  0.25090000  0.23590000  1.0 0.1116291743
H  H44  1  0.58810000  0.75090000  0.26410000  1.0 0.1116291743
H  H45  1  0.46790000  0.83090000  0.77560000  1.0 0.1179809419
H  H46  1  0.53210000  0.33090000  0.72440000  1.0 0.1179809419
H  H47  1  0.53210000  0.16910000  0.22440000  1.0 0.1179809419
H  H48  1  0.46790000  0.66910000  0.27560000  1.0 0.1179809419
H  H49  1  0.85720000  0.77850000  0.70920000  1.0 0.1179809419
H  H50  1  0.14280000  0.27850000  0.79080000  1.0 0.1179809419
H  H51  1  0.14280000  0.22150000  0.29080000  1.0 0.1179809419
H  H52  1  0.85720000  0.72150000  0.20920000  1.0 0.1179809419
H  H53  1  0.97260000  0.86640000  0.71310000  1.0 0.1179809419
H  H54  1  0.02740000  0.36640000  0.78690000  1.0 0.1179809419
H  H55  1  0.02740000  0.13360000  0.28690000  1.0 0.1179809419
H  H56  1  0.97260000  0.63360000  0.21310000  1.0 0.1179809419
H  H57  1  0.95500000  0.87580000  0.78790000  1.0 0.1179809419
H  H58  1  0.04500000  0.37580000  0.71210000  1.0 0.1179809419
H  H59  1  0.04500000  0.12420000  0.21210000  1.0 0.1179809419
H  H60  1  0.95500000  0.62420000  0.28790000  1.0 0.1179809419
H  H61  1  0.89200000  0.77240000  0.78430000  1.0 0.1116291743
H  H62  1  0.10800000  0.27240000  0.71570000  1.0 0.1116291743
H  H63  1  0.10800000  0.22760000  0.21570000  1.0 0.1116291743
H  H64  1  0.89200000  0.72760000  0.28430000  1.0 0.1179809419
H  H65  1  0.78660000  0.87460000  0.85870000  1.0 0.1017427203
H  H66  1  0.21340000  0.37460000  0.64130000  1.0 0.1017427203
H  H67  1  0.21340000  0.12540000  0.14130000  1.0 0.1017427203
H  H68  1  0.78660000  0.62540000  0.35870000  1.0 0.1017427203
H  H69  1  0.59500000  0.87450000  0.85140000  1.0 0.1017427203
H  H70  1  0.40500000  0.37450000  0.64860000  1.0 0.1017427203
H  H71  1  0.40500000  0.12550000  0.14860000  1.0 0.1017427203
H  H72  1  0.59500000  0.62550000  0.35140000  1.0 0.1017427203
H  H73  1  0.59360000  0.71580000  0.84010000  1.0 0.1408522571
H  H74  1  0.40640000  0.21580000  0.65990000  1.0 0.1408522571
H  H75  1  0.40640000  0.28420000  0.15990000  1.0 0.1408522571
H  H76  1  0.59360000  0.78420000  0.34010000  1.0 0.1408522571
H  H77  1  0.78760000  0.71410000  0.84100000  1.0 0.1408522571
H  H78  1  0.21240000  0.21410000  0.65900000  1.0 0.1408522571
H  H79  1  0.21240000  0.28590000  0.15900000  1.0 0.1408522571
H  H80  1  0.78760000  0.78590000  0.34100000  1.0 0.1408522571
H  H81  1  0.97520000  0.03710000  0.40640000  1.0 0.3981578879
H  H82  1  0.02480000  0.53710000  0.09360000  1.0 0.3981578879
H  H83  1  0.02480000  0.96290000  0.59360000  1.0 0.3981578879
H  H84  1  0.97520000  0.46290000  0.90640000  1.0 0.3981578879
H  H85  1  0.80000000  0.07670000  0.39150000  1.0 0.3981578879
H  H86  1  0.20000000  0.57670000  0.10850000  1.0 0.3981578879
H  H87  1  0.20000000  0.92330000  0.60850000  1.0 0.3981578879
H  H88  1  0.80000000  0.42330000  0.89150000  1.0 0.3981578879
H  H89  1  0.49420000  0.82090000  0.50950000  1.0 0.3862309985
H  H90  1  0.50580000  0.32090000  0.99050000  1.0 0.3862309985
H  H91  1  0.50580000  0.17910000  0.49050000  1.0 0.3862309985
H  H92  1  0.49420000  0.67910000  0.00950000  1.0 0.3862309985
H  H93  1  0.66280000  0.78920000  0.53340000  1.0 0.3704548337
H  H94  1  0.33720000  0.28920000  0.96660000  1.0 0.3704548337
H  H95  1  0.33720000  0.21080000  0.46660000  1.0 0.3704548337
H  H96  1  0.66280000  0.71080000  0.03340000  1.0 0.3704548337
H  H97  1  0.99820000  0.26050000  0.53070000  1.0 0.1017427203
H  H98  1  0.00180000  0.76050000  0.96930000  1.0 0.1017427203
H  H99  1  0.00180000  0.73950000  0.46930000  1.0 0.1017427203
H  H100  1  0.99820000  0.23950000  0.03070000  1.0 0.1017427203
H  H101  1  0.98650000  0.27210000  0.47800000  1.0 0.0614075557
H  H102  1  0.01350000  0.77210000  0.02200000  1.0 0.0614075557
H  H103  1  0.01350000  0.72790000  0.52200000  1.0 0.0614075557
H  H104  1  0.98650000  0.22790000  0.97800000  1.0 0.0614075557
H  H105  1  0.72820000  0.31650000  0.48550000  1.0 0.1116291743
H  H106  1  0.27180000  0.81650000  0.01450000  1.0 0.1116291743
H  H107  1  0.27180000  0.68350000  0.51450000  1.0 0.1116291743
H  H108  1  0.72820000  0.18350000  0.98550000  1.0 0.1116291743
H  H109  1  0.77000000  0.30910000  0.53800000  1.0 0.1116291743
H  H110  1  0.23000000  0.80910000  0.96200000  1.0 0.1116291743
H  H111  1  0.23000000  0.69090000  0.46200000  1.0 0.1116291743
H  H112  1  0.77000000  0.19090000  0.03800000  1.0 0.1116291743
H  H113  1  0.01030000  0.41970000  0.45160000  1.0 0.12935649
H  H114  1  0.98970000  0.91970000  0.04840000  1.0 0.12935649
H  H115  1  0.98970000  0.58030000  0.54840000  1.0 0.12935649
H  H116  1  0.01030000  0.08030000  0.95160000  1.0 0.12935649
H  H117  1  0.82680000  0.44650000  0.43950000  1.0 0.0839043035
H  H118  1  0.17320000  0.94650000  0.06050000  1.0 0.0839043035
H  H119  1  0.17320000  0.55350000  0.56050000  1.0 0.0839043035
H  H120  1  0.82680000  0.05350000  0.93950000  1.0 0.0839043035
H  H121  1  0.91060000  0.43220000  0.54510000  1.0 0.12935649
H  H122  1  0.08940000  0.93220000  0.95490000  1.0 0.12935649
H  H123  1  0.08940000  0.56780000  0.45490000  1.0 0.12935649
H  H124  1  0.91060000  0.06780000  0.04510000  1.0 0.12935649
H  H125  1  0.09090000  0.40580000  0.56240000  1.0 0.0839043035
H  H126  1  0.90910000  0.90580000  0.93760000  1.0 0.0839043035
H  H127  1  0.90910000  0.59420000  0.43760000  1.0 0.0839043035
H  H128  1  0.09090000  0.09420000  0.06240000  1.0 0.0839043035
H  H129  1  0.61930000  0.46780000  0.51360000  1.0 0.1179809419
H  H130  1  0.38070000  0.96780000  0.98640000  1.0 0.1179809419
H  H131  1  0.38070000  0.53220000  0.48640000  1.0 0.1179809419
H  H132  1  0.61930000  0.03220000  0.01360000  1.0 0.1179809419
H  H133  1  0.72640000  0.47520000  0.55900000  1.0 0.1116291743
H  H134  1  0.27360000  0.97520000  0.94100000  1.0 0.1116291743
H  H135  1  0.27360000  0.52480000  0.44100000  1.0 0.1116291743
H  H136  1  0.72640000  0.02480000  0.05900000  1.0 0.1116291743
H  H137  1  0.67230000  0.60350000  0.50470000  1.0 0.1179809419
H  H138  1  0.32770000  0.10350000  0.99530000  1.0 0.1179809419
H  H139  1  0.32770000  0.39650000  0.49530000  1.0 0.1179809419
H  H140  1  0.67230000  0.89650000  0.00470000  1.0 0.1179809419
H  H141  1  0.72450000  0.61580000  0.55690000  1.0 0.1017427203
H  H142  1  0.27550000  0.11580000  0.94310000  1.0 0.1017427203
H  H143  1  0.27550000  0.38420000  0.44310000  1.0 0.1017427203
H  H144  1  0.72450000  0.88420000  0.05690000  1.0 0.1017427203
H  H145  1  0.13880000  0.26760000  0.49770000  1.0 0.1017427203
H  H146  1  0.86120000  0.76760000  0.00230000  1.0 0.1017427203
H  H147  1  0.86120000  0.73240000  0.50230000  1.0 0.1017427203
H  H148  1  0.13880000  0.23240000  0.99770000  1.0 0.1017427203
H  H149  1  0.03520000  0.27620000  0.45200000  1.0 0.1116291743
H  H150  1  0.96480000  0.77620000  0.04800000  1.0 0.1116291743
H  H151  1  0.96480000  0.72380000  0.54800000  1.0 0.1116291743
H  H152  1  0.03520000  0.22380000  0.95200000  1.0 0.1116291743
H  H153  1  0.82770000  0.29280000  0.49390000  1.0 0.0682125993
H  H154  1  0.17230000  0.79280000  0.00610000  1.0 0.0682125993
H  H155  1  0.17230000  0.70720000  0.50610000  1.0 0.0682125993
H  H156  1  0.82770000  0.20720000  0.99390000  1.0 0.0682125993
H  H157  1  0.93930000  0.26820000  0.53660000  1.0 0.0949975632
H  H158  1  0.06070000  0.76820000  0.96340000  1.0 0.0949975632
H  H159  1  0.06070000  0.73180000  0.46340000  1.0 0.0949975632
H  H160  1  0.93930000  0.23180000  0.03660000  1.0 0.0949975632
C  C1  1  0.64760000  0.97400000  0.57780000  1.0 0.6475113862
C  C2  1  0.35240000  0.47400000  0.92220000  1.0 0.6475113862
C  C3  1  0.35240000  0.02600000  0.42220000  1.0 0.6475113862
C  C4  1  0.64760000  0.52600000  0.07780000  1.0 0.6475113862
C  C5  1  0.60400000  0.96630000  0.62750000  1.0 -0.3625839941
C  C6  1  0.39600000  0.46630000  0.87250000  1.0 -0.3625839941
C  C7  1  0.39600000  0.03370000  0.37250000  1.0 -0.3625839941
C  C8  1  0.60400000  0.53370000  0.12750000  1.0 -0.3625839941
C  C9  1  0.75190000  0.91940000  0.65430000  1.0 -0.0974462565
C  C10  1  0.24810000  0.41940000  0.84570000  1.0 -0.0974462565
C  C11  1  0.24810000  0.08060000  0.34570000  1.0 -0.0974462565
C  C12  1  0.75190000  0.58060000  0.15430000  1.0 -0.0974462565
C  C13  1  0.72980000  0.99060000  0.73250000  1.0 -0.1420849381
C  C14  1  0.27020000  0.49060000  0.76750000  1.0 -0.1420849381
C  C15  1  0.27020000  0.00940000  0.26750000  1.0 -0.1420849381
C  C16  1  0.72980000  0.50940000  0.23250000  1.0 -0.1420849381
C  C17  1  0.69100000  0.96770000  0.78210000  1.0 -0.151475982
C  C18  1  0.30900000  0.46770000  0.71790000  1.0 -0.151475982
C  C19  1  0.30900000  0.03230000  0.21790000  1.0 -0.151475982
C  C20  1  0.69100000  0.53230000  0.28210000  1.0 -0.151475982
C  C21  1  0.56910000  0.85000000  0.71270000  1.0 -0.151475982
C  C22  1  0.43090000  0.35000000  0.78730000  1.0 -0.151475982
C  C23  1  0.43090000  0.15000000  0.28730000  1.0 -0.151475982
C  C24  1  0.56910000  0.65000000  0.21270000  1.0 -0.151475982
C  C25  1  0.57200000  0.81550000  0.76290000  1.0 -0.1420849381
C  C26  1  0.42800000  0.31550000  0.73710000  1.0 -0.1420849381
C  C27  1  0.42800000  0.18450000  0.23710000  1.0 -0.1420849381
C  C28  1  0.57200000  0.68450000  0.26290000  1.0 -0.1420849381
C  C29  1  0.87010000  0.83980000  0.72220000  1.0 -0.151475982
C  C30  1  0.12990000  0.33980000  0.77780000  1.0 -0.151475982
C  C31  1  0.12990000  0.16020000  0.27780000  1.0 -0.151475982
C  C32  1  0.87010000  0.66020000  0.22220000  1.0 -0.151475982
C  C33  1  0.87070000  0.83550000  0.77460000  1.0 -0.1420849381
C  C34  1  0.12930000  0.33550000  0.72540000  1.0 -0.1420849381
C  C35  1  0.12930000  0.16450000  0.22540000  1.0 -0.1420849381
C  C36  1  0.87070000  0.66450000  0.27460000  1.0 -0.1420849381
C  C37  1  0.69520000  0.84640000  0.84150000  1.0 -0.1106427099
C  C38  1  0.30480000  0.34640000  0.65850000  1.0 -0.1106427099
C  C39  1  0.30480000  0.15360000  0.15850000  1.0 -0.1106427099
C  C40  1  0.69520000  0.65360000  0.34150000  1.0 -0.1106427099
C  C41  1  0.69290000  0.74300000  0.85380000  1.0 -0.3825991668
C  C42  1  0.30710000  0.24300000  0.64620000  1.0 -0.3825991668
C  C43  1  0.30710000  0.25700000  0.14620000  1.0 -0.3825991668
C  C44  1  0.69290000  0.75700000  0.35380000  1.0 -0.3825991668
C  C45  1  0.69500000  0.72670000  0.90500000  1.0 0.6266304038
C  C46  1  0.30500000  0.22670000  0.59500000  1.0 0.6266304038
C  C47  1  0.30500000  0.27330000  0.09500000  1.0 0.6266304038
C  C48  1  0.69500000  0.77330000  0.40500000  1.0 0.6266304038
C  C49  1  0.87010000  0.15780000  0.49870000  1.0 0.4878622524
C  C50  1  0.12990000  0.65780000  0.00130000  1.0 0.4878622524
C  C51  1  0.12990000  0.84220000  0.50130000  1.0 0.4878622524
C  C52  1  0.87010000  0.34220000  0.99870000  1.0 0.4840042524
C  C53  1  0.92310000  0.25700000  0.50410000  1.0 -0.1841825612
C  C54  1  0.07690000  0.75700000  0.99590000  1.0 -0.1841825612
C  C55  1  0.07690000  0.74300000  0.49590000  1.0 -0.1841825612
C  C56  1  0.92310000  0.24300000  0.00410000  1.0 -0.1841825612
C  C57  1  0.81610000  0.32200000  0.50880000  1.0 -0.151475982
C  C58  1  0.18390000  0.82200000  0.99120000  1.0 -0.151475982
C  C59  1  0.18390000  0.67800000  0.49120000  1.0 -0.151475982
C  C60  1  0.81610000  0.17800000  0.00880000  1.0 -0.151475982
C  C61  1  0.91880000  0.45670000  0.46100000  1.0 -0.1165424317
C  C62  1  0.08120000  0.95670000  0.03900000  1.0 -0.1165424317
C  C63  1  0.08120000  0.54330000  0.53900000  1.0 -0.1165424317
C  C64  1  0.91880000  0.04330000  0.96100000  1.0 -0.1165424317
C  C65  1  0.02600000  0.44030000  0.53970000  1.0 -0.1981823213
C  C66  1  0.97400000  0.94030000  0.96030000  1.0 -0.1981823213
C  C67  1  0.97400000  0.55970000  0.46030000  1.0 -0.1936531134
C  C68  1  0.02600000  0.05970000  0.03970000  1.0 -0.1936531134
C  C69  1  0.72560000  0.48680000  0.52640000  1.0 -0.2672001861
C  C70  1  0.27440000  0.98680000  0.97360000  1.0 -0.2672001861
C  C71  1  0.27440000  0.51320000  0.47360000  1.0 -0.2672001861
C  C72  1  0.72560000  0.01320000  0.02640000  1.0 -0.2672001861
C  C73  1  0.74740000  0.58250000  0.52920000  1.0 -0.2330591845
C  C74  1  0.25260000  0.08250000  0.97080000  1.0 -0.2353991486
C  C75  1  0.25260000  0.41750000  0.47080000  1.0 -0.2330591845
C  C76  1  0.74740000  0.91750000  0.02920000  1.0 -0.2330591845
C  C77  1  0.04100000  0.29560000  0.48370000  1.0 -0.157851617
C  C78  1  0.95900000  0.79560000  0.01630000  1.0 -0.157851617
C  C79  1  0.95900000  0.70440000  0.51630000  1.0 -0.157851617
C  C80  1  0.04100000  0.20440000  0.98370000  1.0 -0.157851617
N  N1  1  0.72790000  0.90230000  0.70450000  1.0 0.12935649
N  N2  1  0.27210000  0.40230000  0.79550000  1.0 0.1179809419
N  N3  1  0.27210000  0.09770000  0.29550000  1.0 0.12935649
N  N4  1  0.72790000  0.59770000  0.20450000  1.0 0.12935649
N  N5  1  0.70630000  0.86500000  0.79080000  1.0 0.1116291743
N  N6  1  0.29370000  0.36500000  0.70920000  1.0 0.1116291743
N  N7  1  0.29370000  0.13500000  0.20920000  1.0 0.1017427203
N  N8  1  0.70630000  0.63500000  0.29080000  1.0 0.1017427203
N  N9  1  0.87420000  0.42670000  0.51050000  1.0 0.0253174471
N  N10  1  0.12580000  0.92670000  0.98950000  1.0 0.0253174471
N  N11  1  0.12580000  0.57330000  0.48950000  1.0 0.0253174471
N  N12  1  0.87420000  0.07330000  0.01050000  1.0 0.0253174471
N  N13  1  0.07620000  0.40440000  0.48430000  1.0 -0.029300885
N  N14  1  0.92380000  0.90440000  0.01570000  1.0 -0.029300885
N  N15  1  0.92380000  0.59560000  0.51570000  1.0 -0.029300885
N  N16  1  0.07620000  0.09560000  0.98430000  1.0 -0.029300885
Cl  Cl1  1  0.77620000  0.54040000  0.76450000  1.0 1.2332169645
Cl  Cl2  1  0.22380000  0.04040000  0.73550000  1.0 1.2332169645
Cl  Cl3  1  0.22380000  0.45960000  0.23550000  1.0 1.2332169645
Cl  Cl4  1  0.77620000  0.95960000  0.26450000  1.0 1.2332169645
O  O1  1  0.78930000  0.95670000  0.56560000  1.0 -0.6411029465
O  O2  1  0.21070000  0.45670000  0.93440000  1.0 -0.6411029465
O  O3  1  0.21070000  0.04330000  0.43440000  1.0 -0.6411029465
O  O4  1  0.78930000  0.54330000  0.06560000  1.0 -0.6411029465
O  O5  1  0.53360000  0.99490000  0.54850000  1.0 -0.7560629316
O  O6  1  0.46640000  0.49490000  0.95150000  1.0 -0.7545114823
O  O7  1  0.46640000  0.00510000  0.45150000  1.0 -0.7545114823
O  O8  1  0.53360000  0.50510000  0.04850000  1.0 -0.7545114823
O  O9  1  0.67280000  0.79190000  0.93150000  1.0 -0.5804551758
O  O10  1  0.32720000  0.29190000  0.56850000  1.0 -0.5804551758
O  O11  1  0.32720000  0.20810000  0.06850000  1.0 -0.5804551758
O  O12  1  0.67280000  0.70810000  0.43150000  1.0 -0.5804551758
O  O13  1  0.72850000  0.85510000  0.41730000  1.0 -0.6756312318
O  O14  1  0.27150000  0.35510000  0.08270000  1.0 -0.6746277479
O  O15  1  0.27150000  0.14490000  0.58270000  1.0 -0.6746277479
O  O16  1  0.72850000  0.64490000  0.91730000  1.0 -0.6746277479
O  O17  1  0.85810000  0.02880000  0.40880000  1.0 -0.8398121067
O  O18  1  0.14190000  0.52880000  0.09120000  1.0 -0.8398121067
O  O19  1  0.14190000  0.97120000  0.59120000  1.0 -0.8398121067
O  O20  1  0.85810000  0.47120000  0.90880000  1.0 -0.8398121067
O  O21  1  0.61070000  0.81350000  0.50550000  1.0 -0.8398121067
O  O22  1  0.38930000  0.31350000  0.99450000  1.0 -0.8398121067
O  O23  1  0.38930000  0.18650000  0.49450000  1.0 -0.8398121067
O  O24  1  0.61070000  0.68650000  0.00550000  1.0 -0.8398121067
O  O25  1  0.72210000  0.13710000  0.48810000  1.0 -0.6544457741
O  O26  1  0.27790000  0.63710000  0.01190000  1.0 -0.6544457741
O  O27  1  0.27790000  0.86290000  0.51190000  1.0 -0.6544457741
O  O28  1  0.72210000  0.36290000  0.98810000  1.0 -0.6544457741
O  O29  1  0.97990000  0.09640000  0.50460000  1.0 -0.7311630912
O  O30  1  0.02010000  0.59640000  0.99540000  1.0 -0.7311630912
O  O31  1  0.02010000  0.90360000  0.49540000  1.0 -0.7311630912
O  O32  1  0.97990000  0.40360000  0.00460000  1.0 -0.7311630912
O  O33  1  0.84980000  0.51720000  0.80800000  1.0 -0.513648985
O  O34  1  0.87750000  0.60320000  0.74410000  1.0 -0.4998600028
O  O35  1  0.62370000  0.58070000  0.77150000  1.0 -0.513648985
O  O36  1  0.76460000  0.46160000  0.73560000  1.0 -0.5261211015
O  O37  1  0.15020000  0.01720000  0.69200000  1.0 -0.513648985
O  O38  1  0.12250000  0.10320000  0.75590000  1.0 -0.4998600028
O  O39  1  0.37630000  0.08070000  0.72850000  1.0 -0.513648985
O  O40  1  0.23540000  0.96160000  0.76440000  1.0 -0.5261211015
O  O41  1  0.15020000  0.48280000  0.19200000  1.0 -0.5159380503
O  O42  1  0.12250000  0.39680000  0.25590000  1.0 -0.4998600028
O  O43  1  0.37630000  0.41930000  0.22850000  1.0 -0.513648985
O  O44  1  0.23540000  0.53840000  0.26440000  1.0 -0.5261211015
O  O45  1  0.84980000  0.98280000  0.30800000  1.0 -0.513648985
O  O46  1  0.87750000  0.89680000  0.24410000  1.0 -0.4998600028
O  O47  1  0.62370000  0.91930000  0.27150000  1.0 -0.513648985
O  O48  1  0.76460000  0.03840000  0.23560000  1.0 -0.5261211015
