# DDEC6 charges by PACMAN v1.1 (https://github.com/mtap-research/PACMAN-charge/)
data_GORJEE_ASR_pacman
_symmetry_space_group_name_H-M   'P 1'
_cell_length_a   16.30560000
_cell_length_b   16.30560000
_cell_length_c   16.30560000
_cell_angle_alpha   131.02200000
_cell_angle_beta   131.02200000
_cell_angle_gamma   71.77850000
_symmetry_Int_Tables_number   1
_chemical_formula_structural   Zn2H8C12S(N3O2)2
_chemical_formula_sum   'Zn8 H32 C48 S4 N24 O16'
_cell_volume   2413.92943427
_cell_formula_units_Z   4
loop_
 _symmetry_equiv_pos_site_id
 _symmetry_equiv_pos_as_xyz
  1  'x, y, z'
loop_
 _atom_site_type_symbol
 _atom_site_label
 _atom_site_symmetry_multiplicity
 _atom_site_fract_x
 _atom_site_fract_y
 _atom_site_fract_z
 _atom_site_occupancy
 _atom_site_charge
Zn  Zn1  1  0.07564000  0.96339000  0.43189000  1.0 0.6523037881
Zn  Zn2  1  0.53150000  0.64375000  0.56811000  1.0 0.6523037881
Zn  Zn3  1  0.96339000  0.53150000  0.88775000  1.0 0.6523037881
Zn  Zn4  1  0.64375000  0.07564000  0.11225000  1.0 0.6523037881
Zn  Zn5  1  0.92436000  0.03661000  0.56811000  1.0 0.6523037881
Zn  Zn6  1  0.46850000  0.35625000  0.43189000  1.0 0.6523037881
Zn  Zn7  1  0.03661000  0.46850000  0.11225000  1.0 0.6523037881
Zn  Zn8  1  0.35625000  0.92436000  0.88775000  1.0 0.6523037881
H  H1  1  0.08690000  0.72330000  0.35600000  1.0 0.0984709516
H  H2  1  0.36730000  0.73090000  0.64400000  1.0 0.0984709516
H  H3  1  0.72330000  0.36730000  0.63640000  1.0 0.0984709516
H  H4  1  0.73090000  0.08690000  0.36360000  1.0 0.0984709516
H  H5  1  0.91310000  0.27670000  0.64400000  1.0 0.0984709516
H  H6  1  0.63270000  0.26910000  0.35600000  1.0 0.0984709516
H  H7  1  0.27670000  0.63270000  0.36360000  1.0 0.0984709516
H  H8  1  0.26910000  0.91310000  0.63640000  1.0 0.0984709516
H  H9  1  0.99880000  0.78730000  0.11790000  1.0 0.1179587675
H  H10  1  0.66940000  0.88090000  0.88210000  1.0 0.1179587675
H  H11  1  0.78730000  0.66940000  0.78850000  1.0 0.1179587675
H  H12  1  0.88090000  0.99880000  0.21150000  1.0 0.1179587675
H  H13  1  0.00120000  0.21270000  0.88210000  1.0 0.1179587675
H  H14  1  0.33060000  0.11910000  0.11790000  1.0 0.1179587675
H  H15  1  0.21270000  0.33060000  0.21150000  1.0 0.1179587675
H  H16  1  0.11910000  0.00120000  0.78850000  1.0 0.1179587675
H  H17  1  0.33180000  0.27210000  0.70070000  1.0 0.0589234542
H  H18  1  0.57140000  0.63110000  0.29930000  1.0 0.0589234542
H  H19  1  0.27210000  0.57140000  0.94030000  1.0 0.0589234542
H  H20  1  0.63110000  0.33180000  0.05970000  1.0 0.0589234542
H  H21  1  0.66820000  0.72790000  0.29930000  1.0 0.0589234542
H  H22  1  0.42860000  0.36890000  0.70070000  1.0 0.0589234542
H  H23  1  0.72790000  0.42860000  0.05970000  1.0 0.0589234542
H  H24  1  0.36890000  0.66820000  0.94030000  1.0 0.0589234542
H  H25  1  0.37610000  0.21540000  0.68870000  1.0 0.0693429142
H  H26  1  0.52670000  0.68740000  0.31130000  1.0 0.0693429142
H  H27  1  0.21540000  0.52670000  0.83930000  1.0 0.0693429142
H  H28  1  0.68740000  0.37610000  0.16070000  1.0 0.0693429142
H  H29  1  0.62390000  0.78460000  0.31130000  1.0 0.0693429142
H  H30  1  0.47330000  0.31260000  0.68870000  1.0 0.0693429142
H  H31  1  0.78460000  0.47330000  0.16070000  1.0 0.0693429142
H  H32  1  0.31260000  0.62390000  0.83930000  1.0 0.0693429142
C  C1  1  0.06270000  0.71560000  0.28090000  1.0 0.1179587675
C  C2  1  0.43470000  0.78180000  0.71910000  1.0 0.1179587675
C  C3  1  0.71560000  0.43470000  0.65290000  1.0 0.1179587675
C  C4  1  0.78180000  0.06270000  0.34710000  1.0 0.1179587675
C  C5  1  0.93730000  0.28440000  0.71910000  1.0 0.1179587675
C  C6  1  0.56530000  0.21820000  0.28090000  1.0 0.1179587675
C  C7  1  0.28440000  0.56530000  0.34710000  1.0 0.1179587675
C  C8  1  0.21820000  0.93730000  0.65290000  1.0 0.1179587675
C  C9  1  0.01570000  0.75020000  0.15110000  1.0 0.1554684371
C  C10  1  0.59910000  0.86460000  0.84890000  1.0 0.1549253643
C  C11  1  0.75020000  0.59910000  0.73450000  1.0 0.1554684371
C  C12  1  0.86460000  0.01570000  0.26550000  1.0 0.1549253643
C  C13  1  0.98430000  0.24980000  0.84890000  1.0 0.1554684371
C  C14  1  0.40090000  0.13540000  0.15110000  1.0 0.1554684371
C  C15  1  0.24980000  0.40090000  0.26550000  1.0 0.1549253643
C  C16  1  0.13540000  0.98430000  0.73450000  1.0 0.1554684371
C  C17  1  0.17670000  0.06770000  0.44540000  1.0 0.5161794752
C  C18  1  0.62230000  0.73130000  0.55460000  1.0 0.5161794752
C  C19  1  0.06770000  0.62230000  0.89100000  1.0 0.5161794752
C  C20  1  0.73130000  0.17670000  0.10900000  1.0 0.5161794752
C  C21  1  0.82330000  0.93230000  0.55460000  1.0 0.5161794752
C  C22  1  0.37770000  0.26870000  0.44540000  1.0 0.5161794752
C  C23  1  0.93230000  0.37770000  0.10900000  1.0 0.5161794752
C  C24  1  0.26870000  0.82330000  0.89100000  1.0 0.5161794752
C  C25  1  0.25420000  0.14590000  0.49170000  1.0 -0.1052205682
C  C26  1  0.65420000  0.76250000  0.50830000  1.0 -0.1044746757
C  C27  1  0.14590000  0.65420000  0.89170000  1.0 -0.1044746757
C  C28  1  0.76250000  0.25420000  0.10830000  1.0 -0.1044746757
C  C29  1  0.74580000  0.85410000  0.50830000  1.0 -0.1044746757
C  C30  1  0.34580000  0.23750000  0.49170000  1.0 -0.1052205682
C  C31  1  0.85410000  0.34580000  0.10830000  1.0 -0.1044746757
C  C32  1  0.23750000  0.74580000  0.89170000  1.0 -0.1044746757
C  C33  1  0.32220000  0.24450000  0.62310000  1.0 0.0182359304
C  C34  1  0.62140000  0.69910000  0.37690000  1.0 0.0182359304
C  C35  1  0.24450000  0.62140000  0.92230000  1.0 0.0182359304
C  C36  1  0.69910000  0.32220000  0.07770000  1.0 0.0182359304
C  C37  1  0.67780000  0.75550000  0.37690000  1.0 0.0182359304
C  C38  1  0.37860000  0.30090000  0.62310000  1.0 0.0182359304
C  C39  1  0.75550000  0.37860000  0.07770000  1.0 0.0182359304
C  C40  1  0.30090000  0.67780000  0.92230000  1.0 0.0182359304
C  C41  1  0.34700000  0.20690000  0.61110000  1.0 0.0086791678
C  C42  1  0.59580000  0.73590000  0.38890000  1.0 0.0086791678
C  C43  1  0.20690000  0.59580000  0.85990000  1.0 0.0086791678
C  C44  1  0.73590000  0.34700000  0.14010000  1.0 0.0086791678
C  C45  1  0.65300000  0.79310000  0.38890000  1.0 0.0086791678
C  C46  1  0.40420000  0.26410000  0.61110000  1.0 0.0086791678
C  C47  1  0.79310000  0.40420000  0.14010000  1.0 0.0086791678
C  C48  1  0.26410000  0.65300000  0.85990000  1.0 0.0086791678
S  S1  1  0.23210000  0.13160000  0.36370000  1.0 0.0325448779
S  S2  1  0.76790000  0.86840000  0.63630000  1.0 0.0325448779
S  S3  1  0.13160000  0.76790000  0.89950000  1.0 0.0325448779
S  S4  1  0.86840000  0.23210000  0.10050000  1.0 0.0351469211
N  N1  1  0.03620000  0.61840000  0.16040000  1.0 -0.2076096654
N  N2  1  0.45800000  0.87580000  0.83960000  1.0 -0.2076096654
N  N3  1  0.61840000  0.45800000  0.58220000  1.0 -0.2076096654
N  N4  1  0.87580000  0.03620000  0.41780000  1.0 -0.2076096654
N  N5  1  0.96380000  0.38160000  0.83960000  1.0 -0.2076096654
N  N6  1  0.54200000  0.12420000  0.16040000  1.0 -0.2076096654
N  N7  1  0.38160000  0.54200000  0.41780000  1.0 -0.2076096654
N  N8  1  0.12420000  0.96380000  0.58220000  1.0 -0.2076096654
N  N9  1  0.01000000  0.64460000  0.08240000  1.0 -0.19421167
N  N10  1  0.56220000  0.92760000  0.91760000  1.0 -0.19421167
N  N11  1  0.64460000  0.56220000  0.63460000  1.0 -0.19421167
N  N12  1  0.92760000  0.01000000  0.36540000  1.0 -0.19421167
N  N13  1  0.99000000  0.35540000  0.91760000  1.0 -0.19421167
N  N14  1  0.43780000  0.07240000  0.08240000  1.0 -0.19421167
N  N15  1  0.35540000  0.43780000  0.36540000  1.0 -0.19421167
N  N16  1  0.07240000  0.99000000  0.63460000  1.0 -0.19421167
N  N17  1  0.05020000  0.80060000  0.28040000  1.0 -0.3381540298
N  N18  1  0.52020000  0.76980000  0.71960000  1.0 -0.3381540298
N  N19  1  0.80060000  0.52020000  0.75040000  1.0 -0.3381540298
N  N20  1  0.76980000  0.05020000  0.24960000  1.0 -0.3381540298
N  N21  1  0.94980000  0.19940000  0.71960000  1.0 -0.3381540298
N  N22  1  0.47980000  0.23020000  0.28040000  1.0 -0.3381540298
N  N23  1  0.19940000  0.47980000  0.24960000  1.0 -0.3381540298
N  N24  1  0.23020000  0.94980000  0.75040000  1.0 -0.3381540298
O  O1  1  0.09520000  0.00320000  0.32160000  1.0 -0.5041546643
O  O2  1  0.68160000  0.77360000  0.67840000  1.0 -0.5041546643
O  O3  1  0.00320000  0.68160000  0.90800000  1.0 -0.5041546643
O  O4  1  0.77360000  0.09520000  0.09200000  1.0 -0.5041546643
O  O5  1  0.90480000  0.99680000  0.67840000  1.0 -0.5041546643
O  O6  1  0.31840000  0.22640000  0.32160000  1.0 -0.5041546643
O  O7  1  0.99680000  0.31840000  0.09200000  1.0 -0.5041546643
O  O8  1  0.22640000  0.90480000  0.90800000  1.0 -0.5041546643
O  O9  1  0.19830000  0.07400000  0.53730000  1.0 -0.4811245173
O  O10  1  0.53670000  0.66100000  0.46270000  1.0 -0.4811245173
O  O11  1  0.07400000  0.53670000  0.87570000  1.0 -0.4811245173
O  O12  1  0.66100000  0.19830000  0.12430000  1.0 -0.4811245173
O  O13  1  0.80170000  0.92600000  0.46270000  1.0 -0.4811245173
O  O14  1  0.46330000  0.33900000  0.53730000  1.0 -0.4811245173
O  O15  1  0.92600000  0.46330000  0.12430000  1.0 -0.4811245173
O  O16  1  0.33900000  0.80170000  0.87570000  1.0 -0.4811245173
