# DDEC6 charges by PACMAN v1.1 (https://github.com/mtap-research/PACMAN-charge/)
data_GORQAF_ion_pacman
_symmetry_space_group_name_H-M   'P 1'
_cell_length_a   9.33336000
_cell_length_b   9.33336000
_cell_length_c   9.33336000
_cell_angle_alpha   128.45700000
_cell_angle_beta   128.45700000
_cell_angle_gamma   75.88610000
_symmetry_Int_Tables_number   1
_chemical_formula_structural   Cd(BrN2)2
_chemical_formula_sum   'Cd2 Br4 N8'
_cell_volume   484.82904791
_cell_formula_units_Z   2
loop_
 _symmetry_equiv_pos_site_id
 _symmetry_equiv_pos_as_xyz
  1  'x, y, z'
loop_
 _atom_site_type_symbol
 _atom_site_label
 _atom_site_symmetry_multiplicity
 _atom_site_fract_x
 _atom_site_fract_y
 _atom_site_fract_z
 _atom_site_occupancy
 _atom_site_charge
Cd  Cd1  1  0.50000000  0.50000000  0.00000000  1.0 0.6789582492
Cd  Cd2  1  0.25000000  0.75000000  0.50000000  1.0 0.6789582492
Br  Br1  1  0.59460000  0.09460000  0.50000000  1.0 -0.081040416
Br  Br2  1  0.90540000  0.40540000  0.50000000  1.0 -0.081040416
Br  Br3  1  0.84460000  0.84460000  0.00000000  1.0 -0.081040416
Br  Br4  1  0.15540000  0.15540000  0.00000000  1.0 -0.081040416
N  N1  1  0.79950000  0.59800000  0.20150000  1.0 -0.138564366
N  N2  1  0.40200000  0.60350000  0.20150000  1.0 -0.1293872773
N  N3  1  0.34800000  0.04950000  0.70150000  1.0 -0.1293872773
N  N4  1  0.34800000  0.64650000  0.29850000  1.0 -0.1293872773
N  N5  1  0.35350000  0.65200000  0.70150000  1.0 -0.1293872773
N  N6  1  0.39650000  0.59800000  0.79850000  1.0 -0.1293872773
N  N7  1  0.95050000  0.65200000  0.29850000  1.0 -0.1188668042
N  N8  1  0.40200000  0.20050000  0.79850000  1.0 -0.1293872773
