# DDEC6 charges by PACMAN v1.1 (https://github.com/mtap-research/PACMAN-charge/)
data_GORWUF_FSR_pacman
_symmetry_space_group_name_H-M   'P 1'
_cell_length_a   11.10800000
_cell_length_b   11.10800000
_cell_length_c   8.11070000
_cell_angle_alpha   90.00000000
_cell_angle_beta   90.00000000
_cell_angle_gamma   90.00000000
_symmetry_Int_Tables_number   1
_chemical_formula_structural   CuSiH32C36(N2F5)2
_chemical_formula_sum   'Cu1 Si1 H32 C36 N4 F10'
_cell_volume   1000.76032640
_cell_formula_units_Z   1
loop_
 _symmetry_equiv_pos_site_id
 _symmetry_equiv_pos_as_xyz
  1  'x, y, z'
loop_
 _atom_site_type_symbol
 _atom_site_label
 _atom_site_symmetry_multiplicity
 _atom_site_fract_x
 _atom_site_fract_y
 _atom_site_fract_z
 _atom_site_occupancy
 _atom_site_charge
Cu  Cu1  1  0.00000000  0.00000000  0.00000000  1.0 0.2727518191
Si  Si1  1  0.00000000  0.00000000  0.50000000  1.0 1.0201105287
H  H1  1  0.19890000  0.07740000  0.21850000  1.0 0.0501326209
H  H2  1  0.07740000  0.80110000  0.21850000  1.0 0.0501326209
H  H3  1  0.80110000  0.07740000  0.78150000  1.0 0.0501326209
H  H4  1  0.80110000  0.92260000  0.21850000  1.0 0.0501326209
H  H5  1  0.07740000  0.19890000  0.78150000  1.0 0.0501326209
H  H6  1  0.92260000  0.19890000  0.21850000  1.0 0.0501326209
H  H7  1  0.19890000  0.92260000  0.78150000  1.0 0.0501326209
H  H8  1  0.92260000  0.80110000  0.78150000  1.0 0.0501326209
H  H9  1  0.80110000  0.92260000  0.78150000  1.0 0.0501326209
H  H10  1  0.92260000  0.19890000  0.78150000  1.0 0.0501326209
H  H11  1  0.19890000  0.92260000  0.21850000  1.0 0.0501326209
H  H12  1  0.19890000  0.07740000  0.78150000  1.0 0.0501326209
H  H13  1  0.92260000  0.80110000  0.21850000  1.0 0.0501326209
H  H14  1  0.07740000  0.80110000  0.78150000  1.0 0.0501326209
H  H15  1  0.80110000  0.07740000  0.21850000  1.0 0.0501326209
H  H16  1  0.07740000  0.19890000  0.21850000  1.0 0.0501326209
H  H17  1  0.41010000  0.08050000  0.22600000  1.0 0.0785073766
H  H18  1  0.08050000  0.58990000  0.22600000  1.0 0.0785073766
H  H19  1  0.58990000  0.08050000  0.77400000  1.0 0.0785073766
H  H20  1  0.58990000  0.91950000  0.22600000  1.0 0.0785073766
H  H21  1  0.08050000  0.41010000  0.77400000  1.0 0.0785073766
H  H22  1  0.91950000  0.41010000  0.22600000  1.0 0.0785073766
H  H23  1  0.41010000  0.91950000  0.77400000  1.0 0.0785073766
H  H24  1  0.91950000  0.58990000  0.77400000  1.0 0.0785073766
H  H25  1  0.58990000  0.91950000  0.77400000  1.0 0.0785073766
H  H26  1  0.91950000  0.41010000  0.77400000  1.0 0.0785073766
H  H27  1  0.41010000  0.91950000  0.22600000  1.0 0.0785073766
H  H28  1  0.41010000  0.08050000  0.77400000  1.0 0.0785073766
H  H29  1  0.91950000  0.58990000  0.22600000  1.0 0.0785073766
H  H30  1  0.08050000  0.58990000  0.77400000  1.0 0.0785073766
H  H31  1  0.58990000  0.08050000  0.22600000  1.0 0.0785073766
H  H32  1  0.08050000  0.41010000  0.22600000  1.0 0.0785073766
C  C1  1  0.24360000  0.04470000  0.12600000  1.0 0.0106636806
C  C2  1  0.04470000  0.75640000  0.12600000  1.0 0.0106636806
C  C3  1  0.75640000  0.04470000  0.87400000  1.0 0.0106636806
C  C4  1  0.75640000  0.95530000  0.12600000  1.0 0.0106636806
C  C5  1  0.04470000  0.24360000  0.87400000  1.0 0.0106636806
C  C6  1  0.95530000  0.24360000  0.12600000  1.0 0.0106636806
C  C7  1  0.24360000  0.95530000  0.87400000  1.0 0.0106636806
C  C8  1  0.95530000  0.75640000  0.87400000  1.0 0.0106636806
C  C9  1  0.75640000  0.95530000  0.87400000  1.0 0.0106636806
C  C10  1  0.95530000  0.24360000  0.87400000  1.0 0.0106636806
C  C11  1  0.24360000  0.95530000  0.12600000  1.0 0.0106636806
C  C12  1  0.24360000  0.04470000  0.87400000  1.0 0.0106636806
C  C13  1  0.95530000  0.75640000  0.12600000  1.0 0.0106636806
C  C14  1  0.04470000  0.75640000  0.87400000  1.0 0.0106636806
C  C15  1  0.75640000  0.04470000  0.12600000  1.0 0.0106636806
C  C16  1  0.04470000  0.24360000  0.12600000  1.0 0.0106636806
C  C17  1  0.36790000  0.04690000  0.13000000  1.0 -0.0789428297
C  C18  1  0.04690000  0.63210000  0.13000000  1.0 -0.0789428297
C  C19  1  0.63210000  0.04690000  0.87000000  1.0 -0.0789428297
C  C20  1  0.63210000  0.95310000  0.13000000  1.0 -0.0789428297
C  C21  1  0.04690000  0.36790000  0.87000000  1.0 -0.0789428297
C  C22  1  0.95310000  0.36790000  0.13000000  1.0 -0.0789428297
C  C23  1  0.36790000  0.95310000  0.87000000  1.0 -0.0789428297
C  C24  1  0.95310000  0.63210000  0.87000000  1.0 -0.0789428297
C  C25  1  0.63210000  0.95310000  0.87000000  1.0 -0.0789428297
C  C26  1  0.95310000  0.36790000  0.87000000  1.0 -0.0789428297
C  C27  1  0.36790000  0.95310000  0.13000000  1.0 -0.0789428297
C  C28  1  0.36790000  0.04690000  0.87000000  1.0 -0.0789428297
C  C29  1  0.95310000  0.63210000  0.13000000  1.0 -0.0789428297
C  C30  1  0.04690000  0.63210000  0.87000000  1.0 -0.0789428297
C  C31  1  0.63210000  0.04690000  0.13000000  1.0 -0.0789428297
C  C32  1  0.04690000  0.36790000  0.13000000  1.0 -0.0789428297
C  C33  1  0.43230000  0.00000000  0.00000000  1.0 -0.0179775597
C  C34  1  0.00000000  0.56770000  0.00000000  1.0 -0.0179775597
C  C35  1  0.56770000  0.00000000  0.00000000  1.0 -0.0179775597
C  C36  1  0.00000000  0.43230000  0.00000000  1.0 -0.0179775597
N  N1  1  0.18090000  0.00000000  0.00000000  1.0 -0.1800380463
N  N2  1  0.00000000  0.81910000  0.00000000  1.0 -0.1800380463
N  N3  1  0.81910000  0.00000000  0.00000000  1.0 -0.1800380463
N  N4  1  0.00000000  0.18090000  0.00000000  1.0 -0.1800380463
F  F1  1  0.00000000  0.00000000  0.29060000  1.0 -0.4629709313
F  F2  1  0.00000000  0.00000000  0.70940000  1.0 -0.4629709313
F  F3  1  0.10290000  0.10290000  0.50000000  1.0 -0.0675789544
F  F4  1  0.10290000  0.89710000  0.50000000  1.0 -0.0675789544
F  F5  1  0.89710000  0.10290000  0.50000000  1.0 -0.0675789544
F  F6  1  0.89710000  0.89710000  0.50000000  1.0 -0.0675789544
F  F7  1  0.14420000  0.00000000  0.50000000  1.0 -0.0675789544
F  F8  1  0.00000000  0.85580000  0.50000000  1.0 -0.0675789544
F  F9  1  0.85580000  0.00000000  0.50000000  1.0 -0.0675789544
F  F10  1  0.00000000  0.14420000  0.50000000  1.0 -0.0675789544
