# DDEC6 charges by PACMAN v1.1 (https://github.com/mtap-research/PACMAN-charge/)
data_GOXMEN_FSR_pacman
_symmetry_space_group_name_H-M   'P 1'
_cell_length_a   17.06570000
_cell_length_b   17.06570000
_cell_length_c   10.40200000
_cell_angle_alpha   87.31930000
_cell_angle_beta   92.68070000
_cell_angle_gamma   57.33210000
_symmetry_Int_Tables_number   1
_chemical_formula_structural   Co2H33C51(N2O)6
_chemical_formula_sum   'Co4 H66 C102 N24 O12'
_cell_volume   2538.08888498
_cell_formula_units_Z   2
loop_
 _symmetry_equiv_pos_site_id
 _symmetry_equiv_pos_as_xyz
  1  'x, y, z'
loop_
 _atom_site_type_symbol
 _atom_site_label
 _atom_site_symmetry_multiplicity
 _atom_site_fract_x
 _atom_site_fract_y
 _atom_site_fract_z
 _atom_site_occupancy
 _atom_site_charge
Co  Co1  1  0.93075000  0.37047000  0.54640000  1.0 0.6644052833
Co  Co2  1  0.25306000  0.69374000  0.04590000  1.0 0.7842451601
Co  Co3  1  0.62953000  0.06925000  0.04640000  1.0 0.6644052833
Co  Co4  1  0.30626000  0.74694000  0.54590000  1.0 0.7842451601
H  H1  1  0.12500000  0.45880000  0.38690000  1.0 0.1401604641
H  H2  1  0.18470000  0.67450000  0.31660000  1.0 0.1306160851
H  H3  1  0.35850000  0.47790000  0.01320000  1.0 0.1212731371
H  H4  1  0.40700000  0.31520000  0.03680000  1.0 0.0992361891
H  H5  1  0.36290000  0.26030000  0.20840000  1.0 0.1119061991
H  H6  1  0.26420000  0.36780000  0.35590000  1.0 0.1212731371
H  H7  1  0.18660000  0.63040000  0.55950000  1.0 0.1472159519
H  H8  1  0.23760000  0.62400000  0.77880000  1.0 0.1306160851
H  H9  1  0.03660000  0.75760000  0.00640000  1.0 0.1212731371
H  H10  1  0.97180000  0.71360000  0.80690000  1.0 0.1212731371
H  H11  1  0.03000000  0.55340000  0.72540000  1.0 0.1401604641
H  H12  1  0.53660000  0.52260000  0.83200000  1.0 0.1401604641
H  H13  1  0.81900000  0.46340000  0.80230000  1.0 0.1119061991
H  H14  1  0.73240000  0.37780000  0.51700000  1.0 0.1212731371
H  H15  1  0.62030000  0.41830000  0.68860000  1.0 0.1212731371
H  H16  1  0.78350000  0.45890000  0.01150000  1.0 0.1306160851
H  H17  1  0.54710000  0.59350000  0.19490000  1.0 0.1472159519
H  H18  1  0.82410000  0.38750000  0.27650000  1.0 0.0992361891
H  H19  1  0.86210000  0.60610000  0.50130000  1.0 0.1212731371
H  H20  1  0.74780000  0.76820000  0.45340000  1.0 0.0992361891
H  H21  1  0.66520000  0.79660000  0.23560000  1.0 0.0992361891
H  H22  1  0.56660000  0.71860000  0.27870000  1.0 0.1306160851
H  H23  1  0.15560000  0.99260000  0.89900000  1.0 0.1401604641
H  H24  1  0.95210000  0.25850000  0.81870000  1.0 0.0992361891
H  H25  1  0.16200000  0.24160000  0.52860000  1.0 0.1306160851
H  H26  1  0.31620000  0.10380000  0.54120000  1.0 0.0992361891
H  H27  1  0.36020000  0.00500000  0.73830000  1.0 0.0992361891
H  H28  1  0.28470000  0.10570000  0.93140000  1.0 0.1119061991
H  H29  1  0.01860000  0.21940000  0.09460000  1.0 0.1306160851
H  H30  1  0.99800000  0.27500000  0.28450000  1.0 0.1119061991
H  H31  1  0.90720000  0.18840000  0.56130000  1.0 0.1212731371
H  H32  1  0.99410000  0.05690000  0.42580000  1.0 0.1401604641
H  H33  1  0.09690000  0.96670000  0.25780000  1.0 0.1306160851
H  H34  1  0.54120000  0.87500000  0.88690000  1.0 0.1401604641
H  H35  1  0.32550000  0.81530000  0.81660000  1.0 0.1306160851
H  H36  1  0.52210000  0.64150000  0.51320000  1.0 0.1212731371
H  H37  1  0.68480000  0.59300000  0.53680000  1.0 0.0992361891
H  H38  1  0.73970000  0.63710000  0.70840000  1.0 0.1119061991
H  H39  1  0.63220000  0.73580000  0.85590000  1.0 0.1212731371
H  H40  1  0.36960000  0.81340000  0.05950000  1.0 0.1472159519
H  H41  1  0.37600000  0.76240000  0.27880000  1.0 0.1306160851
H  H42  1  0.24240000  0.96340000  0.50640000  1.0 0.1212731371
H  H43  1  0.28640000  0.02820000  0.30690000  1.0 0.1212731371
H  H44  1  0.44660000  0.97000000  0.22540000  1.0 0.1401604641
H  H45  1  0.47740000  0.46340000  0.33200000  1.0 0.1401604641
H  H46  1  0.53660000  0.18100000  0.30230000  1.0 0.1119061991
H  H47  1  0.62220000  0.26760000  0.01700000  1.0 0.1212731371
H  H48  1  0.58170000  0.37970000  0.18860000  1.0 0.1212731371
H  H49  1  0.54110000  0.21650000  0.51150000  1.0 0.1306160851
H  H50  1  0.40650000  0.45290000  0.69490000  1.0 0.1472159519
H  H51  1  0.61250000  0.17590000  0.77650000  1.0 0.0992361891
H  H52  1  0.39390000  0.13790000  0.00130000  1.0 0.1212731371
H  H53  1  0.23180000  0.25220000  0.95340000  1.0 0.0992361891
H  H54  1  0.20340000  0.33480000  0.73560000  1.0 0.0992361891
H  H55  1  0.28140000  0.43340000  0.77870000  1.0 0.1306160851
H  H56  1  0.00740000  0.84440000  0.39900000  1.0 0.1401604641
H  H57  1  0.74150000  0.04790000  0.31870000  1.0 0.0992361891
H  H58  1  0.75840000  0.83800000  0.02860000  1.0 0.1306160851
H  H59  1  0.89620000  0.68380000  0.04120000  1.0 0.0992361891
H  H60  1  0.99500000  0.63980000  0.23830000  1.0 0.0992361891
H  H61  1  0.89430000  0.71530000  0.43140000  1.0 0.1119061991
H  H62  1  0.78060000  0.98140000  0.59460000  1.0 0.1306160851
H  H63  1  0.72500000  0.00200000  0.78450000  1.0 0.1119061991
H  H64  1  0.81160000  0.09280000  0.06130000  1.0 0.1212731371
H  H65  1  0.94310000  0.00590000  0.92580000  1.0 0.1306160851
H  H66  1  0.03330000  0.90310000  0.75780000  1.0 0.1306160851
C  C1  1  0.02100000  0.44820000  0.54200000  1.0 0.504027602
C  C2  1  0.06550000  0.50410000  0.54000000  1.0 0.0329828369
C  C3  1  0.11660000  0.49780000  0.45160000  1.0 -0.1787627742
C  C4  1  0.16350000  0.54910000  0.44640000  1.0 0.1891111068
C  C5  1  0.21170000  0.61650000  0.28330000  1.0 0.176479452
C  C6  1  0.28530000  0.50290000  0.16700000  1.0 0.1119061991
C  C7  1  0.34040000  0.45340000  0.07860000  1.0 -0.1886086569
C  C8  1  0.36940000  0.35620000  0.09600000  1.0 -0.1085299982
C  C9  1  0.34240000  0.32320000  0.19800000  1.0 -0.1085299982
C  C10  1  0.28430000  0.38510000  0.28480000  1.0 -0.1541659267
C  C11  1  0.26210000  0.46890000  0.25400000  1.0 0.040329688
C  C12  1  0.15620000  0.59880000  0.55400000  1.0 -0.2662686587
C  C13  1  0.10380000  0.60040000  0.65340000  1.0 0.176479452
C  C14  1  0.17940000  0.65220000  0.81140000  1.0 0.0806988
C  C15  1  0.06880000  0.72720000  0.93650000  1.0 -0.0406787932
C  C16  1  0.03250000  0.69890000  0.82390000  1.0 -0.0562427496
C  C17  1  0.06130000  0.55430000  0.65500000  1.0 -0.210994351
C  C18  1  0.42280000  0.60800000  0.02480000  1.0 0.5219178169
C  C19  1  0.52760000  0.56740000  0.01650000  1.0 0.0329828369
C  C20  1  0.57180000  0.52360000  0.90220000  1.0 -0.210994351
C  C21  1  0.66090000  0.48570000  0.89890000  1.0 0.1654139429
C  C22  1  0.78920000  0.44080000  0.75400000  1.0 0.0806988
C  C23  1  0.73890000  0.39510000  0.59830000  1.0 -0.0673467249
C  C24  1  0.67420000  0.41940000  0.69170000  1.0 -0.0562427496
C  C25  1  0.71940000  0.48640000  0.01210000  1.0 -0.2985987098
C  C26  1  0.67180000  0.53040000  0.11610000  1.0 0.1891111068
C  C27  1  0.57640000  0.56820000  0.12080000  1.0 -0.210994351
C  C28  1  0.80140000  0.44780000  0.29870000  1.0 0.0992361891
C  C29  1  0.79610000  0.56610000  0.37300000  1.0 0.1401604641
C  C30  1  0.81180000  0.62780000  0.43980000  1.0 -0.1443034143
C  C31  1  0.74730000  0.72310000  0.40700000  1.0 -0.1283060641
C  C32  1  0.67850000  0.74870000  0.29700000  1.0 -0.1085299982
C  C33  1  0.62950000  0.69790000  0.28350000  1.0 -0.238504018
C  C34  1  0.71350000  0.60570000  0.28000000  1.0 0.1306160851
C  C35  1  0.17450000  0.86330000  0.06690000  1.0 0.5319173902
C  C36  1  0.12690000  0.96490000  0.08030000  1.0 0.0156713247
C  C37  1  0.12760000  0.01960000  0.97310000  1.0 -0.2240295441
C  C38  1  0.08450000  0.11550000  0.98340000  1.0 0.1472159519
C  C39  1  0.01340000  0.23560000  0.80070000  1.0 0.1472159519
C  C40  1  0.13180000  0.20120000  0.68700000  1.0 0.1212731371
C  C41  1  0.18480000  0.19600000  0.59750000  1.0 -0.1574288041
C  C42  1  0.27770000  0.11910000  0.60800000  1.0 -0.1541659267
C  C43  1  0.30850000  0.06610000  0.73170000  1.0 -0.1173618169
C  C44  1  0.25990000  0.10590000  0.84970000  1.0 -0.2011713714
C  C45  1  0.16630000  0.14410000  0.80400000  1.0 0.0557192645
C  C46  1  0.04910000  0.15510000  0.09240000  1.0 -0.238504018
C  C47  1  0.05710000  0.10430000  0.19400000  1.0 0.1593202098
C  C48  1  0.98990000  0.23470000  0.33720000  1.0 0.0661960213
C  C49  1  0.94030000  0.18650000  0.49180000  1.0 -0.0406787932
C  C50  1  0.98470000  0.11570000  0.41260000  1.0 -0.1085299982
C  C51  1  0.09550000  0.00250000  0.18660000  1.0 -0.1787627742
C  C52  1  0.55180000  0.97900000  0.04200000  1.0 0.504027602
C  C53  1  0.49590000  0.93450000  0.04000000  1.0 0.040329688
C  C54  1  0.50220000  0.88340000  0.95160000  1.0 -0.1787627742
C  C55  1  0.45090000  0.83650000  0.94640000  1.0 0.1891111068
C  C56  1  0.38350000  0.78830000  0.78330000  1.0 0.176479452
C  C57  1  0.49710000  0.71470000  0.66700000  1.0 0.1119061991
C  C58  1  0.54660000  0.65960000  0.57860000  1.0 -0.1886086569
C  C59  1  0.64380000  0.63060000  0.59600000  1.0 -0.1085299982
C  C60  1  0.67680000  0.65760000  0.69800000  1.0 -0.1085299982
C  C61  1  0.61490000  0.71570000  0.78480000  1.0 -0.1541659267
C  C62  1  0.53110000  0.73790000  0.75400000  1.0 0.040329688
C  C63  1  0.40120000  0.84380000  0.05400000  1.0 -0.2662686587
C  C64  1  0.39960000  0.89620000  0.15340000  1.0 0.176479452
C  C65  1  0.34780000  0.82060000  0.31140000  1.0 0.0806988
C  C66  1  0.27280000  0.93120000  0.43650000  1.0 -0.0406787932
C  C67  1  0.30110000  0.96750000  0.32390000  1.0 -0.0562427496
C  C68  1  0.44570000  0.93870000  0.15500000  1.0 -0.210994351
C  C69  1  0.39200000  0.57720000  0.52480000  1.0 0.5219178169
C  C70  1  0.43260000  0.47240000  0.51650000  1.0 0.0329828369
C  C71  1  0.47640000  0.42820000  0.40220000  1.0 -0.210994351
C  C72  1  0.51430000  0.33910000  0.39890000  1.0 0.1654139429
C  C73  1  0.55920000  0.21080000  0.25400000  1.0 0.0806988
C  C74  1  0.60490000  0.26110000  0.09830000  1.0 -0.0673467249
C  C75  1  0.58060000  0.32580000  0.19170000  1.0 -0.0491244107
C  C76  1  0.51360000  0.28060000  0.51210000  1.0 -0.2985987098
C  C77  1  0.46960000  0.32820000  0.61610000  1.0 0.1891111068
C  C78  1  0.43180000  0.42360000  0.62080000  1.0 -0.210994351
C  C79  1  0.55220000  0.19860000  0.79870000  1.0 0.0992361891
C  C80  1  0.43390000  0.20390000  0.87300000  1.0 0.1401604641
C  C81  1  0.37220000  0.18820000  0.93980000  1.0 -0.1443034143
C  C82  1  0.27690000  0.25270000  0.90700000  1.0 -0.1283060641
C  C83  1  0.25130000  0.32150000  0.79700000  1.0 -0.1085299982
C  C84  1  0.30210000  0.37050000  0.78350000  1.0 -0.238504018
C  C85  1  0.39430000  0.28650000  0.78000000  1.0 0.1306160851
C  C86  1  0.13670000  0.82550000  0.56690000  1.0 0.5319173902
C  C87  1  0.03510000  0.87310000  0.58030000  1.0 0.0156713247
C  C88  1  0.98040000  0.87240000  0.47310000  1.0 -0.2240295441
C  C89  1  0.88450000  0.91550000  0.48340000  1.0 0.1472159519
C  C90  1  0.76440000  0.98660000  0.30070000  1.0 0.1472159519
C  C91  1  0.79880000  0.86820000  0.18700000  1.0 0.1212731371
C  C92  1  0.80400000  0.81520000  0.09750000  1.0 -0.1574288041
C  C93  1  0.88090000  0.72230000  0.10800000  1.0 -0.1541659267
C  C94  1  0.93390000  0.69150000  0.23170000  1.0 -0.1173618169
C  C95  1  0.89410000  0.74010000  0.34970000  1.0 -0.2011713714
C  C96  1  0.85590000  0.83370000  0.30400000  1.0 0.0557192645
C  C97  1  0.84490000  0.95090000  0.59240000  1.0 -0.238504018
C  C98  1  0.89570000  0.94290000  0.69400000  1.0 0.1593202098
C  C99  1  0.76530000  0.01010000  0.83720000  1.0 0.0661960213
C  C100  1  0.81350000  0.05970000  0.99180000  1.0 -0.0406787932
C  C101  1  0.88430000  0.01530000  0.91260000  1.0 -0.1085299982
C  C102  1  0.99750000  0.90450000  0.68660000  1.0 -0.1787627742
N  N1  1  0.95500000  0.25360000  0.44700000  1.0 -0.2662686587
N  N2  1  0.01410000  0.14630000  0.30800000  1.0 -0.0063511783
N  N3  1  0.08360000  0.17060000  0.86950000  1.0 -0.0406787932
N  N4  1  0.03560000  0.26780000  0.70030000  1.0 -0.3488220454
N  N5  1  0.83580000  0.46740000  0.39580000  1.0 -0.3349888951
N  N6  1  0.72060000  0.53380000  0.22600000  1.0 -0.0773922981
N  N7  1  0.21160000  0.54780000  0.33750000  1.0 -0.0491244107
N  N8  1  0.25350000  0.59710000  0.17660000  1.0 -0.3367203654
N  N9  1  0.10370000  0.64910000  0.75490000  1.0 0.006346279
N  N10  1  0.15820000  0.69900000  0.91460000  1.0 -0.2766431303
N  N11  1  0.71000000  0.44420000  0.78560000  1.0 0.006346279
N  N12  1  0.81700000  0.40040000  0.64450000  1.0 -0.2939862043
N  N13  1  0.74640000  0.04500000  0.94700000  1.0 -0.2662686587
N  N14  1  0.85370000  0.98590000  0.80800000  1.0 -0.0063511783
N  N15  1  0.82940000  0.91640000  0.36950000  1.0 -0.0491244107
N  N16  1  0.73220000  0.96440000  0.20030000  1.0 -0.3488220454
N  N17  1  0.53260000  0.16420000  0.89580000  1.0 -0.3349888951
N  N18  1  0.46620000  0.27940000  0.72600000  1.0 -0.0773922981
N  N19  1  0.45220000  0.78840000  0.83750000  1.0 -0.0491244107
N  N20  1  0.40290000  0.74650000  0.67660000  1.0 -0.3367203654
N  N21  1  0.35090000  0.89630000  0.25490000  1.0 0.006346279
N  N22  1  0.30100000  0.84180000  0.41460000  1.0 -0.2766431303
N  N23  1  0.55580000  0.29000000  0.28560000  1.0 0.006346279
N  N24  1  0.59960000  0.18300000  0.14450000  1.0 -0.2939862043
O  O1  1  0.95660000  0.47120000  0.63700000  1.0 -0.6278299422
O  O2  1  0.02740000  0.40040000  0.46420000  1.0 -0.4318662316
O  O3  1  0.37580000  0.59920000  0.94060000  1.0 -0.5055987269
O  O4  1  0.38420000  0.66480000  0.10910000  1.0 -0.5212172896
O  O5  1  0.15630000  0.81630000  0.14650000  1.0 -0.5504780145
O  O6  1  0.22170000  0.82710000  0.97230000  1.0 -0.5330707461
O  O7  1  0.52880000  0.04340000  0.13700000  1.0 -0.6278299422
O  O8  1  0.59960000  0.97260000  0.96420000  1.0 -0.4318662316
O  O9  1  0.40080000  0.62420000  0.44060000  1.0 -0.5055987269
O  O10  1  0.33520000  0.61580000  0.60910000  1.0 -0.5212172896
O  O11  1  0.18370000  0.84370000  0.64650000  1.0 -0.5504780145
O  O12  1  0.17290000  0.77830000  0.47230000  1.0 -0.5330707461
