# DDEC6 charges by PACMAN v1.1 (https://github.com/mtap-research/PACMAN-charge/)
data_GOYRUK_ASR_pacman
_symmetry_space_group_name_H-M   'P 1'
_cell_length_a   14.27810000
_cell_length_b   14.27810000
_cell_length_c   20.95890000
_cell_angle_alpha   88.70550000
_cell_angle_beta   91.29450000
_cell_angle_gamma   59.58560000
_symmetry_Int_Tables_number   1
_chemical_formula_structural   Pr2H30C50SN12O13
_chemical_formula_sum   'Pr4 H60 C100 S2 N24 O26'
_cell_volume   3680.96659474
_cell_formula_units_Z   2
loop_
 _symmetry_equiv_pos_site_id
 _symmetry_equiv_pos_as_xyz
  1  'x, y, z'
loop_
 _atom_site_type_symbol
 _atom_site_label
 _atom_site_symmetry_multiplicity
 _atom_site_fract_x
 _atom_site_fract_y
 _atom_site_fract_z
 _atom_site_occupancy
 _atom_site_charge
Pr  Pr1  1  0.08544000  0.05372000  0.08904000  1.0 2.0552231457
Pr  Pr2  1  0.89514000  0.23412000  0.94117000  1.0 2.0416056301
Pr  Pr3  1  0.94628000  0.91456000  0.58904000  1.0 2.0552231457
Pr  Pr4  1  0.76588000  0.10486000  0.44117000  1.0 2.0416056301
H  H1  1  0.80301000  0.94087000  0.06905000  1.0 0.1392441224
H  H2  1  0.66458000  0.26704000  0.07098000  1.0 0.1218988869
H  H3  1  0.49540000  0.28202000  0.08387000  1.0 0.1126696644
H  H4  1  0.47887000  0.13001000  0.08140000  1.0 0.1218988869
H  H5  1  0.60048000  0.46056000  0.01898000  1.0 0.1392441224
H  H6  1  0.43058000  0.47920000  0.01995000  1.0 0.1126696644
H  H7  1  0.28056000  0.64336000  0.04143000  1.0 0.1126696644
H  H8  1  0.47079000  0.77353000  0.06304000  1.0 0.1314171079
H  H9  1  0.15985000  0.56429000  0.05038000  1.0 0.1314171079
H  H10  1  0.30376000  0.39608000  0.03002000  1.0 0.1126696644
H  H11  1  0.28069000  0.25145000  0.01797000  1.0 0.1218988869
H  H12  1  0.96286000  0.44052000  0.05191000  1.0 0.1392441224
H  H13  1  0.81074000  0.83306000  0.88530000  1.0 0.1218988869
H  H14  1  0.66292000  0.80854000  0.88943000  1.0 0.1126696644
H  H15  1  0.68387000  0.64181000  0.90391000  1.0 0.1218988869
H  H16  1  0.00868000  0.50878000  0.90536000  1.0 0.1314171079
H  H17  1  0.48733000  0.71505000  0.87248000  1.0 0.1218988869
H  H18  1  0.46590000  0.88650000  0.87849000  1.0 0.1126696644
H  H19  1  0.30349000  0.03287000  0.90121000  1.0 0.1218988869
H  H20  1  0.17996000  0.83260000  0.92481000  1.0 0.1392441224
H  H21  1  0.37821000  0.15089000  0.89306000  1.0 0.1314171079
H  H22  1  0.54780000  0.00676000  0.91517000  1.0 0.1126696644
H  H23  1  0.69730000  0.02404000  0.92352000  1.0 0.1218988869
H  H24  1  0.50451000  0.34865000  0.89550000  1.0 0.1392441224
H  H25  1  0.55186000  0.95158000  0.07496000  1.0 0.2902989622
H  H26  1  0.70831000  0.52993000  0.03342000  1.0 0.3003012698
H  H27  1  0.98475000  0.67269000  0.07481000  1.0 0.3003012698
H  H28  1  0.99349000  0.76075000  0.89703000  1.0 0.3003012698
H  H29  1  0.26921000  0.33311000  0.86802000  1.0 0.3003012698
H  H30  1  0.42216000  0.60294000  0.88541000  1.0 0.2902989622
H  H31  1  0.05913000  0.19699000  0.56905000  1.0 0.1392441224
H  H32  1  0.73296000  0.33542000  0.57098000  1.0 0.1218988869
H  H33  1  0.71798000  0.50460000  0.58387000  1.0 0.1126696644
H  H34  1  0.86999000  0.52113000  0.58140000  1.0 0.1218988869
H  H35  1  0.53944000  0.39952000  0.51898000  1.0 0.1392441224
H  H36  1  0.52080000  0.56942000  0.51995000  1.0 0.1126696644
H  H37  1  0.35664000  0.71944000  0.54143000  1.0 0.1126696644
H  H38  1  0.22647000  0.52921000  0.56304000  1.0 0.1314171079
H  H39  1  0.43571000  0.84015000  0.55038000  1.0 0.1314171079
H  H40  1  0.60392000  0.69624000  0.53002000  1.0 0.1126696644
H  H41  1  0.74855000  0.71931000  0.51797000  1.0 0.1218988869
H  H42  1  0.55948000  0.03714000  0.55191000  1.0 0.1392441224
H  H43  1  0.16694000  0.18926000  0.38530000  1.0 0.1218988869
H  H44  1  0.19146000  0.33708000  0.38943000  1.0 0.1126696644
H  H45  1  0.35819000  0.31613000  0.40391000  1.0 0.1218988869
H  H46  1  0.49122000  0.99132000  0.40536000  1.0 0.1314171079
H  H47  1  0.28495000  0.51267000  0.37248000  1.0 0.1218988869
H  H48  1  0.11350000  0.53410000  0.37849000  1.0 0.1126696644
H  H49  1  0.96713000  0.69651000  0.40121000  1.0 0.1218988869
H  H50  1  0.16740000  0.82004000  0.42481000  1.0 0.1392441224
H  H51  1  0.84911000  0.62179000  0.39306000  1.0 0.1314171079
H  H52  1  0.99324000  0.45220000  0.41517000  1.0 0.1126696644
H  H53  1  0.97596000  0.30270000  0.42352000  1.0 0.1218988869
H  H54  1  0.65135000  0.49549000  0.39550000  1.0 0.1392441224
H  H55  1  0.04842000  0.44814000  0.57496000  1.0 0.2902989622
H  H56  1  0.47007000  0.29169000  0.53342000  1.0 0.3003012698
H  H57  1  0.32731000  0.01525000  0.57481000  1.0 0.3003012698
H  H58  1  0.23925000  0.00651000  0.39703000  1.0 0.3003012698
H  H59  1  0.66689000  0.73079000  0.36802000  1.0 0.3003012698
H  H60  1  0.39706000  0.57784000  0.38541000  1.0 0.2902989622
C  C1  1  0.70090000  0.66110000  0.05500000  1.0 0.5281405236
C  C2  1  0.85190000  0.67270000  0.06370000  1.0 0.5281405236
C  C3  1  0.68890000  0.82270000  0.06780000  1.0 0.5281405236
C  C4  1  0.63960000  0.01980000  0.07500000  1.0 0.2397417847
C  C5  1  0.74130000  0.00930000  0.07110000  1.0 -0.1811095502
C  C6  1  0.75050000  0.10250000  0.07040000  1.0 -0.0172832626
C  C7  1  0.65860000  0.20520000  0.07320000  1.0 -0.1211406006
C  C8  1  0.55680000  0.21400000  0.07940000  1.0 -0.080999795
C  C9  1  0.54710000  0.12310000  0.07900000  1.0 -0.1986585528
C  C10  1  0.85930000  0.08970000  0.06760000  1.0 0.5983100917
C  C11  1  0.55390000  0.61490000  0.04280000  1.0 0.2397417847
C  C12  1  0.54060000  0.52680000  0.02860000  1.0 -0.1811095502
C  C13  1  0.43870000  0.53830000  0.02890000  1.0 -0.0936429564
C  C14  1  0.34930000  0.63570000  0.04220000  1.0 -0.1211406006
C  C15  1  0.36250000  0.72250000  0.05680000  1.0 -0.0108434556
C  C16  1  0.46370000  0.71350000  0.05540000  1.0 -0.1811095502
C  C17  1  0.26740000  0.83000000  0.06750000  1.0 0.5650091555
C  C18  1  0.04620000  0.52060000  0.05290000  1.0 0.2397417847
C  C19  1  0.14890000  0.50570000  0.04640000  1.0 -0.1921947612
C  C20  1  0.23500000  0.40500000  0.03390000  1.0 -0.080999795
C  C21  1  0.22160000  0.31860000  0.02720000  1.0 -0.1346145187
C  C22  1  0.12030000  0.32970000  0.03420000  1.0 0.0173114009
C  C23  1  0.03130000  0.43210000  0.04720000  1.0 -0.1811095502
C  C24  1  0.10330000  0.23310000  0.02800000  1.0 0.5754545118
C  C25  1  0.27240000  0.46260000  0.88380000  1.0 0.5208606805
C  C26  1  0.28530000  0.61230000  0.88920000  1.0 0.5208606805
C  C27  1  0.12260000  0.62500000  0.88920000  1.0 0.5208606805
C  C28  1  0.92730000  0.67390000  0.89460000  1.0 0.2482101705
C  C29  1  0.82170000  0.76330000  0.89030000  1.0 -0.1986585528
C  C30  1  0.73260000  0.74820000  0.89340000  1.0 -0.080999795
C  C31  1  0.74470000  0.64950000  0.90180000  1.0 -0.1367067535
C  C32  1  0.84810000  0.55870000  0.90750000  1.0 0.0173114009
C  C33  1  0.93950000  0.57010000  0.90290000  1.0 -0.1921947612
C  C34  1  0.86780000  0.44520000  0.92140000  1.0 0.5616449501
C  C35  1  0.33400000  0.75880000  0.89440000  1.0 0.2300895538
C  C36  1  0.42050000  0.77370000  0.88270000  1.0 -0.1921947612
C  C37  1  0.40720000  0.87720000  0.88630000  1.0 -0.080999795
C  C38  1  0.31160000  0.96400000  0.90090000  1.0 -0.1066863898
C  C39  1  0.22380000  0.94940000  0.91570000  1.0 0.0106521399
C  C40  1  0.23620000  0.84400000  0.91360000  1.0 -0.1694989193
C  C41  1  0.11650000  0.04250000  0.92770000  1.0 0.5983100917
C  C42  1  0.42230000  0.26810000  0.89290000  1.0 0.2397417847
C  C43  1  0.43710000  0.16150000  0.89810000  1.0 -0.1986585528
C  C44  1  0.53910000  0.07570000  0.91060000  1.0 -0.080999795
C  C45  1  0.62850000  0.08510000  0.91670000  1.0 -0.1211406006
C  C46  1  0.61450000  0.18890000  0.91260000  1.0 0.0173114009
C  C47  1  0.51230000  0.28010000  0.89960000  1.0 -0.1986585528
C  C48  1  0.71210000  0.20210000  0.92170000  1.0 0.5616449501
C  C49  1  0.08180000  0.81980000  0.25670000  1.0 -0.513069338
C  C50  1  0.06750000  0.99750000  0.30670000  1.0 -0.4604761962
C  C51  1  0.33890000  0.29910000  0.55500000  1.0 0.5281405236
C  C52  1  0.32730000  0.14810000  0.56370000  1.0 0.5281405236
C  C53  1  0.17730000  0.31110000  0.56780000  1.0 0.5281405236
C  C54  1  0.98020000  0.36040000  0.57500000  1.0 0.2397417847
C  C55  1  0.99070000  0.25870000  0.57110000  1.0 -0.1811095502
C  C56  1  0.89750000  0.24950000  0.57040000  1.0 -0.0172832626
C  C57  1  0.79480000  0.34140000  0.57320000  1.0 -0.1211406006
C  C58  1  0.78600000  0.44320000  0.57940000  1.0 -0.080999795
C  C59  1  0.87690000  0.45290000  0.57900000  1.0 -0.1986585528
C  C60  1  0.91030000  0.14070000  0.56760000  1.0 0.5983100917
C  C61  1  0.38510000  0.44610000  0.54280000  1.0 0.2397417847
C  C62  1  0.47320000  0.45940000  0.52860000  1.0 -0.1811095502
C  C63  1  0.46170000  0.56130000  0.52890000  1.0 -0.0936429564
C  C64  1  0.36430000  0.65070000  0.54220000  1.0 -0.1211406006
C  C65  1  0.27750000  0.63750000  0.55680000  1.0 -0.0108434556
C  C66  1  0.28650000  0.53630000  0.55540000  1.0 -0.1811095502
C  C67  1  0.17000000  0.73260000  0.56750000  1.0 0.5650091555
C  C68  1  0.47940000  0.95380000  0.55290000  1.0 0.2397417847
C  C69  1  0.49430000  0.85110000  0.54640000  1.0 -0.1921947612
C  C70  1  0.59500000  0.76500000  0.53390000  1.0 -0.080999795
C  C71  1  0.68140000  0.77840000  0.52720000  1.0 -0.1346145187
C  C72  1  0.67030000  0.87970000  0.53420000  1.0 0.0173114009
C  C73  1  0.56790000  0.96870000  0.54720000  1.0 -0.1811095502
C  C74  1  0.76690000  0.89670000  0.52800000  1.0 0.5754545118
C  C75  1  0.53740000  0.72760000  0.38380000  1.0 0.5208606805
C  C76  1  0.38770000  0.71470000  0.38920000  1.0 0.5208606805
C  C77  1  0.37500000  0.87740000  0.38920000  1.0 0.5208606805
C  C78  1  0.32610000  0.07270000  0.39460000  1.0 0.2482101705
C  C79  1  0.23670000  0.17830000  0.39030000  1.0 -0.1986585528
C  C80  1  0.25180000  0.26740000  0.39340000  1.0 -0.080999795
C  C81  1  0.35050000  0.25530000  0.40180000  1.0 -0.1367067535
C  C82  1  0.44130000  0.15190000  0.40750000  1.0 0.0173114009
C  C83  1  0.42990000  0.06050000  0.40290000  1.0 -0.1921947612
C  C84  1  0.55480000  0.13220000  0.42140000  1.0 0.5616449501
C  C85  1  0.24120000  0.66600000  0.39440000  1.0 0.2300895538
C  C86  1  0.22630000  0.57950000  0.38270000  1.0 -0.1921947612
C  C87  1  0.12280000  0.59280000  0.38630000  1.0 -0.080999795
C  C88  1  0.03600000  0.68840000  0.40090000  1.0 -0.1066863898
C  C89  1  0.05060000  0.77620000  0.41570000  1.0 0.0106521399
C  C90  1  0.15600000  0.76380000  0.41360000  1.0 -0.1694989193
C  C91  1  0.95750000  0.88350000  0.42770000  1.0 0.5983100917
C  C92  1  0.73190000  0.57770000  0.39290000  1.0 0.2397417847
C  C93  1  0.83850000  0.56290000  0.39810000  1.0 -0.1986585528
C  C94  1  0.92430000  0.46090000  0.41060000  1.0 -0.080999795
C  C95  1  0.91490000  0.37150000  0.41670000  1.0 -0.1211406006
C  C96  1  0.81110000  0.38550000  0.41260000  1.0 0.0173114009
C  C97  1  0.71990000  0.48770000  0.39960000  1.0 -0.1986585528
C  C98  1  0.79790000  0.28790000  0.42170000  1.0 0.5616449501
C  C99  1  0.18020000  0.91820000  0.75670000  1.0 -0.513069338
C  C100  1  0.00250000  0.93250000  0.80670000  1.0 -0.4604761962
S  S1  1  0.04290000  0.94830000  0.23170000  1.0 1.018371978
S  S2  1  0.05170000  0.95710000  0.73170000  1.0 1.018371978
N  N1  1  0.63400000  0.76740000  0.06240000  1.0 -0.5436706756
N  N2  1  0.81070000  0.60810000  0.05630000  1.0 -0.513069338
N  N3  1  0.79300000  0.78280000  0.07050000  1.0 -0.5289772366
N  N4  1  0.61920000  0.93260000  0.07280000  1.0 -0.3708829794
N  N5  1  0.66040000  0.59500000  0.04280000  1.0 -0.3473639999
N  N6  1  0.96250000  0.62870000  0.06520000  1.0 -0.3609631572
N  N7  1  0.17640000  0.67780000  0.89400000  1.0 -0.5024168257
N  N8  1  0.16060000  0.52000000  0.88170000  1.0 -0.5289772366
N  N9  1  0.33770000  0.50110000  0.88550000  1.0 -0.5240413759
N  N10  1  0.01270000  0.69350000  0.89390000  1.0 -0.3339056585
N  N11  1  0.31450000  0.35290000  0.87990000  1.0 -0.3609631572
N  N12  1  0.35490000  0.65130000  0.88920000  1.0 -0.343542925
N  N13  1  0.23260000  0.36600000  0.56240000  1.0 -0.5436706756
N  N14  1  0.39190000  0.18930000  0.55630000  1.0 -0.513069338
N  N15  1  0.21720000  0.20700000  0.57050000  1.0 -0.5289772366
N  N16  1  0.06740000  0.38080000  0.57280000  1.0 -0.3708829794
N  N17  1  0.40500000  0.33960000  0.54280000  1.0 -0.3473639999
N  N18  1  0.37130000  0.03750000  0.56520000  1.0 -0.3609631572
N  N19  1  0.32220000  0.82360000  0.39400000  1.0 -0.5024168257
N  N20  1  0.48000000  0.83940000  0.38170000  1.0 -0.5289772366
N  N21  1  0.49890000  0.66230000  0.38550000  1.0 -0.5240413759
N  N22  1  0.30650000  0.98730000  0.39390000  1.0 -0.3339056585
N  N23  1  0.64710000  0.68550000  0.37990000  1.0 -0.3609631572
N  N24  1  0.34870000  0.64510000  0.38920000  1.0 -0.343542925
O  O1  1  0.86930000  0.16930000  0.04560000  1.0 -0.7309449528
O  O2  1  0.94110000  0.00290000  0.08720000  1.0 -0.5889794443
O  O3  1  0.18350000  0.14110000  0.02340000  1.0 -0.5749338482
O  O4  1  0.00750000  0.24890000  0.03230000  1.0 -0.7082873795
O  O5  1  0.17010000  0.84670000  0.06400000  1.0 -0.5889794443
O  O6  1  0.27960000  0.90960000  0.08110000  1.0 -0.6087802563
O  O7  1  0.79640000  0.43460000  0.95110000  1.0 -0.644887111
O  O8  1  0.95230000  0.36610000  0.90280000  1.0 -0.5799955342
O  O9  1  0.05740000  0.04000000  0.96970000  1.0 -0.6554706011
O  O10  1  0.07940000  0.12900000  0.89190000  1.0 -0.5990148399
O  O11  1  0.69690000  0.29550000  0.93290000  1.0 -0.6325123225
O  O12  1  0.80700000  0.12080000  0.91850000  1.0 -0.6087802563
O  O13  1  0.12740000  0.94620000  0.18780000  1.0 -0.7023575221
O  O14  1  0.83070000  0.13070000  0.54560000  1.0 -0.7309449528
O  O15  1  0.99710000  0.05890000  0.58720000  1.0 -0.5889794443
O  O16  1  0.85890000  0.81650000  0.52340000  1.0 -0.5749338482
O  O17  1  0.75110000  0.99250000  0.53230000  1.0 -0.7082873795
O  O18  1  0.15330000  0.82990000  0.56400000  1.0 -0.5889794443
O  O19  1  0.09040000  0.72040000  0.58110000  1.0 -0.6087802563
O  O20  1  0.56540000  0.20360000  0.45110000  1.0 -0.6456966613
O  O21  1  0.63390000  0.04770000  0.40280000  1.0 -0.5799955342
O  O22  1  0.96000000  0.94260000  0.46970000  1.0 -0.6554706011
O  O23  1  0.87100000  0.92060000  0.39190000  1.0 -0.5990148399
O  O24  1  0.70450000  0.30310000  0.43290000  1.0 -0.6325123225
O  O25  1  0.87920000  0.19300000  0.41850000  1.0 -0.6087802563
O  O26  1  0.05380000  0.87260000  0.68780000  1.0 -0.7023575221
