# DDEC6 charges by PACMAN v1.1 (https://github.com/mtap-research/PACMAN-charge/)
data_GOYSEV_FSR_pacman
_symmetry_space_group_name_H-M   'P 1'
_cell_length_a   14.27370000
_cell_length_b   14.27370000
_cell_length_c   20.99240000
_cell_angle_alpha   87.44510000
_cell_angle_beta   92.55490000
_cell_angle_gamma   59.90820000
_symmetry_Int_Tables_number   1
_chemical_formula_structural   Ce2H33C57S4(N3O4)4
_chemical_formula_sum   'Ce4 H66 C114 S8 N24 O32'
_cell_volume   3685.74838071
_cell_formula_units_Z   2
loop_
 _symmetry_equiv_pos_site_id
 _symmetry_equiv_pos_as_xyz
  1  'x, y, z'
loop_
 _atom_site_type_symbol
 _atom_site_label
 _atom_site_symmetry_multiplicity
 _atom_site_fract_x
 _atom_site_fract_y
 _atom_site_fract_z
 _atom_site_occupancy
 _atom_site_charge
Ce  Ce1  1  0.26043000  0.89643000  0.18956000  1.0 1.9533040266
Ce  Ce2  1  0.10539000  0.06229000  0.33708000  1.0 1.9533040266
Ce  Ce3  1  0.10357000  0.73957000  0.68956000  1.0 1.9533040266
Ce  Ce4  1  0.93771000  0.89461000  0.83708000  1.0 1.9533040266
H  H1  1  0.85431000  0.82013000  0.15028000  1.0 0.130047995
H  H2  1  0.83319000  0.67045000  0.15408000  1.0 0.1123433396
H  H3  1  0.66476000  0.68742000  0.16171000  1.0 0.1191398776
H  H4  1  0.53059000  0.01241000  0.15180000  1.0 0.1385146457
H  H5  1  0.17680000  0.37904000  0.15196000  1.0 0.130047995
H  H6  1  0.03167000  0.54485000  0.17148000  1.0 0.1123433396
H  H7  1  0.05012000  0.69736000  0.17625000  1.0 0.1191398776
H  H8  1  0.36950000  0.50888000  0.15147000  1.0 0.130047995
H  H9  1  0.72951000  0.49977000  0.11196000  1.0 0.130047995
H  H10  1  0.90050000  0.47786000  0.11564000  1.0 0.1191398776
H  H11  1  0.05261000  0.31031000  0.14602000  1.0 0.130047995
H  H12  1  0.85974000  0.18254000  0.16851000  1.0 0.1484898667
H  H13  1  0.82057000  0.44867000  0.31735000  1.0 0.130047995
H  H14  1  0.68549000  0.26503000  0.28604000  1.0 0.1191398776
H  H15  1  0.51694000  0.41922000  0.26716000  1.0 0.1191398776
H  H16  1  0.49972000  0.58926000  0.27123000  1.0 0.1385146457
H  H17  1  0.61776000  0.13654000  0.30479000  1.0 0.130047995
H  H18  1  0.44483000  0.28711000  0.28545000  1.0 0.1123433396
H  H19  1  0.29552000  0.26514000  0.27334000  1.0 0.1191398776
H  H20  1  0.49076000  0.94130000  0.30211000  1.0 0.1385146457
H  H21  1  0.18266000  0.45392000  0.33552000  1.0 0.130047995
H  H22  1  0.33575000  0.47061000  0.33347000  1.0 0.1123433396
H  H23  1  0.31808000  0.64122000  0.32320000  1.0 0.1191398776
H  H24  1  0.99292000  0.77822000  0.32379000  1.0 0.1385146457
H  H25  1  0.16804000  0.05756000  0.96260000  1.0 0.1657349359
H  H26  1  0.22220000  0.05116000  0.03051000  1.0 0.1790593307
H  H27  1  0.29130000  0.02250000  0.97089000  1.0 0.1657349359
H  H28  1  0.78086000  0.00168000  0.14994000  1.0 0.306773905
H  H29  1  0.34953000  0.27777000  0.12651000  1.0 0.3016848486
H  H30  1  0.62067000  0.43073000  0.12797000  1.0 0.3016848486
H  H31  1  0.00313000  0.52673000  0.33065000  1.0 0.3016848486
H  H32  1  0.57297000  0.69279000  0.28953000  1.0 0.306773905
H  H33  1  0.72654000  0.95784000  0.32883000  1.0 0.3016848486
H  H34  1  0.17987000  0.14569000  0.65028000  1.0 0.130047995
H  H35  1  0.32955000  0.16681000  0.65408000  1.0 0.1123433396
H  H36  1  0.31258000  0.33524000  0.66171000  1.0 0.1191398776
H  H37  1  0.98759000  0.46941000  0.65180000  1.0 0.1385146457
H  H38  1  0.62096000  0.82320000  0.65196000  1.0 0.130047995
H  H39  1  0.45515000  0.96833000  0.67148000  1.0 0.1123433396
H  H40  1  0.30264000  0.94988000  0.67625000  1.0 0.1191398776
H  H41  1  0.49112000  0.63050000  0.65147000  1.0 0.130047995
H  H42  1  0.50023000  0.27049000  0.61196000  1.0 0.130047995
H  H43  1  0.52214000  0.09950000  0.61564000  1.0 0.1191398776
H  H44  1  0.68969000  0.94739000  0.64602000  1.0 0.130047995
H  H45  1  0.81746000  0.14026000  0.66851000  1.0 0.1484898667
H  H46  1  0.55133000  0.17943000  0.81735000  1.0 0.130047995
H  H47  1  0.73497000  0.31451000  0.78604000  1.0 0.1191398776
H  H48  1  0.58078000  0.48306000  0.76716000  1.0 0.1191398776
H  H49  1  0.41074000  0.50028000  0.77123000  1.0 0.1385146457
H  H50  1  0.86346000  0.38224000  0.80479000  1.0 0.130047995
H  H51  1  0.71289000  0.55517000  0.78545000  1.0 0.1123433396
H  H52  1  0.73486000  0.70448000  0.77334000  1.0 0.1191398776
H  H53  1  0.05870000  0.50924000  0.80211000  1.0 0.1385146457
H  H54  1  0.54608000  0.81734000  0.83552000  1.0 0.130047995
H  H55  1  0.52939000  0.66425000  0.83347000  1.0 0.1123433396
H  H56  1  0.35878000  0.68192000  0.82320000  1.0 0.1191398776
H  H57  1  0.22178000  0.00708000  0.82379000  1.0 0.1385146457
H  H58  1  0.94244000  0.83196000  0.46260000  1.0 0.1657349359
H  H59  1  0.94884000  0.77780000  0.53051000  1.0 0.1790593307
H  H60  1  0.97750000  0.70870000  0.47089000  1.0 0.1657349359
H  H61  1  0.99832000  0.21914000  0.64994000  1.0 0.306773905
H  H62  1  0.72223000  0.65047000  0.62651000  1.0 0.3016848486
H  H63  1  0.56927000  0.37933000  0.62797000  1.0 0.3016848486
H  H64  1  0.47327000  0.99687000  0.83065000  1.0 0.3016848486
H  H65  1  0.30721000  0.42703000  0.78953000  1.0 0.306773905
H  H66  1  0.04216000  0.27346000  0.82883000  1.0 0.3016848486
C  C1  1  0.64520000  0.12980000  0.14180000  1.0 0.5263663968
C  C2  1  0.48060000  0.28040000  0.13510000  1.0 0.5263663968
C  C3  1  0.62980000  0.29420000  0.13770000  1.0 0.5236507695
C  C4  1  0.69380000  0.93420000  0.15020000  1.0 0.2387898208
C  C5  1  0.78530000  0.82910000  0.15160000  1.0 -0.1909975905
C  C6  1  0.77240000  0.73920000  0.15490000  1.0 -0.079627358
C  C7  1  0.67220000  0.74860000  0.15920000  1.0 -0.1310217315
C  C8  1  0.58210000  0.85230000  0.15990000  1.0 0.0086752563
C  C9  1  0.59230000  0.94390000  0.15370000  1.0 -0.1909975905
C  C10  1  0.47250000  0.86750000  0.16980000  1.0 0.5615326445
C  C11  1  0.28800000  0.42720000  0.14690000  1.0 0.2310081115
C  C12  1  0.18610000  0.43870000  0.15460000  1.0 -0.2017154951
C  C13  1  0.09890000  0.53870000  0.16620000  1.0 -0.079627358
C  C14  1  0.10950000  0.62990000  0.17020000  1.0 -0.111067635
C  C15  1  0.21210000  0.61690000  0.16480000  1.0 0.0086752563
C  C16  1  0.30120000  0.51620000  0.15400000  1.0 -0.1797586489
C  C17  1  0.22680000  0.71240000  0.17210000  1.0 0.5680109006
C  C18  1  0.77750000  0.34230000  0.13930000  1.0 0.2387898208
C  C19  1  0.79000000  0.43200000  0.12380000  1.0 -0.2017154951
C  C20  1  0.89220000  0.41860000  0.12620000  1.0 -0.079627358
C  C21  1  0.98390000  0.31790000  0.14410000  1.0 -0.111067635
C  C22  1  0.97200000  0.23020000  0.15880000  1.0 0.0086752563
C  C23  1  0.86780000  0.24180000  0.15740000  1.0 -0.1735080043
C  C24  1  0.07010000  0.12150000  0.17360000  1.0 0.5877375643
C  C25  1  0.87560000  0.66360000  0.32230000  1.0 0.540359382
C  C26  1  0.71040000  0.67980000  0.30650000  1.0 0.548636222
C  C27  1  0.72290000  0.83090000  0.31760000  1.0 0.540359382
C  C28  1  0.66020000  0.53540000  0.29260000  1.0 0.2310081115
C  C29  1  0.75990000  0.44330000  0.30590000  1.0 -0.1909975905
C  C30  1  0.76930000  0.34170000  0.30210000  1.0 -0.0016130774
C  C31  1  0.67860000  0.33320000  0.28790000  1.0 -0.1310217315
C  C32  1  0.57800000  0.42520000  0.27640000  1.0 -0.0920848955
C  C33  1  0.56760000  0.52700000  0.27880000  1.0 -0.1735080043
C  C34  1  0.88020000  0.24240000  0.31280000  1.0 0.548636222
C  C35  1  0.57300000  0.02320000  0.30590000  1.0 0.2387898208
C  C36  1  0.55790000  0.12710000  0.30040000  1.0 -0.2017154951
C  C37  1  0.45400000  0.21780000  0.28840000  1.0 -0.079627358
C  C38  1  0.36470000  0.20470000  0.28090000  1.0 -0.1310217315
C  C39  1  0.37810000  0.10230000  0.28460000  1.0 0.0086752563
C  C40  1  0.48230000  0.01030000  0.29820000  1.0 -0.1797586489
C  C41  1  0.28190000  0.08670000  0.27810000  1.0 0.5615326445
C  C42  1  0.07130000  0.61450000  0.32770000  1.0 0.2310081115
C  C43  1  0.17500000  0.52260000  0.33180000  1.0 -0.1909975905
C  C44  1  0.26710000  0.53250000  0.33050000  1.0 -0.0701771263
C  C45  1  0.25680000  0.63420000  0.32480000  1.0 -0.1193500344
C  C46  1  0.15420000  0.72540000  0.32150000  1.0 -0.0016130774
C  C47  1  0.06110000  0.71630000  0.32430000  1.0 -0.1909975905
C  C48  1  0.13950000  0.83690000  0.31740000  1.0 0.5877375643
C  C49  1  0.13900000  0.03900000  0.54800000  1.0 -0.1797586489
C  C50  1  0.93170000  0.05190000  0.53590000  1.0 -0.2230766077
C  C51  1  0.23320000  0.01920000  0.99030000  1.0 -0.4729285796
C  C52  1  0.40920000  0.83400000  0.00540000  1.0 -0.2641508091
C  C53  1  0.43710000  0.77090000  0.38540000  1.0 -0.4161323268
C  C54  1  0.40180000  0.82580000  0.50530000  1.0 -0.1193500344
C  C55  1  0.05100000  0.06500000  0.56770000  1.0 -0.0272056308
C  C56  1  0.34440000  0.86940000  0.03610000  1.0 0.0970040116
C  C57  1  0.36720000  0.78320000  0.51200000  1.0 -0.111067635
C  C58  1  0.87020000  0.35480000  0.64180000  1.0 0.5236507695
C  C59  1  0.71960000  0.51940000  0.63510000  1.0 0.5263663968
C  C60  1  0.70580000  0.37020000  0.63770000  1.0 0.5236507695
C  C61  1  0.06580000  0.30620000  0.65020000  1.0 0.2387898208
C  C62  1  0.17090000  0.21470000  0.65160000  1.0 -0.1909975905
C  C63  1  0.26080000  0.22760000  0.65490000  1.0 -0.079627358
C  C64  1  0.25140000  0.32780000  0.65920000  1.0 -0.1310217315
C  C65  1  0.14770000  0.41790000  0.65990000  1.0 0.0086752563
C  C66  1  0.05610000  0.40770000  0.65370000  1.0 -0.1909975905
C  C67  1  0.13250000  0.52750000  0.66980000  1.0 0.5615326445
C  C68  1  0.57280000  0.71200000  0.64690000  1.0 0.2310081115
C  C69  1  0.56130000  0.81390000  0.65460000  1.0 -0.2017154951
C  C70  1  0.46130000  0.90110000  0.66620000  1.0 -0.079627358
C  C71  1  0.37010000  0.89050000  0.67020000  1.0 -0.111067635
C  C72  1  0.38310000  0.78790000  0.66480000  1.0 0.0086752563
C  C73  1  0.48380000  0.69880000  0.65400000  1.0 -0.1797586489
C  C74  1  0.28760000  0.77320000  0.67210000  1.0 0.5680109006
C  C75  1  0.65770000  0.22250000  0.63930000  1.0 0.2387898208
C  C76  1  0.56800000  0.21000000  0.62380000  1.0 -0.2017154951
C  C77  1  0.58140000  0.10780000  0.62620000  1.0 -0.079627358
C  C78  1  0.68210000  0.01610000  0.64410000  1.0 -0.111067635
C  C79  1  0.76980000  0.02800000  0.65880000  1.0 0.0086752563
C  C80  1  0.75820000  0.13220000  0.65740000  1.0 -0.1735080043
C  C81  1  0.87850000  0.92990000  0.67360000  1.0 0.5877375643
C  C82  1  0.33640000  0.12440000  0.82230000  1.0 0.540359382
C  C83  1  0.32020000  0.28960000  0.80650000  1.0 0.548636222
C  C84  1  0.16910000  0.27710000  0.81760000  1.0 0.540359382
C  C85  1  0.46460000  0.33980000  0.79260000  1.0 0.2310081115
C  C86  1  0.55670000  0.24010000  0.80590000  1.0 -0.1909975905
C  C87  1  0.65830000  0.23070000  0.80210000  1.0 -0.0016130774
C  C88  1  0.66680000  0.32140000  0.78790000  1.0 -0.1310217315
C  C89  1  0.57480000  0.42200000  0.77640000  1.0 -0.0920848955
C  C90  1  0.47300000  0.43240000  0.77880000  1.0 -0.1735080043
C  C91  1  0.75760000  0.11980000  0.81280000  1.0 0.5615326445
C  C92  1  0.97680000  0.42700000  0.80590000  1.0 0.2387898208
C  C93  1  0.87290000  0.44210000  0.80040000  1.0 -0.2017154951
C  C94  1  0.78220000  0.54600000  0.78840000  1.0 -0.079627358
C  C95  1  0.79530000  0.63530000  0.78090000  1.0 -0.1310217315
C  C96  1  0.89770000  0.62190000  0.78460000  1.0 0.0086752563
C  C97  1  0.98970000  0.51770000  0.79820000  1.0 -0.1735080043
C  C98  1  0.91330000  0.71810000  0.77810000  1.0 0.5615326445
C  C99  1  0.38550000  0.92870000  0.82770000  1.0 0.2310081115
C  C100  1  0.47740000  0.82500000  0.83180000  1.0 -0.1909975905
C  C101  1  0.46750000  0.73290000  0.83050000  1.0 -0.0701771263
C  C102  1  0.36580000  0.74320000  0.82480000  1.0 -0.1193500344
C  C103  1  0.27460000  0.84580000  0.82150000  1.0 -0.0016130774
C  C104  1  0.28370000  0.93890000  0.82430000  1.0 -0.1909975905
C  C105  1  0.16310000  0.86050000  0.81740000  1.0 0.5877375643
C  C106  1  0.96100000  0.86100000  0.04800000  1.0 -0.1735080043
C  C107  1  0.94810000  0.06830000  0.03590000  1.0 -0.2230766077
C  C108  1  0.98080000  0.76680000  0.49030000  1.0 -0.4753349681
C  C109  1  0.16600000  0.59080000  0.50540000  1.0 -0.2641508091
C  C110  1  0.22910000  0.56290000  0.88540000  1.0 -0.4118561108
C  C111  1  0.17420000  0.59820000  0.00530000  1.0 -0.1193500344
C  C112  1  0.93500000  0.94900000  0.06770000  1.0 -0.0272056308
C  C113  1  0.13060000  0.65560000  0.53610000  1.0 0.0970040116
C  C114  1  0.21680000  0.63280000  0.01200000  1.0 -0.111067635
S  S1  1  0.04852000  0.00572000  0.49220000  1.0 0.7806238573
S  S2  1  0.26645000  0.88845000  0.00260000  1.0 0.3016848486
S  S3  1  0.36690000  0.88590000  0.42310000  1.0 0.4369052988
S  S4  1  0.31830000  0.80810000  0.42760000  1.0 0.3517224979
S  S5  1  0.99428000  0.95148000  0.99220000  1.0 0.7806238573
S  S6  1  0.11155000  0.73355000  0.50260000  1.0 0.3016848486
S  S7  1  0.11410000  0.63310000  0.92310000  1.0 0.4369052988
S  S8  1  0.19190000  0.68170000  0.92760000  1.0 0.3517224979
N  N1  1  0.69720000  0.18700000  0.14170000  1.0 -0.5224927822
N  N2  1  0.53770000  0.17130000  0.13540000  1.0 -0.5316252816
N  N3  1  0.52050000  0.34710000  0.13570000  1.0 -0.5316252816
N  N4  1  0.71320000  0.02100000  0.14750000  1.0 -0.3394934892
N  N5  1  0.37130000  0.32250000  0.13510000  1.0 -0.348822237
N  N6  1  0.66940000  0.36320000  0.13430000  1.0 -0.348822237
N  N7  1  0.81800000  0.61280000  0.31450000  1.0 -0.5458246428
N  N8  1  0.65850000  0.78910000  0.30920000  1.0 -0.5117095072
N  N9  1  0.83480000  0.77160000  0.32470000  1.0 -0.5579763312
N  N10  1  0.98410000  0.59430000  0.32720000  1.0 -0.348822237
N  N11  1  0.64020000  0.64300000  0.29560000  1.0 -0.3394934892
N  N12  1  0.68050000  0.93790000  0.31870000  1.0 -0.3394934892
N  N13  1  0.81300000  0.30280000  0.64170000  1.0 -0.5224927822
N  N14  1  0.82870000  0.46230000  0.63540000  1.0 -0.5316252816
N  N15  1  0.65290000  0.47950000  0.63570000  1.0 -0.5316252816
N  N16  1  0.97900000  0.28680000  0.64750000  1.0 -0.3394934892
N  N17  1  0.67750000  0.62870000  0.63510000  1.0 -0.348822237
N  N18  1  0.63680000  0.33060000  0.63430000  1.0 -0.348822237
N  N19  1  0.38720000  0.18200000  0.81450000  1.0 -0.5458246428
N  N20  1  0.21090000  0.34150000  0.80920000  1.0 -0.5117095072
N  N21  1  0.22840000  0.16520000  0.82470000  1.0 -0.5579763312
N  N22  1  0.40570000  0.01590000  0.82720000  1.0 -0.348822237
N  N23  1  0.35700000  0.35980000  0.79560000  1.0 -0.3394934892
N  N24  1  0.06210000  0.31950000  0.81870000  1.0 -0.3394934892
O  O1  1  0.46580000  0.79160000  0.19930000  1.0 -0.5944566686
O  O2  1  0.38870000  0.95530000  0.14940000  1.0 -0.5579763312
O  O3  1  0.14390000  0.80810000  0.17060000  1.0 -0.5819575746
O  O4  1  0.32230000  0.69750000  0.17910000  1.0 -0.5819575746
O  O5  1  0.07010000  0.05570000  0.21720000  1.0 -0.6551123221
O  O6  1  0.29470000  0.99150000  0.27900000  1.0 -0.6735491712
O  O7  1  0.18860000  0.16820000  0.27400000  1.0 -0.5224927822
O  O8  1  0.21400000  0.85120000  0.29450000  1.0 -0.7006140311
O  O9  1  0.05790000  0.91350000  0.33850000  1.0 -0.5579763312
O  O10  1  0.96080000  0.25640000  0.32220000  1.0 -0.5458246428
O  O11  1  0.89310000  0.14930000  0.30990000  1.0 -0.5579763312
O  O12  1  0.24740000  0.88260000  0.07520000  1.0 -0.365701202
O  O13  1  0.01090000  0.08610000  0.43560000  1.0 -0.4983533431
O  O14  1  0.24380000  0.92540000  0.41740000  1.0 -0.365701202
O  O15  1  0.17610000  0.15130000  0.41000000  1.0 -0.4617173333
O  O16  1  0.14950000  0.09370000  0.14140000  1.0 -0.5224927822
O  O17  1  0.20840000  0.53420000  0.69930000  1.0 -0.5944566686
O  O18  1  0.04470000  0.61130000  0.64940000  1.0 -0.5579763312
O  O19  1  0.19190000  0.85610000  0.67060000  1.0 -0.5819575746
O  O20  1  0.30250000  0.67770000  0.67910000  1.0 -0.5819575746
O  O21  1  0.94430000  0.92990000  0.71720000  1.0 -0.6551123221
O  O22  1  0.00850000  0.70530000  0.77900000  1.0 -0.6735491712
O  O23  1  0.83180000  0.81140000  0.77400000  1.0 -0.5224927822
O  O24  1  0.14880000  0.78600000  0.79450000  1.0 -0.7006140311
O  O25  1  0.08650000  0.94210000  0.83850000  1.0 -0.5579763312
O  O26  1  0.74360000  0.03920000  0.82220000  1.0 -0.5458246428
O  O27  1  0.85070000  0.10690000  0.80990000  1.0 -0.5579763312
O  O28  1  0.11740000  0.75260000  0.57520000  1.0 -0.365701202
O  O29  1  0.91390000  0.98910000  0.93560000  1.0 -0.4983533431
O  O30  1  0.07460000  0.75620000  0.91740000  1.0 -0.365701202
O  O31  1  0.84870000  0.82390000  0.91000000  1.0 -0.4617173333
O  O32  1  0.90630000  0.85050000  0.64140000  1.0 -0.5224927822
