# DDEC6 charges by PACMAN v1.1 (https://github.com/mtap-research/PACMAN-charge/)
data_GOYSAR_ASR_pacman
_symmetry_space_group_name_H-M   'P 1'
_cell_length_a   14.27820000
_cell_length_b   14.27820000
_cell_length_c   21.03300000
_cell_angle_alpha   88.99460000
_cell_angle_beta   91.00540000
_cell_angle_gamma   59.38370000
_symmetry_Int_Tables_number   1
_chemical_formula_structural   Nd2H35C50SN12O13
_chemical_formula_sum   'Nd4 H70 C100 S2 N24 O26'
_cell_volume   3687.86830004
_cell_formula_units_Z   2
loop_
 _symmetry_equiv_pos_site_id
 _symmetry_equiv_pos_as_xyz
  1  'x, y, z'
loop_
 _atom_site_type_symbol
 _atom_site_label
 _atom_site_symmetry_multiplicity
 _atom_site_fract_x
 _atom_site_fract_y
 _atom_site_fract_z
 _atom_site_occupancy
 _atom_site_charge
Nd  Nd1  1  0.20053000  0.66229000  0.00558000  1.0 2.0212644581
Nd  Nd2  1  0.38603000  0.48351000  0.15220000  1.0 2.0294040684
Nd  Nd3  1  0.33771000  0.79947000  0.50558000  1.0 2.0212644581
Nd  Nd4  1  0.51649000  0.61397000  0.65220000  1.0 2.0294040684
H  H1  1  0.98139000  0.32087000  0.06454000  1.0 0.1174792865
H  H2  1  0.00867000  0.46819000  0.08105000  1.0 0.1174792865
H  H3  1  0.32301000  0.27529000  0.03836000  1.0 0.1384337899
H  H4  1  0.68208000  0.25586000  0.07420000  1.0 0.1384337899
H  H5  1  0.85388000  0.23674000  0.07841000  1.0 0.1100938883
H  H6  1  0.00878000  0.06854000  0.05739000  1.0 0.1174792865
H  H7  1  0.81523000  0.94477000  0.02939000  1.0 0.1296781115
H  H8  1  0.81040000  0.58278000  0.01309000  1.0 0.1296781115
H  H9  1  0.79080000  0.43248000  0.01651000  1.0 0.1100938883
H  H10  1  0.62152000  0.44854000  0.02268000  1.0 0.1296781115
H  H11  1  0.48153000  0.77361000  0.02409000  1.0 0.1384337899
H  H12  1  0.10529000  0.88177000  0.17014000  1.0 0.1384337899
H  H13  1  0.97851000  0.68683000  0.18613000  1.0 0.1296781115
H  H14  1  0.81814000  0.83120000  0.21895000  1.0 0.1100938883
H  H15  1  0.79333000  0.00257000  0.21955000  1.0 0.1296781115
H  H16  1  0.77583000  0.36875000  0.19696000  1.0 0.1296781115
H  H17  1  0.58203000  0.69409000  0.17102000  1.0 0.1174792865
H  H18  1  0.73201000  0.71207000  0.18328000  1.0 0.1100938883
H  H19  1  0.89988000  0.56470000  0.20281000  1.0 0.1296781115
H  H20  1  0.27207000  0.20645000  0.18871000  1.0 0.1296781115
H  H21  1  0.59968000  0.07682000  0.19019000  1.0 0.1174792865
H  H22  1  0.61902000  0.90958000  0.20310000  1.0 0.1100938883
H  H23  1  0.47007000  0.88619000  0.21188000  1.0 0.1174792865
H  H24  1  0.24112000  0.90498000  0.81125000  1.0 0.161312623
H  H25  1  0.12268000  0.92850000  0.82163000  1.0 0.1695212592
H  H26  1  0.18971000  0.93831000  0.87829000  1.0 0.1803675536
H  H27  1  0.27337000  0.71213000  0.75929000  1.0 0.1803675536
H  H28  1  0.22627000  0.64883000  0.79537000  1.0 0.1695212592
H  H29  1  0.14907000  0.77091000  0.77375000  1.0 0.161312623
H  H30  1  0.29858000  0.04488000  0.01857000  1.0 0.2973013316
H  H31  1  0.57509000  0.18515000  0.06142000  1.0 0.2930930857
H  H32  1  0.73448000  0.76402000  0.02162000  1.0 0.2930930857
H  H33  1  0.01141000  0.38551000  0.22377000  1.0 0.2930930857
H  H34  1  0.28886000  0.95714000  0.19613000  1.0 0.2930930857
H  H35  1  0.86228000  0.11266000  0.21237000  1.0 0.2930930857
H  H36  1  0.67913000  0.01861000  0.56454000  1.0 0.1174792865
H  H37  1  0.53181000  0.99133000  0.58105000  1.0 0.1174792865
H  H38  1  0.72471000  0.67699000  0.53836000  1.0 0.1384337899
H  H39  1  0.74414000  0.31792000  0.57420000  1.0 0.1384337899
H  H40  1  0.76326000  0.14612000  0.57841000  1.0 0.1100938883
H  H41  1  0.93146000  0.99122000  0.55739000  1.0 0.1174792865
H  H42  1  0.05523000  0.18477000  0.52939000  1.0 0.1296781115
H  H43  1  0.41722000  0.18960000  0.51309000  1.0 0.1296781115
H  H44  1  0.56752000  0.20920000  0.51651000  1.0 0.1100938883
H  H45  1  0.55146000  0.37848000  0.52268000  1.0 0.1296781115
H  H46  1  0.22639000  0.51847000  0.52409000  1.0 0.1384337899
H  H47  1  0.11823000  0.89471000  0.67014000  1.0 0.1384337899
H  H48  1  0.31317000  0.02149000  0.68613000  1.0 0.1296781115
H  H49  1  0.16880000  0.18186000  0.71895000  1.0 0.1100938883
H  H50  1  0.99743000  0.20667000  0.71955000  1.0 0.1296781115
H  H51  1  0.63125000  0.22417000  0.69696000  1.0 0.1296781115
H  H52  1  0.30591000  0.41797000  0.67102000  1.0 0.1174792865
H  H53  1  0.28793000  0.26799000  0.68328000  1.0 0.1100938883
H  H54  1  0.43530000  0.10012000  0.70281000  1.0 0.1296781115
H  H55  1  0.79355000  0.72793000  0.68871000  1.0 0.1296781115
H  H56  1  0.92318000  0.40032000  0.69019000  1.0 0.1174792865
H  H57  1  0.09042000  0.38098000  0.70310000  1.0 0.1100938883
H  H58  1  0.11381000  0.52993000  0.71188000  1.0 0.1174792865
H  H59  1  0.09502000  0.75888000  0.31125000  1.0 0.161312623
H  H60  1  0.07150000  0.87732000  0.32163000  1.0 0.1695212592
H  H61  1  0.06169000  0.81029000  0.37829000  1.0 0.1803675536
H  H62  1  0.28787000  0.72663000  0.25929000  1.0 0.1803675536
H  H63  1  0.35117000  0.77373000  0.29537000  1.0 0.1695212592
H  H64  1  0.22909000  0.85093000  0.27375000  1.0 0.161312623
H  H65  1  0.95512000  0.70142000  0.51857000  1.0 0.2973013316
H  H66  1  0.81485000  0.42491000  0.56142000  1.0 0.2930930857
H  H67  1  0.23598000  0.26552000  0.52162000  1.0 0.2930930857
H  H68  1  0.61449000  0.98859000  0.72377000  1.0 0.2930930857
H  H69  1  0.04286000  0.71114000  0.69613000  1.0 0.2930930857
H  H70  1  0.88734000  0.13772000  0.71237000  1.0 0.2930930857
C  C1  1  0.58530000  0.05190000  0.04130000  1.0 0.5147539619
C  C2  1  0.59740000  0.89180000  0.02580000  1.0 0.5147539619
C  C3  1  0.43460000  0.04260000  0.03130000  1.0 0.5163085107
C  C4  1  0.23980000  0.19440000  0.04120000  1.0 0.2371675465
C  C5  1  0.13650000  0.20710000  0.04860000  1.0 -0.1913176272
C  C6  1  0.05100000  0.31040000  0.06130000  1.0 -0.12116433
C  C7  1  0.06570000  0.40090000  0.06940000  1.0 -0.1298930468
C  C8  1  0.16380000  0.38560000  0.05970000  1.0 0.0083353645
C  C9  1  0.25520000  0.28300000  0.04510000  1.0 -0.1818002101
C  C10  1  0.18010000  0.48270000  0.06800000  1.0 0.5762355272
C  C11  1  0.73230000  0.10070000  0.05240000  1.0 0.2222155326
C  C12  1  0.74330000  0.18890000  0.06630000  1.0 -0.2017019521
C  C13  1  0.84670000  0.17750000  0.06840000  1.0 -0.0970044788
C  C14  1  0.93960000  0.07740000  0.05550000  1.0 -0.1298930468
C  C15  1  0.92370000  0.99110000  0.03950000  1.0 0.0083353645
C  C16  1  0.82300000  0.00380000  0.03910000  1.0 -0.1818002101
C  C17  1  0.02280000  0.88260000  0.02610000  1.0 0.570076013
C  C18  1  0.64870000  0.69390000  0.01980000  1.0 0.2459563557
C  C19  1  0.74180000  0.59080000  0.01640000  1.0 -0.2074085045
C  C20  1  0.72920000  0.50140000  0.01800000  1.0 -0.074592391
C  C21  1  0.62760000  0.51040000  0.02180000  1.0 -0.12116433
C  C22  1  0.53610000  0.61290000  0.02440000  1.0 -0.0149049433
C  C23  1  0.54380000  0.70500000  0.02300000  1.0 -0.1818002101
C  C24  1  0.42780000  0.62280000  0.02810000  1.0 0.608629698
C  C25  1  0.15900000  0.09140000  0.20390000  1.0 0.536937112
C  C26  1  0.99400000  0.10720000  0.20660000  1.0 0.5287871007
C  C27  1  0.01020000  0.25700000  0.21220000  1.0 0.536937112
C  C28  1  0.94870000  0.96090000  0.20040000  1.0 0.2371675465
C  C29  1  0.04780000  0.87220000  0.18110000  1.0 -0.2017019521
C  C30  1  0.05830000  0.76830000  0.17850000  1.0 -0.0174041253
C  C31  1  0.97170000  0.75470000  0.19030000  1.0 -0.12116433
C  C32  1  0.87520000  0.84160000  0.20830000  1.0 -0.0842757802
C  C33  1  0.86150000  0.94370000  0.21080000  1.0 -0.2074085045
C  C34  1  0.16510000  0.67290000  0.16910000  1.0 0.570076013
C  C35  1  0.85720000  0.45200000  0.20180000  1.0 0.2222155326
C  C36  1  0.76720000  0.43780000  0.19440000  1.0 -0.1818002101
C  C37  1  0.66600000  0.52860000  0.18330000  1.0 0.0083353645
C  C38  1  0.65080000  0.63340000  0.17880000  1.0 -0.1298930468
C  C39  1  0.73990000  0.64330000  0.18620000  1.0 -0.0896403905
C  C40  1  0.84070000  0.55490000  0.19760000  1.0 -0.1913176272
C  C41  1  0.57030000  0.51290000  0.17450000  1.0 0.5580106024
C  C42  1  0.35710000  0.04670000  0.19870000  1.0 0.2222155326
C  C43  1  0.34240000  0.14640000  0.19020000  1.0 -0.1818002101
C  C44  1  0.43150000  0.16230000  0.18350000  1.0 -0.0174041253
C  C45  1  0.53870000  0.06930000  0.19120000  1.0 -0.1298930468
C  C46  1  0.54920000  0.97040000  0.20010000  1.0 -0.0896403905
C  C47  1  0.46030000  0.95510000  0.20480000  1.0 -0.2017019521
C  C48  1  0.41330000  0.27070000  0.17090000  1.0 0.5461898688
C  C49  1  0.19440000  0.89840000  0.84090000  1.0 -0.5864863749
C  C50  1  0.22100000  0.71820000  0.78940000  1.0 -0.5967168417
C  C51  1  0.94810000  0.41470000  0.54130000  1.0 0.5147539619
C  C52  1  0.10820000  0.40260000  0.52580000  1.0 0.5147539619
C  C53  1  0.95740000  0.56540000  0.53130000  1.0 0.5163085107
C  C54  1  0.80560000  0.76020000  0.54120000  1.0 0.2371675465
C  C55  1  0.79290000  0.86350000  0.54860000  1.0 -0.1913176272
C  C56  1  0.68960000  0.94900000  0.56130000  1.0 -0.12116433
C  C57  1  0.59910000  0.93430000  0.56940000  1.0 -0.1298930468
C  C58  1  0.61440000  0.83620000  0.55970000  1.0 0.0083353645
C  C59  1  0.71700000  0.74480000  0.54510000  1.0 -0.1818002101
C  C60  1  0.51730000  0.81990000  0.56800000  1.0 0.5762355272
C  C61  1  0.89930000  0.26770000  0.55240000  1.0 0.2222155326
C  C62  1  0.81110000  0.25670000  0.56630000  1.0 -0.2017019521
C  C63  1  0.82250000  0.15330000  0.56840000  1.0 -0.0970044788
C  C64  1  0.92260000  0.06040000  0.55550000  1.0 -0.1298930468
C  C65  1  0.00890000  0.07630000  0.53950000  1.0 0.0083353645
C  C66  1  0.99620000  0.17700000  0.53910000  1.0 -0.1818002101
C  C67  1  0.11740000  0.97720000  0.52610000  1.0 0.570076013
C  C68  1  0.30610000  0.35130000  0.51980000  1.0 0.2459563557
C  C69  1  0.40920000  0.25820000  0.51640000  1.0 -0.2074085045
C  C70  1  0.49860000  0.27080000  0.51800000  1.0 -0.074592391
C  C71  1  0.48960000  0.37240000  0.52180000  1.0 -0.12116433
C  C72  1  0.38710000  0.46390000  0.52440000  1.0 -0.0149049433
C  C73  1  0.29500000  0.45620000  0.52300000  1.0 -0.1818002101
C  C74  1  0.37720000  0.57220000  0.52810000  1.0 0.608629698
C  C75  1  0.90860000  0.84100000  0.70390000  1.0 0.536937112
C  C76  1  0.89280000  0.00600000  0.70660000  1.0 0.5287871007
C  C77  1  0.74300000  0.98980000  0.71220000  1.0 0.536937112
C  C78  1  0.03910000  0.05130000  0.70040000  1.0 0.2371675465
C  C79  1  0.12780000  0.95220000  0.68110000  1.0 -0.2017019521
C  C80  1  0.23170000  0.94170000  0.67850000  1.0 -0.0174041253
C  C81  1  0.24530000  0.02830000  0.69030000  1.0 -0.12116433
C  C82  1  0.15840000  0.12480000  0.70830000  1.0 -0.0896403905
C  C83  1  0.05630000  0.13850000  0.71080000  1.0 -0.2074085045
C  C84  1  0.32710000  0.83490000  0.66910000  1.0 0.570076013
C  C85  1  0.54800000  0.14280000  0.70180000  1.0 0.2222155326
C  C86  1  0.56220000  0.23280000  0.69440000  1.0 -0.1818002101
C  C87  1  0.47140000  0.33400000  0.68330000  1.0 0.0083353645
C  C88  1  0.36660000  0.34920000  0.67880000  1.0 -0.1298930468
C  C89  1  0.35670000  0.26010000  0.68620000  1.0 -0.0896403905
C  C90  1  0.44510000  0.15930000  0.69760000  1.0 -0.1913176272
C  C91  1  0.48710000  0.42970000  0.67450000  1.0 0.5580106024
C  C92  1  0.95330000  0.64290000  0.69870000  1.0 0.2222155326
C  C93  1  0.85360000  0.65760000  0.69020000  1.0 -0.1818002101
C  C94  1  0.83770000  0.56850000  0.68350000  1.0 -0.0174041253
C  C95  1  0.93070000  0.46130000  0.69120000  1.0 -0.1298930468
C  C96  1  0.02960000  0.45080000  0.70010000  1.0 -0.0896403905
C  C97  1  0.04490000  0.53970000  0.70480000  1.0 -0.2017019521
C  C98  1  0.72930000  0.58670000  0.67090000  1.0 0.5461898688
C  C99  1  0.10160000  0.80560000  0.34090000  1.0 -0.5864863749
C  C100  1  0.28180000  0.77900000  0.28940000  1.0 -0.5967168417
S  S1  1  0.24690000  0.75970000  0.86220000  1.0 0.7670239452
S  S2  1  0.24030000  0.75310000  0.36220000  1.0 0.7670239452
N  N1  1  0.47390000  0.10730000  0.03790000  1.0 -0.5043458547
N  N2  1  0.64880000  0.94900000  0.03240000  1.0 -0.5277880188
N  N3  1  0.48920000  0.93400000  0.02260000  1.0 -0.5390580278
N  N4  1  0.32100000  0.08840000  0.02900000  1.0 -0.3454920407
N  N5  1  0.62400000  0.11980000  0.05270000  1.0 -0.3635997083
N  N6  1  0.66690000  0.78270000  0.02240000  1.0 -0.3635997083
N  N7  1  0.11950000  0.19970000  0.21270000  1.0 -0.5390580278
N  N8  1  0.10180000  0.04100000  0.20130000  1.0 -0.5463867243
N  N9  1  0.94310000  0.21530000  0.21110000  1.0 -0.5390580278
N  N10  1  0.96610000  0.36490000  0.21380000  1.0 -0.3425267841
N  N11  1  0.26840000  0.02480000  0.19930000  1.0 -0.3729923125
N  N12  1  0.92960000  0.06520000  0.20700000  1.0 -0.3314277436
N  N13  1  0.89270000  0.52610000  0.53790000  1.0 -0.5043458547
N  N14  1  0.05100000  0.35120000  0.53240000  1.0 -0.5277880188
N  N15  1  0.06600000  0.51080000  0.52260000  1.0 -0.5390580278
N  N16  1  0.91160000  0.67900000  0.52900000  1.0 -0.3454920407
N  N17  1  0.88020000  0.37600000  0.55270000  1.0 -0.3635997083
N  N18  1  0.21730000  0.33310000  0.52240000  1.0 -0.3635997083
N  N19  1  0.80030000  0.88050000  0.71270000  1.0 -0.5390580278
N  N20  1  0.95900000  0.89820000  0.70130000  1.0 -0.5463867243
N  N21  1  0.78470000  0.05690000  0.71110000  1.0 -0.5390580278
N  N22  1  0.63510000  0.03390000  0.71380000  1.0 -0.3425267841
N  N23  1  0.97520000  0.73160000  0.69930000  1.0 -0.3729923125
N  N24  1  0.93480000  0.07040000  0.70700000  1.0 -0.3314277436
O  O1  1  0.34600000  0.70800000  0.00720000  1.0 -0.5967168417
O  O2  1  0.41820000  0.54460000  0.05020000  1.0 -0.7099914309
O  O3  1  0.27770000  0.46790000  0.06180000  1.0 -0.7383567747
O  O4  1  0.10210000  0.57350000  0.07140000  1.0 -0.5390580278
O  O5  1  0.00800000  0.80280000  0.01240000  1.0 -0.6525508718
O  O6  1  0.11660000  0.86760000  0.03090000  1.0 -0.5677392837
O  O7  1  0.20270000  0.58990000  0.20170000  1.0 -0.5463867243
O  O8  1  0.22540000  0.67840000  0.12310000  1.0 -0.749990439
O  O9  1  0.58300000  0.42140000  0.16280000  1.0 -0.620753264
O  O10  1  0.47160000  0.59580000  0.17590000  1.0 -0.6525508718
O  O11  1  0.32930000  0.35250000  0.18870000  1.0 -0.578666186
O  O12  1  0.48640000  0.28160000  0.14320000  1.0 -0.637981629
O  O13  1  0.16390000  0.76810000  0.90730000  1.0 -0.6663163658
O  O14  1  0.29200000  0.65400000  0.50720000  1.0 -0.5967168417
O  O15  1  0.45540000  0.58180000  0.55020000  1.0 -0.7099914309
O  O16  1  0.53210000  0.72230000  0.56180000  1.0 -0.7383567747
O  O17  1  0.42650000  0.89790000  0.57140000  1.0 -0.5390580278
O  O18  1  0.19720000  0.99200000  0.51240000  1.0 -0.6525508718
O  O19  1  0.13240000  0.88340000  0.53090000  1.0 -0.5677392837
O  O20  1  0.41010000  0.79730000  0.70170000  1.0 -0.5463867243
O  O21  1  0.32160000  0.77460000  0.62310000  1.0 -0.749990439
O  O22  1  0.57860000  0.41700000  0.66280000  1.0 -0.620753264
O  O23  1  0.40420000  0.52840000  0.67590000  1.0 -0.6550283786
O  O24  1  0.64750000  0.67070000  0.68870000  1.0 -0.578666186
O  O25  1  0.71840000  0.51360000  0.64320000  1.0 -0.637981629
O  O26  1  0.23190000  0.83610000  0.40730000  1.0 -0.6663163658
