# DDEC6 charges by PACMAN v1.1 (https://github.com/mtap-research/PACMAN-charge/)
data_GOZBUV_FSR_pacman
_symmetry_space_group_name_H-M   'P 1'
_cell_length_a   10.05510000
_cell_length_b   18.10790000
_cell_length_c   14.34580000
_cell_angle_alpha   90.00000000
_cell_angle_beta   101.43900000
_cell_angle_gamma   90.00000000
_symmetry_Int_Tables_number   1
_chemical_formula_structural   Co2H30C32N4O11
_chemical_formula_sum   'Co4 H60 C64 N8 O22'
_cell_volume   2560.15213978
_cell_formula_units_Z   2
loop_
 _symmetry_equiv_pos_site_id
 _symmetry_equiv_pos_as_xyz
  1  'x, y, z'
loop_
 _atom_site_type_symbol
 _atom_site_label
 _atom_site_symmetry_multiplicity
 _atom_site_fract_x
 _atom_site_fract_y
 _atom_site_fract_z
 _atom_site_occupancy
 _atom_site_charge
Co  Co1  1  0.15964000  0.88735000  0.53112000  1.0 1.0794534943
Co  Co2  1  0.89455000  0.83093000  0.35345000  1.0 0.9874329826
Co  Co3  1  0.84036000  0.38735000  0.46888000  1.0 1.0794534943
Co  Co4  1  0.10545000  0.33093000  0.64655000  1.0 0.9874329826
H  H1  1  0.52520000  0.10230000  0.98710000  1.0 0.2793859801
H  H2  1  0.51920000  0.15690000  0.90550000  1.0 0.2793859801
H  H3  1  0.03590000  0.09770000  0.50890000  1.0 0.1405051809
H  H4  1  0.91910000  0.26690000  0.32700000  1.0 0.1308036302
H  H5  1  0.85330000  0.05510000  0.23880000  1.0 0.1308036302
H  H6  1  0.58900000  0.29990000  0.04510000  1.0 0.0920653975
H  H7  1  0.87250000  0.17770000  0.94850000  1.0 0.1084235453
H  H8  1  0.95760000  0.13660000  0.10780000  1.0 0.1084235453
H  H9  1  0.47600000  0.27240000  0.88800000  1.0 0.1203199512
H  H10  1  0.55850000  0.34480000  0.63730000  1.0 0.1308036302
H  H11  1  0.86250000  0.27820000  0.85240000  1.0 0.1308036302
H  H12  1  0.43650000  0.83560000  0.52220000  1.0 0.1084235453
H  H13  1  0.66750000  0.79630000  0.56040000  1.0 0.1585337183
H  H14  1  0.70230000  0.72350000  0.62380000  1.0 0.1405051809
H  H15  1  0.62930000  0.71670000  0.51440000  1.0 0.1585337183
H  H16  1  0.54160000  0.65300000  0.67180000  1.0 0.1405051809
H  H17  1  0.48540000  0.71620000  0.73180000  1.0 0.1308036302
H  H18  1  0.38410000  0.67460000  0.64810000  1.0 0.1405051809
H  H19  1  0.29900000  0.93480000  0.72410000  1.0 0.1203199512
H  H20  1  0.36680000  0.97950000  0.88350000  1.0 0.1308036302
H  H21  1  0.25240000  0.98410000  0.94650000  1.0 0.1405051809
H  H22  1  0.33190000  0.90830000  0.94010000  1.0 0.1405051809
H  H23  1  0.01550000  0.87040000  0.80400000  1.0 0.1308036302
H  H24  1  0.06110000  0.90130000  0.91010000  1.0 0.1203199512
H  H25  1  0.99380000  0.95580000  0.82600000  1.0 0.1478237322
H  H26  1  0.67450000  0.11630000  0.13290000  1.0 0.1084235453
H  H27  1  0.88400000  0.31750000  0.01750000  1.0 0.0920653975
H  H28  1  0.96090000  0.27130000  0.16720000  1.0 0.104489345
H  H29  1  0.71880000  0.23780000  0.26000000  1.0 0.2358702979
H  H30  1  0.59700000  0.29290000  0.18200000  1.0 0.2460438645
H  H31  1  0.47480000  0.60230000  0.01290000  1.0 0.2793859801
H  H32  1  0.48080000  0.65690000  0.09450000  1.0 0.2793859801
H  H33  1  0.96410000  0.59770000  0.49110000  1.0 0.1405051809
H  H34  1  0.08090000  0.76690000  0.67300000  1.0 0.1308036302
H  H35  1  0.14670000  0.55510000  0.76120000  1.0 0.1308036302
H  H36  1  0.41100000  0.79990000  0.95490000  1.0 0.0920653975
H  H37  1  0.12750000  0.67770000  0.05150000  1.0 0.104489345
H  H38  1  0.04240000  0.63660000  0.89220000  1.0 0.1084235453
H  H39  1  0.52400000  0.77240000  0.11200000  1.0 0.1203199512
H  H40  1  0.44150000  0.84480000  0.36270000  1.0 0.1308036302
H  H41  1  0.13750000  0.77820000  0.14760000  1.0 0.1308036302
H  H42  1  0.56350000  0.33560000  0.47780000  1.0 0.1084235453
H  H43  1  0.33250000  0.29630000  0.43960000  1.0 0.1585337183
H  H44  1  0.29770000  0.22350000  0.37620000  1.0 0.1405051809
H  H45  1  0.37070000  0.21670000  0.48560000  1.0 0.1585337183
H  H46  1  0.45840000  0.15300000  0.32820000  1.0 0.1405051809
H  H47  1  0.51460000  0.21620000  0.26820000  1.0 0.1308036302
H  H48  1  0.61590000  0.17460000  0.35190000  1.0 0.1405051809
H  H49  1  0.70100000  0.43480000  0.27590000  1.0 0.1203199512
H  H50  1  0.63320000  0.47950000  0.11650000  1.0 0.1308036302
H  H51  1  0.74760000  0.48410000  0.05350000  1.0 0.1405051809
H  H52  1  0.66810000  0.40830000  0.05990000  1.0 0.1405051809
H  H53  1  0.98450000  0.37040000  0.19600000  1.0 0.1308036302
H  H54  1  0.93890000  0.40130000  0.08990000  1.0 0.1203199512
H  H55  1  0.00620000  0.45580000  0.17400000  1.0 0.1478237322
H  H56  1  0.32550000  0.61630000  0.86710000  1.0 0.1084235453
H  H57  1  0.11600000  0.81750000  0.98250000  1.0 0.0920653975
H  H58  1  0.03910000  0.77130000  0.83280000  1.0 0.104489345
H  H59  1  0.28120000  0.73780000  0.74000000  1.0 0.2358702979
H  H60  1  0.40300000  0.79290000  0.81800000  1.0 0.2460438645
C  C1  1  0.95700000  0.98440000  0.39730000  1.0 0.596555259
C  C2  1  0.94720000  0.06540000  0.37650000  1.0 -0.0030736291
C  C3  1  0.99440000  0.11510000  0.44750000  1.0 -0.1000782998
C  C4  1  0.98220000  0.19070000  0.43040000  1.0 -0.0145775649
C  C5  1  0.92670000  0.21540000  0.33930000  1.0 -0.1719837637
C  C6  1  0.88210000  0.16560000  0.26590000  1.0 0.068117339
C  C7  1  0.88900000  0.08980000  0.28690000  1.0 -0.1793747583
C  C8  1  0.03280000  0.24240000  0.50880000  1.0 0.5620606205
C  C9  1  0.82620000  0.19260000  0.16690000  1.0 0.0020729542
C  C10  1  0.72120000  0.23920000  0.14780000  1.0 0.1585337183
C  C11  1  0.66380000  0.26680000  0.05550000  1.0 -0.138689995
C  C12  1  0.72320000  0.24250000  0.98210000  1.0 0.0221441508
C  C13  1  0.83190000  0.19430000  0.99920000  1.0 -0.1000782998
C  C14  1  0.88280000  0.16960000  0.09530000  1.0 -0.0682056678
C  C15  1  0.67520000  0.27080000  0.88220000  1.0 0.068117339
C  C16  1  0.53950000  0.28230000  0.84850000  1.0 -0.1793747583
C  C17  1  0.49430000  0.30850000  0.75560000  1.0 0.0020729542
C  C18  1  0.58830000  0.32530000  0.69950000  1.0 -0.1203622111
C  C19  1  0.72380000  0.31360000  0.73380000  1.0 -0.0030736291
C  C20  1  0.76870000  0.28590000  0.82790000  1.0 -0.1719837637
C  C21  1  0.34880000  0.31930000  0.71540000  1.0 0.5403037033
C  C22  1  0.82520000  0.33080000  0.67330000  1.0 0.5938828847
C  C23  1  0.41410000  0.80050000  0.56590000  1.0 0.3067411146
C  C24  1  0.63680000  0.74640000  0.57230000  1.0 -0.3468013891
C  C25  1  0.47650000  0.69370000  0.66870000  1.0 -0.3562039175
C  C26  1  0.21100000  0.92410000  0.73580000  1.0 0.3001511953
C  C27  1  0.29400000  0.95240000  0.90490000  1.0 -0.3468013891
C  C28  1  0.05300000  0.91300000  0.84250000  1.0 -0.3468013891
C  C29  1  0.71420000  0.15800000  0.10880000  1.0 -0.138689995
C  C30  1  0.66010000  0.18270000  0.01780000  1.0 0.1659068203
C  C31  1  0.83960000  0.27690000  0.04020000  1.0 -0.079044182
C  C32  1  0.88330000  0.24900000  0.12900000  1.0 -0.0682056678
C  C33  1  0.04300000  0.48440000  0.60270000  1.0 0.596555259
C  C34  1  0.05280000  0.56540000  0.62350000  1.0 -0.0030736291
C  C35  1  0.00560000  0.61510000  0.55250000  1.0 -0.1051842311
C  C36  1  0.01780000  0.69070000  0.56960000  1.0 -0.0145775649
C  C37  1  0.07330000  0.71540000  0.66070000  1.0 -0.1719837637
C  C38  1  0.11790000  0.66560000  0.73410000  1.0 0.068117339
C  C39  1  0.11100000  0.58980000  0.71310000  1.0 -0.1793747583
C  C40  1  0.96720000  0.74240000  0.49120000  1.0 0.5620606205
C  C41  1  0.17380000  0.69260000  0.83310000  1.0 0.0020729542
C  C42  1  0.27880000  0.73920000  0.85220000  1.0 0.1585337183
C  C43  1  0.33620000  0.76680000  0.94450000  1.0 -0.138689995
C  C44  1  0.27680000  0.74250000  0.01790000  1.0 0.0221441508
C  C45  1  0.16810000  0.69430000  0.00080000  1.0 -0.0919839108
C  C46  1  0.11720000  0.66960000  0.90470000  1.0 -0.0682056678
C  C47  1  0.32480000  0.77080000  0.11780000  1.0 0.068117339
C  C48  1  0.46050000  0.78230000  0.15150000  1.0 -0.1793747583
C  C49  1  0.50570000  0.80850000  0.24440000  1.0 0.0020729542
C  C50  1  0.41170000  0.82530000  0.30050000  1.0 -0.1203622111
C  C51  1  0.27620000  0.81360000  0.26620000  1.0 -0.0030736291
C  C52  1  0.23130000  0.78590000  0.17210000  1.0 -0.1719837637
C  C53  1  0.65120000  0.81930000  0.28460000  1.0 0.5403037033
C  C54  1  0.17480000  0.83080000  0.32670000  1.0 0.5938828847
C  C55  1  0.58590000  0.30050000  0.43410000  1.0 0.3067411146
C  C56  1  0.36320000  0.24640000  0.42770000  1.0 -0.3468013891
C  C57  1  0.52350000  0.19370000  0.33130000  1.0 -0.3562039175
C  C58  1  0.78900000  0.42410000  0.26420000  1.0 0.3001511953
C  C59  1  0.70600000  0.45240000  0.09510000  1.0 -0.3468013891
C  C60  1  0.94700000  0.41300000  0.15750000  1.0 -0.3468013891
C  C61  1  0.28580000  0.65800000  0.89120000  1.0 -0.138689995
C  C62  1  0.33990000  0.68270000  0.98220000  1.0 0.1659068203
C  C63  1  0.16040000  0.77690000  0.95980000  1.0 -0.079044182
C  C64  1  0.11670000  0.74900000  0.87100000  1.0 -0.0682056678
N  N1  1  0.50470000  0.75060000  0.59920000  1.0 0.0543697438
N  N2  1  0.19200000  0.93050000  0.82310000  1.0 0.0311393978
N  N3  1  0.55500000  0.14240000  0.96350000  1.0 -0.5967621842
N  N4  1  0.65810000  0.26420000  0.21780000  1.0 -0.5506087282
N  N5  1  0.49530000  0.25060000  0.40080000  1.0 0.0543697438
N  N6  1  0.80800000  0.43050000  0.17690000  1.0 0.0311393978
N  N7  1  0.44500000  0.64240000  0.03650000  1.0 -0.5967621842
N  N8  1  0.34190000  0.76420000  0.78220000  1.0 -0.5506087282
O  O1  1  0.02180000  0.96670000  0.47980000  1.0 -0.543009583
O  O2  1  0.90270000  0.94040000  0.33480000  1.0 -0.5236868003
O  O3  1  0.10330000  0.21980000  0.58580000  1.0 -0.4981511572
O  O4  1  0.00460000  0.31160000  0.49850000  1.0 -0.612027947
O  O5  1  0.31160000  0.33880000  0.63010000  1.0 -0.5308291255
O  O6  1  0.26140000  0.30790000  0.76660000  1.0 -0.5308291255
O  O7  1  0.78380000  0.36650000  0.59740000  1.0 -0.5638767817
O  O8  1  0.94430000  0.30730000  0.70300000  1.0 -0.5308291255
O  O9  1  0.30110000  0.80530000  0.58710000  1.0 -0.4488174805
O  O10  1  0.12180000  0.90500000  0.66740000  1.0 -0.4402601459
O  O11  1  0.31510000  0.96860000  0.55780000  1.0 -0.5829983094
O  O12  1  0.97820000  0.46670000  0.52020000  1.0 -0.543009583
O  O13  1  0.09730000  0.44040000  0.66520000  1.0 -0.5236868003
O  O14  1  0.89670000  0.71980000  0.41420000  1.0 -0.4981511572
O  O15  1  0.99540000  0.81160000  0.50150000  1.0 -0.612027947
O  O16  1  0.68840000  0.83880000  0.36990000  1.0 -0.5308291255
O  O17  1  0.73860000  0.80790000  0.23340000  1.0 -0.5308291255
O  O18  1  0.21620000  0.86650000  0.40260000  1.0 -0.5638767817
O  O19  1  0.05570000  0.80730000  0.29700000  1.0 -0.5308291255
O  O20  1  0.69890000  0.30530000  0.41290000  1.0 -0.4488174805
O  O21  1  0.87820000  0.40500000  0.33260000  1.0 -0.4402601459
O  O22  1  0.68490000  0.46860000  0.44220000  1.0 -0.5829983094
