# DDEC6 charges by PACMAN v1.1 (https://github.com/mtap-research/PACMAN-charge/)
data_GOZNAM_FSR_pacman
_symmetry_space_group_name_H-M   'P 1'
_cell_length_a   13.82530000
_cell_length_b   13.82530000
_cell_length_c   32.69900000
_cell_angle_alpha   85.58770000
_cell_angle_beta   94.41230000
_cell_angle_gamma   54.32390000
_symmetry_Int_Tables_number   1
_chemical_formula_structural   Mn3H42W2C52(N11O3)2
_chemical_formula_sum   'Mn6 H84 W4 C104 N44 O12'
_cell_volume   5004.46882275
_cell_formula_units_Z   2
loop_
 _symmetry_equiv_pos_site_id
 _symmetry_equiv_pos_as_xyz
  1  'x, y, z'
loop_
 _atom_site_type_symbol
 _atom_site_label
 _atom_site_symmetry_multiplicity
 _atom_site_fract_x
 _atom_site_fract_y
 _atom_site_fract_z
 _atom_site_occupancy
 _atom_site_charge
Mn  Mn1  1  0.00000000  0.00000000  0.50000000  1.0 0.8629225628
Mn  Mn2  1  0.00000000  0.00000000  0.00000000  1.0 0.8629225628
Mn  Mn3  1  0.78803000  0.21211000  0.79169000  1.0 0.868761851
Mn  Mn4  1  0.21211000  0.78803000  0.70831000  1.0 0.868761851
Mn  Mn5  1  0.21197000  0.78789000  0.20831000  1.0 0.868761851
Mn  Mn6  1  0.78789000  0.21197000  0.29169000  1.0 0.868761851
H  H1  1  0.87980000  0.37340000  0.79250000  1.0 0.0807054029
H  H2  1  0.37340000  0.87980000  0.70750000  1.0 0.0807054029
H  H3  1  0.12020000  0.62660000  0.20750000  1.0 0.0807054029
H  H4  1  0.62660000  0.12020000  0.29250000  1.0 0.0807054029
H  H5  1  0.04350000  0.37130000  0.78940000  1.0 0.1383434539
H  H6  1  0.37130000  0.04350000  0.71060000  1.0 0.1383434539
H  H7  1  0.95650000  0.62870000  0.21060000  1.0 0.1383434539
H  H8  1  0.62870000  0.95650000  0.28940000  1.0 0.1383434539
H  H9  1  0.24530000  0.00430000  0.80560000  1.0 0.1383434539
H  H10  1  0.00430000  0.24530000  0.69440000  1.0 0.1383434539
H  H11  1  0.75470000  0.99570000  0.19440000  1.0 0.1383434539
H  H12  1  0.99570000  0.75470000  0.30560000  1.0 0.1383434539
H  H13  1  0.07050000  0.02650000  0.79860000  1.0 0.1189841112
H  H14  1  0.02650000  0.07050000  0.70140000  1.0 0.1189841112
H  H15  1  0.92950000  0.97350000  0.20140000  1.0 0.1189841112
H  H16  1  0.97350000  0.92950000  0.29860000  1.0 0.1189841112
H  H17  1  0.36270000  0.08390000  0.80590000  1.0 0.111103167
H  H18  1  0.08390000  0.36270000  0.69410000  1.0 0.111103167
H  H19  1  0.63730000  0.91610000  0.19410000  1.0 0.111103167
H  H20  1  0.91610000  0.63730000  0.30590000  1.0 0.111103167
H  H21  1  0.22800000  0.33780000  0.79660000  1.0 0.1189841112
H  H22  1  0.33780000  0.22800000  0.70340000  1.0 0.1189841112
H  H23  1  0.77200000  0.66220000  0.20340000  1.0 0.1189841112
H  H24  1  0.66220000  0.77200000  0.29660000  1.0 0.1189841112
H  H25  1  0.52890000  0.37330000  0.81250000  1.0 0.111103167
H  H26  1  0.37330000  0.52890000  0.68750000  1.0 0.111103167
H  H27  1  0.47110000  0.62670000  0.18750000  1.0 0.111103167
H  H28  1  0.62670000  0.47110000  0.31250000  1.0 0.111103167
H  H29  1  0.35550000  0.39170000  0.81770000  1.0 0.1512433259
H  H30  1  0.39170000  0.35550000  0.68230000  1.0 0.1512433259
H  H31  1  0.64450000  0.60830000  0.18230000  1.0 0.1512433259
H  H32  1  0.60830000  0.64450000  0.31770000  1.0 0.1512433259
H  H33  1  0.52220000  0.06340000  0.77870000  1.0 0.1383434539
H  H34  1  0.06340000  0.52220000  0.72130000  1.0 0.1383434539
H  H35  1  0.47780000  0.93660000  0.22130000  1.0 0.1383434539
H  H36  1  0.93660000  0.47780000  0.27870000  1.0 0.1383434539
H  H37  1  0.68270000  0.06570000  0.77460000  1.0 0.1286879243
H  H38  1  0.06570000  0.68270000  0.72540000  1.0 0.1286879243
H  H39  1  0.31730000  0.93430000  0.22540000  1.0 0.1286879243
H  H40  1  0.93430000  0.31730000  0.27460000  1.0 0.1286879243
H  H41  1  0.87510000  0.25210000  0.52850000  1.0 0.1189841112
H  H42  1  0.25210000  0.87510000  0.97150000  1.0 0.1189841112
H  H43  1  0.12490000  0.74790000  0.47150000  1.0 0.1189841112
H  H44  1  0.74790000  0.12490000  0.02850000  1.0 0.1189841112
H  H45  1  0.87570000  0.42050000  0.52280000  1.0 0.1383434539
H  H46  1  0.42050000  0.87570000  0.97720000  1.0 0.1383434539
H  H47  1  0.12430000  0.57950000  0.47720000  1.0 0.1383434539
H  H48  1  0.57950000  0.12430000  0.02280000  1.0 0.1383434539
H  H49  1  0.19800000  0.22020000  0.48400000  1.0 0.1512433259
H  H50  1  0.22020000  0.19800000  0.01600000  1.0 0.1512433259
H  H51  1  0.80200000  0.77980000  0.51600000  1.0 0.1512433259
H  H52  1  0.77980000  0.80200000  0.98400000  1.0 0.1512433259
H  H53  1  0.17570000  0.06910000  0.48600000  1.0 0.1189841112
H  H54  1  0.06910000  0.17570000  0.01400000  1.0 0.1189841112
H  H55  1  0.82430000  0.93090000  0.51400000  1.0 0.1189841112
H  H56  1  0.93090000  0.82430000  0.98600000  1.0 0.1189841112
H  H57  1  0.10700000  0.43420000  0.48730000  1.0 0.1189841112
H  H58  1  0.43420000  0.10700000  0.01270000  1.0 0.1189841112
H  H59  1  0.89300000  0.56580000  0.51270000  1.0 0.1189841112
H  H60  1  0.56580000  0.89300000  0.98730000  1.0 0.1189841112
H  H61  1  0.18680000  0.90620000  0.56090000  1.0 0.3914031727
H  H62  1  0.90620000  0.18680000  0.93910000  1.0 0.3914031727
H  H63  1  0.81320000  0.09380000  0.43910000  1.0 0.3914031727
H  H64  1  0.09380000  0.81320000  0.06090000  1.0 0.3914031727
H  H65  1  0.15950000  0.81130000  0.55880000  1.0 0.3914031727
H  H66  1  0.81130000  0.15950000  0.94120000  1.0 0.3914031727
H  H67  1  0.84050000  0.18870000  0.44120000  1.0 0.3914031727
H  H68  1  0.18870000  0.84050000  0.05880000  1.0 0.3914031727
H  H69  1  0.65980000  0.44720000  0.79130000  1.0 0.3991444433
H  H70  1  0.44720000  0.65980000  0.70870000  1.0 0.3991444433
H  H71  1  0.34020000  0.55280000  0.20870000  1.0 0.3991444433
H  H72  1  0.55280000  0.34020000  0.29130000  1.0 0.3991444433
H  H73  1  0.72520000  0.41880000  0.75210000  1.0 0.3914031727
H  H74  1  0.41880000  0.72520000  0.74790000  1.0 0.3914031727
H  H75  1  0.27480000  0.58120000  0.24790000  1.0 0.3914031727
H  H76  1  0.58120000  0.27480000  0.25210000  1.0 0.3914031727
H  H77  1  0.72150000  0.25350000  0.86770000  1.0 0.3991444433
H  H78  1  0.25350000  0.72150000  0.63230000  1.0 0.3991444433
H  H79  1  0.27850000  0.74650000  0.13230000  1.0 0.3991444433
H  H80  1  0.74650000  0.27850000  0.36770000  1.0 0.3991444433
H  H81  1  0.83940000  0.24580000  0.86830000  1.0 0.3914031727
H  H82  1  0.24580000  0.83940000  0.63170000  1.0 0.3914031727
H  H83  1  0.16060000  0.75420000  0.13170000  1.0 0.3914031727
H  H84  1  0.75420000  0.16060000  0.36830000  1.0 0.3914031727
W  W1  1  0.74534000  0.12028000  0.63216000  1.0 0.6516351239
W  W2  1  0.12028000  0.74534000  0.86784000  1.0 0.6516351239
W  W3  1  0.25466000  0.87972000  0.36784000  1.0 0.6516351239
W  W4  1  0.87972000  0.25466000  0.13216000  1.0 0.6516351239
C  C1  1  0.77330000  0.14870000  0.69560000  1.0 0.0496774786
C  C2  1  0.14870000  0.77330000  0.80440000  1.0 0.0496774786
C  C3  1  0.22670000  0.85130000  0.30440000  1.0 0.0496774786
C  C4  1  0.85130000  0.22670000  0.19560000  1.0 0.0496774786
C  C5  1  0.82330000  0.21810000  0.62528000  1.0 -0.0232518087
C  C6  1  0.21810000  0.82330000  0.87472000  1.0 -0.0232518087
C  C7  1  0.17670000  0.78190000  0.37472000  1.0 -0.0232518087
C  C8  1  0.78190000  0.17670000  0.12528000  1.0 -0.0232518087
C  C9  1  0.92570000  0.97170000  0.65960000  1.0 0.0266638338
C  C10  1  0.97170000  0.92570000  0.84040000  1.0 0.0266638338
C  C11  1  0.07430000  0.02830000  0.34040000  1.0 0.0266638338
C  C12  1  0.02830000  0.07430000  0.15960000  1.0 0.0266638338
C  C13  1  0.84490000  0.06850000  0.57950000  1.0 0.0722803579
C  C14  1  0.06850000  0.84490000  0.92050000  1.0 0.0644461648
C  C15  1  0.15510000  0.93150000  0.42050000  1.0 0.0644461648
C  C16  1  0.93150000  0.15510000  0.07950000  1.0 0.0722803579
C  C17  1  0.76470000  0.95990000  0.61870000  1.0 -0.0079806561
C  C18  1  0.95990000  0.76470000  0.88130000  1.0 -0.0079806561
C  C19  1  0.23530000  0.04010000  0.38130000  1.0 -0.0079806561
C  C20  1  0.04010000  0.23530000  0.11870000  1.0 -0.0079806561
C  C21  1  0.61320000  0.18620000  0.57790000  1.0 0.0111888568
C  C22  1  0.18620000  0.61320000  0.92210000  1.0 0.0111888568
C  C23  1  0.38680000  0.81380000  0.42210000  1.0 0.0111888568
C  C24  1  0.81380000  0.38680000  0.07790000  1.0 0.0111888568
C  C25  1  0.61960000  0.10680000  0.66280000  1.0 0.0111888568
C  C26  1  0.10680000  0.61960000  0.83720000  1.0 0.0111888568
C  C27  1  0.38040000  0.89320000  0.33720000  1.0 0.0198680522
C  C28  1  0.89320000  0.38040000  0.16280000  1.0 0.0198680522
C  C29  1  0.60350000  0.30890000  0.63540000  1.0 0.0198680522
C  C30  1  0.30890000  0.60350000  0.86460000  1.0 0.0198680522
C  C31  1  0.39650000  0.69110000  0.36460000  1.0 0.0198680522
C  C32  1  0.69110000  0.39650000  0.13540000  1.0 0.0198680522
C  C33  1  0.95370000  0.29970000  0.79290000  1.0 0.0722803579
C  C34  1  0.29970000  0.95370000  0.70710000  1.0 0.0722803579
C  C35  1  0.04630000  0.70030000  0.20710000  1.0 0.0722803579
C  C36  1  0.70030000  0.04630000  0.29290000  1.0 0.0722803579
C  C37  1  0.05280000  0.29880000  0.79350000  1.0 -0.2015950395
C  C38  1  0.29880000  0.05280000  0.70650000  1.0 -0.2015950395
C  C39  1  0.94720000  0.70120000  0.20650000  1.0 -0.2015950395
C  C40  1  0.70120000  0.94720000  0.29350000  1.0 -0.2015950395
C  C41  1  0.17250000  0.18610000  0.80040000  1.0 0.1735231341
C  C42  1  0.18610000  0.17250000  0.69960000  1.0 0.1735231341
C  C43  1  0.82750000  0.81390000  0.19960000  1.0 0.1735231341
C  C44  1  0.81390000  0.82750000  0.30040000  1.0 0.1735231341
C  C45  1  0.17290000  0.08110000  0.80190000  1.0 -0.1730881645
C  C46  1  0.08110000  0.17290000  0.69810000  1.0 -0.1730881645
C  C47  1  0.82710000  0.91890000  0.19810000  1.0 -0.1730881645
C  C48  1  0.91890000  0.82710000  0.30190000  1.0 -0.1730881645
C  C49  1  0.06740000  0.09560000  0.79794000  1.0 0.0644461648
C  C50  1  0.09560000  0.06740000  0.70206000  1.0 0.0644461648
C  C51  1  0.93260000  0.90440000  0.20206000  1.0 0.0644461648
C  C52  1  0.90440000  0.93260000  0.29794000  1.0 0.0644461648
C  C53  1  0.29270000  0.16230000  0.80230000  1.0 -0.1619811072
C  C54  1  0.16230000  0.29270000  0.69770000  1.0 -0.1619811072
C  C55  1  0.70730000  0.83770000  0.19770000  1.0 -0.1619811072
C  C56  1  0.83770000  0.70730000  0.30230000  1.0 -0.1619811072
C  C57  1  0.29730000  0.25930000  0.79860000  1.0 -0.1361358179
C  C58  1  0.25930000  0.29730000  0.70140000  1.0 -0.1361358179
C  C59  1  0.70270000  0.74070000  0.20140000  1.0 -0.1361358179
C  C60  1  0.74070000  0.70270000  0.29860000  1.0 -0.1361358179
C  C61  1  0.52610000  0.31050000  0.80600000  1.0 0.0722803579
C  C62  1  0.31050000  0.52610000  0.69400000  1.0 0.0722803579
C  C63  1  0.47390000  0.68950000  0.19400000  1.0 0.0722803579
C  C64  1  0.68950000  0.47390000  0.30600000  1.0 0.0722803579
C  C65  1  0.42040000  0.32440000  0.80880000  1.0 -0.1730881645
C  C66  1  0.32440000  0.42040000  0.69120000  1.0 -0.1730881645
C  C67  1  0.57960000  0.67560000  0.19120000  1.0 -0.1730881645
C  C68  1  0.67560000  0.57960000  0.30880000  1.0 -0.1730881645
C  C69  1  0.41580000  0.23420000  0.79780000  1.0 0.1512433259
C  C70  1  0.23420000  0.41580000  0.70220000  1.0 0.1512433259
C  C71  1  0.58420000  0.76580000  0.20220000  1.0 0.1512433259
C  C72  1  0.76580000  0.58420000  0.29780000  1.0 0.1512433259
C  C73  1  0.52130000  0.12810000  0.78530000  1.0 -0.1825835756
C  C74  1  0.12810000  0.52130000  0.71470000  1.0 -0.1825835756
C  C75  1  0.47870000  0.87190000  0.21470000  1.0 -0.1825835756
C  C76  1  0.87190000  0.47870000  0.28530000  1.0 -0.1825835756
C  C77  1  0.61610000  0.13030000  0.78400000  1.0 0.0904867263
C  C78  1  0.13030000  0.61610000  0.71600000  1.0 0.0904867263
C  C79  1  0.38390000  0.86970000  0.21600000  1.0 0.0904867263
C  C80  1  0.86970000  0.38390000  0.28400000  1.0 0.0904867263
C  C81  1  0.93840000  0.24700000  0.51800000  1.0 0.111103167
C  C82  1  0.24700000  0.93840000  0.98200000  1.0 0.111103167
C  C83  1  0.06160000  0.75300000  0.48200000  1.0 0.111103167
C  C84  1  0.75300000  0.06160000  0.01800000  1.0 0.111103167
C  C85  1  0.93970000  0.34910000  0.51547000  1.0 -0.1941069229
C  C86  1  0.34910000  0.93970000  0.98453000  1.0 -0.1941069229
C  C87  1  0.06030000  0.65090000  0.48453000  1.0 -0.1941069229
C  C88  1  0.65090000  0.06030000  0.01547000  1.0 -0.1941069229
C  C89  1  0.03590000  0.34330000  0.50210000  1.0 0.1512433259
C  C90  1  0.34330000  0.03590000  0.99790000  1.0 0.1512433259
C  C91  1  0.96410000  0.65670000  0.49790000  1.0 0.1512433259
C  C92  1  0.65670000  0.96410000  0.00210000  1.0 0.1512433259
C  C93  1  0.12900000  0.23220000  0.49190000  1.0 -0.1825835756
C  C94  1  0.23220000  0.12900000  0.00810000  1.0 -0.1825835756
C  C95  1  0.87100000  0.76780000  0.50810000  1.0 -0.1825835756
C  C96  1  0.76780000  0.87100000  0.99190000  1.0 -0.1825835756
C  C97  1  0.11480000  0.14120000  0.49400000  1.0 0.0807054029
C  C98  1  0.14120000  0.11480000  0.00600000  1.0 0.0807054029
C  C99  1  0.88520000  0.85880000  0.50600000  1.0 0.0807054029
C  C100  1  0.85880000  0.88520000  0.99400000  1.0 0.0807054029
C  C101  1  0.03900000  0.44740000  0.49672000  1.0 -0.1211389186
C  C102  1  0.44740000  0.03900000  0.00328000  1.0 -0.1211389186
C  C103  1  0.96100000  0.55260000  0.50328000  1.0 -0.1211389186
C  C104  1  0.55260000  0.96100000  0.99672000  1.0 -0.1211389186
N  N1  1  0.78900000  0.16380000  0.72830000  1.0 -0.3652820303
N  N2  1  0.16380000  0.78900000  0.77170000  1.0 -0.3652820303
N  N3  1  0.21100000  0.83620000  0.27170000  1.0 -0.3652820303
N  N4  1  0.83620000  0.21100000  0.22830000  1.0 -0.3652820303
N  N5  1  0.86250000  0.27130000  0.62050000  1.0 -0.3534163846
N  N6  1  0.27130000  0.86250000  0.87950000  1.0 -0.3534163846
N  N7  1  0.13750000  0.72870000  0.37950000  1.0 -0.3534163846
N  N8  1  0.72870000  0.13750000  0.12050000  1.0 -0.3534163846
N  N9  1  0.02130000  0.89910000  0.67657000  1.0 -0.3789256601
N  N10  1  0.89910000  0.02130000  0.82343000  1.0 -0.3789256601
N  N11  1  0.97870000  0.10090000  0.32343000  1.0 -0.3789256601
N  N12  1  0.10090000  0.97870000  0.17657000  1.0 -0.3789256601
N  N13  1  0.89700000  0.04220000  0.55253000  1.0 -0.3789256601
N  N14  1  0.04220000  0.89700000  0.94747000  1.0 -0.3789256601
N  N15  1  0.10300000  0.95780000  0.44747000  1.0 -0.3789256601
N  N16  1  0.95780000  0.10300000  0.05253000  1.0 -0.3789256601
N  N17  1  0.77080000  0.87620000  0.60968000  1.0 -0.3303254062
N  N18  1  0.87620000  0.77080000  0.89032000  1.0 -0.3303254062
N  N19  1  0.22920000  0.12380000  0.39032000  1.0 -0.3303254062
N  N20  1  0.12380000  0.22920000  0.10968000  1.0 -0.3303254062
N  N21  1  0.54160000  0.22080000  0.54787000  1.0 -0.3303254062
N  N22  1  0.22080000  0.54160000  0.95213000  1.0 -0.3303254062
N  N23  1  0.45840000  0.77920000  0.45213000  1.0 -0.3303254062
N  N24  1  0.77920000  0.45840000  0.04787000  1.0 -0.3303254062
N  N25  1  0.55210000  0.10090000  0.67952000  1.0 -0.3379831849
N  N26  1  0.10090000  0.55210000  0.82048000  1.0 -0.3379831849
N  N27  1  0.44790000  0.89910000  0.32048000  1.0 -0.3379831849
N  N28  1  0.89910000  0.44790000  0.17952000  1.0 -0.3379831849
N  N29  1  0.53890000  0.40870000  0.63726000  1.0 -0.3303254062
N  N30  1  0.40870000  0.53890000  0.86274000  1.0 -0.3303254062
N  N31  1  0.46110000  0.59130000  0.36274000  1.0 -0.3303254062
N  N32  1  0.59130000  0.46110000  0.13726000  1.0 -0.3303254062
N  N33  1  0.95490000  0.20470000  0.79293000  1.0 -0.2878845497
N  N34  1  0.20470000  0.95490000  0.70707000  1.0 -0.2878845497
N  N35  1  0.04510000  0.79530000  0.20707000  1.0 -0.2878845497
N  N36  1  0.79530000  0.04510000  0.29293000  1.0 -0.2878845497
N  N37  1  0.62444000  0.21744000  0.79491000  1.0 -0.2619282766
N  N38  1  0.21744000  0.62444000  0.70509000  1.0 -0.2619282766
N  N39  1  0.37556000  0.78256000  0.20509000  1.0 -0.2619282766
N  N40  1  0.78256000  0.37556000  0.29491000  1.0 -0.2619282766
N  N41  1  0.02190000  0.14670000  0.50630000  1.0 -0.2772514387
N  N42  1  0.14670000  0.02190000  0.99370000  1.0 -0.2772514387
N  N43  1  0.97810000  0.85330000  0.49370000  1.0 -0.2772514387
N  N44  1  0.85330000  0.97810000  0.00630000  1.0 -0.2772514387
O  O1  1  0.16883000  0.86563000  0.54271000  1.0 -0.7258810712
O  O2  1  0.86563000  0.16883000  0.95729000  1.0 -0.7258810712
O  O3  1  0.83117000  0.13437000  0.45729000  1.0 -0.7258810712
O  O4  1  0.13437000  0.83117000  0.04271000  1.0 -0.7258810712
O  O5  1  0.68002000  0.40262000  0.76842000  1.0 -0.7034904523
O  O6  1  0.40262000  0.68002000  0.73158000  1.0 -0.7056657834
O  O7  1  0.31998000  0.59738000  0.23158000  1.0 -0.7056657834
O  O8  1  0.59738000  0.31998000  0.26842000  1.0 -0.7034904523
O  O9  1  0.76221000  0.27861000  0.85266000  1.0 -0.7361760749
O  O10  1  0.27861000  0.76221000  0.64734000  1.0 -0.7361760749
O  O11  1  0.23779000  0.72139000  0.14734000  1.0 -0.7361760749
O  O12  1  0.72139000  0.23779000  0.35266000  1.0 -0.7361760749
