# DDEC6 charges by PACMAN v1.1 (https://github.com/mtap-research/PACMAN-charge/)
data_GUBBAG_FSR_pacman
_symmetry_space_group_name_H-M   'P 1'
_cell_length_a   8.16600000
_cell_length_b   22.15400000
_cell_length_c   19.03600000
_cell_angle_alpha   90.00000000
_cell_angle_beta   106.39000000
_cell_angle_gamma   90.00000000
_symmetry_Int_Tables_number   1
_chemical_formula_structural   Cd7C20(N8O)2
_chemical_formula_sum   'Cd14 C40 N32 O4'
_cell_volume   3303.84980379
_cell_formula_units_Z   2
loop_
 _symmetry_equiv_pos_site_id
 _symmetry_equiv_pos_as_xyz
  1  'x, y, z'
loop_
 _atom_site_type_symbol
 _atom_site_label
 _atom_site_symmetry_multiplicity
 _atom_site_fract_x
 _atom_site_fract_y
 _atom_site_fract_z
 _atom_site_occupancy
 _atom_site_charge
Cd  Cd1  1  0.00000000  0.00000000  0.00000000  1.0 0.7468505707
Cd  Cd2  1  0.00000000  0.50000000  0.50000000  1.0 0.7468505707
Cd  Cd3  1  0.39017000  0.12350000  0.83104000  1.0 0.5405248609
Cd  Cd4  1  0.60983000  0.62350000  0.66896000  1.0 0.5405248609
Cd  Cd5  1  0.60983000  0.87650000  0.16896000  1.0 0.5405248609
Cd  Cd6  1  0.39017000  0.37650000  0.33104000  1.0 0.5405248609
Cd  Cd7  1  0.30900000  0.95900000  0.59853000  1.0 0.9458342996
Cd  Cd8  1  0.69100000  0.45900000  0.90147000  1.0 0.9458342996
Cd  Cd9  1  0.69100000  0.04100000  0.40147000  1.0 0.9605972377
Cd  Cd10  1  0.30900000  0.54100000  0.09853000  1.0 0.9605972377
Cd  Cd11  1  0.09104000  0.15978000  0.24252000  1.0 0.3282154408
Cd  Cd12  1  0.90896000  0.65978000  0.25748000  1.0 0.3282154408
Cd  Cd13  1  0.90896000  0.84022000  0.75748000  1.0 0.3408971039
Cd  Cd14  1  0.09104000  0.34022000  0.74252000  1.0 0.348157039
C  C1  1  0.46520000  0.99210000  0.51980000  1.0 -0.2056954148
C  C2  1  0.53480000  0.49210000  0.98020000  1.0 -0.1891516614
C  C3  1  0.53480000  0.00790000  0.48020000  1.0 -0.1705397013
C  C4  1  0.46520000  0.50790000  0.01980000  1.0 -0.1891516614
C  C5  1  0.05910000  0.99140000  0.52080000  1.0 -0.2411406282
C  C6  1  0.94090000  0.49140000  0.97920000  1.0 -0.2490321266
C  C7  1  0.94090000  0.00860000  0.47920000  1.0 -0.2186814266
C  C8  1  0.05910000  0.50860000  0.02080000  1.0 -0.2186814266
C  C9  1  0.04390000  0.11260000  0.13390000  1.0 0.110671054
C  C10  1  0.95610000  0.61260000  0.36610000  1.0 0.110671054
C  C11  1  0.95610000  0.88740000  0.86610000  1.0 0.1218099779
C  C12  1  0.04390000  0.38740000  0.63390000  1.0 0.110671054
C  C13  1  0.74760000  0.04700000  0.92960000  1.0 0.2513380033
C  C14  1  0.25240000  0.54700000  0.57040000  1.0 0.2513380033
C  C15  1  0.25240000  0.95300000  0.07040000  1.0 0.2513380033
C  C16  1  0.74760000  0.45300000  0.42960000  1.0 0.2513380033
C  C17  1  0.23230000  0.08300000  0.89780000  1.0 0.1218099779
C  C18  1  0.76770000  0.58300000  0.60220000  1.0 0.1218099779
C  C19  1  0.76770000  0.91700000  0.10220000  1.0 0.1218099779
C  C20  1  0.23230000  0.41700000  0.39780000  1.0 0.1218099779
C  C21  1  0.38210000  0.06990000  0.73180000  1.0 0.1637743321
C  C22  1  0.61790000  0.56990000  0.76820000  1.0 0.1667004135
C  C23  1  0.61790000  0.93010000  0.26820000  1.0 0.1781036463
C  C24  1  0.38210000  0.43010000  0.23180000  1.0 0.1862014589
C  C25  1  0.34190000  0.11910000  0.30310000  1.0 0.1266559121
C  C26  1  0.65810000  0.61910000  0.19690000  1.0 0.1361677256
C  C27  1  0.65810000  0.88090000  0.69690000  1.0 0.1218099779
C  C28  1  0.34190000  0.38090000  0.80310000  1.0 0.1218099779
C  C29  1  0.54000000  0.20660000  0.86900000  1.0 0.0038005394
C  C30  1  0.46000000  0.70660000  0.63100000  1.0 0.0108808199
C  C31  1  0.46000000  0.79340000  0.13100000  1.0 0.0108808199
C  C32  1  0.54000000  0.29340000  0.36900000  1.0 0.0108808199
C  C33  1  0.11850000  0.25900000  0.24860000  1.0 0.0524151133
C  C34  1  0.88150000  0.75900000  0.25140000  1.0 0.0524151133
C  C35  1  0.88150000  0.74100000  0.75140000  1.0 0.0524151133
C  C36  1  0.11850000  0.24100000  0.74860000  1.0 0.0412621406
C  C37  1  0.90870000  0.11690000  0.29410000  1.0 0.0884166678
C  C38  1  0.09130000  0.61690000  0.20590000  1.0 0.0961579886
C  C39  1  0.09130000  0.88310000  0.70590000  1.0 0.0884166678
C  C40  1  0.90870000  0.38310000  0.79410000  1.0 0.0849984419
N  N1  1  0.03170000  0.08150000  0.08870000  1.0 -0.3299030679
N  N2  1  0.96830000  0.58150000  0.41130000  1.0 -0.3299030679
N  N3  1  0.96830000  0.91850000  0.91130000  1.0 -0.3299030679
N  N4  1  0.03170000  0.41850000  0.58870000  1.0 -0.3299030679
N  N5  1  0.66570000  0.06360000  0.90870000  1.0 -0.2869109842
N  N6  1  0.33430000  0.56360000  0.59130000  1.0 -0.2869109842
N  N7  1  0.33430000  0.93640000  0.09130000  1.0 -0.2869109842
N  N8  1  0.66570000  0.43640000  0.40870000  1.0 -0.2799172096
N  N9  1  0.15910000  0.05870000  0.93080000  1.0 -0.3566136552
N  N10  1  0.84090000  0.55870000  0.56920000  1.0 -0.3480777237
N  N11  1  0.84090000  0.94130000  0.06920000  1.0 -0.3566136552
N  N12  1  0.15910000  0.44130000  0.43080000  1.0 -0.3566136552
N  N13  1  0.36890000  0.03880000  0.68250000  1.0 -0.4526443127
N  N14  1  0.63110000  0.53880000  0.81750000  1.0 -0.4526443127
N  N15  1  0.63110000  0.96120000  0.31750000  1.0 -0.4636958632
N  N16  1  0.36890000  0.46120000  0.18250000  1.0 -0.4699386451
N  N17  1  0.54300000  0.90520000  0.66710000  1.0 -0.3681224528
N  N18  1  0.45700000  0.40520000  0.83290000  1.0 -0.3681224528
N  N19  1  0.45700000  0.09480000  0.33290000  1.0 -0.3681224528
N  N20  1  0.54300000  0.59480000  0.16710000  1.0 -0.3681224528
N  N21  1  0.61680000  0.24810000  0.88880000  1.0 -0.0525543223
N  N22  1  0.38320000  0.74810000  0.61120000  1.0 -0.0525543223
N  N23  1  0.38320000  0.75190000  0.11120000  1.0 -0.0525543223
N  N24  1  0.61680000  0.25190000  0.38880000  1.0 -0.0525543223
N  N25  1  0.15370000  0.19310000  0.75950000  1.0 -0.2799172096
N  N26  1  0.84630000  0.69310000  0.74050000  1.0 -0.2869109842
N  N27  1  0.84630000  0.80690000  0.24050000  1.0 -0.2869109842
N  N28  1  0.15370000  0.30690000  0.25950000  1.0 -0.2799172096
N  N29  1  0.16510000  0.91100000  0.67710000  1.0 -0.3413542154
N  N30  1  0.83490000  0.41100000  0.82290000  1.0 -0.3413542154
N  N31  1  0.83490000  0.08900000  0.32290000  1.0 -0.3480777237
N  N32  1  0.16510000  0.58900000  0.17710000  1.0 -0.3480777237
O  O1  1  0.23510000  0.85720000  0.53950000  1.0 -0.2490321266
O  O2  1  0.76490000  0.35720000  0.96050000  1.0 -0.2411406282
O  O3  1  0.76490000  0.14280000  0.46050000  1.0 -0.2411406282
O  O4  1  0.23510000  0.64280000  0.03950000  1.0 -0.2290083858
