# DDEC6 charges by PACMAN v1.1 (https://github.com/mtap-research/PACMAN-charge/)
data_GUBJIZ_FSR_pacman
_symmetry_space_group_name_H-M   'P 1'
_cell_length_a   13.97630000
_cell_length_b   13.97630000
_cell_length_c   21.02290000
_cell_angle_alpha   63.82610000
_cell_angle_beta   116.17400000
_cell_angle_gamma   123.03900000
_symmetry_Int_Tables_number   1
_chemical_formula_structural   Zn3H32C52(NO2)6
_chemical_formula_sum   'Zn6 H64 C104 N12 O24'
_cell_volume   2977.66367566
_cell_formula_units_Z   2
loop_
 _symmetry_equiv_pos_site_id
 _symmetry_equiv_pos_as_xyz
  1  'x, y, z'
loop_
 _atom_site_type_symbol
 _atom_site_label
 _atom_site_symmetry_multiplicity
 _atom_site_fract_x
 _atom_site_fract_y
 _atom_site_fract_z
 _atom_site_occupancy
 _atom_site_charge
Zn  Zn1  1  0.45820000  0.62440000  0.82076000  1.0 0.8276371429
Zn  Zn2  1  0.54180000  0.37560000  0.17924000  1.0 0.8276371429
Zn  Zn3  1  0.50000000  0.50000000  0.00000000  1.0 1.0141589114
Zn  Zn4  1  0.62440000  0.45820000  0.67924000  1.0 0.8276371429
Zn  Zn5  1  0.37560000  0.54180000  0.32076000  1.0 0.8276371429
Zn  Zn6  1  0.50000000  0.50000000  0.50000000  1.0 1.0141589114
H  H1  1  0.87042000  0.64034000  0.02369000  1.0 0.1190825931
H  H2  1  0.07270000  0.73446000  0.03253000  1.0 0.1190825931
H  H3  1  0.01514000  0.94516000  0.82764000  1.0 0.1271138092
H  H4  1  0.81245000  0.84925000  0.81800000  1.0 0.1190825931
H  H5  1  0.40283000  0.26675000  0.81557000  1.0 0.1190825931
H  H6  1  0.32331000  0.06073000  0.84781000  1.0 0.1271138092
H  H7  1  0.18190000  0.03920000  0.98842000  1.0 0.1271138092
H  H8  1  0.26921000  0.24503000  0.96031000  1.0 0.1271138092
H  H9  1  0.47813000  0.81133000  0.99540000  1.0 0.1190825931
H  H10  1  0.39221000  0.90335000  0.00758000  1.0 0.1271138092
H  H11  1  0.09527000  0.76485000  0.85342000  1.0 0.1190825931
H  H12  1  0.18612000  0.68058000  0.83806000  1.0 0.1190825931
H  H13  1  0.45886000  0.85276000  0.73019000  1.0 0.1190825931
H  H14  1  0.48580000  0.98686000  0.61798000  1.0 0.1271138092
H  H15  1  0.45909000  0.73363000  0.55761000  1.0 0.1455356697
H  H16  1  0.44065000  0.60783000  0.67427000  1.0 0.1190825931
H  H17  1  0.12958000  0.35966000  0.97631000  1.0 0.1190825931
H  H18  1  0.92730000  0.26554000  0.96747000  1.0 0.1190825931
H  H19  1  0.98486000  0.05484000  0.17236000  1.0 0.1271138092
H  H20  1  0.18755000  0.15075000  0.18200000  1.0 0.1190825931
H  H21  1  0.59717000  0.73325000  0.18443000  1.0 0.1190825931
H  H22  1  0.67669000  0.93927000  0.15219000  1.0 0.1271138092
H  H23  1  0.81810000  0.96080000  0.01158000  1.0 0.1271138092
H  H24  1  0.73079000  0.75497000  0.03969000  1.0 0.1271138092
H  H25  1  0.52187000  0.18867000  0.00460000  1.0 0.1190825931
H  H26  1  0.60779000  0.09665000  0.99242000  1.0 0.1271138092
H  H27  1  0.90473000  0.23515000  0.14658000  1.0 0.1190825931
H  H28  1  0.81388000  0.31942000  0.16194000  1.0 0.1190825931
H  H29  1  0.54114000  0.14724000  0.26981000  1.0 0.1190825931
H  H30  1  0.51420000  0.01314000  0.38202000  1.0 0.1271138092
H  H31  1  0.54091000  0.26637000  0.44239000  1.0 0.1455356697
H  H32  1  0.55935000  0.39217000  0.32573000  1.0 0.1190825931
H  H33  1  0.64034000  0.87042000  0.47631000  1.0 0.1190825931
H  H34  1  0.73446000  0.07270000  0.46747000  1.0 0.1190825931
H  H35  1  0.94516000  0.01514000  0.67236000  1.0 0.1271138092
H  H36  1  0.84925000  0.81245000  0.68200000  1.0 0.1190825931
H  H37  1  0.26675000  0.40283000  0.68443000  1.0 0.1190825931
H  H38  1  0.06073000  0.32331000  0.65219000  1.0 0.1271138092
H  H39  1  0.03920000  0.18190000  0.51158000  1.0 0.1271138092
H  H40  1  0.24503000  0.26921000  0.53969000  1.0 0.1271138092
H  H41  1  0.81133000  0.47813000  0.50460000  1.0 0.1190825931
H  H42  1  0.90335000  0.39221000  0.49242000  1.0 0.1271138092
H  H43  1  0.76485000  0.09527000  0.64658000  1.0 0.1190825931
H  H44  1  0.68058000  0.18612000  0.66194000  1.0 0.1190825931
H  H45  1  0.85276000  0.45886000  0.76981000  1.0 0.1190825931
H  H46  1  0.98686000  0.48580000  0.88202000  1.0 0.1271138092
H  H47  1  0.73363000  0.45909000  0.94239000  1.0 0.1455356697
H  H48  1  0.60783000  0.44065000  0.82573000  1.0 0.1190825931
H  H49  1  0.35966000  0.12958000  0.52369000  1.0 0.1190825931
H  H50  1  0.26554000  0.92730000  0.53253000  1.0 0.1190825931
H  H51  1  0.05484000  0.98486000  0.32764000  1.0 0.1271138092
H  H52  1  0.15075000  0.18755000  0.31800000  1.0 0.1190825931
H  H53  1  0.73325000  0.59717000  0.31557000  1.0 0.1190825931
H  H54  1  0.93927000  0.67669000  0.34781000  1.0 0.1271138092
H  H55  1  0.96080000  0.81810000  0.48842000  1.0 0.1271138092
H  H56  1  0.75497000  0.73079000  0.46031000  1.0 0.1271138092
H  H57  1  0.18867000  0.52187000  0.49540000  1.0 0.1190825931
H  H58  1  0.09665000  0.60779000  0.50758000  1.0 0.1271138092
H  H59  1  0.23515000  0.90473000  0.35342000  1.0 0.1190825931
H  H60  1  0.31942000  0.81388000  0.33806000  1.0 0.1190825931
H  H61  1  0.14724000  0.54114000  0.23019000  1.0 0.1190825931
H  H62  1  0.01314000  0.51420000  0.11798000  1.0 0.1271138092
H  H63  1  0.26637000  0.54091000  0.05761000  1.0 0.1455356697
H  H64  1  0.39217000  0.55935000  0.17427000  1.0 0.1190825931
C  C1  1  0.69171000  0.67431000  0.91379000  1.0 0.5744648049
C  C2  1  0.82193000  0.73695000  0.92086000  1.0 -0.0487632832
C  C3  1  0.89940000  0.70272000  0.98359000  1.0 -0.0894336311
C  C4  1  0.01986000  0.75862000  0.98887000  1.0 -0.1899971066
C  C5  1  0.06275000  0.84895000  0.93096000  1.0 0.1815182207
C  C6  1  0.98589000  0.88293000  0.86770000  1.0 -0.1990439637
C  C7  1  0.86542000  0.82644000  0.86222000  1.0 -0.0894336311
C  C8  1  0.39295000  0.40621000  0.86441000  1.0 0.5649058888
C  C9  1  0.34346000  0.27596000  0.88468000  1.0 -0.0487632832
C  C10  1  0.35885000  0.22043000  0.85120000  1.0 -0.0894336311
C  C11  1  0.31040000  0.09812000  0.86960000  1.0 -0.1990439637
C  C12  1  0.24286000  0.03008000  0.91995000  1.0 0.1889942115
C  C13  1  0.22748000  0.08550000  0.95367000  1.0 -0.1899971066
C  C14  1  0.27851000  0.20759000  0.93655000  1.0 -0.0656648564
C  C15  1  0.39873000  0.68365000  0.90459000  1.0 0.59237609
C  C16  1  0.34171000  0.73893000  0.91463000  1.0 -0.0398933167
C  C17  1  0.40116000  0.80372000  0.96538000  1.0 -0.0894336311
C  C18  1  0.34980000  0.85776000  0.97300000  1.0 -0.1899971066
C  C19  1  0.23630000  0.84574000  0.93026000  1.0 0.1889942115
C  C20  1  0.17419000  0.77687000  0.88120000  1.0 -0.1899971066
C  C21  1  0.22794000  0.72560000  0.87292000  1.0 -0.0894336311
C  C22  1  0.46067000  0.82913000  0.69488000  1.0 0.0916257793
C  C23  1  0.47590000  0.90910000  0.62830000  1.0 -0.1990439637
C  C24  1  0.47633000  0.87395000  0.57640000  1.0 0.1815182207
C  C25  1  0.46114000  0.76022000  0.59291000  1.0 -0.1840842744
C  C26  1  0.44890000  0.68552000  0.66218000  1.0 0.1035272697
C  C27  1  0.30829000  0.32569000  0.08621000  1.0 0.5744648049
C  C28  1  0.17807000  0.26305000  0.07914000  1.0 -0.0487632832
C  C29  1  0.10060000  0.29728000  0.01641000  1.0 -0.0894336311
C  C30  1  0.98014000  0.24138000  0.01113000  1.0 -0.1899971066
C  C31  1  0.93725000  0.15105000  0.06904000  1.0 0.1815182207
C  C32  1  0.01411000  0.11707000  0.13230000  1.0 -0.1990439637
C  C33  1  0.13458000  0.17356000  0.13778000  1.0 -0.0894336311
C  C34  1  0.60705000  0.59379000  0.13559000  1.0 0.5649058888
C  C35  1  0.65654000  0.72404000  0.11532000  1.0 -0.0487632832
C  C36  1  0.64115000  0.77957000  0.14880000  1.0 -0.0894336311
C  C37  1  0.68960000  0.90188000  0.13040000  1.0 -0.1990439637
C  C38  1  0.75714000  0.96992000  0.08005000  1.0 0.1889942115
C  C39  1  0.77252000  0.91450000  0.04633000  1.0 -0.1899971066
C  C40  1  0.72149000  0.79241000  0.06345000  1.0 -0.0656648564
C  C41  1  0.60127000  0.31635000  0.09541000  1.0 0.59237609
C  C42  1  0.65829000  0.26107000  0.08537000  1.0 -0.0398933167
C  C43  1  0.59884000  0.19628000  0.03462000  1.0 -0.0894336311
C  C44  1  0.65020000  0.14224000  0.02700000  1.0 -0.1899971066
C  C45  1  0.76370000  0.15426000  0.06974000  1.0 0.1889942115
C  C46  1  0.82581000  0.22313000  0.11880000  1.0 -0.1899971066
C  C47  1  0.77206000  0.27440000  0.12708000  1.0 -0.0894336311
C  C48  1  0.53933000  0.17087000  0.30512000  1.0 0.0916257793
C  C49  1  0.52410000  0.09090000  0.37170000  1.0 -0.1990439637
C  C50  1  0.52367000  0.12605000  0.42360000  1.0 0.1815182207
C  C51  1  0.53886000  0.23978000  0.40709000  1.0 -0.1840842744
C  C52  1  0.55110000  0.31448000  0.33782000  1.0 0.1035272697
C  C53  1  0.67431000  0.69171000  0.58621000  1.0 0.5744648049
C  C54  1  0.73695000  0.82193000  0.57914000  1.0 -0.0487632832
C  C55  1  0.70272000  0.89940000  0.51641000  1.0 -0.0894336311
C  C56  1  0.75862000  0.01986000  0.51113000  1.0 -0.1899971066
C  C57  1  0.84895000  0.06275000  0.56904000  1.0 0.1815182207
C  C58  1  0.88293000  0.98589000  0.63230000  1.0 -0.1990439637
C  C59  1  0.82644000  0.86542000  0.63778000  1.0 -0.0894336311
C  C60  1  0.40621000  0.39295000  0.63559000  1.0 0.5649058888
C  C61  1  0.27596000  0.34346000  0.61532000  1.0 -0.0487632832
C  C62  1  0.22043000  0.35885000  0.64880000  1.0 -0.0894336311
C  C63  1  0.09812000  0.31040000  0.63040000  1.0 -0.1990439637
C  C64  1  0.03008000  0.24286000  0.58005000  1.0 0.1889942115
C  C65  1  0.08550000  0.22748000  0.54633000  1.0 -0.1899971066
C  C66  1  0.20759000  0.27851000  0.56345000  1.0 -0.0656648564
C  C67  1  0.68365000  0.39873000  0.59541000  1.0 0.59237609
C  C68  1  0.73893000  0.34171000  0.58537000  1.0 -0.0398933167
C  C69  1  0.80372000  0.40116000  0.53462000  1.0 -0.0894336311
C  C70  1  0.85776000  0.34980000  0.52700000  1.0 -0.1899971066
C  C71  1  0.84574000  0.23630000  0.56974000  1.0 0.1889942115
C  C72  1  0.77687000  0.17419000  0.61880000  1.0 -0.1899971066
C  C73  1  0.72560000  0.22794000  0.62708000  1.0 -0.0894336311
C  C74  1  0.82913000  0.46067000  0.80512000  1.0 0.0916257793
C  C75  1  0.90910000  0.47590000  0.87170000  1.0 -0.1990439637
C  C76  1  0.87395000  0.47633000  0.92360000  1.0 0.1815182207
C  C77  1  0.76022000  0.46114000  0.90709000  1.0 -0.1840842744
C  C78  1  0.68552000  0.44890000  0.83782000  1.0 0.1035272697
C  C79  1  0.32569000  0.30829000  0.41379000  1.0 0.5744648049
C  C80  1  0.26305000  0.17807000  0.42086000  1.0 -0.0487632832
C  C81  1  0.29728000  0.10060000  0.48359000  1.0 -0.0894336311
C  C82  1  0.24138000  0.98014000  0.48887000  1.0 -0.1899971066
C  C83  1  0.15105000  0.93725000  0.43096000  1.0 0.1815182207
C  C84  1  0.11707000  0.01411000  0.36770000  1.0 -0.1990439637
C  C85  1  0.17356000  0.13458000  0.36222000  1.0 -0.0894336311
C  C86  1  0.59379000  0.60705000  0.36441000  1.0 0.5649058888
C  C87  1  0.72404000  0.65654000  0.38468000  1.0 -0.0487632832
C  C88  1  0.77957000  0.64115000  0.35120000  1.0 -0.0894336311
C  C89  1  0.90188000  0.68960000  0.36960000  1.0 -0.1990439637
C  C90  1  0.96992000  0.75714000  0.41995000  1.0 0.1889942115
C  C91  1  0.91450000  0.77252000  0.45367000  1.0 -0.1899971066
C  C92  1  0.79241000  0.72149000  0.43655000  1.0 -0.0656648564
C  C93  1  0.31635000  0.60127000  0.40459000  1.0 0.59237609
C  C94  1  0.26107000  0.65829000  0.41463000  1.0 -0.0398933167
C  C95  1  0.19628000  0.59884000  0.46538000  1.0 -0.0894336311
C  C96  1  0.14224000  0.65020000  0.47300000  1.0 -0.1899971066
C  C97  1  0.15426000  0.76370000  0.43026000  1.0 0.1889942115
C  C98  1  0.22313000  0.82581000  0.38120000  1.0 -0.1899971066
C  C99  1  0.27440000  0.77206000  0.37292000  1.0 -0.0894336311
C  C100  1  0.17087000  0.53933000  0.19488000  1.0 0.0916257793
C  C101  1  0.09090000  0.52410000  0.12830000  1.0 -0.1990439637
C  C102  1  0.12605000  0.52367000  0.07640000  1.0 0.1815182207
C  C103  1  0.23978000  0.53886000  0.09291000  1.0 -0.1840842744
C  C104  1  0.31448000  0.55110000  0.16218000  1.0 0.1035272697
N  N1  1  0.18704000  0.90512000  0.93761000  1.0 -0.1899971066
N  N2  1  0.44831000  0.71885000  0.71243000  1.0 -0.215638288
N  N3  1  0.49082000  0.94884000  0.50473000  1.0 -0.1181945583
N  N4  1  0.81296000  0.09488000  0.06239000  1.0 -0.1899971066
N  N5  1  0.55169000  0.28115000  0.28757000  1.0 -0.215638288
N  N6  1  0.50918000  0.05116000  0.49527000  1.0 -0.1181945583
N  N7  1  0.90512000  0.18704000  0.56239000  1.0 -0.1899971066
N  N8  1  0.71885000  0.44831000  0.78757000  1.0 -0.215638288
N  N9  1  0.94884000  0.49082000  0.99527000  1.0 -0.1181945583
N  N10  1  0.09488000  0.81296000  0.43761000  1.0 -0.1899971066
N  N11  1  0.28115000  0.55169000  0.21243000  1.0 -0.215638288
N  N12  1  0.05116000  0.50918000  0.00473000  1.0 -0.1181945583
O  O1  1  0.65444000  0.58782000  0.96507000  1.0 -0.5511322139
O  O2  1  0.62831000  0.71435000  0.85461000  1.0 -0.5439550808
O  O3  1  0.38845000  0.45529000  0.90086000  1.0 -0.5511322139
O  O4  1  0.43496000  0.46930000  0.81016000  1.0 -0.5188317826
O  O5  1  0.47014000  0.65004000  0.95887000  1.0 -0.5511322139
O  O6  1  0.37051000  0.67747000  0.83956000  1.0 -0.5511322139
O  O7  1  0.34556000  0.41218000  0.03493000  1.0 -0.5511322139
O  O8  1  0.37169000  0.28565000  0.14539000  1.0 -0.5439550808
O  O9  1  0.61155000  0.54471000  0.09914000  1.0 -0.5511322139
O  O10  1  0.56504000  0.53070000  0.18984000  1.0 -0.5188317826
O  O11  1  0.52986000  0.34996000  0.04113000  1.0 -0.5511322139
O  O12  1  0.62949000  0.32253000  0.16044000  1.0 -0.5511322139
O  O13  1  0.58782000  0.65444000  0.53493000  1.0 -0.5511322139
O  O14  1  0.71435000  0.62831000  0.64539000  1.0 -0.5439550808
O  O15  1  0.45529000  0.38845000  0.59914000  1.0 -0.5511322139
O  O16  1  0.46930000  0.43496000  0.68984000  1.0 -0.5188317826
O  O17  1  0.65004000  0.47014000  0.54113000  1.0 -0.5511322139
O  O18  1  0.67747000  0.37051000  0.66044000  1.0 -0.5511322139
O  O19  1  0.41218000  0.34556000  0.46507000  1.0 -0.5511322139
O  O20  1  0.28565000  0.37169000  0.35461000  1.0 -0.5439550808
O  O21  1  0.54471000  0.61155000  0.40086000  1.0 -0.5511322139
O  O22  1  0.53070000  0.56504000  0.31016000  1.0 -0.5188317826
O  O23  1  0.34996000  0.52986000  0.45887000  1.0 -0.5511322139
O  O24  1  0.32253000  0.62949000  0.33956000  1.0 -0.5511322139
