# DDEC6 charges by PACMAN v1.1 (https://github.com/mtap-research/PACMAN-charge/)
data_GUBKUL_FSR_pacman
_symmetry_space_group_name_H-M   'P 1'
_cell_length_a   16.62700000
_cell_length_b   16.62700000
_cell_length_c   13.41090000
_cell_angle_alpha   74.20140000
_cell_angle_beta   105.79900000
_cell_angle_gamma   121.46800000
_symmetry_Int_Tables_number   1
_chemical_formula_structural   Ba3(C6O11)2
_chemical_formula_sum   'Ba12 C48 O88'
_cell_volume   3004.32382854
_cell_formula_units_Z   4
loop_
 _symmetry_equiv_pos_site_id
 _symmetry_equiv_pos_as_xyz
  1  'x, y, z'
loop_
 _atom_site_type_symbol
 _atom_site_label
 _atom_site_symmetry_multiplicity
 _atom_site_fract_x
 _atom_site_fract_y
 _atom_site_fract_z
 _atom_site_occupancy
 _atom_site_charge
Ba  Ba1  1  0.43614000  0.07644000  0.05166000  1.0 1.4943591292
Ba  Ba2  1  0.07644000  0.43614000  0.44834000  1.0 1.4943591292
Ba  Ba3  1  0.56386000  0.92356000  0.94834000  1.0 1.4943591292
Ba  Ba4  1  0.92356000  0.56386000  0.55166000  1.0 1.4985521173
Ba  Ba5  1  0.37192000  0.90806000  0.38271000  1.0 1.4759286975
Ba  Ba6  1  0.90806000  0.37192000  0.11729000  1.0 1.4746125077
Ba  Ba7  1  0.62808000  0.09194000  0.61729000  1.0 1.4759286975
Ba  Ba8  1  0.09194000  0.62808000  0.88271000  1.0 1.4759286975
Ba  Ba9  1  0.44662000  0.36462000  0.92722000  1.0 1.4985521173
Ba  Ba10  1  0.36462000  0.44662000  0.57278000  1.0 1.4985521173
Ba  Ba11  1  0.55338000  0.63538000  0.07278000  1.0 1.4985521173
Ba  Ba12  1  0.63538000  0.55338000  0.42722000  1.0 1.4985521173
C  C1  1  0.59768000  0.22692000  0.29788000  1.0 -0.0807325324
C  C2  1  0.22692000  0.59768000  0.20212000  1.0 -0.0807325324
C  C3  1  0.40232000  0.77308000  0.70212000  1.0 -0.0807325324
C  C4  1  0.77308000  0.40232000  0.79788000  1.0 -0.0807325324
C  C5  1  0.53000000  0.12240000  0.32470000  1.0 0.6390520965
C  C6  1  0.12240000  0.53000000  0.17530000  1.0 0.6390520965
C  C7  1  0.47000000  0.87760000  0.67530000  1.0 0.6390520965
C  C8  1  0.87760000  0.47000000  0.82470000  1.0 0.6390520965
C  C9  1  0.56425000  0.29015000  0.24185000  1.0 -0.0590657427
C  C10  1  0.29015000  0.56425000  0.25815000  1.0 -0.0590657427
C  C11  1  0.43575000  0.70985000  0.75815000  1.0 -0.0590657427
C  C12  1  0.70985000  0.43575000  0.74185000  1.0 -0.0590657427
C  C13  1  0.46050000  0.25090000  0.19530000  1.0 0.6466109936
C  C14  1  0.25090000  0.46050000  0.30470000  1.0 0.6466109936
C  C15  1  0.53950000  0.74910000  0.80470000  1.0 0.6466109936
C  C16  1  0.74910000  0.53950000  0.69530000  1.0 0.6466109936
C  C17  1  0.62458000  0.38822000  0.23928000  1.0 -0.0807325324
C  C18  1  0.38822000  0.62458000  0.26072000  1.0 -0.0807325324
C  C19  1  0.37542000  0.61178000  0.76072000  1.0 -0.0807325324
C  C20  1  0.61178000  0.37542000  0.73928000  1.0 -0.0807325324
C  C21  1  0.58763000  0.45697000  0.18743000  1.0 0.62926422
C  C22  1  0.45697000  0.58763000  0.31257000  1.0 0.62926422
C  C23  1  0.41237000  0.54303000  0.81257000  1.0 0.62926422
C  C24  1  0.54303000  0.41237000  0.68743000  1.0 0.62926422
C  C25  1  0.71944000  0.42236000  0.28774000  1.0 -0.0428646853
C  C26  1  0.42236000  0.71944000  0.21226000  1.0 -0.0428646853
C  C27  1  0.28056000  0.57764000  0.71226000  1.0 -0.0428646853
C  C28  1  0.57764000  0.28056000  0.78774000  1.0 -0.0428646853
C  C29  1  0.78231000  0.52789000  0.29741000  1.0 0.6390520965
C  C30  1  0.52789000  0.78231000  0.20259000  1.0 0.6390520965
C  C31  1  0.21769000  0.47211000  0.70259000  1.0 0.6390520965
C  C32  1  0.47211000  0.21769000  0.79741000  1.0 0.6390520965
C  C33  1  0.75680000  0.35940000  0.32940000  1.0 -0.0880595522
C  C34  1  0.35940000  0.75680000  0.17060000  1.0 -0.0880595522
C  C35  1  0.24320000  0.64060000  0.67060000  1.0 -0.0880595522
C  C36  1  0.64060000  0.24320000  0.82940000  1.0 -0.0880595522
C  C37  1  0.86181000  0.39559000  0.35911000  1.0 0.62926422
C  C38  1  0.39559000  0.86181000  0.14089000  1.0 0.62926422
C  C39  1  0.13819000  0.60441000  0.64089000  1.0 0.62926422
C  C40  1  0.60441000  0.13819000  0.85911000  1.0 0.62926422
C  C41  1  0.69494000  0.26146000  0.33604000  1.0 -0.0497286204
C  C42  1  0.26146000  0.69494000  0.16396000  1.0 -0.0497286204
C  C43  1  0.30506000  0.73854000  0.66396000  1.0 -0.0497286204
C  C44  1  0.73854000  0.30506000  0.83604000  1.0 -0.0497286204
C  C45  1  0.73060000  0.18960000  0.38590000  1.0 0.62926422
C  C46  1  0.18960000  0.73060000  0.11410000  1.0 0.6231957411
C  C47  1  0.26940000  0.81040000  0.61410000  1.0 0.62926422
C  C48  1  0.81040000  0.26940000  0.88590000  1.0 0.62926422
O  O1  1  0.54310000  0.08210000  0.41610000  1.0 -0.6121142919
O  O2  1  0.08210000  0.54310000  0.08390000  1.0 -0.6121142919
O  O3  1  0.45690000  0.91790000  0.58390000  1.0 -0.6121142919
O  O4  1  0.91790000  0.45690000  0.91610000  1.0 -0.6121142919
O  O5  1  0.46136000  0.08164000  0.25516000  1.0 -0.6213306352
O  O6  1  0.08164000  0.46136000  0.24484000  1.0 -0.6213306352
O  O7  1  0.53864000  0.91836000  0.74484000  1.0 -0.6213306352
O  O8  1  0.91836000  0.53864000  0.75516000  1.0 -0.6213306352
O  O9  1  0.43437000  0.23283000  0.10327000  1.0 -0.6492495651
O  O10  1  0.23283000  0.43437000  0.39673000  1.0 -0.6492495651
O  O11  1  0.56563000  0.76717000  0.89673000  1.0 -0.6492495651
O  O12  1  0.76717000  0.56563000  0.60327000  1.0 -0.6492495651
O  O13  1  0.40489000  0.23831000  0.25309000  1.0 -0.3795567344
O  O14  1  0.23831000  0.40489000  0.24691000  1.0 -0.3795567344
O  O15  1  0.59511000  0.76169000  0.74691000  1.0 -0.3795567344
O  O16  1  0.76169000  0.59511000  0.75309000  1.0 -0.3795567344
O  O17  1  0.52782000  0.44218000  0.10492000  1.0 -0.6213306352
O  O18  1  0.44218000  0.52782000  0.39508000  1.0 -0.6213306352
O  O19  1  0.47218000  0.55782000  0.89508000  1.0 -0.6213306352
O  O20  1  0.55782000  0.47218000  0.60492000  1.0 -0.6213306352
O  O21  1  0.62191000  0.53029000  0.22941000  1.0 -0.6320480073
O  O22  1  0.53029000  0.62191000  0.27059000  1.0 -0.6320480073
O  O23  1  0.37809000  0.46971000  0.77059000  1.0 -0.6320480073
O  O24  1  0.46971000  0.37809000  0.72941000  1.0 -0.6320480073
O  O25  1  0.82384000  0.58296000  0.22164000  1.0 -0.349106204
O  O26  1  0.58296000  0.82384000  0.27836000  1.0 -0.349106204
O  O27  1  0.17616000  0.41704000  0.77836000  1.0 -0.349106204
O  O28  1  0.41704000  0.17616000  0.72164000  1.0 -0.349106204
O  O29  1  0.78894000  0.55086000  0.38104000  1.0 -0.6492495651
O  O30  1  0.55086000  0.78894000  0.11896000  1.0 -0.6492495651
O  O31  1  0.21106000  0.44914000  0.61896000  1.0 -0.6492495651
O  O32  1  0.44914000  0.21106000  0.88104000  1.0 -0.6492495651
O  O33  1  0.91337000  0.46263000  0.41197000  1.0 -0.5918690528
O  O34  1  0.46263000  0.91337000  0.08803000  1.0 -0.5918690528
O  O35  1  0.08663000  0.53737000  0.58803000  1.0 -0.5918690528
O  O36  1  0.53737000  0.08663000  0.91197000  1.0 -0.5918690528
O  O37  1  0.89456000  0.35684000  0.32416000  1.0 -0.6213306352
O  O38  1  0.35684000  0.89456000  0.17584000  1.0 -0.6213306352
O  O39  1  0.10544000  0.64316000  0.67584000  1.0 -0.6213306352
O  O40  1  0.64316000  0.10544000  0.82416000  1.0 -0.6213306352
O  O41  1  0.76406000  0.18474000  0.48156000  1.0 -0.5398788864
O  O42  1  0.18474000  0.76406000  0.01844000  1.0 -0.5398788864
O  O43  1  0.23594000  0.81526000  0.51844000  1.0 -0.5398788864
O  O44  1  0.81526000  0.23594000  0.98156000  1.0 -0.5398788864
O  O45  1  0.71857000  0.13583000  0.32587000  1.0 -0.3795567344
O  O46  1  0.13583000  0.71857000  0.17413000  1.0 -0.3795567344
O  O47  1  0.28143000  0.86417000  0.67413000  1.0 -0.3795567344
O  O48  1  0.86417000  0.28143000  0.82587000  1.0 -0.3795567344
O  O49  1  0.25610000  0.03930000  0.08440000  1.0 -0.2276649515
O  O50  1  0.03930000  0.25610000  0.41560000  1.0 -0.2276649515
O  O51  1  0.74390000  0.96070000  0.91560000  1.0 -0.2276649515
O  O52  1  0.96070000  0.74390000  0.58440000  1.0 -0.2276649515
O  O53  1  0.28970000  0.94450000  0.92800000  1.0 -0.0807325324
O  O54  1  0.94450000  0.28970000  0.57200000  1.0 -0.0807325324
O  O55  1  0.71030000  0.05550000  0.07200000  1.0 -0.0807325324
O  O56  1  0.05550000  0.71030000  0.42800000  1.0 -0.1002110245
O  O57  1  0.34144000  0.06056000  0.41174000  1.0 -0.1002110245
O  O58  1  0.06056000  0.34144000  0.08826000  1.0 -0.1054996292
O  O59  1  0.65856000  0.93944000  0.58826000  1.0 -0.1002110245
O  O60  1  0.93944000  0.65856000  0.91174000  1.0 -0.1002110245
O  O61  1  0.19745000  0.88615000  0.25425000  1.0 -0.1770699387
O  O62  1  0.88615000  0.19745000  0.24575000  1.0 -0.1707990135
O  O63  1  0.80255000  0.11385000  0.74575000  1.0 -0.1770699387
O  O64  1  0.11385000  0.80255000  0.75425000  1.0 -0.1770699387
O  O65  1  0.35700000  0.72900000  0.43620000  1.0 -0.3567363734
O  O66  1  0.72900000  0.35700000  0.06380000  1.0 -0.3567363734
O  O67  1  0.64300000  0.27100000  0.56380000  1.0 -0.349106204
O  O68  1  0.27100000  0.64300000  0.93620000  1.0 -0.349106204
O  O69  1  0.55580000  0.92640000  0.37990000  1.0 0.0414502829
O  O70  1  0.92640000  0.55580000  0.12010000  1.0 0.0512320173
O  O71  1  0.44420000  0.07360000  0.62010000  1.0 0.0414502829
O  O72  1  0.07360000  0.44420000  0.87990000  1.0 0.0414502829
O  O73  1  0.64970000  0.48190000  0.93030000  1.0 -0.0497286204
O  O74  1  0.48190000  0.64970000  0.56970000  1.0 -0.0497286204
O  O75  1  0.35030000  0.51810000  0.06970000  1.0 -0.0497286204
O  O76  1  0.51810000  0.35030000  0.43030000  1.0 -0.0497286204
O  O77  1  0.28510000  0.36410000  0.96930000  1.0 0.0043031883
O  O78  1  0.36410000  0.28510000  0.53070000  1.0 0.0043031883
O  O79  1  0.71490000  0.63590000  0.03070000  1.0 0.0091278238
O  O80  1  0.63590000  0.71490000  0.46930000  1.0 0.0091278238
O  O81  1  0.26650000  0.21250000  0.85920000  1.0 -0.2396841834
O  O82  1  0.21250000  0.26650000  0.64080000  1.0 -0.2450987066
O  O83  1  0.73350000  0.78750000  0.14080000  1.0 -0.2396841834
O  O84  1  0.78750000  0.73350000  0.35920000  1.0 -0.2450987066
O  O85  1  0.63340000  0.15600000  0.12230000  1.0 -0.0428646853
O  O86  1  0.15600000  0.63340000  0.37770000  1.0 -0.0497286204
O  O87  1  0.36660000  0.84400000  0.87770000  1.0 -0.0497286204
O  O88  1  0.84400000  0.36660000  0.62230000  1.0 -0.0497286204
