# DDEC6 charges by PACMAN v1.1 (https://github.com/mtap-research/PACMAN-charge/)
data_GUFBUG_ASR_pacman
_symmetry_space_group_name_H-M   'P 1'
_cell_length_a   22.60570000
_cell_length_b   22.60570000
_cell_length_c   22.60570000
_cell_angle_alpha   153.27500000
_cell_angle_beta   123.05100000
_cell_angle_gamma   63.98770000
_symmetry_Int_Tables_number   1
_chemical_formula_structural   BaH18C34(SO2)4
_chemical_formula_sum   'Ba4 H72 C136 S16 O32'
_cell_volume   4318.08458658
_cell_formula_units_Z   4
loop_
 _symmetry_equiv_pos_site_id
 _symmetry_equiv_pos_as_xyz
  1  'x, y, z'
loop_
 _atom_site_type_symbol
 _atom_site_label
 _atom_site_symmetry_multiplicity
 _atom_site_fract_x
 _atom_site_fract_y
 _atom_site_fract_z
 _atom_site_occupancy
 _atom_site_charge
Ba  Ba1  1  0.49181000  0.19843000  0.69024000  1.0 1.4517393468
Ba  Ba2  1  0.50819000  0.80157000  0.30976000  1.0 1.4517393468
Ba  Ba3  1  0.99181000  0.30157000  0.29338000  1.0 1.4517393468
Ba  Ba4  1  0.00819000  0.69843000  0.70662000  1.0 1.4517393468
H  H1  1  0.52730000  0.07960000  0.82710000  1.0 0.1176562246
H  H2  1  0.25250000  0.70020000  0.17290000  1.0 0.1176562246
H  H3  1  0.24750000  0.42040000  0.44770000  1.0 0.1176562246
H  H4  1  0.97270000  0.79980000  0.55230000  1.0 0.1176562246
H  H5  1  0.47270000  0.92040000  0.17290000  1.0 0.1176562246
H  H6  1  0.74750000  0.29980000  0.82710000  1.0 0.1176562246
H  H7  1  0.75250000  0.57960000  0.55230000  1.0 0.1176562246
H  H8  1  0.02730000  0.20020000  0.44770000  1.0 0.1176562246
H  H9  1  0.54070000  0.96560000  0.82170000  1.0 0.1176562246
H  H10  1  0.14390000  0.71900000  0.17830000  1.0 0.1176562246
H  H11  1  0.35610000  0.53440000  0.57510000  1.0 0.1176562246
H  H12  1  0.95930000  0.78100000  0.42490000  1.0 0.1176562246
H  H13  1  0.45930000  0.03440000  0.17830000  1.0 0.1176562246
H  H14  1  0.85610000  0.28100000  0.82170000  1.0 0.1176562246
H  H15  1  0.64390000  0.46560000  0.42490000  1.0 0.1176562246
H  H16  1  0.04070000  0.21900000  0.57510000  1.0 0.1176562246
H  H17  1  0.55890000  0.63920000  0.44610000  1.0 0.1176562246
H  H18  1  0.19310000  0.11280000  0.55390000  1.0 0.1176562246
H  H19  1  0.30690000  0.86080000  0.91970000  1.0 0.1176562246
H  H20  1  0.94110000  0.38720000  0.08030000  1.0 0.1176562246
H  H21  1  0.44110000  0.36080000  0.55390000  1.0 0.1176562246
H  H22  1  0.80690000  0.88720000  0.44610000  1.0 0.1176562246
H  H23  1  0.69310000  0.13920000  0.08030000  1.0 0.1176562246
H  H24  1  0.05890000  0.61280000  0.91970000  1.0 0.1176562246
H  H25  1  0.54440000  0.75460000  0.45420000  1.0 0.1176562246
H  H26  1  0.30040000  0.09020000  0.54580000  1.0 0.1176562246
H  H27  1  0.19960000  0.74540000  0.78980000  1.0 0.1176562246
H  H28  1  0.95560000  0.40980000  0.21020000  1.0 0.1176562246
H  H29  1  0.45560000  0.24540000  0.54580000  1.0 0.1176562246
H  H30  1  0.69960000  0.90980000  0.45420000  1.0 0.1176562246
H  H31  1  0.80040000  0.25460000  0.21020000  1.0 0.1176562246
H  H32  1  0.04440000  0.59020000  0.78980000  1.0 0.1176562246
H  H33  1  0.68750000  0.80350000  0.71400000  1.0 0.1176562246
H  H34  1  0.08950000  0.97350000  0.28600000  1.0 0.1176562246
H  H35  1  0.41050000  0.69650000  0.88400000  1.0 0.1176562246
H  H36  1  0.81250000  0.52650000  0.11600000  1.0 0.1176562246
H  H37  1  0.31250000  0.19650000  0.28600000  1.0 0.1176562246
H  H38  1  0.91050000  0.02650000  0.71400000  1.0 0.1176562246
H  H39  1  0.58950000  0.30350000  0.11600000  1.0 0.1176562246
H  H40  1  0.18750000  0.47350000  0.88400000  1.0 0.1176562246
H  H41  1  0.79580000  0.93200000  0.87860000  1.0 0.1301178916
H  H42  1  0.05340000  0.91720000  0.12140000  1.0 0.1301178916
H  H43  1  0.44660000  0.56800000  0.86380000  1.0 0.1301178916
H  H44  1  0.70420000  0.58280000  0.13620000  1.0 0.1301178916
H  H45  1  0.20420000  0.06800000  0.12140000  1.0 0.1301178916
H  H46  1  0.94660000  0.08280000  0.87860000  1.0 0.1301178916
H  H47  1  0.55340000  0.43200000  0.13620000  1.0 0.1301178916
H  H48  1  0.29580000  0.41720000  0.86380000  1.0 0.1301178916
H  H49  1  0.80900000  0.97390000  0.09850000  1.0 0.1176562246
H  H50  1  0.87540000  0.71050000  0.90150000  1.0 0.1176562246
H  H51  1  0.62460000  0.52610000  0.83510000  1.0 0.1176562246
H  H52  1  0.69100000  0.78950000  0.16490000  1.0 0.1176562246
H  H53  1  0.19100000  0.02610000  0.90150000  1.0 0.1176562246
H  H54  1  0.12460000  0.28950000  0.09850000  1.0 0.1176562246
H  H55  1  0.37540000  0.47390000  0.16490000  1.0 0.1176562246
H  H56  1  0.30900000  0.21050000  0.83510000  1.0 0.1176562246
H  H57  1  0.70120000  0.84060000  0.92980000  1.0 0.1140962236
H  H58  1  0.91080000  0.77140000  0.07020000  1.0 0.1140962236
H  H59  1  0.58920000  0.65940000  0.86060000  1.0 0.1140962236
H  H60  1  0.79880000  0.72860000  0.13940000  1.0 0.1140962236
H  H61  1  0.29880000  0.15940000  0.07020000  1.0 0.1140962236
H  H62  1  0.08920000  0.22860000  0.92980000  1.0 0.1140962236
H  H63  1  0.41080000  0.34060000  0.13940000  1.0 0.1140962236
H  H64  1  0.20120000  0.27140000  0.86060000  1.0 0.1140962236
H  H65  1  0.94540000  0.15580000  0.28000000  1.0 0.3583303003
H  H66  1  0.87580000  0.66540000  0.72000000  1.0 0.3583303003
H  H67  1  0.62420000  0.34420000  0.78960000  1.0 0.3583303003
H  H68  1  0.55460000  0.83460000  0.21040000  1.0 0.3583303003
H  H69  1  0.05460000  0.84420000  0.72000000  1.0 0.3583303003
H  H70  1  0.12420000  0.33460000  0.28000000  1.0 0.3583303003
H  H71  1  0.37580000  0.65580000  0.21040000  1.0 0.3583303003
H  H72  1  0.44540000  0.16540000  0.78960000  1.0 0.3583303003
C  C1  1  0.53620000  0.92720000  0.64280000  1.0 -0.0188963108
C  C2  1  0.28440000  0.89340000  0.35720000  1.0 -0.0188963108
C  C3  1  0.21560000  0.57280000  0.60900000  1.0 -0.0188963108
C  C4  1  0.96380000  0.60660000  0.39100000  1.0 -0.0188963108
C  C5  1  0.46380000  0.07280000  0.35720000  1.0 -0.0188963108
C  C6  1  0.71560000  0.10660000  0.64280000  1.0 -0.0188963108
C  C7  1  0.78440000  0.42720000  0.39100000  1.0 -0.0188963108
C  C8  1  0.03620000  0.39340000  0.60900000  1.0 -0.0188963108
C  C9  1  0.53390000  0.99050000  0.75040000  1.0 -0.09887999
C  C10  1  0.24010000  0.78350000  0.24960000  1.0 -0.09887999
C  C11  1  0.25990000  0.50950000  0.54340000  1.0 -0.09887999
C  C12  1  0.96610000  0.71650000  0.45660000  1.0 -0.09887999
C  C13  1  0.46610000  0.00950000  0.24960000  1.0 -0.09887999
C  C14  1  0.75990000  0.21650000  0.75040000  1.0 -0.09887999
C  C15  1  0.74010000  0.49050000  0.45660000  1.0 -0.09887999
C  C16  1  0.03390000  0.28350000  0.54340000  1.0 -0.09887999
C  C17  1  0.54150000  0.92190000  0.74700000  1.0 -0.1516320256
C  C18  1  0.17490000  0.79450000  0.25300000  1.0 -0.1516320256
C  C19  1  0.32510000  0.57810000  0.61960000  1.0 -0.1516320256
C  C20  1  0.95850000  0.70550000  0.38040000  1.0 -0.1516320256
C  C21  1  0.45850000  0.07810000  0.25300000  1.0 -0.1516320256
C  C22  1  0.82510000  0.20550000  0.74700000  1.0 -0.1516320256
C  C23  1  0.67490000  0.42190000  0.38040000  1.0 -0.1516320256
C  C24  1  0.04150000  0.29450000  0.61960000  1.0 -0.1516320256
C  C25  1  0.55000000  0.78990000  0.63170000  1.0 0.0908557267
C  C26  1  0.15820000  0.91830000  0.36830000  1.0 0.0908557267
C  C27  1  0.34180000  0.71010000  0.76010000  1.0 0.0908557267
C  C28  1  0.95000000  0.58170000  0.23990000  1.0 0.0908557267
C  C29  1  0.45000000  0.21010000  0.36830000  1.0 0.0908557267
C  C30  1  0.84180000  0.08170000  0.63170000  1.0 0.0908557267
C  C31  1  0.65820000  0.28990000  0.23990000  1.0 0.0908557267
C  C32  1  0.05000000  0.41830000  0.76010000  1.0 0.0908557267
C  C33  1  0.55210000  0.72810000  0.52360000  1.0 -0.142682405
C  C34  1  0.20450000  0.02850000  0.47640000  1.0 -0.142682405
C  C35  1  0.29550000  0.77190000  0.82400000  1.0 -0.142682405
C  C36  1  0.94790000  0.47150000  0.17600000  1.0 -0.142682405
C  C37  1  0.44790000  0.27190000  0.47640000  1.0 -0.142682405
C  C38  1  0.79550000  0.97150000  0.52360000  1.0 -0.142682405
C  C39  1  0.70450000  0.22810000  0.17600000  1.0 -0.142682405
C  C40  1  0.05210000  0.52850000  0.82400000  1.0 -0.142682405
C  C41  1  0.54420000  0.79750000  0.52870000  1.0 -0.089016903
C  C42  1  0.26880000  0.01550000  0.47130000  1.0 -0.089016903
C  C43  1  0.23120000  0.70250000  0.74670000  1.0 -0.089016903
C  C44  1  0.95580000  0.48450000  0.25330000  1.0 -0.089016903
C  C45  1  0.45580000  0.20250000  0.47130000  1.0 -0.089016903
C  C46  1  0.73120000  0.98450000  0.52870000  1.0 -0.089016903
C  C47  1  0.76880000  0.29750000  0.25330000  1.0 -0.089016903
C  C48  1  0.04420000  0.51550000  0.74670000  1.0 -0.089016903
C  C49  1  0.52820000  0.00060000  0.64660000  1.0 0.6098807661
C  C50  1  0.35400000  0.88160000  0.35340000  1.0 0.6098807661
C  C51  1  0.14600000  0.49940000  0.52760000  1.0 0.6098807661
C  C52  1  0.97180000  0.61840000  0.47240000  1.0 0.6098807661
C  C53  1  0.47180000  0.99940000  0.35340000  1.0 0.6098807661
C  C54  1  0.64600000  0.11840000  0.64660000  1.0 0.6098807661
C  C55  1  0.85400000  0.50060000  0.47240000  1.0 0.6098807661
C  C56  1  0.02820000  0.38160000  0.52760000  1.0 0.6098807661
C  C57  1  0.55930000  0.71560000  0.62530000  1.0 -0.060704563
C  C58  1  0.09030000  0.93400000  0.37470000  1.0 -0.060704563
C  C59  1  0.40970000  0.78440000  0.84370000  1.0 -0.060704563
C  C60  1  0.94070000  0.56600000  0.15630000  1.0 -0.060704563
C  C61  1  0.44070000  0.28440000  0.37470000  1.0 -0.060704563
C  C62  1  0.90970000  0.06600000  0.62530000  1.0 -0.060704563
C  C63  1  0.59030000  0.21560000  0.15630000  1.0 -0.060704563
C  C64  1  0.05930000  0.43400000  0.84370000  1.0 -0.060704563
C  C65  1  0.61390000  0.72510000  0.69980000  1.0 -0.060704563
C  C66  1  0.02530000  0.91410000  0.30020000  1.0 -0.060704563
C  C67  1  0.47470000  0.77490000  0.88880000  1.0 -0.060704563
C  C68  1  0.88610000  0.58590000  0.11120000  1.0 -0.060704563
C  C69  1  0.38610000  0.27490000  0.30020000  1.0 -0.060704563
C  C70  1  0.97470000  0.08590000  0.69980000  1.0 -0.060704563
C  C71  1  0.52530000  0.22510000  0.11120000  1.0 -0.060704563
C  C72  1  0.11390000  0.41410000  0.88880000  1.0 -0.060704563
C  C73  1  0.68280000  0.80800000  0.80520000  1.0 0.0908557267
C  C74  1  0.00280000  0.87760000  0.19480000  1.0 0.0908557267
C  C75  1  0.49720000  0.69200000  0.87480000  1.0 0.0908557267
C  C76  1  0.81720000  0.62240000  0.12520000  1.0 0.0908557267
C  C77  1  0.31720000  0.19200000  0.19480000  1.0 0.0908557267
C  C78  1  0.99720000  0.12240000  0.80520000  1.0 0.0908557267
C  C79  1  0.50280000  0.30800000  0.12520000  1.0 0.0908557267
C  C80  1  0.18280000  0.37760000  0.87480000  1.0 0.0908557267
C  C81  1  0.71180000  0.83700000  0.79080000  1.0 -0.142682405
C  C82  1  0.04620000  0.92100000  0.20920000  1.0 -0.142682405
C  C83  1  0.45380000  0.66300000  0.87480000  1.0 -0.142682405
C  C84  1  0.78820000  0.57900000  0.12520000  1.0 -0.142682405
C  C85  1  0.28820000  0.16300000  0.20920000  1.0 -0.142682405
C  C86  1  0.95380000  0.07900000  0.79080000  1.0 -0.142682405
C  C87  1  0.54620000  0.33700000  0.12520000  1.0 -0.142682405
C  C88  1  0.21180000  0.42100000  0.87480000  1.0 -0.142682405
C  C89  1  0.77610000  0.91520000  0.89030000  1.0 -0.0810017826
C  C90  1  0.02490000  0.88580000  0.10970000  1.0 -0.0810017826
C  C91  1  0.47510000  0.58480000  0.86090000  1.0 -0.0810017826
C  C92  1  0.72390000  0.61420000  0.13910000  1.0 -0.0810017826
C  C93  1  0.22390000  0.08480000  0.10970000  1.0 -0.0810017826
C  C94  1  0.97510000  0.11420000  0.89030000  1.0 -0.0810017826
C  C95  1  0.52490000  0.41520000  0.13910000  1.0 -0.0810017826
C  C96  1  0.27610000  0.38580000  0.86090000  1.0 -0.0810017826
C  C97  1  0.81130000  0.96810000  0.00460000  1.0 -0.0365206085
C  C98  1  0.96350000  0.80670000  0.99540000  1.0 -0.0365206085
C  C99  1  0.53650000  0.53190000  0.84320000  1.0 -0.0365206085
C  C100  1  0.68870000  0.69330000  0.15680000  1.0 -0.0365206085
C  C101  1  0.18870000  0.03190000  0.99540000  1.0 -0.0365206085
C  C102  1  0.03650000  0.19330000  0.00460000  1.0 -0.0365206085
C  C103  1  0.46350000  0.46810000  0.15680000  1.0 -0.0365206085
C  C104  1  0.31130000  0.30670000  0.84320000  1.0 -0.0365206085
C  C105  1  0.78440000  0.93990000  0.02130000  1.0 -0.089016903
C  C106  1  0.91860000  0.76310000  0.97870000  1.0 -0.089016903
C  C107  1  0.58140000  0.56010000  0.84450000  1.0 -0.089016903
C  C108  1  0.71560000  0.73690000  0.15550000  1.0 -0.089016903
C  C109  1  0.21560000  0.06010000  0.97870000  1.0 -0.089016903
C  C110  1  0.08140000  0.23690000  0.02130000  1.0 -0.089016903
C  C111  1  0.41860000  0.43990000  0.15550000  1.0 -0.089016903
C  C112  1  0.28440000  0.26310000  0.84450000  1.0 -0.089016903
C  C113  1  0.71980000  0.85980000  0.91960000  1.0 -0.1588868049
C  C114  1  0.94020000  0.80020000  0.08040000  1.0 -0.1588868049
C  C115  1  0.55980000  0.64020000  0.86000000  1.0 -0.1588868049
C  C116  1  0.78020000  0.69980000  0.14000000  1.0 -0.1588868049
C  C117  1  0.28020000  0.14020000  0.08040000  1.0 -0.1588868049
C  C118  1  0.05980000  0.19980000  0.91960000  1.0 -0.1588868049
C  C119  1  0.44020000  0.35980000  0.14000000  1.0 -0.1588868049
C  C120  1  0.21980000  0.30020000  0.86000000  1.0 -0.1588868049
C  C121  1  0.88020000  0.05760000  0.11300000  1.0 0.5566741733
C  C122  1  0.94460000  0.76720000  0.88700000  1.0 0.5566741733
C  C123  1  0.55540000  0.44240000  0.82260000  1.0 0.5566741733
C  C124  1  0.61980000  0.73280000  0.17740000  1.0 0.5566741733
C  C125  1  0.11980000  0.94240000  0.88700000  1.0 0.5566741733
C  C126  1  0.05540000  0.23280000  0.11300000  1.0 0.5566741733
C  C127  1  0.44460000  0.55760000  0.17740000  1.0 0.5566741733
C  C128  1  0.38020000  0.26720000  0.82260000  1.0 0.5566741733
C  C129  1  0.51690000  0.54520000  0.53270000  1.0 -0.107305683
C  C130  1  0.01250000  0.98420000  0.46730000  1.0 -0.107305683
C  C131  1  0.48750000  0.95480000  0.97170000  1.0 -0.107305683
C  C132  1  0.98310000  0.51580000  0.02830000  1.0 -0.107305683
C  C133  1  0.48310000  0.45480000  0.46730000  1.0 -0.107305683
C  C134  1  0.98750000  0.01580000  0.53270000  1.0 -0.107305683
C  C135  1  0.51250000  0.04520000  0.02830000  1.0 -0.107305683
C  C136  1  0.01690000  0.48420000  0.97170000  1.0 -0.107305683
S  S1  1  0.48327000  0.60351000  0.50136000  1.0 0.0682152223
S  S2  1  0.10215000  0.98191000  0.49864000  1.0 0.0682152223
S  S3  1  0.39785000  0.89649000  0.87976000  1.0 0.0682152223
S  S4  1  0.01673000  0.51809000  0.12024000  1.0 0.0682152223
S  S5  1  0.51673000  0.39649000  0.49864000  1.0 0.0682152223
S  S6  1  0.89785000  0.01809000  0.50136000  1.0 0.0682152223
S  S7  1  0.60215000  0.10351000  0.12024000  1.0 0.0682152223
S  S8  1  0.98327000  0.48191000  0.87976000  1.0 0.0682152223
S  S9  1  0.60515000  0.61884000  0.66251000  1.0 0.022320525
S  S10  1  0.95633000  0.94264000  0.33749000  1.0 0.022320525
S  S11  1  0.54367000  0.88116000  0.98631000  1.0 0.022320525
S  S12  1  0.89485000  0.55736000  0.01369000  1.0 0.022320525
S  S13  1  0.39485000  0.38116000  0.33749000  1.0 0.022320525
S  S14  1  0.04367000  0.05736000  0.66251000  1.0 0.022320525
S  S15  1  0.45633000  0.11884000  0.01369000  1.0 0.022320525
S  S16  1  0.10515000  0.44264000  0.98631000  1.0 0.022320525
O  O1  1  0.53000000  0.93910000  0.54550000  1.0 -0.6104524972
O  O2  1  0.39360000  0.98450000  0.45450000  1.0 -0.6104524972
O  O3  1  0.10640000  0.56090000  0.59090000  1.0 -0.6104524972
O  O4  1  0.97000000  0.51550000  0.40910000  1.0 -0.6104524972
O  O5  1  0.47000000  0.06090000  0.45450000  1.0 -0.6104524972
O  O6  1  0.60640000  0.01550000  0.54550000  1.0 -0.6104524972
O  O7  1  0.89360000  0.43910000  0.40910000  1.0 -0.6104524972
O  O8  1  0.03000000  0.48450000  0.59090000  1.0 -0.6104524972
O  O9  1  0.51700000  0.11990000  0.74890000  1.0 -0.6104524972
O  O10  1  0.37100000  0.76810000  0.25110000  1.0 -0.6104524972
O  O11  1  0.12900000  0.38010000  0.39710000  1.0 -0.6104524972
O  O12  1  0.98300000  0.73190000  0.60290000  1.0 -0.6104524972
O  O13  1  0.48300000  0.88010000  0.25110000  1.0 -0.6104524972
O  O14  1  0.62900000  0.23190000  0.74890000  1.0 -0.6104524972
O  O15  1  0.87100000  0.61990000  0.60290000  1.0 -0.6104524972
O  O16  1  0.01700000  0.26810000  0.39710000  1.0 -0.6104524972
O  O17  1  0.90570000  0.07910000  0.09720000  1.0 -0.5484503301
O  O18  1  0.98190000  0.80850000  0.90280000  1.0 -0.5484503301
O  O19  1  0.51810000  0.42090000  0.82660000  1.0 -0.5484503301
O  O20  1  0.59430000  0.69150000  0.17340000  1.0 -0.5484503301
O  O21  1  0.09430000  0.92090000  0.90280000  1.0 -0.5484503301
O  O22  1  0.01810000  0.19150000  0.09720000  1.0 -0.5484503301
O  O23  1  0.48190000  0.57910000  0.17340000  1.0 -0.5484503301
O  O24  1  0.40570000  0.30850000  0.82660000  1.0 -0.5484503301
O  O25  1  0.90840000  0.10700000  0.22320000  1.0 -0.4661011936
O  O26  1  0.88380000  0.68520000  0.77680000  1.0 -0.4661011936
O  O27  1  0.61620000  0.39300000  0.80140000  1.0 -0.4661011936
O  O28  1  0.59160000  0.81480000  0.19860000  1.0 -0.4661011936
O  O29  1  0.09160000  0.89300000  0.77680000  1.0 -0.4661011936
O  O30  1  0.11620000  0.31480000  0.22320000  1.0 -0.4642300846
O  O31  1  0.38380000  0.60700000  0.19860000  1.0 -0.4661011936
O  O32  1  0.40840000  0.18520000  0.80140000  1.0 -0.4661011936
