# DDEC6 charges by PACMAN v1.1 (https://github.com/mtap-research/PACMAN-charge/)
data_GUGREI_ASR_pacman
_symmetry_space_group_name_H-M   'P 1'
_cell_length_a   15.81070000
_cell_length_b   11.66080000
_cell_length_c   20.96690000
_cell_angle_alpha   90.00000000
_cell_angle_beta   100.84000000
_cell_angle_gamma   90.00000000
_symmetry_Int_Tables_number   1
_chemical_formula_structural   Cd3H40C56(N2O)8
_chemical_formula_sum   'Cd6 H80 C112 N32 O16'
_cell_volume   3796.59462744
_cell_formula_units_Z   2
loop_
 _symmetry_equiv_pos_site_id
 _symmetry_equiv_pos_as_xyz
  1  'x, y, z'
loop_
 _atom_site_type_symbol
 _atom_site_label
 _atom_site_symmetry_multiplicity
 _atom_site_fract_x
 _atom_site_fract_y
 _atom_site_fract_z
 _atom_site_occupancy
 _atom_site_charge
Cd  Cd1  1  0.36679000  0.77997000  0.05596000  1.0 0.8542129055
Cd  Cd2  1  0.13321000  0.77997000  0.94404000  1.0 0.8542129055
Cd  Cd3  1  0.63321000  0.22003000  0.94404000  1.0 0.8542129055
Cd  Cd4  1  0.86679000  0.22003000  0.05596000  1.0 0.8542129055
Cd  Cd5  1  0.00000000  0.00000000  0.50000000  1.0 0.6936782405
Cd  Cd6  1  0.50000000  0.00000000  0.50000000  1.0 0.6999695108
H  H1  1  0.30950000  0.99320000  0.13773000  1.0 0.1007582199
H  H2  1  0.31170000  0.19200000  0.14273000  1.0 0.1204244213
H  H3  1  0.40270000  0.19490000  0.97467000  1.0 0.1389656916
H  H4  1  0.40050000  0.99730000  0.97565000  1.0 0.1007582199
H  H5  1  0.32360000  0.56670000  0.13800000  1.0 0.1102114741
H  H6  1  0.31860000  0.36930000  0.14060000  1.0 0.126879248
H  H7  1  0.40850000  0.36360000  0.98100000  1.0 0.1389656916
H  H8  1  0.40610000  0.56140000  0.98010000  1.0 0.1102114741
H  H9  1  0.50520000  0.73160000  0.28432000  1.0 0.1204244213
H  H10  1  0.61870000  0.73860000  0.37300000  1.0 0.1204244213
H  H11  1  0.76710000  0.90030000  0.26280000  1.0 0.1204244213
H  H12  1  0.65480000  0.88310000  0.17245000  1.0 0.1204244213
H  H13  1  0.89050000  0.74860000  0.50700000  1.0 0.1102114741
H  H14  1  0.83140000  0.97560000  0.36950000  1.0 0.1102114741
H  H15  1  0.47450000  0.96940000  0.65730000  1.0 0.1102114741
H  H16  1  0.32680000  0.83450000  0.50540000  1.0 0.1007582199
H  H17  1  0.48920000  0.89200000  0.75879000  1.0 0.1204244213
H  H18  1  0.47900000  0.86110000  0.86685000  1.0 0.1102114741
H  H19  1  0.23210000  0.75940000  0.81052000  1.0 0.1204244213
H  H20  1  0.24220000  0.78950000  0.70246000  1.0 0.126879248
H  H21  1  0.19050000  0.99320000  0.86227000  1.0 0.1007582199
H  H22  1  0.18830000  0.19200000  0.85727000  1.0 0.1204244213
H  H23  1  0.09730000  0.19490000  0.02533000  1.0 0.1389656916
H  H24  1  0.09950000  0.99730000  0.02435000  1.0 0.1007582199
H  H25  1  0.17640000  0.56670000  0.86200000  1.0 0.1102114741
H  H26  1  0.18140000  0.36930000  0.85940000  1.0 0.126879248
H  H27  1  0.09150000  0.36360000  0.01900000  1.0 0.1389656916
H  H28  1  0.09390000  0.56140000  0.01990000  1.0 0.1102114741
H  H29  1  0.99480000  0.73160000  0.71568000  1.0 0.1204244213
H  H30  1  0.88130000  0.73860000  0.62700000  1.0 0.1204244213
H  H31  1  0.73290000  0.90030000  0.73720000  1.0 0.1204244213
H  H32  1  0.84520000  0.88310000  0.82755000  1.0 0.1204244213
H  H33  1  0.60950000  0.74860000  0.49300000  1.0 0.1102114741
H  H34  1  0.66860000  0.97560000  0.63050000  1.0 0.1102114741
H  H35  1  0.02550000  0.96940000  0.34270000  1.0 0.1102114741
H  H36  1  0.17320000  0.83450000  0.49460000  1.0 0.1007582199
H  H37  1  0.01080000  0.89200000  0.24121000  1.0 0.1204244213
H  H38  1  0.02100000  0.86110000  0.13315000  1.0 0.1102114741
H  H39  1  0.26790000  0.75940000  0.18948000  1.0 0.1204244213
H  H40  1  0.25780000  0.78950000  0.29754000  1.0 0.126879248
H  H41  1  0.69050000  0.00680000  0.86227000  1.0 0.1007582199
H  H42  1  0.68830000  0.80800000  0.85727000  1.0 0.1204244213
H  H43  1  0.59730000  0.80510000  0.02533000  1.0 0.1389656916
H  H44  1  0.59950000  0.00270000  0.02435000  1.0 0.1007582199
H  H45  1  0.67640000  0.43330000  0.86200000  1.0 0.1102114741
H  H46  1  0.68140000  0.63070000  0.85940000  1.0 0.126879248
H  H47  1  0.59150000  0.63640000  0.01900000  1.0 0.1389656916
H  H48  1  0.59390000  0.43860000  0.01990000  1.0 0.1102114741
H  H49  1  0.49480000  0.26840000  0.71568000  1.0 0.1204244213
H  H50  1  0.38130000  0.26140000  0.62700000  1.0 0.1204244213
H  H51  1  0.23290000  0.09970000  0.73720000  1.0 0.1204244213
H  H52  1  0.34520000  0.11690000  0.82755000  1.0 0.1204244213
H  H53  1  0.10950000  0.25140000  0.49300000  1.0 0.1102114741
H  H54  1  0.16860000  0.02440000  0.63050000  1.0 0.1102114741
H  H55  1  0.52550000  0.03060000  0.34270000  1.0 0.1102114741
H  H56  1  0.67320000  0.16550000  0.49460000  1.0 0.1007582199
H  H57  1  0.51080000  0.10800000  0.24121000  1.0 0.1204244213
H  H58  1  0.52100000  0.13890000  0.13315000  1.0 0.1102114741
H  H59  1  0.76790000  0.24060000  0.18948000  1.0 0.1204244213
H  H60  1  0.75780000  0.21050000  0.29754000  1.0 0.126879248
H  H61  1  0.80950000  0.00680000  0.13773000  1.0 0.1007582199
H  H62  1  0.81170000  0.80800000  0.14273000  1.0 0.1204244213
H  H63  1  0.90270000  0.80510000  0.97467000  1.0 0.1389656916
H  H64  1  0.90050000  0.00270000  0.97565000  1.0 0.1007582199
H  H65  1  0.82360000  0.43330000  0.13800000  1.0 0.1102114741
H  H66  1  0.81860000  0.63070000  0.14060000  1.0 0.126879248
H  H67  1  0.90850000  0.63640000  0.98100000  1.0 0.1389656916
H  H68  1  0.90610000  0.43860000  0.98010000  1.0 0.1102114741
H  H69  1  0.00520000  0.26840000  0.28432000  1.0 0.1204244213
H  H70  1  0.11870000  0.26140000  0.37300000  1.0 0.1204244213
H  H71  1  0.26710000  0.09970000  0.26280000  1.0 0.1204244213
H  H72  1  0.15480000  0.11690000  0.17245000  1.0 0.1204244213
H  H73  1  0.39050000  0.25140000  0.50700000  1.0 0.1102114741
H  H74  1  0.33140000  0.02440000  0.36950000  1.0 0.1102114741
H  H75  1  0.97450000  0.03060000  0.65730000  1.0 0.1102114741
H  H76  1  0.82680000  0.16550000  0.50540000  1.0 0.1007582199
H  H77  1  0.98920000  0.10800000  0.75879000  1.0 0.1204244213
H  H78  1  0.97900000  0.13890000  0.86685000  1.0 0.1102114741
H  H79  1  0.73210000  0.24060000  0.81052000  1.0 0.1204244213
H  H80  1  0.74220000  0.21050000  0.70246000  1.0 0.126879248
C  C1  1  0.32900000  0.03510000  0.10442000  1.0 0.0790956763
C  C2  1  0.32990000  0.15380000  0.10766000  1.0 -0.2104649514
C  C3  1  0.35800000  0.21680000  0.05892000  1.0 0.1204244213
C  C4  1  0.38380000  0.15560000  0.00909000  1.0 -0.1790761546
C  C5  1  0.38170000  0.03760000  0.00980000  1.0 0.0790956763
C  C6  1  0.34080000  0.52570000  0.10340000  1.0 0.0790956763
C  C7  1  0.33780000  0.40620000  0.10550000  1.0 -0.2104649514
C  C8  1  0.36099000  0.34460000  0.05996000  1.0 0.1007582199
C  C9  1  0.38810000  0.40320000  0.01480000  1.0 -0.2104649514
C  C10  1  0.38780000  0.52290000  0.01510000  1.0 0.0790956763
C  C11  1  0.49800000  0.79490000  0.16185000  1.0 0.5393508703
C  C12  1  0.56970000  0.80410000  0.21924000  1.0 -0.0271310348
C  C13  1  0.55890000  0.76350000  0.27948000  1.0 -0.1015401676
C  C14  1  0.62540000  0.76910000  0.33230000  1.0 -0.2004783024
C  C15  1  0.70250000  0.81990000  0.32500000  1.0 0.1389656916
C  C16  1  0.71440000  0.86420000  0.26670000  1.0 -0.2183202997
C  C17  1  0.64730000  0.85450000  0.21346000  1.0 -0.1015401676
C  C18  1  0.86190000  0.78590000  0.46870000  1.0 0.0790956763
C  C19  1  0.83020000  0.90900000  0.39540000  1.0 0.058144293
C  C20  1  0.43020000  0.92630000  0.63100000  1.0 0.0263904777
C  C21  1  0.35080000  0.85220000  0.54930000  1.0 0.09142005
C  C22  1  0.43690000  0.86490000  0.76935000  1.0 -0.2004783024
C  C23  1  0.36690000  0.84400000  0.72092000  1.0 0.1389656916
C  C24  1  0.43080000  0.84630000  0.83338000  1.0 -0.0885599785
C  C25  1  0.35480000  0.80610000  0.84919000  1.0 -0.0408184359
C  C26  1  0.28460000  0.78600000  0.80003000  1.0 -0.0885599785
C  C27  1  0.29040000  0.80410000  0.73602000  1.0 -0.1884222224
C  C28  1  0.34910000  0.78540000  0.91854000  1.0 0.5393508703
C  C29  1  0.17100000  0.03510000  0.89558000  1.0 0.0790956763
C  C30  1  0.17010000  0.15380000  0.89234000  1.0 -0.2104649514
C  C31  1  0.14200000  0.21680000  0.94108000  1.0 0.1204244213
C  C32  1  0.11620000  0.15560000  0.99091000  1.0 -0.1790761546
C  C33  1  0.11830000  0.03760000  0.99020000  1.0 0.0790956763
C  C34  1  0.15920000  0.52570000  0.89660000  1.0 0.0790956763
C  C35  1  0.16220000  0.40620000  0.89450000  1.0 -0.2104649514
C  C36  1  0.13901000  0.34460000  0.94004000  1.0 0.1007582199
C  C37  1  0.11190000  0.40320000  0.98520000  1.0 -0.2104649514
C  C38  1  0.11220000  0.52290000  0.98490000  1.0 0.0790956763
C  C39  1  0.00200000  0.79490000  0.83815000  1.0 0.5393508703
C  C40  1  0.93030000  0.80410000  0.78076000  1.0 -0.0271310348
C  C41  1  0.94110000  0.76350000  0.72052000  1.0 -0.1015401676
C  C42  1  0.87460000  0.76910000  0.66770000  1.0 -0.2004783024
C  C43  1  0.79750000  0.81990000  0.67500000  1.0 0.1389656916
C  C44  1  0.78560000  0.86420000  0.73330000  1.0 -0.2183202997
C  C45  1  0.85270000  0.85450000  0.78654000  1.0 -0.1015401676
C  C46  1  0.63810000  0.78590000  0.53130000  1.0 0.0790956763
C  C47  1  0.66980000  0.90900000  0.60460000  1.0 0.058144293
C  C48  1  0.06980000  0.92630000  0.36900000  1.0 0.0263904777
C  C49  1  0.14920000  0.85220000  0.45070000  1.0 0.09142005
C  C50  1  0.06310000  0.86490000  0.23065000  1.0 -0.2004783024
C  C51  1  0.13310000  0.84400000  0.27908000  1.0 0.1389656916
C  C52  1  0.06920000  0.84630000  0.16662000  1.0 -0.0885599785
C  C53  1  0.14520000  0.80610000  0.15081000  1.0 -0.0408184359
C  C54  1  0.21540000  0.78600000  0.19997000  1.0 -0.0885599785
C  C55  1  0.20960000  0.80410000  0.26398000  1.0 -0.1884222224
C  C56  1  0.15090000  0.78540000  0.08146000  1.0 0.5393508703
C  C57  1  0.67100000  0.96490000  0.89558000  1.0 0.0747174129
C  C58  1  0.67010000  0.84620000  0.89234000  1.0 -0.2104649514
C  C59  1  0.64200000  0.78320000  0.94108000  1.0 0.1204244213
C  C60  1  0.61620000  0.84440000  0.99091000  1.0 -0.1790761546
C  C61  1  0.61830000  0.96240000  0.99020000  1.0 0.0790956763
C  C62  1  0.65920000  0.47430000  0.89660000  1.0 0.0790956763
C  C63  1  0.66220000  0.59380000  0.89450000  1.0 -0.2104649514
C  C64  1  0.63901000  0.65540000  0.94004000  1.0 0.1007582199
C  C65  1  0.61190000  0.59680000  0.98520000  1.0 -0.2104649514
C  C66  1  0.61220000  0.47710000  0.98490000  1.0 0.0790956763
C  C67  1  0.50200000  0.20510000  0.83815000  1.0 0.5393508703
C  C68  1  0.43030000  0.19590000  0.78076000  1.0 -0.0271310348
C  C69  1  0.44110000  0.23650000  0.72052000  1.0 -0.1015401676
C  C70  1  0.37460000  0.23090000  0.66770000  1.0 -0.2004783024
C  C71  1  0.29750000  0.18010000  0.67500000  1.0 0.1389656916
C  C72  1  0.28560000  0.13580000  0.73330000  1.0 -0.2183202997
C  C73  1  0.35270000  0.14550000  0.78654000  1.0 -0.1015401676
C  C74  1  0.13810000  0.21410000  0.53130000  1.0 0.0790956763
C  C75  1  0.16980000  0.09100000  0.60460000  1.0 0.058144293
C  C76  1  0.56980000  0.07370000  0.36900000  1.0 0.0263904777
C  C77  1  0.64920000  0.14780000  0.45070000  1.0 0.09142005
C  C78  1  0.56310000  0.13510000  0.23065000  1.0 -0.2004783024
C  C79  1  0.63310000  0.15600000  0.27908000  1.0 0.1389656916
C  C80  1  0.56920000  0.15370000  0.16662000  1.0 -0.0885599785
C  C81  1  0.64520000  0.19390000  0.15081000  1.0 -0.0408184359
C  C82  1  0.71540000  0.21400000  0.19997000  1.0 -0.0885599785
C  C83  1  0.70960000  0.19590000  0.26398000  1.0 -0.1884222224
C  C84  1  0.65090000  0.21460000  0.08146000  1.0 0.5393508703
C  C85  1  0.82900000  0.96490000  0.10442000  1.0 0.0747174129
C  C86  1  0.82990000  0.84620000  0.10766000  1.0 -0.2104649514
C  C87  1  0.85800000  0.78320000  0.05892000  1.0 0.1204244213
C  C88  1  0.88380000  0.84440000  0.00909000  1.0 -0.1790761546
C  C89  1  0.88170000  0.96240000  0.00980000  1.0 0.0790956763
C  C90  1  0.84080000  0.47430000  0.10340000  1.0 0.0790956763
C  C91  1  0.83780000  0.59380000  0.10550000  1.0 -0.2104649514
C  C92  1  0.86099000  0.65540000  0.05996000  1.0 0.1007582199
C  C93  1  0.88810000  0.59680000  0.01480000  1.0 -0.2104649514
C  C94  1  0.88780000  0.47710000  0.01510000  1.0 0.0790956763
C  C95  1  0.99800000  0.20510000  0.16185000  1.0 0.5393508703
C  C96  1  0.06970000  0.19590000  0.21924000  1.0 -0.0271310348
C  C97  1  0.05890000  0.23650000  0.27948000  1.0 -0.1015401676
C  C98  1  0.12540000  0.23090000  0.33230000  1.0 -0.2004783024
C  C99  1  0.20250000  0.18010000  0.32500000  1.0 0.1389656916
C  C100  1  0.21440000  0.13580000  0.26670000  1.0 -0.2183202997
C  C101  1  0.14730000  0.14550000  0.21346000  1.0 -0.1015401676
C  C102  1  0.36190000  0.21410000  0.46870000  1.0 0.0790956763
C  C103  1  0.33020000  0.09100000  0.39540000  1.0 0.058144293
C  C104  1  0.93020000  0.07370000  0.63100000  1.0 0.0263904777
C  C105  1  0.85080000  0.14780000  0.54930000  1.0 0.09142005
C  C106  1  0.93690000  0.13510000  0.76935000  1.0 -0.2004783024
C  C107  1  0.86690000  0.15600000  0.72092000  1.0 0.1389656916
C  C108  1  0.93080000  0.15370000  0.83338000  1.0 -0.0885599785
C  C109  1  0.85480000  0.19390000  0.84919000  1.0 -0.0408184359
C  C110  1  0.78460000  0.21400000  0.80003000  1.0 -0.0885599785
C  C111  1  0.79040000  0.19590000  0.73602000  1.0 -0.1884222224
C  C112  1  0.84910000  0.21460000  0.91854000  1.0 0.5393508703
N  N1  1  0.35450000  0.97680000  0.05613000  1.0 -0.2405251398
N  N2  1  0.36472000  0.58340000  0.05868000  1.0 -0.2004783024
N  N3  1  0.88480000  0.89080000  0.44850000  1.0 -0.3173306778
N  N4  1  0.77160000  0.82540000  0.38030000  1.0 0.1007582199
N  N5  1  0.41730000  0.92300000  0.56731000  1.0 -0.2970978438
N  N6  1  0.37240000  0.86060000  0.65447000  1.0 0.1102114741
N  N7  1  0.79190000  0.74040000  0.42650000  1.0 -0.2405251398
N  N8  1  0.32100000  0.80750000  0.60200000  1.0 -0.2763453021
N  N9  1  0.14550000  0.97680000  0.94387000  1.0 -0.2405251398
N  N10  1  0.13528000  0.58340000  0.94132000  1.0 -0.2004783024
N  N11  1  0.61520000  0.89080000  0.55150000  1.0 -0.3173306778
N  N12  1  0.72840000  0.82540000  0.61970000  1.0 0.1007582199
N  N13  1  0.08270000  0.92300000  0.43269000  1.0 -0.2970978438
N  N14  1  0.12760000  0.86060000  0.34553000  1.0 0.1102114741
N  N15  1  0.70810000  0.74040000  0.57350000  1.0 -0.2474198088
N  N16  1  0.17900000  0.80750000  0.39800000  1.0 -0.2763453021
N  N17  1  0.64550000  0.02320000  0.94387000  1.0 -0.2405251398
N  N18  1  0.63528000  0.41660000  0.94132000  1.0 -0.2004783024
N  N19  1  0.11520000  0.10920000  0.55150000  1.0 -0.3173306778
N  N20  1  0.22840000  0.17460000  0.61970000  1.0 0.1007582199
N  N21  1  0.58270000  0.07700000  0.43269000  1.0 -0.2970978438
N  N22  1  0.62760000  0.13940000  0.34553000  1.0 0.1102114741
N  N23  1  0.20810000  0.25960000  0.57350000  1.0 -0.2474198088
N  N24  1  0.67900000  0.19250000  0.39800000  1.0 -0.2763453021
N  N25  1  0.85450000  0.02320000  0.05613000  1.0 -0.2405251398
N  N26  1  0.86472000  0.41660000  0.05868000  1.0 -0.2004783024
N  N27  1  0.38480000  0.10920000  0.44850000  1.0 -0.3173306778
N  N28  1  0.27160000  0.17460000  0.38030000  1.0 0.1007582199
N  N29  1  0.91730000  0.07700000  0.56731000  1.0 -0.2970978438
N  N30  1  0.87240000  0.13940000  0.65447000  1.0 0.1102114741
N  N31  1  0.29190000  0.25960000  0.42650000  1.0 -0.2474198088
N  N32  1  0.82100000  0.19250000  0.60200000  1.0 -0.2746637359
O  O1  1  0.51579000  0.79140000  0.10622000  1.0 -0.5503786996
O  O2  1  0.42121000  0.78990000  0.17109000  1.0 -0.5758981004
O  O3  1  0.41809000  0.78555000  0.96007000  1.0 -0.5422280028
O  O4  1  0.27673000  0.76983000  0.93417000  1.0 -0.5869809881
O  O5  1  0.98421000  0.79140000  0.89378000  1.0 -0.5503786996
O  O6  1  0.07879000  0.78990000  0.82891000  1.0 -0.5758981004
O  O7  1  0.08191000  0.78555000  0.03993000  1.0 -0.5422280028
O  O8  1  0.22327000  0.76983000  0.06583000  1.0 -0.5869809881
O  O9  1  0.48421000  0.20860000  0.89378000  1.0 -0.5503786996
O  O10  1  0.57879000  0.21010000  0.82891000  1.0 -0.5758981004
O  O11  1  0.58191000  0.21445000  0.03993000  1.0 -0.5422280028
O  O12  1  0.72327000  0.23017000  0.06583000  1.0 -0.5869809881
O  O13  1  0.01579000  0.20860000  0.10622000  1.0 -0.5503786996
O  O14  1  0.92121000  0.21010000  0.17109000  1.0 -0.5758981004
O  O15  1  0.91809000  0.21445000  0.96007000  1.0 -0.5422280028
O  O16  1  0.77673000  0.23017000  0.93417000  1.0 -0.5869809881
