# DDEC6 charges by PACMAN v1.1 (https://github.com/mtap-research/PACMAN-charge/)
data_GUGRAE_ASR_pacman
_symmetry_space_group_name_H-M   'P 1'
_cell_length_a   23.17760000
_cell_length_b   22.51330000
_cell_length_c   19.05020000
_cell_angle_alpha   67.18820000
_cell_angle_beta   63.55550000
_cell_angle_gamma   49.25640000
_symmetry_Int_Tables_number   1
_chemical_formula_structural   CoH3(C2O)4
_chemical_formula_sum   'Co16 H48 C128 O64'
_cell_volume   6673.88949616
_cell_formula_units_Z   16
loop_
 _symmetry_equiv_pos_site_id
 _symmetry_equiv_pos_as_xyz
  1  'x, y, z'
loop_
 _atom_site_type_symbol
 _atom_site_label
 _atom_site_symmetry_multiplicity
 _atom_site_fract_x
 _atom_site_fract_y
 _atom_site_fract_z
 _atom_site_occupancy
 _atom_site_charge
Co  Co1  1  0.91462000  0.39932000  0.12220000  1.0 0.9612063185
Co  Co2  1  0.42751000  0.92365000  0.04397000  1.0 0.9612063185
Co  Co3  1  0.45853000  0.75473000  0.06105000  1.0 1.0218753458
Co  Co4  1  0.92779000  0.51965000  0.16227000  1.0 1.0529493333
Co  Co5  1  0.39932000  0.91462000  0.56386000  1.0 0.9612063185
Co  Co6  1  0.92365000  0.42751000  0.60487000  1.0 0.9612063185
Co  Co7  1  0.75473000  0.45853000  0.72569000  1.0 1.0218753458
Co  Co8  1  0.51965000  0.92779000  0.39029000  1.0 1.0529493333
Co  Co9  1  0.12780000  0.68614000  0.33538000  1.0 0.9612063185
Co  Co10  1  0.20603000  0.64513000  0.82249000  1.0 0.9612063185
Co  Co11  1  0.18895000  0.52431000  0.79147000  1.0 1.0218753458
Co  Co12  1  0.08773000  0.85971000  0.32221000  1.0 1.0529493333
Co  Co13  1  0.68614000  0.12780000  0.85068000  1.0 0.9612063185
Co  Co14  1  0.64513000  0.20603000  0.32635000  1.0 0.9612063185
Co  Co15  1  0.52431000  0.18895000  0.49527000  1.0 1.0218753458
Co  Co16  1  0.85971000  0.08773000  0.73035000  1.0 1.0529493333
H  H1  1  0.67834000  0.64842000  0.06140000  1.0 0.1331590078
H  H2  1  0.86459000  0.28943000  0.83399000  1.0 0.1119790349
H  H3  1  0.74670000  0.88968000  0.90618000  1.0 0.1208550974
H  H4  1  0.95425000  0.38055000  0.86435000  1.0 0.1331590078
H  H5  1  0.86751000  0.18299000  0.87663000  1.0 0.1119790349
H  H6  1  0.94356000  0.66576000  0.89182000  1.0 0.1119790349
H  H7  1  0.96307000  0.84823000  0.80629000  1.0 0.1331590078
H  H8  1  0.72102000  0.13096000  0.05540000  1.0 0.1352621258
H  H9  1  0.88247000  0.25559000  0.04937000  1.0 0.1208550974
H  H10  1  0.78695000  0.24163000  0.09269000  1.0 0.1208550974
H  H11  1  0.68274000  0.83776000  0.93280000  1.0 0.1208550974
H  H12  1  0.87948000  0.63221000  0.99269000  1.0 0.1119790349
H  H13  1  0.64842000  0.67834000  0.61184000  1.0 0.1331590078
H  H14  1  0.28943000  0.86459000  0.01199000  1.0 0.1119790349
H  H15  1  0.88968000  0.74670000  0.45744000  1.0 0.1208550974
H  H16  1  0.38055000  0.95425000  0.80085000  1.0 0.1331590078
H  H17  1  0.18299000  0.86751000  0.07287000  1.0 0.1119790349
H  H18  1  0.66576000  0.94356000  0.49886000  1.0 0.1119790349
H  H19  1  0.84823000  0.96307000  0.38241000  1.0 0.1331590078
H  H20  1  0.13096000  0.72102000  0.09262000  1.0 0.1331590078
H  H21  1  0.25559000  0.88247000  0.81257000  1.0 0.1208550974
H  H22  1  0.24163000  0.78695000  0.87873000  1.0 0.1208550974
H  H23  1  0.83776000  0.68274000  0.54670000  1.0 0.1208550974
H  H24  1  0.63221000  0.87949000  0.49562000  1.0 0.1119790349
H  H25  1  0.18860000  0.63816000  0.57166000  1.0 0.1331590078
H  H26  1  0.41601000  0.23801000  0.38541000  1.0 0.1119790349
H  H27  1  0.34382000  0.79256000  0.50330000  1.0 0.1208550974
H  H28  1  0.38565000  0.44915000  0.29575000  1.0 0.1331590078
H  H29  1  0.37337000  0.17713000  0.38249000  1.0 0.1119790349
H  H30  1  0.35818000  0.75114000  0.30644000  1.0 0.1119790349
H  H31  1  0.44371000  0.86759000  0.28693000  1.0 0.1331590078
H  H32  1  0.19460000  0.15738000  0.52898000  1.0 0.1352621258
H  H33  1  0.20063000  0.43743000  0.36753000  1.0 0.1208550974
H  H34  1  0.15731000  0.37127000  0.46305000  1.0 0.1208550974
H  H35  1  0.31720000  0.70330000  0.56726000  1.0 0.1208550974
H  H36  1  0.25731000  0.75438000  0.37051000  1.0 0.1119790349
H  H37  1  0.63816000  0.18860000  0.60158000  1.0 0.1331590078
H  H38  1  0.23801000  0.41601000  0.96057000  1.0 0.1119790349
H  H39  1  0.79256000  0.34382000  0.36032000  1.0 0.1208550974
H  H40  1  0.44915000  0.38565000  0.86945000  1.0 0.1331590078
H  H41  1  0.17713000  0.37337000  0.06701000  1.0 0.1119790349
H  H42  1  0.75114000  0.35818000  0.58424000  1.0 0.1119790349
H  H43  1  0.86759000  0.44371000  0.40177000  1.0 0.1331590078
H  H44  1  0.15738000  0.19460000  0.11904000  1.0 0.1331590078
H  H45  1  0.43743000  0.20063000  0.99441000  1.0 0.1208550974
H  H46  1  0.37127000  0.15731000  0.00837000  1.0 0.1208550974
H  H47  1  0.70330000  0.31720000  0.41224000  1.0 0.1208550974
H  H48  1  0.75438000  0.25732000  0.61779000  1.0 0.1119790349
C  C1  1  0.70632000  0.67186000  0.03518000  1.0 -0.0998786747
C  C2  1  0.87919000  0.29685000  0.86761000  1.0 -0.1624060332
C  C3  1  0.78402000  0.62866000  0.03312000  1.0 -0.0091997661
C  C4  1  0.80276000  0.85338000  0.89066000  1.0 -0.1405038855
C  C5  1  0.93122000  0.35234000  0.88558000  1.0 -0.0924004636
C  C6  1  0.81163000  0.96851000  0.83229000  1.0 0.5977209748
C  C7  1  0.93049000  0.34395000  0.01981000  1.0 0.5404592917
C  C8  1  0.86986000  0.26348000  0.94674000  1.0 0.0702097553
C  C9  1  0.91890000  0.32222000  0.96496000  1.0 -0.0091997661
C  C10  1  0.70361000  0.18193000  0.17323000  1.0 0.5404592917
C  C11  1  0.82524000  0.54536000  0.07362000  1.0 0.5689510495
C  C12  1  0.83576000  0.18526000  0.92998000  1.0 -0.1405038855
C  C13  1  0.91908000  0.72108000  0.88352000  1.0 -0.1405038855
C  C14  1  0.79297000  0.15405000  0.95719000  1.0 -0.0091997661
C  C15  1  0.93109000  0.82917000  0.83111000  1.0 -0.0924004636
C  C16  1  0.58133000  0.79817000  0.00767000  1.0 0.5875843853
C  C17  1  0.66850000  0.74996000  0.99892000  1.0 -0.0091997661
C  C18  1  0.78959000  0.12809000  0.89823000  1.0 0.5977209748
C  C19  1  0.75001000  0.15287000  0.03625000  1.0 -0.0924004636
C  C20  1  0.05373000  0.68935000  0.83221000  1.0 0.5977209748
C  C21  1  0.96595000  0.74843000  0.84757000  1.0 -0.0212927434
C  C22  1  0.88939000  0.27727000  0.99489000  1.0 -0.1322156008
C  C23  1  0.78960000  0.21850000  0.05794000  1.0 -0.1405038855
C  C24  1  0.74940000  0.18352000  0.08702000  1.0 -0.0091997661
C  C25  1  0.83785000  0.77213000  0.90753000  1.0 0.0593142178
C  C26  1  0.84949000  0.88171000  0.85109000  1.0 -0.0212927434
C  C27  1  0.70933000  0.78433000  0.95773000  1.0 -0.1490246042
C  C28  1  0.90979000  0.34119000  0.83705000  1.0 -0.0091997661
C  C29  1  0.83349000  0.22005000  0.97897000  1.0 0.0593142178
C  C30  1  0.82583000  0.66235000  0.99297000  1.0 -0.1624060332
C  C31  1  0.78943000  0.74043000  0.95293000  1.0 0.0702097553
C  C32  1  0.91755000  0.37823000  0.75247000  1.0 0.5689510495
C  C33  1  0.67186000  0.70632000  0.58664000  1.0 -0.0998786747
C  C34  1  0.29685000  0.87919000  0.95635000  1.0 -0.1624060332
C  C35  1  0.62866000  0.78402000  0.55420000  1.0 -0.0091997661
C  C36  1  0.85338000  0.80276000  0.45320000  1.0 -0.1405038855
C  C37  1  0.35234000  0.93122000  0.83086000  1.0 -0.0924004636
C  C38  1  0.96851000  0.81163000  0.38757000  1.0 0.5977209748
C  C39  1  0.34395000  0.93049000  0.70575000  1.0 0.5404592917
C  C40  1  0.26348000  0.86986000  0.91992000  1.0 0.0702097553
C  C41  1  0.32222000  0.91890000  0.79392000  1.0 -0.0091997661
C  C42  1  0.18193000  0.70361000  0.94123000  1.0 0.5404592917
C  C43  1  0.54536000  0.82524000  0.55578000  1.0 0.5689510495
C  C44  1  0.18526000  0.83576000  0.04900000  1.0 -0.1405038855
C  C45  1  0.72108000  0.91908000  0.47632000  1.0 -0.1405038855
C  C46  1  0.15405000  0.79297000  0.09579000  1.0 -0.0212927434
C  C47  1  0.82917000  0.93109000  0.40863000  1.0 -0.0924004636
C  C48  1  0.79817000  0.58133000  0.61283000  1.0 0.5875843853
C  C49  1  0.74996000  0.66850000  0.58262000  1.0 -0.0091997661
C  C50  1  0.12809000  0.78959000  0.18409000  1.0 0.5977209748
C  C51  1  0.15287000  0.75001000  0.06087000  1.0 -0.0924004636
C  C52  1  0.68935000  0.05373000  0.42471000  1.0 0.5977209748
C  C53  1  0.74843000  0.96595000  0.43805000  1.0 -0.0212927434
C  C54  1  0.27727000  0.88939000  0.83845000  1.0 -0.1322156008
C  C55  1  0.21850000  0.78960000  0.93396000  1.0 -0.1405038855
C  C56  1  0.18352000  0.74940000  0.98006000  1.0 -0.0091997661
C  C57  1  0.77213000  0.83785000  0.48249000  1.0 0.0549568624
C  C58  1  0.88171000  0.84949000  0.41771000  1.0 -0.0212927434
C  C59  1  0.78433000  0.70933000  0.54861000  1.0 -0.1490246042
C  C60  1  0.34119000  0.90979000  0.91197000  1.0 -0.0091997661
C  C61  1  0.22005000  0.83349000  0.96749000  1.0 0.0593142178
C  C62  1  0.66235000  0.82583000  0.51885000  1.0 -0.1624060332
C  C63  1  0.74043000  0.78943000  0.51721000  1.0 0.0702097553
C  C64  1  0.37823000  0.91755000  0.95175000  1.0 0.5689510495
C  C65  1  0.21482000  0.66336000  0.54368000  1.0 -0.0998786747
C  C66  1  0.38239000  0.29365000  0.37081000  1.0 -0.1624060332
C  C67  1  0.21688000  0.69580000  0.46598000  1.0 -0.0091997661
C  C68  1  0.35934000  0.79680000  0.44724000  1.0 -0.1405038855
C  C69  1  0.36442000  0.41914000  0.31878000  1.0 -0.0924004636
C  C70  1  0.41771000  0.86243000  0.43837000  1.0 0.5977209748
C  C71  1  0.23019000  0.54425000  0.31951000  1.0 0.5404592917
C  C72  1  0.30326000  0.33008000  0.38014000  1.0 0.0702097553
C  C73  1  0.28504000  0.45608000  0.33110000  1.0 -0.0091997661
C  C74  1  0.07677000  0.30877000  0.54639000  1.0 0.5404592917
C  C75  1  0.17638000  0.69422000  0.42476000  1.0 0.5689510495
C  C76  1  0.32002000  0.20100000  0.41424000  1.0 -0.1405038855
C  C77  1  0.36648000  0.77368000  0.33092000  1.0 -0.1405038855
C  C78  1  0.29281000  0.15421000  0.45703000  1.0 -0.0212927434
C  C79  1  0.41889000  0.84137000  0.31891000  1.0 -0.0924004636
C  C80  1  0.24233000  0.63717000  0.66867000  1.0 0.5875843853
C  C81  1  0.25108000  0.66738000  0.58150000  1.0 -0.0091997661
C  C82  1  0.35177000  0.06591000  0.46041000  1.0 0.5977209748
C  C83  1  0.21375000  0.18913000  0.49999000  1.0 -0.0924004636
C  C84  1  0.41779000  0.82529000  0.19627000  1.0 0.5977209748
C  C85  1  0.40243000  0.81195000  0.28405000  1.0 -0.0212927434
C  C86  1  0.25511000  0.41155000  0.36061000  1.0 -0.1322156008
C  C87  1  0.19206000  0.31604000  0.46040000  1.0 -0.1405038855
C  C88  1  0.16298000  0.26994000  0.50060000  1.0 -0.0091997661
C  C89  1  0.34247000  0.76751000  0.41215000  1.0 0.0549568624
C  C90  1  0.39891000  0.83229000  0.40051000  1.0 -0.0212927434
C  C91  1  0.29227000  0.70139000  0.54067000  1.0 -0.1490246042
C  C92  1  0.41295000  0.33803000  0.34021000  1.0 -0.0091997661
C  C93  1  0.27103000  0.28251000  0.41651000  1.0 0.0593142178
C  C94  1  0.25703000  0.73115000  0.42417000  1.0 -0.1624060332
C  C95  1  0.29707000  0.73279000  0.46057000  1.0 0.0702097553
C  C96  1  0.49753000  0.29825000  0.33245000  1.0 0.5689510495
C  C97  1  0.66336000  0.21482000  0.57814000  1.0 -0.0998786747
C  C98  1  0.29365000  0.38239000  0.95315000  1.0 -0.1624060332
C  C99  1  0.69580000  0.21688000  0.62134000  1.0 -0.0091997661
C  C100  1  0.79680000  0.35934000  0.39662000  1.0 -0.1405038855
C  C101  1  0.41914000  0.36442000  0.89766000  1.0 -0.0924004636
C  C102  1  0.86243000  0.41771000  0.28149000  1.0 0.5977209748
C  C103  1  0.54425000  0.23019000  0.90605000  1.0 0.5404592917
C  C104  1  0.33008000  0.30326000  0.98652000  1.0 0.0702097553
C  C105  1  0.45608000  0.28504000  0.92778000  1.0 -0.0091997661
C  C106  1  0.30877000  0.07677000  0.06807000  1.0 0.5404592917
C  C107  1  0.69422000  0.17638000  0.70464000  1.0 0.5689510495
C  C108  1  0.20100000  0.32002000  0.06474000  1.0 -0.1405038855
C  C109  1  0.77368000  0.36648000  0.52892000  1.0 -0.1405038855
C  C110  1  0.15421000  0.29281000  0.09595000  1.0 -0.0212927434
C  C111  1  0.84137000  0.41889000  0.42083000  1.0 -0.0924004636
C  C112  1  0.63717000  0.24233000  0.45183000  1.0 0.5875843853
C  C113  1  0.66738000  0.25108000  0.50004000  1.0 -0.0091997661
C  C114  1  0.06591000  0.35177000  0.12191000  1.0 0.5977209748
C  C115  1  0.18913000  0.21375000  0.09713000  1.0 -0.0924004636
C  C116  1  0.82529000  0.41779000  0.56065000  1.0 0.5977209748
C  C117  1  0.81195000  0.40243000  0.50157000  1.0 -0.0212927434
C  C118  1  0.41155000  0.25511000  0.97273000  1.0 -0.1322156008
C  C119  1  0.31604000  0.19206000  0.03150000  1.0 -0.1405038855
C  C120  1  0.26994000  0.16298000  0.06648000  1.0 -0.0091997661
C  C121  1  0.76751000  0.34247000  0.47787000  1.0 0.0593142178
C  C122  1  0.83229000  0.39891000  0.36829000  1.0 -0.0212927434
C  C123  1  0.70139000  0.29227000  0.46567000  1.0 -0.1490246042
C  C124  1  0.33803000  0.41295000  0.90881000  1.0 -0.0091997661
C  C125  1  0.28251000  0.27103000  0.02995000  1.0 0.0593142178
C  C126  1  0.73115000  0.25703000  0.58765000  1.0 -0.1624060332
C  C127  1  0.73279000  0.29707000  0.50957000  1.0 0.0702097553
C  C128  1  0.29825000  0.49753000  0.87177000  1.0 0.5689510495
O  O1  1  0.09314000  0.71334000  0.82150000  1.0 -0.5199896514
O  O2  1  0.83689000  0.12173000  0.83103000  1.0 -0.5793635755
O  O3  1  0.79593000  0.50909000  0.09581000  1.0 -0.4773438811
O  O4  1  0.66518000  0.15500000  0.19964000  1.0 -0.4873724738
O  O5  1  0.08036000  0.61952000  0.83356000  1.0 -0.5793635755
O  O6  1  0.95673000  0.38447000  0.99317000  1.0 -0.5199896514
O  O7  1  0.73581000  0.11863000  0.92115000  1.0 -0.5274659455
O  O8  1  0.90867000  0.32429000  0.09357000  1.0 -0.5199896514
O  O9  1  0.55180000  0.76118000  0.03116000  1.0 -0.5990749657
O  O10  1  0.73764000  0.01326000  0.85886000  1.0 -0.5199896514
O  O11  1  0.85565000  0.99091000  0.79233000  1.0 -0.5937115609
O  O12  1  0.54311000  0.87231000  0.99303000  1.0 -0.5146579503
O  O13  1  0.70633000  0.21193000  0.21511000  1.0 -0.5199896514
O  O14  1  0.95745000  0.40483000  0.71949000  1.0 -0.470374908
O  O15  1  0.88229000  0.38139000  0.71335000  1.0 -0.6121946185
O  O16  1  0.89397000  0.51029000  0.08161000  1.0 -0.6283925383
O  O17  1  0.71334000  0.09314000  0.37202000  1.0 -0.5199896514
O  O18  1  0.12173000  0.83689000  0.21035000  1.0 -0.5793635755
O  O19  1  0.50909000  0.79593000  0.59917000  1.0 -0.4773438811
O  O20  1  0.15500000  0.66518000  0.98018000  1.0 -0.4773438811
O  O21  1  0.61952000  0.08036000  0.46656000  1.0 -0.5793635755
O  O22  1  0.38447000  0.95673000  0.66563000  1.0 -0.5199896514
O  O23  1  0.11863000  0.73581000  0.22441000  1.0 -0.5274659455
O  O24  1  0.32429000  0.90867000  0.67347000  1.0 -0.5199896514
O  O25  1  0.76118000  0.55180000  0.65586000  1.0 -0.5990749657
O  O26  1  0.01326000  0.73764000  0.39024000  1.0 -0.5199896514
O  O27  1  0.99091000  0.85565000  0.36111000  1.0 -0.5937115609
O  O28  1  0.87231000  0.54311000  0.59155000  1.0 -0.5146579503
O  O29  1  0.21193000  0.70633000  0.86663000  1.0 -0.5199896514
O  O30  1  0.40483000  0.95745000  0.91823000  1.0 -0.470374908
O  O31  1  0.38139000  0.88229000  0.02297000  1.0 -0.6121946185
O  O32  1  0.51029000  0.89397000  0.51413000  1.0 -0.6283925383
O  O33  1  0.42850000  0.87798000  0.15686000  1.0 -0.5199896514
O  O34  1  0.41897000  0.03965000  0.41311000  1.0 -0.5793635755
O  O35  1  0.15419000  0.65083000  0.45407000  1.0 -0.4773438811
O  O36  1  0.05036000  0.26982000  0.58482000  1.0 -0.4873724738
O  O37  1  0.41644000  0.78344000  0.16964000  1.0 -0.5793635755
O  O38  1  0.25683000  0.58437000  0.29327000  1.0 -0.5199896514
O  O39  1  0.32885000  0.02559000  0.51419000  1.0 -0.5274659455
O  O40  1  0.15643000  0.57653000  0.34133000  1.0 -0.5199896514
O  O41  1  0.21884000  0.59414000  0.69820000  1.0 -0.5990749657
O  O42  1  0.39114000  0.85976000  0.51236000  1.0 -0.5199896514
O  O43  1  0.45767000  0.88889000  0.39435000  1.0 -0.5937115609
O  O44  1  0.25697000  0.65845000  0.70689000  1.0 -0.5146579503
O  O45  1  0.03489000  0.38337000  0.54367000  1.0 -0.5199896514
O  O46  1  0.53051000  0.33177000  0.29255000  1.0 -0.4647710978
O  O47  1  0.53665000  0.22703000  0.36771000  1.0 -0.6121946185
O  O48  1  0.16839000  0.73587000  0.35603000  1.0 -0.6283925383
O  O49  1  0.87798000  0.42850000  0.53666000  1.0 -0.5199896514
O  O50  1  0.03965000  0.41897000  0.12827000  1.0 -0.5793635755
O  O51  1  0.65083000  0.15419000  0.74091000  1.0 -0.4773438811
O  O52  1  0.26982000  0.05036000  0.09500000  1.0 -0.4873724738
O  O53  1  0.78344000  0.41644000  0.63048000  1.0 -0.5793635755
O  O54  1  0.58437000  0.25683000  0.86553000  1.0 -0.5199896514
O  O55  1  0.02559000  0.32885000  0.13137000  1.0 -0.5274659455
O  O56  1  0.57653000  0.15643000  0.92571000  1.0 -0.5199896514
O  O57  1  0.59414000  0.21884000  0.48882000  1.0 -0.5990749657
O  O58  1  0.85976000  0.39114000  0.23674000  1.0 -0.5199896514
O  O59  1  0.88889000  0.45767000  0.25909000  1.0 -0.5990749657
O  O60  1  0.65845000  0.25697000  0.37769000  1.0 -0.5146579503
O  O61  1  0.38337000  0.03489000  0.03807000  1.0 -0.5199896514
O  O62  1  0.33177000  0.53051000  0.84517000  1.0 -0.470374908
O  O63  1  0.22703000  0.53665000  0.86861000  1.0 -0.6121946185
O  O64  1  0.73587000  0.16839000  0.73971000  1.0 -0.6283925383
