# DDEC6 charges by PACMAN v1.1 (https://github.com/mtap-research/PACMAN-charge/)
data_GUGXOX_ASR_pacman
_symmetry_space_group_name_H-M   'P 1'
_cell_length_a   7.52920000
_cell_length_b   14.09990000
_cell_length_c   17.52040000
_cell_angle_alpha   90.00000000
_cell_angle_beta   109.57400000
_cell_angle_gamma   90.00000000
_symmetry_Int_Tables_number   1
_chemical_formula_structural   Be3P4(HO4)4
_chemical_formula_sum   'Be12 P16 H16 O64'
_cell_volume   1752.49342946
_cell_formula_units_Z   4
loop_
 _symmetry_equiv_pos_site_id
 _symmetry_equiv_pos_as_xyz
  1  'x, y, z'
loop_
 _atom_site_type_symbol
 _atom_site_label
 _atom_site_symmetry_multiplicity
 _atom_site_fract_x
 _atom_site_fract_y
 _atom_site_fract_z
 _atom_site_occupancy
 _atom_site_charge
Be  Be1  1  0.03710000  0.89110000  0.42750000  1.0 1.1918025914
Be  Be2  1  0.96290000  0.39110000  0.07250000  1.0 1.1918025914
Be  Be3  1  0.96290000  0.10890000  0.57250000  1.0 1.1918025914
Be  Be4  1  0.03710000  0.60890000  0.92750000  1.0 1.1918025914
Be  Be5  1  0.07110000  0.61800000  0.44680000  1.0 1.1918025914
Be  Be6  1  0.92890000  0.11800000  0.05320000  1.0 1.1918025914
Be  Be7  1  0.92890000  0.38200000  0.55320000  1.0 1.1918025914
Be  Be8  1  0.07110000  0.88200000  0.94680000  1.0 1.1918025914
Be  Be9  1  0.74880000  0.75060000  0.13510000  1.0 1.2025039497
Be  Be10  1  0.25120000  0.25060000  0.36490000  1.0 1.2079546752
Be  Be11  1  0.25120000  0.24940000  0.86490000  1.0 1.2079546752
Be  Be12  1  0.74880000  0.74940000  0.63510000  1.0 1.2025039497
P  P1  1  0.15044000  0.08948000  0.44558000  1.0 1.3128477636
P  P2  1  0.84956000  0.58948000  0.05442000  1.0 1.3128477636
P  P3  1  0.84956000  0.91052000  0.55442000  1.0 1.3128477636
P  P4  1  0.15044000  0.41052000  0.94558000  1.0 1.3128477636
P  P5  1  0.31935000  0.76350000  0.53619000  1.0 1.330844343
P  P6  1  0.68065000  0.26350000  0.96381000  1.0 1.330844343
P  P7  1  0.68065000  0.23650000  0.46381000  1.0 1.330844343
P  P8  1  0.31935000  0.73650000  0.03619000  1.0 1.330844343
P  P9  1  0.84448000  0.74249000  0.31664000  1.0 1.2898574474
P  P10  1  0.15552000  0.24249000  0.18336000  1.0 1.2898574474
P  P11  1  0.15552000  0.25751000  0.68336000  1.0 1.2898574474
P  P12  1  0.84448000  0.75751000  0.81664000  1.0 1.2898574474
P  P13  1  0.81338000  0.58995000  0.54088000  1.0 1.330844343
P  P14  1  0.18662000  0.08995000  0.95912000  1.0 1.330844343
P  P15  1  0.18662000  0.41005000  0.45912000  1.0 1.330844343
P  P16  1  0.81338000  0.91005000  0.04088000  1.0 1.330844343
H  H1  1  0.42430000  0.11540000  0.46530000  1.0 0.3316193996
H  H2  1  0.57570000  0.61540000  0.03470000  1.0 0.3316193996
H  H3  1  0.57570000  0.88460000  0.53470000  1.0 0.3316193996
H  H4  1  0.42430000  0.38460000  0.96530000  1.0 0.3316193996
H  H5  1  0.13290000  0.78840000  0.59300000  1.0 0.3316193996
H  H6  1  0.86710000  0.28840000  0.90700000  1.0 0.3316193996
H  H7  1  0.86710000  0.21160000  0.40700000  1.0 0.3316193996
H  H8  1  0.13290000  0.71160000  0.09300000  1.0 0.3316193996
H  H9  1  0.70270000  0.70780000  0.39200000  1.0 0.3369364443
H  H10  1  0.29730000  0.20780000  0.10800000  1.0 0.3369364443
H  H11  1  0.29730000  0.29220000  0.60800000  1.0 0.3369364443
H  H12  1  0.70270000  0.79220000  0.89200000  1.0 0.3369364443
H  H13  1  0.53390000  0.61380000  0.49700000  1.0 0.3316193996
H  H14  1  0.46610000  0.11380000  0.00300000  1.0 0.3316193996
H  H15  1  0.46610000  0.38620000  0.50300000  1.0 0.3316193996
H  H16  1  0.53390000  0.88620000  0.99700000  1.0 0.3316193996
O  O1  1  0.11082000  0.17456000  0.38842000  1.0 -0.6503080623
O  O2  1  0.88918000  0.67456000  0.11158000  1.0 -0.6503080623
O  O3  1  0.88918000  0.82544000  0.61158000  1.0 -0.6503080623
O  O4  1  0.11082000  0.32544000  0.88842000  1.0 -0.6503080623
O  O5  1  0.36982000  0.07067000  0.47762000  1.0 -0.6315232888
O  O6  1  0.63018000  0.57067000  0.02238000  1.0 -0.6315232888
O  O7  1  0.63018000  0.92933000  0.52238000  1.0 -0.6315232888
O  O8  1  0.36982000  0.42933000  0.97762000  1.0 -0.6315232888
O  O9  1  0.09563000  0.10822000  0.51863000  1.0 -0.6503080623
O  O10  1  0.90437000  0.60822000  0.98137000  1.0 -0.6503080623
O  O11  1  0.90437000  0.89178000  0.48137000  1.0 -0.6503080623
O  O12  1  0.09563000  0.39178000  0.01863000  1.0 -0.6503080623
O  O13  1  0.06000000  0.00051000  0.39900000  1.0 -0.6315232888
O  O14  1  0.94000000  0.50051000  0.10100000  1.0 -0.6315232888
O  O15  1  0.94000000  0.99949000  0.60100000  1.0 -0.6315232888
O  O16  1  0.06000000  0.49949000  0.89900000  1.0 -0.6315232888
O  O17  1  0.24273000  0.84527000  0.47783000  1.0 -0.6503080623
O  O18  1  0.75727000  0.34527000  0.02217000  1.0 -0.6503080623
O  O19  1  0.75727000  0.15473000  0.52217000  1.0 -0.6503080623
O  O20  1  0.24273000  0.65473000  0.97783000  1.0 -0.6503080623
O  O21  1  0.93873000  0.83821000  0.34243000  1.0 -0.6315232888
O  O22  1  0.06127000  0.33821000  0.15757000  1.0 -0.6315232888
O  O23  1  0.06127000  0.16179000  0.65757000  1.0 -0.6315232888
O  O24  1  0.93873000  0.66179000  0.84243000  1.0 -0.6315232888
O  O25  1  0.53211000  0.77533000  0.57441000  1.0 -0.6600899396
O  O26  1  0.46789000  0.27533000  0.92559000  1.0 -0.6600899396
O  O27  1  0.46789000  0.22467000  0.42559000  1.0 -0.6600899396
O  O28  1  0.53211000  0.72467000  0.07441000  1.0 -0.6600899396
O  O29  1  0.24288000  0.77046000  0.60948000  1.0 -0.6176737246
O  O30  1  0.75712000  0.27046000  0.89052000  1.0 -0.6176737246
O  O31  1  0.75712000  0.22954000  0.39052000  1.0 -0.6176737246
O  O32  1  0.24288000  0.72954000  0.10948000  1.0 -0.6176737246
O  O33  1  0.27504000  0.66646000  0.49614000  1.0 -0.6600899396
O  O34  1  0.72496000  0.16646000  0.00386000  1.0 -0.6600899396
O  O35  1  0.72496000  0.33354000  0.50386000  1.0 -0.6600899396
O  O36  1  0.27504000  0.83354000  0.99614000  1.0 -0.6600899396
O  O37  1  0.76334000  0.73548000  0.22614000  1.0 -0.5504799482
O  O38  1  0.23666000  0.23548000  0.27386000  1.0 -0.5504799482
O  O39  1  0.23666000  0.26452000  0.77386000  1.0 -0.5504799482
O  O40  1  0.76334000  0.76452000  0.72614000  1.0 -0.5504799482
O  O41  1  0.66923000  0.73342000  0.34743000  1.0 -0.6080773917
O  O42  1  0.33077000  0.23342000  0.15257000  1.0 -0.6080773917
O  O43  1  0.33077000  0.26658000  0.65257000  1.0 -0.6080773917
O  O44  1  0.66923000  0.76658000  0.84743000  1.0 -0.6080773917
O  O45  1  0.97894000  0.66023000  0.35394000  1.0 -0.6600899396
O  O46  1  0.02106000  0.16023000  0.14606000  1.0 -0.6600899396
O  O47  1  0.02106000  0.33977000  0.64606000  1.0 -0.6600899396
O  O48  1  0.97894000  0.83977000  0.85394000  1.0 -0.6600899396
O  O49  1  0.92457000  0.64180000  0.49567000  1.0 -0.6874430177
O  O50  1  0.07543000  0.14180000  0.00433000  1.0 -0.6874430177
O  O51  1  0.07543000  0.35820000  0.50433000  1.0 -0.6874430177
O  O52  1  0.92457000  0.85820000  0.99567000  1.0 -0.6874430177
O  O53  1  0.80842000  0.64219000  0.61662000  1.0 -0.6315232888
O  O54  1  0.19158000  0.14219000  0.88338000  1.0 -0.6315232888
O  O55  1  0.19158000  0.35781000  0.38338000  1.0 -0.6315232888
O  O56  1  0.80842000  0.85781000  0.11662000  1.0 -0.6355841455
O  O57  1  0.88688000  0.49122000  0.56478000  1.0 -0.6315232888
O  O58  1  0.11312000  0.99122000  0.93522000  1.0 -0.6315232888
O  O59  1  0.11312000  0.50878000  0.43522000  1.0 -0.6315232888
O  O60  1  0.88688000  0.00878000  0.06478000  1.0 -0.6315232888
O  O61  1  0.60497000  0.58470000  0.47867000  1.0 -0.6315232888
O  O62  1  0.39503000  0.08470000  0.02133000  1.0 -0.6315232888
O  O63  1  0.39503000  0.41530000  0.52133000  1.0 -0.6315232888
O  O64  1  0.60497000  0.91530000  0.97867000  1.0 -0.6315232888
