# DDEC6 charges by PACMAN v1.1 (https://github.com/mtap-research/PACMAN-charge/)
data_GUHYUG_FSR_pacman
_symmetry_space_group_name_H-M   'P 1'
_cell_length_a   10.07000000
_cell_length_b   15.74000000
_cell_length_c   20.11000000
_cell_angle_alpha   109.25000000
_cell_angle_beta   96.50000000
_cell_angle_gamma   102.03000000
_symmetry_Int_Tables_number   1
_chemical_formula_structural   Zn2H41C58N8O13
_chemical_formula_sum   'Zn4 H82 C116 N16 O26'
_cell_volume   2885.48199083
_cell_formula_units_Z   2
loop_
 _symmetry_equiv_pos_site_id
 _symmetry_equiv_pos_as_xyz
  1  'x, y, z'
loop_
 _atom_site_type_symbol
 _atom_site_label
 _atom_site_symmetry_multiplicity
 _atom_site_fract_x
 _atom_site_fract_y
 _atom_site_fract_z
 _atom_site_occupancy
 _atom_site_charge
Zn  Zn1  1  0.61030000  0.65365000  0.71343000  1.0 0.7637906329
Zn  Zn2  1  0.39000000  0.84635000  0.78676000  1.0 0.7637906329
Zn  Zn3  1  0.38970000  0.34635000  0.28657000  1.0 0.7637906329
Zn  Zn4  1  0.61000000  0.15365000  0.21324000  1.0 0.7637906329
H  H1  1  0.16688000  0.76804000  0.53047000  1.0 0.1405617283
H  H2  1  0.18850000  0.77783000  0.64904000  1.0 0.1109955369
H  H3  1  0.58180000  0.93162000  0.69154000  1.0 0.1109955369
H  H4  1  0.56018000  0.92183000  0.57298000  1.0 0.1195066882
H  H5  1  0.78883000  0.79119000  0.53902000  1.0 0.1109955369
H  H6  1  0.65636000  0.89974000  0.26066000  1.0 0.1302750337
H  H7  1  0.52874000  0.89294000  0.14967000  1.0 0.2864712135
H  H8  1  0.47457000  0.60788000  0.03580000  1.0 0.2810232894
H  H9  1  0.65114000  0.90330000  0.37564000  1.0 0.1302750337
H  H10  1  0.99169000  0.15885000  0.91085000  1.0 0.1109955369
H  H11  1  0.76990000  0.06064000  0.86498000  1.0 0.0919319944
H  H12  1  0.92961000  0.84709000  0.77267000  1.0 0.1109955369
H  H13  1  0.18244000  0.10118000  0.88763000  1.0 0.1109955369
H  H14  1  0.47109000  0.61035000  0.35345000  1.0 0.3040389673
H  H15  1  0.23309000  0.43663000  0.65095000  1.0 0.1109955369
H  H16  1  0.52655000  0.89098000  0.46433000  1.0 0.2738456981
H  H17  1  0.43089000  0.58191000  0.55992000  1.0 0.1195066882
H  H18  1  0.76262000  0.67707000  0.17255000  1.0 0.1405617283
H  H19  1  0.57775000  0.92388000  0.94222000  1.0 0.1109955369
H  H20  1  0.20056000  0.74440000  0.86170000  1.0 0.1109955369
H  H21  1  0.19290000  0.72996000  0.97244000  1.0 0.1302750337
H  H22  1  0.57009000  0.90944000  0.05296000  1.0 0.1302750337
H  H23  1  0.44285000  0.57145000  0.92311000  1.0 0.1302750337
H  H24  1  0.06654000  0.65350000  0.72071000  1.0 0.1195066882
H  H25  1  0.24462000  0.80931000  0.20959000  1.0 0.1302750337
H  H26  1  0.43046000  0.56737000  0.80643000  1.0 0.1109955369
H  H27  1  0.34465000  0.60223000  0.24111000  1.0 0.1405617283
H  H28  1  0.75942000  0.68334000  0.28850000  1.0 0.1302750337
H  H29  1  0.01773000  0.33370000  0.62639000  1.0 0.1561182396
H  H30  1  0.23582000  0.80995000  0.32524000  1.0 0.1405617283
H  H31  1  0.76720000  0.77586000  0.64914000  1.0 0.1006457389
H  H32  1  0.43075000  0.59748000  0.45038000  1.0 0.1468034343
H  H33  1  0.34839000  0.59678000  0.12470000  1.0 0.1302750337
H  H34  1  0.80426000  0.72861000  0.85435000  1.0 0.1109955369
H  H35  1  0.82884000  0.73440000  0.96901000  1.0 0.1405617283
H  H36  1  0.94140000  0.84850000  0.79504000  1.0 0.1109955369
H  H37  1  0.81191000  0.69760000  0.61685000  1.0 0.0919319944
H  H38  1  0.82396000  0.70929000  0.50685000  1.0 0.1109955369
H  H39  1  0.98021000  0.16826000  0.84555000  1.0 0.1195066882
H  H40  1  0.17145000  0.11441000  0.82796000  1.0 0.1109955369
H  H41  1  0.76028000  0.05864000  0.80135000  1.0 0.0919319944
H  H42  1  0.83312000  0.23196000  0.46953000  1.0 0.1405617283
H  H43  1  0.81150000  0.22217000  0.35096000  1.0 0.1109955369
H  H44  1  0.41820000  0.06838000  0.30846000  1.0 0.1109955369
H  H45  1  0.43982000  0.07817000  0.42702000  1.0 0.1195066882
H  H46  1  0.21117000  0.20881000  0.46098000  1.0 0.1109955369
H  H47  1  0.34364000  0.10026000  0.73934000  1.0 0.1302750337
H  H48  1  0.47126000  0.10706000  0.85033000  1.0 0.2864712135
H  H49  1  0.52543000  0.39212000  0.96420000  1.0 0.2810232894
H  H50  1  0.34886000  0.09670000  0.62436000  1.0 0.1302750337
H  H51  1  0.00831000  0.84115000  0.08915000  1.0 0.1109955369
H  H52  1  0.23010000  0.93936000  0.13502000  1.0 0.0919319944
H  H53  1  0.07039000  0.15291000  0.22733000  1.0 0.1109955369
H  H54  1  0.81756000  0.89882000  0.11237000  1.0 0.1109955369
H  H55  1  0.52891000  0.38965000  0.64655000  1.0 0.3040389673
H  H56  1  0.76691000  0.56337000  0.34905000  1.0 0.1109955369
H  H57  1  0.47345000  0.10902000  0.53567000  1.0 0.2738456981
H  H58  1  0.56911000  0.41809000  0.44008000  1.0 0.1195066882
H  H59  1  0.23738000  0.32293000  0.82745000  1.0 0.1405617283
H  H60  1  0.42225000  0.07612000  0.05778000  1.0 0.1109955369
H  H61  1  0.79944000  0.25560000  0.13830000  1.0 0.1109955369
H  H62  1  0.80710000  0.27004000  0.02756000  1.0 0.1302750337
H  H63  1  0.42991000  0.09056000  0.94704000  1.0 0.1302750337
H  H64  1  0.55715000  0.42855000  0.07689000  1.0 0.1302750337
H  H65  1  0.93346000  0.34650000  0.27929000  1.0 0.1195066882
H  H66  1  0.75538000  0.19069000  0.79041000  1.0 0.1302750337
H  H67  1  0.56954000  0.43263000  0.19357000  1.0 0.1109955369
H  H68  1  0.65535000  0.39777000  0.75889000  1.0 0.1405617283
H  H69  1  0.24058000  0.31666000  0.71150000  1.0 0.1302750337
H  H70  1  0.98227000  0.66630000  0.37361000  1.0 0.1561182396
H  H71  1  0.76418000  0.19005000  0.67476000  1.0 0.1405617283
H  H72  1  0.23280000  0.22414000  0.35086000  1.0 0.1006457389
H  H73  1  0.56925000  0.40252000  0.54962000  1.0 0.1468034343
H  H74  1  0.65161000  0.40322000  0.87530000  1.0 0.1302750337
H  H75  1  0.19574000  0.27139000  0.14565000  1.0 0.1109955369
H  H76  1  0.17116000  0.26560000  0.03099000  1.0 0.1405617283
H  H77  1  0.05860000  0.15150000  0.20496000  1.0 0.1109955369
H  H78  1  0.18809000  0.30240000  0.38315000  1.0 0.0919319944
H  H79  1  0.17604000  0.29071000  0.49315000  1.0 0.1109955369
H  H80  1  0.01979000  0.83174000  0.15445000  1.0 0.1195066882
H  H81  1  0.82855000  0.88559000  0.17204000  1.0 0.1109955369
H  H82  1  0.23972000  0.94136000  0.19865000  1.0 0.0919319944
C  C1  1  0.36140000  0.84400000  0.54000000  1.0 0.0289360032
C  C2  1  0.25000000  0.80080000  0.56280000  1.0 -0.1591095372
C  C3  1  0.26300000  0.80670000  0.63380000  1.0 0.0505990193
C  C4  1  0.49860000  0.89880000  0.65930000  1.0 0.0424309795
C  C5  1  0.48570000  0.89300000  0.58820000  1.0 -0.2033290907
C  C6  1  0.62260000  0.68120000  0.47590000  1.0 0.012042607
C  C7  1  0.71860000  0.74380000  0.54100000  1.0 -0.0335651903
C  C8  1  0.92450000  0.52750000  0.68280000  1.0 -0.0608195209
C  C9  1  0.57190000  0.88250000  0.27360000  1.0 -0.1796999036
C  C10  1  0.56860000  0.88530000  0.34260000  1.0 -0.1677526627
C  C11  1  0.66220000  0.67000000  0.03950000  1.0 0.4502631978
C  C12  1  0.97930000  0.09640000  0.88320000  1.0 -0.0608195209
C  C13  1  0.84640000  0.03750000  0.85570000  1.0 -0.0385281502
C  C14  1  0.82780000  0.94410000  0.81430000  1.0 -0.0479749274
C  C15  1  0.94210000  0.90960000  0.80040000  1.0 -0.2033290907
C  C16  1  0.07490000  0.96840000  0.82780000  1.0 0.0289360032
C  C17  1  0.09350000  0.06180000  0.86920000  1.0 -0.0248046114
C  C18  1  0.31380000  0.62100000  0.70620000  1.0 0.5698600666
C  C19  1  0.15600000  0.45930000  0.65970000  1.0 -0.0996926545
C  C20  1  0.50860000  0.62060000  0.55410000  1.0 -0.0053821383
C  C21  1  0.19880000  0.93510000  0.80860000  1.0 0.3811861531
C  C22  1  0.67820000  0.66340000  0.18650000  1.0 -0.1906765892
C  C23  1  0.50060000  0.88500000  0.94830000  1.0 0.0605759633
C  C24  1  0.27460000  0.77750000  0.90000000  1.0 0.0605759633
C  C25  1  0.27000000  0.76880000  0.96640000  1.0 -0.1677526627
C  C26  1  0.38070000  0.81830000  0.02370000  1.0 0.0035450095
C  C27  1  0.49600000  0.87640000  0.01460000  1.0 -0.2033290907
C  C28  1  0.51740000  0.60440000  0.91050000  1.0 -0.1906765892
C  C29  1  0.05610000  0.58960000  0.70060000  1.0 -0.1292347877
C  C30  1  0.32680000  0.82840000  0.24300000  1.0 -0.1906765892
C  C31  1  0.91050000  0.43180000  0.65570000  1.0 0.0035450095
C  C32  1  0.44720000  0.86210000  0.36270000  1.0 0.20186622
C  C33  1  0.54900000  0.64390000  0.27650000  1.0 0.2098644518
C  C34  1  0.51140000  0.60180000  0.84010000  1.0 0.1006457389
C  C35  1  0.42900000  0.61820000  0.22770000  1.0 -0.1677526627
C  C36  1  0.68650000  0.87990000  0.79490000  1.0 0.5301454918
C  C37  1  0.64140000  0.69610000  0.40670000  1.0 0.4392398254
C  C38  1  0.67680000  0.66650000  0.25580000  1.0 -0.1796999036
C  C39  1  0.36160000  0.80450000  0.09100000  1.0 0.4392398254
C  C40  1  0.44720000  0.85370000  0.22220000  1.0 0.2098644518
C  C41  1  0.02710000  0.39760000  0.64430000  1.0 -0.1220934584
C  C42  1  0.17140000  0.55510000  0.68810000  1.0 -0.0385281502
C  C43  1  0.31970000  0.82950000  0.31260000  1.0 -0.1796999036
C  C44  1  0.80010000  0.56520000  0.69250000  1.0 0.5390827314
C  C45  1  0.55790000  0.64070000  0.13800000  1.0 0.20186622
C  C46  1  0.34030000  0.82960000  0.45980000  1.0 0.4611003355
C  C47  1  0.70740000  0.73410000  0.60700000  1.0 0.012042607
C  C48  1  0.50820000  0.62820000  0.48710000  1.0 -0.259412442
C  C49  1  0.43090000  0.61530000  0.15790000  1.0 -0.1796999036
C  C50  1  0.73100000  0.69610000  0.86810000  1.0 0.0797192448
C  C51  1  0.63640000  0.65690000  0.96100000  1.0 0.0289360032
C  C52  1  0.74530000  0.70110000  0.93720000  1.0 -0.1796999036
C  C53  1  0.72950000  0.68640000  0.58540000  1.0 0.0289360032
C  C54  1  0.73860000  0.69470000  0.51970000  1.0 -0.0713214918
C  C55  1  0.97170000  0.10440000  0.82830000  1.0 -0.0608195209
C  C56  1  0.08540000  0.07230000  0.81810000  1.0 -0.0713214918
C  C57  1  0.84000000  0.04090000  0.81260000  1.0 -0.0479749274
C  C58  1  0.07600000  0.98100000  0.79400000  1.0 0.0234759034
C  C59  1  0.63860000  0.15600000  0.46000000  1.0 0.0289360032
C  C60  1  0.75000000  0.19920000  0.43720000  1.0 -0.1591095372
C  C61  1  0.73700000  0.19330000  0.36620000  1.0 0.0505990193
C  C62  1  0.50140000  0.10120000  0.34070000  1.0 0.0424309795
C  C63  1  0.51430000  0.10700000  0.41180000  1.0 -0.2033290907
C  C64  1  0.37740000  0.31880000  0.52410000  1.0 0.012042607
C  C65  1  0.28140000  0.25620000  0.45900000  1.0 -0.0335651903
C  C66  1  0.07550000  0.47250000  0.31720000  1.0 -0.0608195209
C  C67  1  0.42810000  0.11750000  0.72640000  1.0 -0.1796999036
C  C68  1  0.43140000  0.11470000  0.65740000  1.0 -0.1677526627
C  C69  1  0.33780000  0.33000000  0.96050000  1.0 0.4502631978
C  C70  1  0.02070000  0.90360000  0.11680000  1.0 -0.0608195209
C  C71  1  0.15360000  0.96250000  0.14430000  1.0 -0.0385281502
C  C72  1  0.17220000  0.05590000  0.18570000  1.0 -0.0385281502
C  C73  1  0.05790000  0.09040000  0.19960000  1.0 -0.2033290907
C  C74  1  0.92510000  0.03160000  0.17220000  1.0 0.0289360032
C  C75  1  0.90650000  0.93820000  0.13080000  1.0 -0.0248046114
C  C76  1  0.68620000  0.37900000  0.29380000  1.0 0.5698600666
C  C77  1  0.84400000  0.54070000  0.34030000  1.0 -0.0996926545
C  C78  1  0.49140000  0.37940000  0.44590000  1.0 -0.0053821383
C  C79  1  0.80120000  0.06490000  0.19140000  1.0 0.3811861531
C  C80  1  0.32180000  0.33660000  0.81350000  1.0 -0.1906765892
C  C81  1  0.49940000  0.11500000  0.05170000  1.0 0.0605759633
C  C82  1  0.72540000  0.22250000  0.10000000  1.0 0.0605759633
C  C83  1  0.73000000  0.23120000  0.03360000  1.0 -0.1677526627
C  C84  1  0.61930000  0.18170000  0.97630000  1.0 0.0035450095
C  C85  1  0.50400000  0.12360000  0.98540000  1.0 -0.2033290907
C  C86  1  0.48260000  0.39560000  0.08950000  1.0 -0.1906765892
C  C87  1  0.94390000  0.41040000  0.29940000  1.0 -0.1292347877
C  C88  1  0.67320000  0.17160000  0.75700000  1.0 -0.1906765892
C  C89  1  0.08950000  0.56820000  0.34430000  1.0 0.0035450095
C  C90  1  0.55280000  0.13790000  0.63730000  1.0 0.20186622
C  C91  1  0.45100000  0.35610000  0.72350000  1.0 0.2098644518
C  C92  1  0.48860000  0.39820000  0.15990000  1.0 0.1006457389
C  C93  1  0.57100000  0.38180000  0.77230000  1.0 -0.1677526627
C  C94  1  0.31350000  0.12010000  0.20510000  1.0 0.5301454918
C  C95  1  0.35860000  0.30390000  0.59330000  1.0 0.4392398254
C  C96  1  0.32320000  0.33350000  0.74420000  1.0 -0.1796999036
C  C97  1  0.63840000  0.19550000  0.90900000  1.0 0.4392398254
C  C98  1  0.55280000  0.14630000  0.77780000  1.0 0.2098644518
C  C99  1  0.97290000  0.60240000  0.35570000  1.0 -0.1220934584
C  C100  1  0.82860000  0.44490000  0.31190000  1.0 -0.0385281502
C  C101  1  0.68030000  0.17050000  0.68740000  1.0 -0.1796999036
C  C102  1  0.19990000  0.43480000  0.30750000  1.0 0.5390827314
C  C103  1  0.44210000  0.35930000  0.86200000  1.0 0.20186622
C  C104  1  0.65970000  0.17040000  0.54020000  1.0 0.4611003355
C  C105  1  0.29260000  0.26590000  0.39300000  1.0 0.012042607
C  C106  1  0.49180000  0.37180000  0.51290000  1.0 -0.259412442
C  C107  1  0.56910000  0.38470000  0.84210000  1.0 -0.1796999036
C  C108  1  0.26900000  0.30390000  0.13190000  1.0 0.0797192448
C  C109  1  0.36360000  0.34310000  0.03900000  1.0 0.0289360032
C  C110  1  0.25470000  0.29890000  0.06280000  1.0 -0.1796999036
C  C111  1  0.27050000  0.31360000  0.41460000  1.0 0.0289360032
C  C112  1  0.26140000  0.30530000  0.48030000  1.0 -0.0713214918
C  C113  1  0.02830000  0.89560000  0.17170000  1.0 -0.0608195209
C  C114  1  0.91460000  0.92770000  0.18190000  1.0 -0.0713214918
C  C115  1  0.16000000  0.95910000  0.18740000  1.0 -0.0479749274
C  C116  1  0.92400000  0.01900000  0.20600000  1.0 0.0234759034
N  N1  1  0.38730000  0.85570000  0.68200000  1.0 -0.3038431152
N  N2  1  0.61620000  0.64640000  0.81900000  1.0 -0.2111889913
N  N3  1  0.45620000  0.85570000  0.15300000  1.0 -0.41727138
N  N4  1  0.55260000  0.63520000  0.06530000  1.0 -0.3877155452
N  N5  1  0.54370000  0.64530000  0.34800000  1.0 -0.3602161004
N  N6  1  0.44890000  0.86460000  0.43440000  1.0 -0.3877155452
N  N7  1  0.38990000  0.83560000  0.89100000  1.0 -0.2796542539
N  N8  1  0.60760000  0.66280000  0.60790000  1.0 -0.1591095372
N  N9  1  0.61270000  0.14430000  0.31800000  1.0 -0.3038431152
N  N10  1  0.38380000  0.35360000  0.18100000  1.0 -0.2111889913
N  N11  1  0.54380000  0.14430000  0.84700000  1.0 -0.41727138
N  N12  1  0.44740000  0.36480000  0.93470000  1.0 -0.3877155452
N  N13  1  0.45630000  0.35470000  0.65200000  1.0 -0.3602161004
N  N14  1  0.55110000  0.13540000  0.56560000  1.0 -0.3877155452
N  N15  1  0.61010000  0.16440000  0.10900000  1.0 -0.2796542539
N  N16  1  0.39240000  0.33720000  0.39210000  1.0 -0.1591095372
O  O1  1  0.40780000  0.58520000  0.68250000  1.0 -0.5407607897
O  O2  1  0.67170000  0.79740000  0.75780000  1.0 -0.5109909519
O  O3  1  0.81850000  0.65110000  0.72100000  1.0 -0.5488383963
O  O4  1  0.68020000  0.50970000  0.66990000  1.0 -0.5594212158
O  O5  1  0.77680000  0.71310000  0.07660000  1.0 -0.4561167105
O  O6  1  0.31810000  0.99080000  0.83010000  1.0 -0.528703545
O  O7  1  0.74650000  0.75240000  0.40760000  1.0 -0.4435039802
O  O8  1  0.25340000  0.74580000  0.09180000  1.0 -0.5109909519
O  O9  1  0.22440000  0.78960000  0.42300000  1.0 -0.4464055045
O  O10  1  0.32880000  0.70460000  0.74360000  1.0 -0.5488383963
O  O11  1  0.58960000  0.91470000  0.81800000  1.0 -0.5161810263
O  O12  1  0.19030000  0.85450000  0.76400000  1.0 -0.1591095372
O  O13  1  0.17380000  0.83790000  0.79720000  1.0 -0.1407888873
O  O14  1  0.59220000  0.41480000  0.31750000  1.0 -0.5407607897
O  O15  1  0.32830000  0.20260000  0.24220000  1.0 -0.5109909519
O  O16  1  0.18150000  0.34890000  0.27900000  1.0 -0.5488383963
O  O17  1  0.31980000  0.49030000  0.33010000  1.0 -0.5594212158
O  O18  1  0.22320000  0.28690000  0.92340000  1.0 -0.4561167105
O  O19  1  0.68190000  0.00920000  0.16990000  1.0 -0.528703545
O  O20  1  0.25350000  0.24760000  0.59240000  1.0 -0.4435039802
O  O21  1  0.74660000  0.25420000  0.90820000  1.0 -0.5109909519
O  O22  1  0.77560000  0.21040000  0.57700000  1.0 -0.4464055045
O  O23  1  0.67120000  0.29540000  0.25640000  1.0 -0.5488383963
O  O24  1  0.41040000  0.08530000  0.18200000  1.0 -0.5161810263
O  O25  1  0.80970000  0.14550000  0.23600000  1.0 -0.1591095372
O  O26  1  0.82620000  0.16210000  0.20280000  1.0 -0.1407888873
