# DDEC6 charges by PACMAN v1.1 (https://github.com/mtap-research/PACMAN-charge/)
data_GUJGAU_ASR_pacman
_symmetry_space_group_name_H-M   'P 1'
_cell_length_a   13.32990000
_cell_length_b   13.63620000
_cell_length_c   15.61500000
_cell_angle_alpha   103.90600000
_cell_angle_beta   109.20900000
_cell_angle_gamma   111.69100000
_symmetry_Int_Tables_number   1
_chemical_formula_structural   La2P6H40C23N5O19
_chemical_formula_sum   'La4 P12 H80 C46 N10 O38'
_cell_volume   2268.77203613
_cell_formula_units_Z   2
loop_
 _symmetry_equiv_pos_site_id
 _symmetry_equiv_pos_as_xyz
  1  'x, y, z'
loop_
 _atom_site_type_symbol
 _atom_site_label
 _atom_site_symmetry_multiplicity
 _atom_site_fract_x
 _atom_site_fract_y
 _atom_site_fract_z
 _atom_site_occupancy
 _atom_site_charge
La  La1  1  0.74254000  0.77885000  0.42650000  1.0 1.9085109777
La  La2  1  0.25746000  0.22115000  0.57350000  1.0 1.9085109777
La  La3  1  0.44544000  0.45261000  0.34608000  1.0 2.0019097871
La  La4  1  0.55456000  0.54739000  0.65392000  1.0 2.0019097871
P  P1  1  0.54489000  0.73351000  0.55749000  1.0 1.2839172429
P  P2  1  0.45511000  0.26649000  0.44251000  1.0 1.2839172429
P  P3  1  0.68397000  0.49097000  0.26540000  1.0 1.3219628281
P  P4  1  0.31603000  0.50903000  0.73460000  1.0 1.3219628281
P  P5  1  0.77797000  0.63807000  0.56032000  1.0 1.2988924033
P  P6  1  0.22203000  0.36193000  0.43968000  1.0 1.2988924033
P  P7  1  0.01610000  0.03928000  0.63111000  1.0 0.5711087531
P  P8  1  0.98390000  0.96072000  0.36889000  1.0 0.5711087531
P  P9  1  0.74600000  0.75227000  0.92912000  1.0 1.2988924033
P  P10  1  0.25400000  0.24773000  0.07088000  1.0 1.2988924033
P  P11  1  0.97640000  0.09630000  0.62310000  1.0 0.3940378225
P  P12  1  0.02360000  0.90370000  0.37690000  1.0 0.3940378225
H  H1  1  0.53360000  0.88190000  0.46670000  1.0 0.272414068
H  H2  1  0.46640000  0.11810000  0.53330000  1.0 0.272414068
H  H3  1  0.48380000  0.40610000  0.06750000  1.0 0.2866737193
H  H4  1  0.51620000  0.59390000  0.93250000  1.0 0.2866737193
H  H5  1  0.85090000  0.49700000  0.44090000  1.0 0.2819004155
H  H6  1  0.14910000  0.50300000  0.55910000  1.0 0.2819004155
H  H7  1  0.03220000  0.11120000  0.87420000  1.0 0.272414068
H  H8  1  0.96780000  0.88880000  0.12580000  1.0 0.272414068
H  H9  1  0.73760000  0.85550000  0.77220000  1.0 0.2819004155
H  H10  1  0.26240000  0.14450000  0.22780000  1.0 0.2819004155
H  H11  1  0.19210000  0.57470000  0.13100000  1.0 0.1296578307
H  H12  1  0.80790000  0.42530000  0.86900000  1.0 0.1296578307
H  H13  1  0.14220000  0.66470000  0.02690000  1.0 0.1296578307
H  H14  1  0.85780000  0.33530000  0.97310000  1.0 0.1296578307
H  H15  1  0.29190000  0.83650000  0.04660000  1.0 0.1209008479
H  H16  1  0.70810000  0.16350000  0.95340000  1.0 0.1209008479
H  H17  1  0.48910000  0.91450000  0.16420000  1.0 0.1296578307
H  H18  1  0.51090000  0.08550000  0.83580000  1.0 0.1296578307
H  H19  1  0.36340000  0.71310000  0.44220000  1.0 0.1603419131
H  H20  1  0.63660000  0.28690000  0.55780000  1.0 0.1603419131
H  H21  1  0.39300000  0.78540000  0.55060000  1.0 0.1510637767
H  H22  1  0.60700000  0.21460000  0.44940000  1.0 0.1510637767
H  H23  1  0.32990000  0.90260000  0.44810000  1.0 0.1361097938
H  H24  1  0.67010000  0.09740000  0.55190000  1.0 0.1361097938
H  H25  1  0.34120000  0.83460000  0.35830000  1.0 0.1296578307
H  H26  1  0.65880000  0.16540000  0.64170000  1.0 0.1296578307
H  H27  1  0.61890000  0.98030000  0.63490000  1.0 0.1296578307
H  H28  1  0.38110000  0.01970000  0.36510000  1.0 0.1296578307
H  H29  1  0.50320000  0.99400000  0.61980000  1.0 0.1209008479
H  H30  1  0.49680000  0.00600000  0.38020000  1.0 0.1209008479
H  H31  1  0.73120000  0.49600000  0.13440000  1.0 0.1510637767
H  H32  1  0.26880000  0.50400000  0.86560000  1.0 0.1510637767
H  H33  1  0.64150000  0.36800000  0.10980000  1.0 0.1603419131
H  H34  1  0.35850000  0.63200000  0.89020000  1.0 0.1603419131
H  H35  1  0.52570000  0.34240000  0.94180000  1.0 0.1296578307
H  H36  1  0.47430000  0.65760000  0.05820000  1.0 0.1296578307
H  H37  1  0.61340000  0.47140000  0.96690000  1.0 0.1296578307
H  H38  1  0.38660000  0.52860000  0.03310000  1.0 0.1296578307
H  H39  1  0.64190000  0.62970000  0.11050000  1.0 0.1361097938
H  H40  1  0.35810000  0.37030000  0.88950000  1.0 0.1361097938
H  H41  1  0.57020000  0.59480000  0.17000000  1.0 0.1361097938
H  H42  1  0.42980000  0.40520000  0.83000000  1.0 0.1361097938
H  H43  1  0.88710000  0.55730000  0.63410000  1.0 0.1603419131
H  H44  1  0.11290000  0.44270000  0.36590000  1.0 0.1603419131
H  H45  1  0.76270000  0.45940000  0.54450000  1.0 0.1603419131
H  H46  1  0.23730000  0.54060000  0.45550000  1.0 0.1603419131
H  H47  1  0.06720000  0.63520000  0.61590000  1.0 0.1296578307
H  H48  1  0.93280000  0.36480000  0.38410000  1.0 0.1296578307
H  H49  1  0.01110000  0.68110000  0.54030000  1.0 0.1510637767
H  H50  1  0.98890000  0.31890000  0.45970000  1.0 0.1510637767
H  H51  1  0.83300000  0.34310000  0.48170000  1.0 0.1296578307
H  H52  1  0.16700000  0.65690000  0.51830000  1.0 0.1296578307
H  H53  1  0.95720000  0.42550000  0.57890000  1.0 0.1296578307
H  H54  1  0.04280000  0.57450000  0.42110000  1.0 0.1296578307
H  H55  1  0.14340000  0.14690000  0.79940000  1.0 0.1769691653
H  H56  1  0.85660000  0.85310000  0.20060000  1.0 0.1769691653
H  H57  1  0.05400000  0.19320000  0.76200000  1.0 0.1510637767
H  H58  1  0.94600000  0.80680000  0.23800000  1.0 0.1510637767
H  H59  1  0.04060000  0.94620000  0.80610000  1.0 0.1296578307
H  H60  1  0.95940000  0.05380000  0.19390000  1.0 0.1296578307
H  H61  1  0.90940000  0.89680000  0.72020000  1.0 0.1296578307
H  H62  1  0.09060000  0.10320000  0.27980000  1.0 0.1296578307
H  H63  1  0.81340000  0.01250000  0.70780000  1.0 0.1209008479
H  H64  1  0.18660000  0.98750000  0.29220000  1.0 0.1209008479
H  H65  1  0.87890000  0.14160000  0.78510000  1.0 0.1209008479
H  H66  1  0.12110000  0.85840000  0.21490000  1.0 0.1209008479
H  H67  1  0.86470000  0.08070000  0.91050000  1.0 0.1209008479
H  H68  1  0.13530000  0.91930000  0.08950000  1.0 0.1209008479
H  H69  1  0.73390000  0.02210000  0.82120000  1.0 0.1209008479
H  H70  1  0.26610000  0.97790000  0.17880000  1.0 0.1209008479
H  H71  1  0.89240000  0.82300000  0.83690000  1.0 0.1510637767
H  H72  1  0.10760000  0.17700000  0.16310000  1.0 0.1510637767
H  H73  1  0.96850000  0.94820000  0.92240000  1.0 0.1135529823
H  H74  1  0.03150000  0.05180000  0.07760000  1.0 0.1135529823
H  H75  1  0.66170000  0.86420000  0.87880000  1.0 0.1603419131
H  H76  1  0.33830000  0.13580000  0.12120000  1.0 0.1603419131
H  H77  1  0.79190000  0.94540000  0.96900000  1.0 0.1361097938
H  H78  1  0.20810000  0.05460000  0.03100000  1.0 0.1361097938
H  H79  1  0.00970000  0.88630000  0.61730000  1.0 0.365107531
H  H80  1  0.99030000  0.11370000  0.38270000  1.0 0.365107531
C  C1  1  0.58900000  0.84220000  0.29500000  1.0 0.548726315
C  C2  1  0.41100000  0.15780000  0.70500000  1.0 0.548726315
C  C3  1  0.40080000  0.62600000  0.27120000  1.0 0.5649970121
C  C4  1  0.59920000  0.37400000  0.72880000  1.0 0.5649970121
C  C5  1  0.46040000  0.79260000  0.21920000  1.0 -0.0304201596
C  C6  1  0.53960000  0.20740000  0.78080000  1.0 -0.0304201596
C  C7  1  0.37110000  0.69000000  0.20940000  1.0 -0.056222487
C  C8  1  0.62890000  0.31000000  0.79060000  1.0 -0.056222487
C  C9  1  0.25250000  0.64300000  0.13800000  1.0 -0.0997465157
C  C10  1  0.74750000  0.35700000  0.86200000  1.0 -0.0997465157
C  C11  1  0.22210000  0.69730000  0.07560000  1.0 -0.1120653951
C  C12  1  0.77790000  0.30270000  0.92440000  1.0 -0.1120653951
C  C13  1  0.31170000  0.79940000  0.08700000  1.0 -0.0997465157
C  C14  1  0.68830000  0.20060000  0.91300000  1.0 -0.0997465157
C  C15  1  0.42930000  0.84620000  0.15750000  1.0 -0.1374807634
C  C16  1  0.57070000  0.15380000  0.84250000  1.0 -0.1374807634
C  C17  1  0.42820000  0.77500000  0.50610000  1.0 -0.4469804072
C  C18  1  0.57180000  0.22500000  0.49390000  1.0 -0.4469804072
C  C19  1  0.38650000  0.90020000  0.42250000  1.0 -0.1374807634
C  C20  1  0.61350000  0.09980000  0.57750000  1.0 -0.1374807634
C  C21  1  0.55570000  0.98910000  0.59010000  1.0 -0.1288080269
C  C22  1  0.44430000  0.01090000  0.40990000  1.0 -0.1288080269
C  C23  1  0.65780000  0.44740000  0.13590000  1.0 -0.419512456
C  C24  1  0.34220000  0.55260000  0.86410000  1.0 -0.419512456
C  C25  1  0.53870000  0.42080000  0.96580000  1.0 -0.1188713601
C  C26  1  0.46130000  0.57920000  0.03420000  1.0 -0.1188713601
C  C27  1  0.56630000  0.57390000  0.10460000  1.0 -0.1188713601
C  C28  1  0.43370000  0.42610000  0.89540000  1.0 -0.1188713601
C  C29  1  0.83240000  0.53340000  0.56490000  1.0 -0.4290427768
C  C30  1  0.16760000  0.46660000  0.43510000  1.0 -0.4290427768
C  C31  1  0.02020000  0.61520000  0.54590000  1.0 -0.1120653951
C  C32  1  0.97980000  0.38480000  0.45410000  1.0 -0.1120653951
C  C33  1  0.91250000  0.41060000  0.50990000  1.0 -0.1288080269
C  C34  1  0.08750000  0.58940000  0.49010000  1.0 -0.1288080269
C  C35  1  0.05870000  0.12320000  0.75910000  1.0 -0.3680023157
C  C36  1  0.94130000  0.87680000  0.24090000  1.0 -0.3680023157
C  C37  1  0.96430000  0.94730000  0.79000000  1.0 -0.1188713601
C  C38  1  0.03570000  0.05270000  0.21000000  1.0 -0.1188713601
C  C39  1  0.86780000  0.06500000  0.77730000  1.0 -0.1374807634
C  C40  1  0.13220000  0.93500000  0.22270000  1.0 -0.1374807634
C  C41  1  0.81220000  0.02470000  0.84170000  1.0 -0.1374807634
C  C42  1  0.18780000  0.97530000  0.15830000  1.0 -0.1374807634
C  C43  1  0.90980000  0.90260000  0.85260000  1.0 -0.1288080269
C  C44  1  0.09020000  0.09740000  0.14740000  1.0 -0.1288080269
C  C45  1  0.74490000  0.87830000  0.90570000  1.0 -0.4290427768
C  C46  1  0.25510000  0.12170000  0.09430000  1.0 -0.4290427768
N  N1  1  0.48280000  0.88570000  0.49300000  1.0 0.0379426538
N  N2  1  0.51720000  0.11430000  0.50700000  1.0 0.0379426538
N  N3  1  0.55310000  0.45640000  0.06940000  1.0 0.030091086
N  N4  1  0.44690000  0.54360000  0.93060000  1.0 0.030091086
N  N5  1  0.89680000  0.51250000  0.50530000  1.0 0.030091086
N  N6  1  0.10320000  0.48750000  0.49470000  1.0 0.030091086
N  N7  1  0.98710000  0.06780000  0.80740000  1.0 0.0026286844
N  N8  1  0.01290000  0.93220000  0.19260000  1.0 0.0026286844
N  N9  1  0.79510000  0.90800000  0.83520000  1.0 0.030091086
N  N10  1  0.20490000  0.09200000  0.16480000  1.0 0.030091086
O  O1  1  0.61540000  0.88650000  0.38550000  1.0 -0.5895485335
O  O2  1  0.38460000  0.11350000  0.61450000  1.0 -0.5895485335
O  O3  1  0.66410000  0.83070000  0.26730000  1.0 -0.5383127683
O  O4  1  0.33590000  0.16930000  0.73270000  1.0 -0.5383127683
O  O5  1  0.50800000  0.63850000  0.30600000  1.0 -0.6438148671
O  O6  1  0.49200000  0.36150000  0.69400000  1.0 -0.6438148671
O  O7  1  0.32020000  0.56020000  0.28580000  1.0 -0.5383127683
O  O8  1  0.67980000  0.43980000  0.71420000  1.0 -0.5383127683
O  O9  1  0.47950000  0.60170000  0.50300000  1.0 -0.8668211752
O  O10  1  0.52050000  0.39830000  0.49700000  1.0 -0.8668211752
O  O11  1  0.64610000  0.80110000  0.53710000  1.0 -0.8111594596
O  O12  1  0.35390000  0.19890000  0.46290000  1.0 -0.8111594596
O  O13  1  0.58220000  0.76240000  0.66800000  1.0 -0.8111594596
O  O14  1  0.41780000  0.23760000  0.33200000  1.0 -0.8111594596
O  O15  1  0.74600000  0.62260000  0.31090000  1.0 -0.8367087894
O  O16  1  0.25400000  0.37740000  0.68910000  1.0 -0.8367087894
O  O17  1  0.76640000  0.44560000  0.31170000  1.0 -0.7979791218
O  O18  1  0.23360000  0.55440000  0.68830000  1.0 -0.7979791218
O  O19  1  0.55770000  0.42960000  0.25580000  1.0 -0.8298869782
O  O20  1  0.44230000  0.57040000  0.74420000  1.0 -0.8298869782
O  O21  1  0.67030000  0.58990000  0.45860000  1.0 -0.8631985539
O  O22  1  0.32970000  0.41010000  0.54140000  1.0 -0.8631985539
O  O23  1  0.87660000  0.74940000  0.56980000  1.0 -0.8111594596
O  O24  1  0.12340000  0.25060000  0.43020000  1.0 -0.8111594596
O  O25  1  0.74620000  0.64990000  0.64450000  1.0 -0.7979791218
O  O26  1  0.25380000  0.35010000  0.35550000  1.0 -0.7979791218
O  O27  1  0.88050000  0.97400000  0.57090000  1.0 -0.5605397874
O  O28  1  0.11950000  0.02600000  0.42910000  1.0 -0.5605397874
O  O29  1  0.06660000  0.95160000  0.63810000  1.0 -0.5803695374
O  O30  1  0.93340000  0.04840000  0.36190000  1.0 -0.5803695374
O  O31  1  0.08440000  0.12740000  0.60050000  1.0 -0.5605397874
O  O32  1  0.91560000  0.87260000  0.39950000  1.0 -0.5605397874
O  O33  1  0.66100000  0.72050000  0.97450000  1.0 -0.7831541651
O  O34  1  0.33900000  0.27950000  0.02550000  1.0 -0.7831541651
O  O35  1  0.87790000  0.79490000  0.00290000  1.0 -0.8111594596
O  O36  1  0.12210000  0.20510000  0.99710000  1.0 -0.8111594596
O  O37  1  0.70720000  0.66230000  0.82950000  1.0 -0.8298869782
O  O38  1  0.29280000  0.33770000  0.17050000  1.0 -0.8298869782
