# DDEC6 charges by PACMAN v1.1 (https://github.com/mtap-research/PACMAN-charge/)
data_GUKNIK_FSR_pacman
_symmetry_space_group_name_H-M   'P 1'
_cell_length_a   6.80790000
_cell_length_b   7.30870000
_cell_length_c   14.56400000
_cell_angle_alpha   78.15400000
_cell_angle_beta   88.39900000
_cell_angle_gamma   86.28300000
_symmetry_Int_Tables_number   1
_chemical_formula_structural   CePC6SNO8
_chemical_formula_sum   'Ce2 P2 C12 S2 N2 O16'
_cell_volume   707.65499208
_cell_formula_units_Z   2
loop_
 _symmetry_equiv_pos_site_id
 _symmetry_equiv_pos_as_xyz
  1  'x, y, z'
loop_
 _atom_site_type_symbol
 _atom_site_label
 _atom_site_symmetry_multiplicity
 _atom_site_fract_x
 _atom_site_fract_y
 _atom_site_fract_z
 _atom_site_occupancy
 _atom_site_charge
Ce  Ce1  1  0.17530000  0.24220000  0.50040000  1.0 2.071651799
Ce  Ce2  1  0.82470000  0.75780000  0.49960000  1.0 2.071651799
P  P1  1  0.70410000  0.20640000  0.57100000  1.0 1.3241895263
P  P2  1  0.29590000  0.79360000  0.42900000  1.0 1.3241895263
C  C1  1  0.66500000  0.13100000  0.69390000  1.0 -0.1605948434
C  C2  1  0.33500000  0.86900000  0.30610000  1.0 -0.1605948434
C  C3  1  0.65700000  0.15400000  0.85700000  1.0 0.2567753021
C  C4  1  0.34300000  0.84600000  0.14300000  1.0 0.2545794074
C  C5  1  0.72500000  0.98000000  0.92960000  1.0 -0.1605948434
C  C6  1  0.27500000  0.02000000  0.07040000  1.0 -0.1513076301
C  C7  1  0.92710000  0.02200000  0.95890000  1.0 0.1181798105
C  C8  1  0.07290000  0.97800000  0.04110000  1.0 0.1141565119
C  C9  1  0.05830000  0.01700000  0.87270000  1.0 0.0203339181
C  C10  1  0.94170000  0.98300000  0.12730000  1.0 0.0203339181
C  C11  1  0.92400000  0.97900000  0.79780000  1.0 0.2749504273
C  C12  1  0.07600000  0.02100000  0.20220000  1.0 0.2768490438
S  S1  1  0.85600000  0.48300000  0.29680000  1.0 1.4199480836
S  S2  1  0.14400000  0.51700000  0.70320000  1.0 1.4199480836
N  N1  1  0.78800000  0.15100000  0.77370000  1.0 0.0598274705
N  N2  1  0.21200000  0.84900000  0.22630000  1.0 0.0598274705
O  O1  1  0.85370000  0.06470000  0.53890000  1.0 -0.8711679752
O  O2  1  0.14630000  0.93530000  0.46110000  1.0 -0.8711679752
O  O3  1  0.79000000  0.39720000  0.55470000  1.0 -0.8711679752
O  O4  1  0.21000000  0.60280000  0.44530000  1.0 -0.8646869238
O  O5  1  0.50880000  0.21400000  0.52160000  1.0 -0.7598858054
O  O6  1  0.49120000  0.78600000  0.47840000  1.0 -0.7598858054
O  O7  1  0.96600000  0.52400000  0.21110000  1.0 -0.5234285767
O  O8  1  0.03400000  0.47600000  0.78890000  1.0 -0.5234285767
O  O9  1  0.66600000  0.43500000  0.27220000  1.0 -0.5383103366
O  O10  1  0.33400000  0.56500000  0.72780000  1.0 -0.5383103366
O  O11  1  0.99000000  0.33900000  0.35340000  1.0 -0.7108672137
O  O12  1  0.01000000  0.66100000  0.64660000  1.0 -0.7108672137
O  O13  1  0.83400000  0.65500000  0.33200000  1.0 -0.6774512108
O  O14  1  0.16600000  0.34500000  0.66800000  1.0 -0.6733138736
O  O15  1  0.24800000  0.99800000  0.64820000  1.0 -0.2801800693
O  O16  1  0.75200000  0.00200000  0.35180000  1.0 -0.2801800693
