# DDEC6 charges by PACMAN v1.1 (https://github.com/mtap-research/PACMAN-charge/)
data_GUKYUI_ASR_pacman
_symmetry_space_group_name_H-M   'P 1'
_cell_length_a   11.80510000
_cell_length_b   14.15080000
_cell_length_c   7.69150000
_cell_angle_alpha   90.00000000
_cell_angle_beta   91.03800000
_cell_angle_gamma   90.00000000
_symmetry_Int_Tables_number   1
_chemical_formula_structural   CaH18C18(NO)4
_chemical_formula_sum   'Ca2 H36 C36 N8 O8'
_cell_volume   1284.66660334
_cell_formula_units_Z   2
loop_
 _symmetry_equiv_pos_site_id
 _symmetry_equiv_pos_as_xyz
  1  'x, y, z'
loop_
 _atom_site_type_symbol
 _atom_site_label
 _atom_site_symmetry_multiplicity
 _atom_site_fract_x
 _atom_site_fract_y
 _atom_site_fract_z
 _atom_site_occupancy
 _atom_site_charge
Ca  Ca1  1  0.50000000  0.47719000  0.75000000  1.0 1.3436408215
Ca  Ca2  1  0.50000000  0.52281000  0.25000000  1.0 1.3436408215
H  H1  1  0.34448000  0.27053000  0.56591000  1.0 0.0787572064
H  H2  1  0.21441000  0.32370000  0.48838000  1.0 0.1013923748
H  H3  1  0.42954000  0.13473000  0.40130000  1.0 0.1013923748
H  H4  1  0.36281000  0.03563000  0.09687000  1.0 0.1093533956
H  H5  1  0.15560000  0.28200000  0.15215000  1.0 0.121509301
H  H6  1  0.24253000  0.09704000  0.82354000  1.0 0.0705870269
H  H7  1  0.14861000  0.19536000  0.85775000  1.0 0.0787572064
H  H8  1  0.96332000  0.17565000  0.99607000  1.0 0.0705870269
H  H9  1  0.80677000  0.06175000  0.06932000  1.0 0.0705870269
H  H10  1  0.65552000  0.27053000  0.93409000  1.0 0.0787572064
H  H11  1  0.78559000  0.32370000  0.01163000  1.0 0.1013923748
H  H12  1  0.57046000  0.13473000  0.09870000  1.0 0.1013923748
H  H13  1  0.63719000  0.03563000  0.40313000  1.0 0.1093533956
H  H14  1  0.84440000  0.28200000  0.34785000  1.0 0.121509301
H  H15  1  0.75747000  0.09704000  0.67646000  1.0 0.0705870269
H  H16  1  0.85139000  0.19535000  0.64225000  1.0 0.0787572064
H  H17  1  0.03668000  0.17565000  0.50393000  1.0 0.0705870269
H  H18  1  0.19323000  0.06175000  0.43068000  1.0 0.0705870269
H  H19  1  0.65552000  0.72947000  0.43409000  1.0 0.0787572064
H  H20  1  0.78559000  0.67630000  0.51162000  1.0 0.1013923748
H  H21  1  0.57046000  0.86527000  0.59870000  1.0 0.1013923748
H  H22  1  0.63719000  0.96437000  0.90313000  1.0 0.1093533956
H  H23  1  0.84440000  0.71800000  0.84785000  1.0 0.121509301
H  H24  1  0.75747000  0.90296000  0.17646000  1.0 0.0705870269
H  H25  1  0.85139000  0.80464000  0.14225000  1.0 0.0787572064
H  H26  1  0.03668000  0.82435000  0.00393000  1.0 0.0705870269
H  H27  1  0.19323000  0.93825000  0.93068000  1.0 0.0705870269
H  H28  1  0.34448000  0.72947000  0.06591000  1.0 0.0787572064
H  H29  1  0.21441000  0.67630000  0.98837000  1.0 0.1013923748
H  H30  1  0.42954000  0.86527000  0.90130000  1.0 0.1013923748
H  H31  1  0.36281000  0.96437000  0.59687000  1.0 0.1093533956
H  H32  1  0.15560000  0.71800000  0.65215000  1.0 0.121509301
H  H33  1  0.24253000  0.90296000  0.32354000  1.0 0.0705870269
H  H34  1  0.14861000  0.80465000  0.35775000  1.0 0.0787572064
H  H35  1  0.96332000  0.82435000  0.49607000  1.0 0.0705870269
H  H36  1  0.80677000  0.93825000  0.56932000  1.0 0.0705870269
C  C1  1  0.36420000  0.38315000  0.37964000  1.0 0.6071155839
C  C2  1  0.29932000  0.29860000  0.44862000  1.0 -0.2020431883
C  C3  1  0.36278000  0.14793000  0.30370000  1.0 -0.1364526726
C  C4  1  0.33304000  0.10217000  0.15122000  1.0 -0.1198831848
C  C5  1  0.21727000  0.22681000  0.17971000  1.0 -0.0629617894
C  C6  1  0.18075000  0.12836000  0.91497000  1.0 -0.1017263732
C  C7  1  0.08577000  0.06227000  0.95407000  1.0 0.0705870269
C  C8  1  0.97891000  0.09875000  0.99738000  1.0 -0.1480009403
C  C9  1  0.89224000  0.03564000  0.04096000  1.0 -0.1480009403
C  C10  1  0.63580000  0.38315000  0.12036000  1.0 0.6071155839
C  C11  1  0.70068000  0.29860000  0.05138000  1.0 -0.2020431883
C  C12  1  0.63722000  0.14793000  0.19630000  1.0 -0.1364526726
C  C13  1  0.66696000  0.10217000  0.34878000  1.0 -0.1198831848
C  C14  1  0.78273000  0.22681000  0.32029000  1.0 -0.0629617894
C  C15  1  0.81925000  0.12836000  0.58503000  1.0 -0.1017263732
C  C16  1  0.91423000  0.06227000  0.54593000  1.0 0.0705870269
C  C17  1  0.02109000  0.09875000  0.50261000  1.0 -0.1480009403
C  C18  1  0.10776000  0.03564000  0.45904000  1.0 -0.1480009403
C  C19  1  0.63580000  0.61685000  0.62036000  1.0 0.6071155839
C  C20  1  0.70068000  0.70140000  0.55138000  1.0 -0.2020431883
C  C21  1  0.63722000  0.85207000  0.69630000  1.0 -0.1364526726
C  C22  1  0.66696000  0.89783000  0.84878000  1.0 -0.1198831848
C  C23  1  0.78273000  0.77319000  0.82029000  1.0 -0.0629617894
C  C24  1  0.81925000  0.87164000  0.08503000  1.0 -0.1017263732
C  C25  1  0.91423000  0.93773000  0.04593000  1.0 0.0705870269
C  C26  1  0.02109000  0.90125000  0.00262000  1.0 -0.1480009403
C  C27  1  0.10776000  0.96436000  0.95904000  1.0 -0.1480009403
C  C28  1  0.36420000  0.61685000  0.87964000  1.0 0.6071155839
C  C29  1  0.29932000  0.70140000  0.94862000  1.0 -0.2020431883
C  C30  1  0.36278000  0.85207000  0.80370000  1.0 -0.1364526726
C  C31  1  0.33304000  0.89783000  0.65122000  1.0 -0.1198831848
C  C32  1  0.21727000  0.77319000  0.67971000  1.0 -0.0629617894
C  C33  1  0.18075000  0.87164000  0.41497000  1.0 -0.1017263732
C  C34  1  0.08577000  0.93773000  0.45407000  1.0 0.0705870269
C  C35  1  0.97891000  0.90125000  0.49739000  1.0 -0.1480009403
C  C36  1  0.89224000  0.96436000  0.54096000  1.0 -0.1480009403
N  N1  1  0.28873000  0.22372000  0.32138000  1.0 0.0469876867
N  N2  1  0.24359000  0.15278000  0.07446000  1.0 0.03049917
N  N3  1  0.71127000  0.22372000  0.17863000  1.0 0.0469876867
N  N4  1  0.75640000  0.15279000  0.42554000  1.0 0.03049917
N  N5  1  0.71127000  0.77628000  0.67862000  1.0 0.0469876867
N  N6  1  0.75641000  0.84722000  0.92554000  1.0 0.03049917
N  N7  1  0.28873000  0.77628000  0.82137000  1.0 0.0469876867
N  N8  1  0.24360000  0.84721000  0.57446000  1.0 0.03049917
O  O1  1  0.37507000  0.39515000  0.21816000  1.0 -0.6017450221
O  O2  1  0.40457000  0.43978000  0.49663000  1.0 -0.7091187067
O  O3  1  0.62493000  0.39515000  0.28184000  1.0 -0.6017450221
O  O4  1  0.59543000  0.43978000  0.00337000  1.0 -0.7091187067
O  O5  1  0.62493000  0.60485000  0.78184000  1.0 -0.6017450221
O  O6  1  0.59543000  0.56022000  0.50337000  1.0 -0.7091187067
O  O7  1  0.37507000  0.60485000  0.71816000  1.0 -0.6017450221
O  O8  1  0.40457000  0.56022000  0.99663000  1.0 -0.7091187067
