# DDEC6 charges by PACMAN v1.1 (https://github.com/mtap-research/PACMAN-charge/)
data_GULCAS_FSR_pacman
_symmetry_space_group_name_H-M   'P 1'
_cell_length_a   8.85898000
_cell_length_b   8.85898000
_cell_length_c   12.15900000
_cell_angle_alpha   87.10130000
_cell_angle_beta   92.89870000
_cell_angle_gamma   93.23370000
_symmetry_Int_Tables_number   1
_chemical_formula_structural   Fe3P4H8(O7F)2
_chemical_formula_sum   'Fe6 P8 H16 O28 F4'
_cell_volume   950.42829081
_cell_formula_units_Z   2
loop_
 _symmetry_equiv_pos_site_id
 _symmetry_equiv_pos_as_xyz
  1  'x, y, z'
loop_
 _atom_site_type_symbol
 _atom_site_label
 _atom_site_symmetry_multiplicity
 _atom_site_fract_x
 _atom_site_fract_y
 _atom_site_fract_z
 _atom_site_occupancy
 _atom_site_charge
Fe  Fe1  1  0.71039000  0.20827000  0.79727000  1.0 1.3581172177
Fe  Fe2  1  0.20827000  0.71039000  0.70273000  1.0 1.3581172177
Fe  Fe3  1  0.28961000  0.79173000  0.20273000  1.0 1.3517196128
Fe  Fe4  1  0.79173000  0.28961000  0.29727000  1.0 1.3581172177
Fe  Fe5  1  0.08843000  0.08843000  0.75000000  1.0 1.510097141
Fe  Fe6  1  0.91157000  0.91157000  0.25000000  1.0 1.510097141
P  P1  1  0.02230000  0.42700000  0.82367000  1.0 1.1799493084
P  P2  1  0.42700000  0.02230000  0.67633000  1.0 1.1799493084
P  P3  1  0.97770000  0.57300000  0.17633000  1.0 1.1799493084
P  P4  1  0.57300000  0.97770000  0.32367000  1.0 1.1799493084
P  P5  1  0.19622000  0.84600000  0.94410000  1.0 1.1556965062
P  P6  1  0.84600000  0.19622000  0.55590000  1.0 1.1556965062
P  P7  1  0.80378000  0.15400000  0.05590000  1.0 1.1556965062
P  P8  1  0.15400000  0.80378000  0.44410000  1.0 1.1556965062
H  H1  1  0.07700000  0.48100000  0.92500000  1.0 -0.0838266866
H  H2  1  0.48100000  0.07700000  0.57500000  1.0 -0.0838266866
H  H3  1  0.92300000  0.51900000  0.07500000  1.0 -0.0838266866
H  H4  1  0.51900000  0.92300000  0.42500000  1.0 -0.0838266866
H  H5  1  0.06100000  0.79100000  0.97500000  1.0 -0.0838266866
H  H6  1  0.79100000  0.06100000  0.52500000  1.0 -0.0838266866
H  H7  1  0.93900000  0.20900000  0.02500000  1.0 -0.0838266866
H  H8  1  0.20900000  0.93900000  0.47500000  1.0 -0.0838266866
H  H9  1  0.49500000  0.30700000  0.84000000  1.0 0.3705411354
H  H10  1  0.30700000  0.49500000  0.66000000  1.0 0.3705411354
H  H11  1  0.50500000  0.69300000  0.16000000  1.0 0.3705411354
H  H12  1  0.69300000  0.50500000  0.34000000  1.0 0.3705411354
H  H13  1  0.62000000  0.41000000  0.83100000  1.0 0.3705411354
H  H14  1  0.41000000  0.62000000  0.66900000  1.0 0.3705411354
H  H15  1  0.38000000  0.59000000  0.16900000  1.0 0.3705411354
H  H16  1  0.59000000  0.38000000  0.33100000  1.0 0.3705411354
O  O1  1  0.85480000  0.38420000  0.83400000  1.0 -0.6781255355
O  O2  1  0.38420000  0.85480000  0.66600000  1.0 -0.6781255355
O  O3  1  0.14520000  0.61580000  0.16600000  1.0 -0.6781255355
O  O4  1  0.61580000  0.14520000  0.33400000  1.0 -0.6781255355
O  O5  1  0.30810000  0.85570000  0.04300000  1.0 -0.6146168014
O  O6  1  0.85570000  0.30810000  0.45700000  1.0 -0.6146168014
O  O7  1  0.69190000  0.14430000  0.95700000  1.0 -0.6146168014
O  O8  1  0.14430000  0.69190000  0.54300000  1.0 -0.6146168014
O  O9  1  0.04580000  0.55180000  0.73500000  1.0 -0.6390896341
O  O10  1  0.55180000  0.04580000  0.76500000  1.0 -0.6390896341
O  O11  1  0.95420000  0.44820000  0.26500000  1.0 -0.6390896341
O  O12  1  0.44820000  0.95420000  0.23500000  1.0 -0.6390896341
O  O13  1  0.25010000  0.73810000  0.86270000  1.0 -0.6658016047
O  O14  1  0.73810000  0.25010000  0.63730000  1.0 -0.6658016047
O  O15  1  0.74990000  0.26190000  0.13730000  1.0 -0.6658016047
O  O16  1  0.26190000  0.74990000  0.36270000  1.0 -0.6658016047
O  O17  1  0.55890000  0.35150000  0.80160000  1.0 -0.599444603
O  O18  1  0.35150000  0.55890000  0.69840000  1.0 -0.599444603
O  O19  1  0.44110000  0.64850000  0.19840000  1.0 -0.599444603
O  O20  1  0.64850000  0.44110000  0.30160000  1.0 -0.599444603
O  O21  1  0.11560000  0.29100000  0.81120000  1.0 -0.6781255355
O  O22  1  0.29100000  0.11560000  0.68880000  1.0 -0.6781255355
O  O23  1  0.88440000  0.70900000  0.18880000  1.0 -0.6781255355
O  O24  1  0.70900000  0.88440000  0.31120000  1.0 -0.6781255355
O  O25  1  0.16910000  0.00430000  0.89440000  1.0 -0.6184794357
O  O26  1  0.00430000  0.16910000  0.60560000  1.0 -0.6184794357
O  O27  1  0.83090000  0.99570000  0.10560000  1.0 -0.6184794357
O  O28  1  0.99570000  0.83090000  0.39440000  1.0 -0.6184794357
F  F1  1  0.87790000  0.06550000  0.79800000  1.0 -0.5269579491
F  F2  1  0.06550000  0.87790000  0.70200000  1.0 -0.5269579491
F  F3  1  0.12210000  0.93450000  0.20200000  1.0 -0.5269579491
F  F4  1  0.93450000  0.12210000  0.29800000  1.0 -0.5269579491
