# DDEC6 charges by PACMAN v1.1 (https://github.com/mtap-research/PACMAN-charge/)
data_GULWOA_ASR_pacman
_symmetry_space_group_name_H-M   'P 1'
_cell_length_a   16.13040000
_cell_length_b   16.13040000
_cell_length_c   20.92000000
_cell_angle_alpha   67.21910000
_cell_angle_beta   112.78100000
_cell_angle_gamma   134.29000000
_symmetry_Int_Tables_number   1
_chemical_formula_structural   Cd5H16C24(N10Cl3)2
_chemical_formula_sum   'Cd10 H32 C48 N40 Cl12'
_cell_volume   3535.62912218
_cell_formula_units_Z   2
loop_
 _symmetry_equiv_pos_site_id
 _symmetry_equiv_pos_as_xyz
  1  'x, y, z'
loop_
 _atom_site_type_symbol
 _atom_site_label
 _atom_site_symmetry_multiplicity
 _atom_site_fract_x
 _atom_site_fract_y
 _atom_site_fract_z
 _atom_site_occupancy
 _atom_site_charge
Cd  Cd1  1  0.63317000  0.13267000  0.76034000  1.0 0.6977725481
Cd  Cd2  1  0.13267000  0.63317000  0.73966000  1.0 0.6977725481
Cd  Cd3  1  0.36683000  0.86733000  0.23966000  1.0 0.6977725481
Cd  Cd4  1  0.86733000  0.36683000  0.26034000  1.0 0.6977725481
Cd  Cd5  1  0.36182000  0.85208000  0.84534000  1.0 0.6977725481
Cd  Cd6  1  0.85208000  0.36182000  0.65466000  1.0 0.6977725481
Cd  Cd7  1  0.63818000  0.14792000  0.15466000  1.0 0.6977725481
Cd  Cd8  1  0.14792000  0.63818000  0.34534000  1.0 0.6977725481
Cd  Cd9  1  0.50000000  0.50000000  0.00000000  1.0 0.5874421676
Cd  Cd10  1  0.50000000  0.50000000  0.50000000  1.0 0.571888574
H  H1  1  0.68600000  0.13200000  0.92600000  1.0 0.1312401374
H  H2  1  0.13200000  0.68600000  0.57400000  1.0 0.1312401374
H  H3  1  0.31400000  0.86800000  0.07400000  1.0 0.1312401374
H  H4  1  0.86800000  0.31400000  0.42600000  1.0 0.1312401374
H  H5  1  0.59920000  0.06460000  0.01900000  1.0 0.1005070997
H  H6  1  0.06460000  0.59920000  0.48100000  1.0 0.1005070997
H  H7  1  0.40080000  0.93540000  0.98100000  1.0 0.1005070997
H  H8  1  0.93540000  0.40080000  0.51900000  1.0 0.1005070997
H  H9  1  0.81170000  0.38410000  0.05930000  1.0 0.1111273081
H  H10  1  0.38410000  0.81170000  0.44070000  1.0 0.1111273081
H  H11  1  0.18830000  0.61590000  0.94070000  1.0 0.1111273081
H  H12  1  0.61590000  0.18830000  0.55930000  1.0 0.1111273081
H  H13  1  0.89620000  0.45980000  0.96160000  1.0 0.1397401267
H  H14  1  0.45980000  0.89620000  0.53840000  1.0 0.1397401267
H  H15  1  0.10380000  0.54020000  0.03840000  1.0 0.1397401267
H  H16  1  0.54020000  0.10380000  0.46160000  1.0 0.1397401267
H  H17  1  0.62050000  0.42450000  0.84320000  1.0 0.1472735745
H  H18  1  0.42450000  0.62050000  0.65680000  1.0 0.1472735745
H  H19  1  0.37950000  0.57550000  0.15680000  1.0 0.1472735745
H  H20  1  0.57550000  0.37950000  0.34320000  1.0 0.1472735745
H  H21  1  0.38540000  0.12780000  0.95860000  1.0 0.1397401267
H  H22  1  0.12780000  0.38540000  0.54140000  1.0 0.1397401267
H  H23  1  0.61460000  0.87220000  0.04140000  1.0 0.1397401267
H  H24  1  0.87220000  0.61460000  0.45860000  1.0 0.1397401267
H  H25  1  0.40070000  0.24230000  0.01300000  1.0 0.1111273081
H  H26  1  0.24230000  0.40070000  0.48700000  1.0 0.1111273081
H  H27  1  0.59930000  0.75770000  0.98700000  1.0 0.1111273081
H  H28  1  0.75770000  0.59930000  0.51300000  1.0 0.1111273081
H  H29  1  0.62140000  0.52700000  0.89510000  1.0 0.1005070997
H  H30  1  0.52700000  0.62140000  0.60490000  1.0 0.1005070997
H  H31  1  0.37860000  0.47300000  0.10490000  1.0 0.1005070997
H  H32  1  0.47300000  0.37860000  0.39510000  1.0 0.1005070997
C  C1  1  0.85500000  0.34840000  0.87450000  1.0 0.2234335025
C  C2  1  0.34840000  0.85500000  0.62550000  1.0 0.2234335025
C  C3  1  0.14500000  0.65160000  0.12550000  1.0 0.2234335025
C  C4  1  0.65160000  0.14500000  0.37450000  1.0 0.2234335025
C  C5  1  0.80240000  0.30520000  0.93220000  1.0 0.0800907803
C  C6  1  0.30520000  0.80240000  0.56780000  1.0 0.0800907803
C  C7  1  0.19760000  0.69480000  0.06780000  1.0 0.0800907803
C  C8  1  0.69480000  0.19760000  0.43220000  1.0 0.0800907803
C  C9  1  0.71280000  0.18640000  0.95160000  1.0 -0.1693483418
C  C10  1  0.18640000  0.71280000  0.54840000  1.0 -0.1693483418
C  C11  1  0.28720000  0.81360000  0.04840000  1.0 -0.1693483418
C  C12  1  0.81360000  0.28720000  0.45160000  1.0 -0.1693483418
C  C13  1  0.66200000  0.14660000  0.00790000  1.0 0.0897796457
C  C14  1  0.14660000  0.66200000  0.49210000  1.0 0.0897796457
C  C15  1  0.33800000  0.85340000  0.99210000  1.0 0.0897796457
C  C16  1  0.85340000  0.33800000  0.50790000  1.0 0.0897796457
C  C17  1  0.78410000  0.33210000  0.03120000  1.0 0.0897796457
C  C18  1  0.33210000  0.78410000  0.46880000  1.0 0.0897796457
C  C19  1  0.21590000  0.66790000  0.96880000  1.0 0.0897796457
C  C20  1  0.66790000  0.21590000  0.53120000  1.0 0.0897796457
C  C21  1  0.83600000  0.37720000  0.97320000  1.0 -0.1693483418
C  C22  1  0.37720000  0.83600000  0.52680000  1.0 -0.1693483418
C  C23  1  0.16400000  0.62280000  0.02680000  1.0 -0.1693483418
C  C24  1  0.62280000  0.16400000  0.47320000  1.0 -0.1693483418
C  C25  1  0.48670000  0.19190000  0.85740000  1.0 0.2419683194
C  C26  1  0.19190000  0.48670000  0.64260000  1.0 0.2419683194
C  C27  1  0.51330000  0.80810000  0.14260000  1.0 0.2419683194
C  C28  1  0.80810000  0.51330000  0.35740000  1.0 0.2419683194
C  C29  1  0.49480000  0.26280000  0.89170000  1.0 0.0800907803
C  C30  1  0.26280000  0.49480000  0.60830000  1.0 0.0800907803
C  C31  1  0.50520000  0.73720000  0.10830000  1.0 0.0800907803
C  C32  1  0.73720000  0.50520000  0.39170000  1.0 0.0800907803
C  C33  1  0.57040000  0.38340000  0.87630000  1.0 -0.186023883
C  C34  1  0.38340000  0.57040000  0.62370000  1.0 -0.186023883
C  C35  1  0.42960000  0.61660000  0.12370000  1.0 -0.186023883
C  C36  1  0.61660000  0.42960000  0.37630000  1.0 -0.186023883
C  C37  1  0.43450000  0.21070000  0.94390000  1.0 -0.1481257448
C  C38  1  0.21070000  0.43450000  0.55610000  1.0 -0.1481257448
C  C39  1  0.56550000  0.78930000  0.05610000  1.0 -0.1481257448
C  C40  1  0.78930000  0.56550000  0.44390000  1.0 -0.1481257448
C  C41  1  0.44460000  0.28040000  0.97670000  1.0 0.0700274935
C  C42  1  0.28040000  0.44460000  0.52330000  1.0 0.0700274935
C  C43  1  0.55540000  0.71960000  0.02330000  1.0 0.0700274935
C  C44  1  0.71960000  0.55540000  0.47670000  1.0 0.0700274935
C  C45  1  0.57240000  0.44400000  0.90960000  1.0 0.0897796457
C  C46  1  0.44400000  0.57240000  0.59040000  1.0 0.0897796457
C  C47  1  0.42760000  0.55600000  0.09040000  1.0 0.0897796457
C  C48  1  0.55600000  0.42760000  0.40960000  1.0 0.0897796457
N  N1  1  0.80970000  0.29710000  0.81810000  1.0 -0.2081702924
N  N2  1  0.29710000  0.80970000  0.68190000  1.0 -0.2081702924
N  N3  1  0.19030000  0.70290000  0.18190000  1.0 -0.2081702924
N  N4  1  0.70290000  0.19030000  0.31810000  1.0 -0.2081702924
N  N5  1  0.89010000  0.37230000  0.77670000  1.0 -0.0297270061
N  N6  1  0.37230000  0.89010000  0.72330000  1.0 -0.0297270061
N  N7  1  0.10990000  0.62770000  0.22330000  1.0 -0.0297270061
N  N8  1  0.62770000  0.10990000  0.27670000  1.0 -0.0297270061
N  N9  1  0.98440000  0.46760000  0.80510000  1.0 -0.0157896825
N  N10  1  0.46760000  0.98440000  0.69490000  1.0 -0.0157896825
N  N11  1  0.01560000  0.53240000  0.19490000  1.0 -0.0157896825
N  N12  1  0.53240000  0.01560000  0.30510000  1.0 -0.0157896825
N  N13  1  0.96810000  0.45670000  0.86660000  1.0 -0.2198146502
N  N14  1  0.45670000  0.96810000  0.63340000  1.0 -0.2198146502
N  N15  1  0.03190000  0.54330000  0.13340000  1.0 -0.2198146502
N  N16  1  0.54330000  0.03190000  0.36660000  1.0 -0.2198146502
N  N17  1  0.69570000  0.21630000  0.04760000  1.0 -0.2081702924
N  N18  1  0.21630000  0.69570000  0.45240000  1.0 -0.2081702924
N  N19  1  0.30430000  0.78370000  0.95240000  1.0 -0.2081702924
N  N20  1  0.78370000  0.30430000  0.54760000  1.0 -0.2081702924
N  N21  1  0.40840000  0.07400000  0.87160000  1.0 -0.2564270566
N  N22  1  0.07400000  0.40840000  0.62840000  1.0 -0.2564270566
N  N23  1  0.59160000  0.92600000  0.12840000  1.0 -0.2564270566
N  N24  1  0.92600000  0.59160000  0.37160000  1.0 -0.2564270566
N  N25  1  0.43410000  0.04190000  0.83520000  1.0 -0.0568413059
N  N26  1  0.04190000  0.43410000  0.66480000  1.0 -0.0568413059
N  N27  1  0.56590000  0.95810000  0.16480000  1.0 -0.0568413059
N  N28  1  0.95810000  0.56590000  0.33520000  1.0 -0.0568413059
N  N29  1  0.52330000  0.13890000  0.80240000  1.0 -0.0297270061
N  N30  1  0.13890000  0.52330000  0.69760000  1.0 -0.0297270061
N  N31  1  0.47670000  0.86110000  0.19760000  1.0 -0.0297270061
N  N32  1  0.86110000  0.47670000  0.30240000  1.0 -0.0297270061
N  N33  1  0.55680000  0.23420000  0.81520000  1.0 -0.2462155527
N  N34  1  0.23420000  0.55680000  0.68480000  1.0 -0.2462155527
N  N35  1  0.44320000  0.76580000  0.18480000  1.0 -0.2462155527
N  N36  1  0.76580000  0.44320000  0.31520000  1.0 -0.2462155527
N  N37  1  0.51450000  0.39950000  0.95840000  1.0 -0.2462155527
N  N38  1  0.39950000  0.51450000  0.54160000  1.0 -0.2462155527
N  N39  1  0.48550000  0.60050000  0.04160000  1.0 -0.2446230719
N  N40  1  0.60050000  0.48550000  0.45840000  1.0 -0.2462155527
Cl  Cl1  1  0.58654000  0.95746000  0.86768000  1.0 -0.5040593216
Cl  Cl2  1  0.95746000  0.58654000  0.63232000  1.0 -0.5060464362
Cl  Cl3  1  0.41346000  0.04254000  0.13232000  1.0 -0.5060464362
Cl  Cl4  1  0.04254000  0.41346000  0.36768000  1.0 -0.5040593216
Cl  Cl5  1  0.64949000  0.29551000  0.65068000  1.0 -0.5060464362
Cl  Cl6  1  0.29551000  0.64949000  0.84932000  1.0 -0.5060464362
Cl  Cl7  1  0.35051000  0.70449000  0.34932000  1.0 -0.5040593216
Cl  Cl8  1  0.70449000  0.35051000  0.15068000  1.0 -0.5040593216
Cl  Cl9  1  0.77127000  0.14433000  0.71754000  1.0 -0.4319380293
Cl  Cl10  1  0.14433000  0.77127000  0.78246000  1.0 -0.4319380293
Cl  Cl11  1  0.22873000  0.85567000  0.28246000  1.0 -0.4319380293
Cl  Cl12  1  0.85567000  0.22873000  0.21754000  1.0 -0.4319380293
