# DDEC6 charges by PACMAN v1.1 (https://github.com/mtap-research/PACMAN-charge/)
data_GUMDEZ_FSR_pacman
_symmetry_space_group_name_H-M   'P 1'
_cell_length_a   11.27000000
_cell_length_b   9.84200000
_cell_length_c   17.46010000
_cell_angle_alpha   90.00000000
_cell_angle_beta   126.87300000
_cell_angle_gamma   90.00000000
_symmetry_Int_Tables_number   1
_chemical_formula_structural   ZnH10C10S(N2O)2
_chemical_formula_sum   'Zn4 H40 C40 S4 N16 O8'
_cell_volume   1549.26729453
_cell_formula_units_Z   4
loop_
 _symmetry_equiv_pos_site_id
 _symmetry_equiv_pos_as_xyz
  1  'x, y, z'
loop_
 _atom_site_type_symbol
 _atom_site_label
 _atom_site_symmetry_multiplicity
 _atom_site_fract_x
 _atom_site_fract_y
 _atom_site_fract_z
 _atom_site_occupancy
 _atom_site_charge
Zn  Zn1  1  0.90417000  0.25233000  0.15945000  1.0 0.7875990515
Zn  Zn2  1  0.09583000  0.75233000  0.34055000  1.0 0.7875990515
Zn  Zn3  1  0.09583000  0.74767000  0.84055000  1.0 0.7875990515
Zn  Zn4  1  0.90417000  0.24767000  0.65945000  1.0 0.7875990515
H  H1  1  0.61810000  0.39050000  0.98900000  1.0 0.0836447795
H  H2  1  0.38190000  0.89050000  0.51100000  1.0 0.0836447795
H  H3  1  0.38190000  0.60950000  0.01100000  1.0 0.0836447795
H  H4  1  0.61810000  0.10950000  0.48900000  1.0 0.0836447795
H  H5  1  0.74330000  0.95700000  0.14070000  1.0 0.1386820284
H  H6  1  0.25670000  0.45700000  0.35930000  1.0 0.1386820284
H  H7  1  0.25670000  0.04300000  0.85930000  1.0 0.1386820284
H  H8  1  0.74330000  0.54300000  0.64070000  1.0 0.1386820284
H  H9  1  0.05330000  0.40950000  0.07770000  1.0 0.099642927
H  H10  1  0.94670000  0.90950000  0.42230000  1.0 0.099642927
H  H11  1  0.94670000  0.59050000  0.92230000  1.0 0.099642927
H  H12  1  0.05330000  0.09050000  0.57770000  1.0 0.099642927
H  H13  1  0.07640000  0.05090000  0.90160000  1.0 0.1386820284
H  H14  1  0.92360000  0.55090000  0.59840000  1.0 0.1386820284
H  H15  1  0.92360000  0.94910000  0.09840000  1.0 0.1386820284
H  H16  1  0.07640000  0.44910000  0.40160000  1.0 0.1386820284
H  H17  1  0.24220000  0.19170000  0.33260000  1.0 0.1497320702
H  H18  1  0.75780000  0.69170000  0.16740000  1.0 0.1497320702
H  H19  1  0.75780000  0.80830000  0.66740000  1.0 0.1497320702
H  H20  1  0.24220000  0.30830000  0.83260000  1.0 0.1497320702
H  H21  1  0.28170000  0.03870000  0.33370000  1.0 0.1610014881
H  H22  1  0.71830000  0.53870000  0.16630000  1.0 0.1610014881
H  H23  1  0.71830000  0.96130000  0.66630000  1.0 0.1610014881
H  H24  1  0.28170000  0.46130000  0.83370000  1.0 0.1610014881
H  H25  1  0.15060000  0.10620000  0.23800000  1.0 0.1497320702
H  H26  1  0.84940000  0.60620000  0.26200000  1.0 0.1497320702
H  H27  1  0.84940000  0.89380000  0.76200000  1.0 0.1497320702
H  H28  1  0.15060000  0.39380000  0.73800000  1.0 0.1497320702
H  H29  1  0.20690000  0.15110000  0.45330000  1.0 0.1610014881
H  H30  1  0.79310000  0.65110000  0.04670000  1.0 0.1610014881
H  H31  1  0.79310000  0.84890000  0.54670000  1.0 0.1610014881
H  H32  1  0.20690000  0.34890000  0.95330000  1.0 0.1610014881
H  H33  1  0.09310000  0.03900000  0.43410000  1.0 0.1386820284
H  H34  1  0.90690000  0.53900000  0.06590000  1.0 0.1386820284
H  H35  1  0.90690000  0.96100000  0.56590000  1.0 0.1386820284
H  H36  1  0.09310000  0.46100000  0.93410000  1.0 0.1386820284
H  H37  1  0.24640000  0.99710000  0.45820000  1.0 0.1185103116
H  H38  1  0.75360000  0.49710000  0.04180000  1.0 0.1185103116
H  H39  1  0.75360000  0.00290000  0.54180000  1.0 0.1185103116
H  H40  1  0.24640000  0.50290000  0.95820000  1.0 0.1185103116
C  C1  1  0.59150000  0.30280000  0.99300000  1.0 0.1658411493
C  C2  1  0.40850000  0.80280000  0.50700000  1.0 0.1658411493
C  C3  1  0.40850000  0.69720000  0.00700000  1.0 0.1658411493
C  C4  1  0.59150000  0.19720000  0.49300000  1.0 0.1658411493
C  C5  1  0.60590000  0.09790000  0.03880000  1.0 0.1302776456
C  C6  1  0.39410000  0.59790000  0.46120000  1.0 0.1302776456
C  C7  1  0.39410000  0.90210000  0.96120000  1.0 0.1302776456
C  C8  1  0.60590000  0.40210000  0.53880000  1.0 0.1302776456
C  C9  1  0.64860000  0.97400000  0.08520000  1.0 -0.2619054297
C  C10  1  0.35140000  0.47400000  0.41480000  1.0 -0.2619054297
C  C11  1  0.35140000  0.02600000  0.91480000  1.0 -0.2619054297
C  C12  1  0.64860000  0.52600000  0.58520000  1.0 -0.2619054297
C  C13  1  0.53700000  0.87750000  0.04130000  1.0 0.1302776456
C  C14  1  0.46300000  0.37750000  0.45870000  1.0 0.1302776456
C  C15  1  0.46300000  0.12250000  0.95870000  1.0 0.1302776456
C  C16  1  0.53700000  0.62250000  0.54130000  1.0 0.1302776456
C  C17  1  0.04150000  0.31830000  0.06080000  1.0 0.1610014881
C  C18  1  0.95850000  0.81830000  0.43920000  1.0 0.1610014881
C  C19  1  0.95850000  0.68170000  0.93920000  1.0 0.1610014881
C  C20  1  0.04150000  0.18170000  0.56080000  1.0 0.1610014881
C  C21  1  0.03830000  0.12590000  0.99550000  1.0 0.1386820284
C  C22  1  0.96170000  0.62590000  0.50450000  1.0 0.1386820284
C  C23  1  0.96170000  0.87410000  0.00450000  1.0 0.1386820284
C  C24  1  0.03830000  0.37410000  0.49550000  1.0 0.1386820284
C  C25  1  0.04860000  0.02940000  0.94070000  1.0 -0.266547514
C  C26  1  0.95140000  0.52940000  0.55930000  1.0 -0.266547514
C  C27  1  0.95140000  0.97060000  0.05930000  1.0 -0.266547514
C  C28  1  0.04860000  0.47060000  0.44070000  1.0 -0.266547514
C  C29  1  0.98670000  0.10050000  0.04960000  1.0 0.1302776456
C  C30  1  0.01330000  0.60050000  0.45040000  1.0 0.1302776456
C  C31  1  0.01330000  0.89950000  0.95040000  1.0 0.1302776456
C  C32  1  0.98670000  0.39950000  0.54960000  1.0 0.1302776456
C  C33  1  0.20230000  0.10350000  0.30600000  1.0 -0.4692741203
C  C34  1  0.79770000  0.60350000  0.19400000  1.0 -0.4692741203
C  C35  1  0.79770000  0.89650000  0.69400000  1.0 -0.4692741203
C  C36  1  0.20230000  0.39650000  0.80600000  1.0 -0.4692741203
C  C37  1  0.16790000  0.06280000  0.42630000  1.0 -0.4799750875
C  C38  1  0.83210000  0.56280000  0.07370000  1.0 -0.4799750875
C  C39  1  0.83210000  0.93720000  0.57370000  1.0 -0.4799750875
C  C40  1  0.16790000  0.43720000  0.92630000  1.0 -0.4799750875
S  S1  1  0.10370000  0.06500000  0.32630000  1.0 1.048268119
S  S2  1  0.89630000  0.56500000  0.17370000  1.0 1.048268119
S  S3  1  0.89630000  0.93500000  0.67370000  1.0 1.048268119
S  S4  1  0.10370000  0.43500000  0.82630000  1.0 1.048268119
N  N1  1  0.68940000  0.21750000  0.06370000  1.0 -0.4053750838
N  N2  1  0.31060000  0.71750000  0.43630000  1.0 -0.4053750838
N  N3  1  0.31060000  0.78250000  0.93630000  1.0 -0.4053750838
N  N4  1  0.68940000  0.28250000  0.56370000  1.0 -0.4053750838
N  N5  1  0.99110000  0.22040000  0.09280000  1.0 -0.437456807
N  N6  1  0.00890000  0.72040000  0.40720000  1.0 -0.437456807
N  N7  1  0.00890000  0.77960000  0.90720000  1.0 -0.437456807
N  N8  1  0.99110000  0.27960000  0.59280000  1.0 -0.437456807
N  N9  1  0.06980000  0.26870000  0.00530000  1.0 -0.367824992
N  N10  1  0.93020000  0.76870000  0.49470000  1.0 -0.367824992
N  N11  1  0.93020000  0.73130000  0.99470000  1.0 -0.367824992
N  N12  1  0.06980000  0.23130000  0.50530000  1.0 -0.367824992
N  N13  1  0.53940000  0.74230000  0.06830000  1.0 -0.367824992
N  N14  1  0.46060000  0.24230000  0.43170000  1.0 -0.367824992
N  N15  1  0.46060000  0.25770000  0.93170000  1.0 -0.367824992
N  N16  1  0.53940000  0.75770000  0.56830000  1.0 -0.367824992
O  O1  1  0.97320000  0.15010000  0.27300000  1.0 -0.4692741203
O  O2  1  0.02680000  0.65010000  0.22700000  1.0 -0.4692741203
O  O3  1  0.02680000  0.84990000  0.72700000  1.0 -0.4692741203
O  O4  1  0.97320000  0.34990000  0.77300000  1.0 -0.4692741203
O  O5  1  0.04700000  0.93100000  0.28550000  1.0 -0.5060778464
O  O6  1  0.95300000  0.43100000  0.21450000  1.0 -0.5060778464
O  O7  1  0.95300000  0.06900000  0.71450000  1.0 -0.5060778464
O  O8  1  0.04700000  0.56900000  0.78550000  1.0 -0.5060778464
