# DDEC6 charges by PACMAN v1.1 (https://github.com/mtap-research/PACMAN-charge/)
data_GUPBUP_ASR_pacman
_symmetry_space_group_name_H-M   'P 1'
_cell_length_a   15.69290000
_cell_length_b   15.69290000
_cell_length_c   15.69290000
_cell_angle_alpha   109.47100000
_cell_angle_beta   109.47100000
_cell_angle_gamma   109.47100000
_symmetry_Int_Tables_number   1
_chemical_formula_structural   CdH16(C2N)4
_chemical_formula_sum   'Cd6 H96 C48 N24'
_cell_volume   2975.02951543
_cell_formula_units_Z   6
loop_
 _symmetry_equiv_pos_site_id
 _symmetry_equiv_pos_as_xyz
  1  'x, y, z'
loop_
 _atom_site_type_symbol
 _atom_site_label
 _atom_site_symmetry_multiplicity
 _atom_site_fract_x
 _atom_site_fract_y
 _atom_site_fract_z
 _atom_site_occupancy
 _atom_site_charge
Cd  Cd1  1  0.25000000  0.50000000  0.75000000  1.0 0.6875527669
Cd  Cd2  1  0.75000000  0.50000000  0.25000000  1.0 0.6875527669
Cd  Cd3  1  0.75000000  0.25000000  0.50000000  1.0 0.6875527669
Cd  Cd4  1  0.25000000  0.75000000  0.50000000  1.0 0.6875527669
Cd  Cd5  1  0.50000000  0.75000000  0.25000000  1.0 0.6875527669
Cd  Cd6  1  0.50000000  0.25000000  0.75000000  1.0 0.6875527669
H  H1  1  0.40890000  0.75790000  0.90600000  1.0 0.1201916189
H  H2  1  0.85190000  0.50290000  0.09400000  1.0 0.1201916189
H  H3  1  0.14810000  0.24210000  0.65100000  1.0 0.1201916189
H  H4  1  0.59110000  0.49710000  0.34900000  1.0 0.1201916189
H  H5  1  0.90600000  0.40890000  0.75790000  1.0 0.1201916189
H  H6  1  0.09400000  0.85190000  0.50290000  1.0 0.1201916189
H  H7  1  0.65100000  0.14810000  0.24210000  1.0 0.1201916189
H  H8  1  0.34900000  0.59110000  0.49710000  1.0 0.1201916189
H  H9  1  0.75790000  0.90600000  0.40890000  1.0 0.1201916189
H  H10  1  0.50290000  0.09400000  0.85190000  1.0 0.1201916189
H  H11  1  0.24210000  0.65100000  0.14810000  1.0 0.1201916189
H  H12  1  0.49710000  0.34900000  0.59110000  1.0 0.1201916189
H  H13  1  0.75790000  0.40890000  0.90600000  1.0 0.1201916189
H  H14  1  0.50290000  0.85190000  0.09400000  1.0 0.1201916189
H  H15  1  0.24210000  0.14810000  0.65100000  1.0 0.1201916189
H  H16  1  0.49710000  0.59110000  0.34900000  1.0 0.1201916189
H  H17  1  0.40890000  0.90600000  0.75790000  1.0 0.1201916189
H  H18  1  0.85190000  0.09400000  0.50290000  1.0 0.1201916189
H  H19  1  0.14810000  0.65100000  0.24210000  1.0 0.1201916189
H  H20  1  0.59110000  0.34900000  0.49710000  1.0 0.1201916189
H  H21  1  0.90600000  0.75790000  0.40890000  1.0 0.1201916189
H  H22  1  0.09400000  0.50290000  0.85190000  1.0 0.1201916189
H  H23  1  0.65100000  0.24210000  0.14810000  1.0 0.1201916189
H  H24  1  0.34900000  0.49710000  0.59110000  1.0 0.1201916189
H  H25  1  0.28560000  0.46090000  0.92950000  1.0 0.0573312779
H  H26  1  0.53140000  0.35610000  0.07050000  1.0 0.0573312779
H  H27  1  0.46860000  0.53910000  0.82470000  1.0 0.0573312779
H  H28  1  0.71440000  0.64390000  0.17530000  1.0 0.0573312779
H  H29  1  0.92950000  0.28560000  0.46090000  1.0 0.0573312779
H  H30  1  0.07050000  0.53140000  0.35610000  1.0 0.0573312779
H  H31  1  0.82470000  0.46860000  0.53910000  1.0 0.0573312779
H  H32  1  0.17530000  0.71440000  0.64390000  1.0 0.0573312779
H  H33  1  0.46090000  0.92950000  0.28560000  1.0 0.0573312779
H  H34  1  0.35610000  0.07050000  0.53140000  1.0 0.0573312779
H  H35  1  0.53910000  0.82470000  0.46860000  1.0 0.0573312779
H  H36  1  0.64390000  0.17530000  0.71440000  1.0 0.0573312779
H  H37  1  0.46090000  0.28560000  0.92950000  1.0 0.0573312779
H  H38  1  0.35610000  0.53140000  0.07050000  1.0 0.0573312779
H  H39  1  0.53910000  0.46860000  0.82470000  1.0 0.0573312779
H  H40  1  0.64390000  0.71440000  0.17530000  1.0 0.0573312779
H  H41  1  0.28560000  0.92950000  0.46090000  1.0 0.0573312779
H  H42  1  0.53140000  0.07050000  0.35610000  1.0 0.0573312779
H  H43  1  0.46860000  0.82470000  0.53910000  1.0 0.0573312779
H  H44  1  0.71440000  0.17530000  0.64390000  1.0 0.0573312779
H  H45  1  0.92950000  0.46090000  0.28560000  1.0 0.0573312779
H  H46  1  0.07050000  0.35610000  0.53140000  1.0 0.0573312779
H  H47  1  0.82470000  0.53910000  0.46860000  1.0 0.0573312779
H  H48  1  0.17530000  0.64390000  0.71440000  1.0 0.0573312779
H  H49  1  0.28560000  0.51960000  0.03220000  1.0 0.0573312779
H  H50  1  0.48740000  0.25340000  0.96780000  1.0 0.0573312779
H  H51  1  0.51260000  0.48040000  0.76600000  1.0 0.0573312779
H  H52  1  0.71440000  0.74660000  0.23400000  1.0 0.0573312779
H  H53  1  0.03220000  0.28560000  0.51960000  1.0 0.0573312779
H  H54  1  0.96780000  0.48740000  0.25340000  1.0 0.0573312779
H  H55  1  0.76600000  0.51260000  0.48040000  1.0 0.0573312779
H  H56  1  0.23400000  0.71440000  0.74660000  1.0 0.0573312779
H  H57  1  0.51960000  0.03220000  0.28560000  1.0 0.0573312779
H  H58  1  0.25340000  0.96780000  0.48740000  1.0 0.0573312779
H  H59  1  0.48040000  0.76600000  0.51260000  1.0 0.0573312779
H  H60  1  0.74660000  0.23400000  0.71440000  1.0 0.0573312779
H  H61  1  0.51960000  0.28560000  0.03220000  1.0 0.0573312779
H  H62  1  0.25340000  0.48740000  0.96780000  1.0 0.0573312779
H  H63  1  0.48040000  0.51260000  0.76600000  1.0 0.0573312779
H  H64  1  0.74660000  0.71440000  0.23400000  1.0 0.0573312779
H  H65  1  0.28560000  0.03220000  0.51960000  1.0 0.0573312779
H  H66  1  0.48740000  0.96780000  0.25340000  1.0 0.0573312779
H  H67  1  0.51260000  0.76600000  0.48040000  1.0 0.0573312779
H  H68  1  0.71440000  0.23400000  0.74660000  1.0 0.0573312779
H  H69  1  0.03220000  0.51960000  0.28560000  1.0 0.0573312779
H  H70  1  0.96780000  0.25340000  0.48740000  1.0 0.0573312779
H  H71  1  0.76600000  0.48040000  0.51260000  1.0 0.0573312779
H  H72  1  0.23400000  0.74660000  0.71440000  1.0 0.0573312779
H  H73  1  0.38320000  0.50920000  0.03840000  1.0 0.0670372515
H  H74  1  0.47080000  0.34480000  0.96160000  1.0 0.0670372515
H  H75  1  0.52920000  0.49080000  0.87400000  1.0 0.0670372515
H  H76  1  0.61680000  0.65520000  0.12600000  1.0 0.0670372515
H  H77  1  0.03840000  0.38320000  0.50920000  1.0 0.0670372515
H  H78  1  0.96160000  0.47080000  0.34480000  1.0 0.0670372515
H  H79  1  0.87400000  0.52920000  0.49080000  1.0 0.0670372515
H  H80  1  0.12600000  0.61680000  0.65520000  1.0 0.0670372515
H  H81  1  0.50920000  0.03840000  0.38320000  1.0 0.0670372515
H  H82  1  0.34480000  0.96160000  0.47080000  1.0 0.0670372515
H  H83  1  0.49080000  0.87400000  0.52920000  1.0 0.0670372515
H  H84  1  0.65520000  0.12600000  0.61680000  1.0 0.0670372515
H  H85  1  0.50920000  0.38320000  0.03840000  1.0 0.0670372515
H  H86  1  0.34480000  0.47080000  0.96160000  1.0 0.0670372515
H  H87  1  0.49080000  0.52920000  0.87400000  1.0 0.0670372515
H  H88  1  0.65520000  0.61680000  0.12600000  1.0 0.0670372515
H  H89  1  0.38320000  0.03840000  0.50920000  1.0 0.0670372515
H  H90  1  0.47080000  0.96160000  0.34480000  1.0 0.0670372515
H  H91  1  0.52920000  0.87400000  0.49080000  1.0 0.0670372515
H  H92  1  0.61680000  0.12600000  0.65520000  1.0 0.0670372515
H  H93  1  0.03840000  0.50920000  0.38320000  1.0 0.0670372515
H  H94  1  0.96160000  0.34480000  0.47080000  1.0 0.0670372515
H  H95  1  0.87400000  0.49080000  0.52920000  1.0 0.0670372515
H  H96  1  0.12600000  0.65520000  0.61680000  1.0 0.0670372515
C  C1  1  0.32780000  0.51800000  0.00000000  1.0 -0.4065720569
C  C2  1  0.51800000  0.32780000  0.00000000  1.0 -0.4065720569
C  C3  1  0.48200000  0.48200000  0.80980000  1.0 -0.4065720569
C  C4  1  0.67220000  0.67220000  0.19020000  1.0 -0.4065720569
C  C5  1  0.00000000  0.32780000  0.51800000  1.0 -0.4065720569
C  C6  1  0.00000000  0.51800000  0.32780000  1.0 -0.4065720569
C  C7  1  0.80980000  0.48200000  0.48200000  1.0 -0.4065720569
C  C8  1  0.19020000  0.67220000  0.67220000  1.0 -0.4065720569
C  C9  1  0.51800000  0.00000000  0.32780000  1.0 -0.4065720569
C  C10  1  0.32780000  0.00000000  0.51800000  1.0 -0.4065720569
C  C11  1  0.48200000  0.80980000  0.48200000  1.0 -0.4065720569
C  C12  1  0.67220000  0.19020000  0.67220000  1.0 -0.4065720569
C  C13  1  0.37590000  0.62370000  0.00000000  1.0 0.3255138267
C  C14  1  0.62370000  0.37590000  0.00000000  1.0 0.3255138267
C  C15  1  0.37630000  0.37630000  0.75220000  1.0 0.3255138267
C  C16  1  0.62410000  0.62410000  0.24780000  1.0 0.3246786763
C  C17  1  0.00000000  0.37590000  0.62370000  1.0 0.3255138267
C  C18  1  0.00000000  0.62370000  0.37590000  1.0 0.3255138267
C  C19  1  0.75220000  0.37630000  0.37630000  1.0 0.3255138267
C  C20  1  0.24780000  0.62410000  0.62410000  1.0 0.3255138267
C  C21  1  0.62370000  0.00000000  0.37590000  1.0 0.3246786763
C  C22  1  0.37590000  0.00000000  0.62370000  1.0 0.3255138267
C  C23  1  0.37630000  0.75220000  0.37630000  1.0 0.3255138267
C  C24  1  0.62410000  0.24780000  0.62410000  1.0 0.3255138267
C  C25  1  0.40680000  0.72860000  0.94840000  1.0 -0.0643287902
C  C26  1  0.78020000  0.45840000  0.05160000  1.0 -0.0643287902
C  C27  1  0.21980000  0.27140000  0.67820000  1.0 -0.0643287902
C  C28  1  0.59320000  0.54160000  0.32180000  1.0 -0.0643287902
C  C29  1  0.94840000  0.40680000  0.72860000  1.0 -0.0643287902
C  C30  1  0.05160000  0.78020000  0.45840000  1.0 -0.0643287902
C  C31  1  0.67820000  0.21980000  0.27140000  1.0 -0.0643287902
C  C32  1  0.32180000  0.59320000  0.54160000  1.0 -0.0643287902
C  C33  1  0.72860000  0.94840000  0.40680000  1.0 -0.0643287902
C  C34  1  0.45840000  0.05160000  0.78020000  1.0 -0.0643287902
C  C35  1  0.27140000  0.67820000  0.21980000  1.0 -0.0643287902
C  C36  1  0.54160000  0.32180000  0.59320000  1.0 -0.0643287902
C  C37  1  0.72860000  0.40680000  0.94840000  1.0 -0.0643287902
C  C38  1  0.45840000  0.78020000  0.05160000  1.0 -0.0643287902
C  C39  1  0.27140000  0.21980000  0.67820000  1.0 -0.0643287902
C  C40  1  0.54160000  0.59320000  0.32180000  1.0 -0.0643287902
C  C41  1  0.40680000  0.94840000  0.72860000  1.0 -0.0643287902
C  C42  1  0.78020000  0.05160000  0.45840000  1.0 -0.0643287902
C  C43  1  0.21980000  0.67820000  0.27140000  1.0 -0.0643287902
C  C44  1  0.59320000  0.32180000  0.54160000  1.0 -0.0643287902
C  C45  1  0.94840000  0.72860000  0.40680000  1.0 -0.0643287902
C  C46  1  0.05160000  0.45840000  0.78020000  1.0 -0.0643287902
C  C47  1  0.67820000  0.27140000  0.21980000  1.0 -0.0643287902
C  C48  1  0.32180000  0.54160000  0.59320000  1.0 -0.0643287902
N  N1  1  0.34980000  0.62490000  0.91430000  1.0 -0.3688521167
N  N2  1  0.71060000  0.43550000  0.08570000  1.0 -0.3688521167
N  N3  1  0.28940000  0.37510000  0.72490000  1.0 -0.3688521167
N  N4  1  0.65020000  0.56450000  0.27510000  1.0 -0.3688521167
N  N5  1  0.91430000  0.34980000  0.62490000  1.0 -0.3688521167
N  N6  1  0.08570000  0.71060000  0.43550000  1.0 -0.3688521167
N  N7  1  0.72490000  0.28940000  0.37510000  1.0 -0.3688521167
N  N8  1  0.27510000  0.65020000  0.56450000  1.0 -0.3688521167
N  N9  1  0.62490000  0.91430000  0.34980000  1.0 -0.3688521167
N  N10  1  0.43550000  0.08570000  0.71060000  1.0 -0.3688521167
N  N11  1  0.37510000  0.72490000  0.28940000  1.0 -0.3688521167
N  N12  1  0.56450000  0.27510000  0.65020000  1.0 -0.3688521167
N  N13  1  0.62490000  0.34980000  0.91430000  1.0 -0.3688521167
N  N14  1  0.43550000  0.71060000  0.08570000  1.0 -0.3688521167
N  N15  1  0.37510000  0.28940000  0.72490000  1.0 -0.3688521167
N  N16  1  0.56450000  0.65020000  0.27510000  1.0 -0.3688521167
N  N17  1  0.34980000  0.91430000  0.62490000  1.0 -0.3688521167
N  N18  1  0.71060000  0.08570000  0.43550000  1.0 -0.3688521167
N  N19  1  0.28940000  0.72490000  0.37510000  1.0 -0.3688521167
N  N20  1  0.65020000  0.27510000  0.56450000  1.0 -0.3688521167
N  N21  1  0.91430000  0.62490000  0.34980000  1.0 -0.3688521167
N  N22  1  0.08570000  0.43550000  0.71060000  1.0 -0.3688521167
N  N23  1  0.72490000  0.37510000  0.28940000  1.0 -0.3688521167
N  N24  1  0.27510000  0.56450000  0.65020000  1.0 -0.3688521167
