# DDEC6 charges by PACMAN v1.1 (https://github.com/mtap-research/PACMAN-charge/)
data_GUQWOG_ASR_pacman
_symmetry_space_group_name_H-M   'P 1'
_cell_length_a   16.93730000
_cell_length_b   16.93730000
_cell_length_c   15.76640000
_cell_angle_alpha   69.67010000
_cell_angle_beta   110.33000000
_cell_angle_gamma   120.97300000
_symmetry_Int_Tables_number   1
_chemical_formula_structural   CdH16C23N2O5
_chemical_formula_sum   'Cd4 H64 C92 N8 O20'
_cell_volume   3555.56032875
_cell_formula_units_Z   4
loop_
 _symmetry_equiv_pos_site_id
 _symmetry_equiv_pos_as_xyz
  1  'x, y, z'
loop_
 _atom_site_type_symbol
 _atom_site_label
 _atom_site_symmetry_multiplicity
 _atom_site_fract_x
 _atom_site_fract_y
 _atom_site_fract_z
 _atom_site_occupancy
 _atom_site_charge
Cd  Cd1  1  0.47073000  0.96707000  0.12504000  1.0 0.8610809687
Cd  Cd2  1  0.96707000  0.47073000  0.37496000  1.0 0.8610809687
Cd  Cd3  1  0.52927000  0.03293000  0.87496000  1.0 0.8610809687
Cd  Cd4  1  0.03293000  0.52927000  0.62504000  1.0 0.8610809687
H  H1  1  0.47390000  0.15670000  0.11700000  1.0 0.1114129585
H  H2  1  0.15670000  0.47390000  0.38300000  1.0 0.1114129585
H  H3  1  0.52610000  0.84330000  0.88300000  1.0 0.1114129585
H  H4  1  0.84330000  0.52610000  0.61700000  1.0 0.1114129585
H  H5  1  0.01780000  0.32360000  0.67250000  1.0 0.1025383565
H  H6  1  0.32360000  0.01780000  0.82750000  1.0 0.1025383565
H  H7  1  0.98220000  0.67640000  0.32750000  1.0 0.1025383565
H  H8  1  0.67640000  0.98220000  0.17250000  1.0 0.1025383565
H  H9  1  0.09948000  0.23388000  0.76840000  1.0 0.1311853725
H  H10  1  0.23388000  0.09948000  0.73160000  1.0 0.1311853725
H  H11  1  0.90052000  0.76612000  0.23160000  1.0 0.1311853725
H  H12  1  0.76612000  0.90052000  0.26840000  1.0 0.1311853725
H  H13  1  0.24090000  0.55030000  0.70960000  1.0 0.1114129585
H  H14  1  0.55030000  0.24090000  0.79040000  1.0 0.1114129585
H  H15  1  0.75910000  0.44970000  0.29040000  1.0 0.1114129585
H  H16  1  0.44970000  0.75910000  0.20960000  1.0 0.1114129585
H  H17  1  0.26850000  0.95370000  0.99900000  1.0 0.119218249
H  H18  1  0.95370000  0.26850000  0.50100000  1.0 0.119218249
H  H19  1  0.73150000  0.04630000  0.00100000  1.0 0.1114129585
H  H20  1  0.04630000  0.73150000  0.49900000  1.0 0.119218249
H  H21  1  0.32230000  0.46390000  0.79750000  1.0 0.1388469971
H  H22  1  0.46390000  0.32230000  0.70250000  1.0 0.1388469971
H  H23  1  0.67770000  0.53610000  0.20250000  1.0 0.1388469971
H  H24  1  0.53610000  0.67770000  0.29750000  1.0 0.1388469971
H  H25  1  0.38830000  0.24470000  0.05600000  1.0 0.1311853725
H  H26  1  0.24470000  0.38830000  0.44400000  1.0 0.1311853725
H  H27  1  0.61170000  0.75530000  0.94400000  1.0 0.1311853725
H  H28  1  0.75530000  0.61170000  0.55600000  1.0 0.1311853725
H  H29  1  0.18400000  0.03780000  0.93310000  1.0 0.1388469971
H  H30  1  0.03780000  0.18400000  0.56690000  1.0 0.1388469971
H  H31  1  0.81600000  0.96220000  0.06690000  1.0 0.1388469971
H  H32  1  0.96220000  0.81600000  0.43310000  1.0 0.1388469971
H  H33  1  0.17710000  0.20150000  0.94950000  1.0 0.1311853725
H  H34  1  0.20150000  0.17710000  0.55050000  1.0 0.1311853725
H  H35  1  0.82290000  0.79850000  0.05050000  1.0 0.1311853725
H  H36  1  0.79850000  0.82290000  0.44950000  1.0 0.1311853725
H  H37  1  0.24000000  0.73600000  0.30900000  1.0 0.119218249
H  H38  1  0.73600000  0.24000000  0.19100000  1.0 0.119218249
H  H39  1  0.76000000  0.26400000  0.69100000  1.0 0.119218249
H  H40  1  0.26400000  0.76000000  0.80900000  1.0 0.119218249
H  H41  1  0.46130000  0.93030000  0.44220000  1.0 0.1388469971
H  H42  1  0.93030000  0.46130000  0.05780000  1.0 0.1388469971
H  H43  1  0.53870000  0.06970000  0.55780000  1.0 0.1388469971
H  H44  1  0.06970000  0.53870000  0.94220000  1.0 0.1388469971
H  H45  1  0.42240000  0.87320000  0.72330000  1.0 0.1388469971
H  H46  1  0.87320000  0.42240000  0.77670000  1.0 0.1388469971
H  H47  1  0.57760000  0.12680000  0.27670000  1.0 0.1388469971
H  H48  1  0.12680000  0.57760000  0.22330000  1.0 0.1388469971
H  H49  1  0.32450000  0.80370000  0.67480000  1.0 0.119218249
H  H50  1  0.80370000  0.32450000  0.82520000  1.0 0.119218249
H  H51  1  0.67550000  0.19630000  0.32520000  1.0 0.119218249
H  H52  1  0.19630000  0.67550000  0.17480000  1.0 0.119218249
H  H53  1  0.25530000  0.72190000  0.57490000  1.0 0.1311853725
H  H54  1  0.72190000  0.25530000  0.92510000  1.0 0.1311853725
H  H55  1  0.74470000  0.27810000  0.42510000  1.0 0.1311853725
H  H56  1  0.27810000  0.74470000  0.07490000  1.0 0.1311853725
H  H57  1  0.46000000  0.64480000  0.79470000  1.0 0.2095477487
H  H58  1  0.64480000  0.46000000  0.70530000  1.0 0.2095477487
H  H59  1  0.54000000  0.35520000  0.20530000  1.0 0.2095477487
H  H60  1  0.35520000  0.54000000  0.29470000  1.0 0.2095477487
H  H61  1  0.32460000  0.29320000  0.84430000  1.0 0.1114129585
H  H62  1  0.29320000  0.32460000  0.65570000  1.0 0.1114129585
H  H63  1  0.67540000  0.70680000  0.15570000  1.0 0.1114129585
H  H64  1  0.70680000  0.67540000  0.34430000  1.0 0.1114129585
C  C1  1  0.41680000  0.13420000  0.07550000  1.0 0.0535357873
C  C2  1  0.13420000  0.41680000  0.42450000  1.0 0.0535357873
C  C3  1  0.58320000  0.86580000  0.92450000  1.0 0.0535357873
C  C4  1  0.86580000  0.58320000  0.57550000  1.0 0.0535357873
C  C5  1  0.07900000  0.35340000  0.70500000  1.0 0.1025383565
C  C6  1  0.35340000  0.07900000  0.79500000  1.0 0.1025383565
C  C7  1  0.92100000  0.64660000  0.29500000  1.0 0.1025383565
C  C8  1  0.64660000  0.92100000  0.20500000  1.0 0.1025383565
C  C9  1  0.21680000  0.34440000  0.80480000  1.0 0.1461169104
C  C10  1  0.34440000  0.21680000  0.69520000  1.0 0.1461169104
C  C11  1  0.78320000  0.65560000  0.19520000  1.0 0.1461169104
C  C12  1  0.65560000  0.78320000  0.30480000  1.0 0.1461169104
C  C13  1  0.12830000  0.29890000  0.76180000  1.0 -0.2194783595
C  C14  1  0.29890000  0.12830000  0.73820000  1.0 -0.2194783595
C  C15  1  0.87170000  0.70110000  0.23820000  1.0 -0.2194783595
C  C16  1  0.70110000  0.87170000  0.26180000  1.0 -0.2194783595
C  C17  1  0.20840000  0.48500000  0.72560000  1.0 0.1025383565
C  C18  1  0.48500000  0.20840000  0.77440000  1.0 0.1025383565
C  C19  1  0.79160000  0.51500000  0.27440000  1.0 0.1025383565
C  C20  1  0.51500000  0.79160000  0.22560000  1.0 0.1025383565
C  C21  1  0.29750000  0.01550000  0.00590000  1.0 0.0858619399
C  C22  1  0.01550000  0.29750000  0.49410000  1.0 0.0858619399
C  C23  1  0.70250000  0.98450000  0.99410000  1.0 0.0858619399
C  C24  1  0.98450000  0.70250000  0.50590000  1.0 0.0858619399
C  C25  1  0.25720000  0.43240000  0.77950000  1.0 -0.204171313
C  C26  1  0.43240000  0.25720000  0.72050000  1.0 -0.204171313
C  C27  1  0.74280000  0.56760000  0.22050000  1.0 -0.204171313
C  C28  1  0.56760000  0.74280000  0.27950000  1.0 -0.204171313
C  C29  1  0.36720000  0.18860000  0.03910000  1.0 -0.1805735759
C  C30  1  0.18860000  0.36720000  0.46090000  1.0 -0.1805735759
C  C31  1  0.63280000  0.81140000  0.96090000  1.0 -0.1805735759
C  C32  1  0.81140000  0.63280000  0.53910000  1.0 -0.1805735759
C  C33  1  0.24550000  0.06530000  0.96610000  1.0 -0.1805735759
C  C34  1  0.06530000  0.24550000  0.53390000  1.0 -0.1805735759
C  C35  1  0.75450000  0.93470000  0.03390000  1.0 -0.1805735759
C  C36  1  0.93470000  0.75450000  0.46610000  1.0 -0.1805735759
C  C37  1  0.22880000  0.21120000  0.93140000  1.0 -0.1618209091
C  C38  1  0.21120000  0.22880000  0.56860000  1.0 -0.1618209091
C  C39  1  0.77120000  0.78880000  0.06860000  1.0 -0.1618209091
C  C40  1  0.78880000  0.77120000  0.43140000  1.0 -0.1618209091
C  C41  1  0.28460000  0.15120000  0.97590000  1.0 0.1311853725
C  C42  1  0.15120000  0.28460000  0.52410000  1.0 0.1311853725
C  C43  1  0.71540000  0.84880000  0.02410000  1.0 0.1311853725
C  C44  1  0.84880000  0.71540000  0.47590000  1.0 0.1311853725
C  C45  1  0.41792000  0.75128000  0.72860000  1.0 0.0136399011
C  C46  1  0.75128000  0.41792000  0.77140000  1.0 0.0152385234
C  C47  1  0.58208000  0.24872000  0.27140000  1.0 0.0152385234
C  C48  1  0.24872000  0.58208000  0.22860000  1.0 0.0152385234
C  C49  1  0.39560000  0.88740000  0.27700000  1.0 0.5515033323
C  C50  1  0.88740000  0.39560000  0.22300000  1.0 0.5515033323
C  C51  1  0.60440000  0.11260000  0.72300000  1.0 0.5515033323
C  C52  1  0.11260000  0.60440000  0.77700000  1.0 0.5515033323
C  C53  1  0.35590000  0.84070000  0.36290000  1.0 0.0136399011
C  C54  1  0.84070000  0.35590000  0.13710000  1.0 0.0136399011
C  C55  1  0.64410000  0.15930000  0.63710000  1.0 0.0136399011
C  C56  1  0.15930000  0.64410000  0.86290000  1.0 0.0136399011
C  C57  1  0.27150000  0.76070000  0.36220000  1.0 -0.1618209091
C  C58  1  0.76070000  0.27150000  0.13780000  1.0 -0.1618209091
C  C59  1  0.72850000  0.23930000  0.63780000  1.0 -0.1618209091
C  C60  1  0.23930000  0.72850000  0.86220000  1.0 -0.1618209091
C  C61  1  0.40370000  0.87670000  0.44170000  1.0 -0.2055275758
C  C62  1  0.87670000  0.40370000  0.05830000  1.0 -0.2055275758
C  C63  1  0.59630000  0.12330000  0.55830000  1.0 -0.2055275758
C  C64  1  0.12330000  0.59630000  0.94170000  1.0 -0.2055275758
C  C65  1  0.36580000  0.83300000  0.52070000  1.0 0.2571526411
C  C66  1  0.83300000  0.36580000  0.97930000  1.0 0.2571526411
C  C67  1  0.63420000  0.16700000  0.47930000  1.0 0.2571526411
C  C68  1  0.16700000  0.63420000  0.02070000  1.0 0.2571526411
C  C69  1  0.13920000  0.63200000  0.43620000  1.0 0.5515033323
C  C70  1  0.63200000  0.13920000  0.06380000  1.0 0.5515033323
C  C71  1  0.86080000  0.36800000  0.56380000  1.0 0.5515033323
C  C72  1  0.36800000  0.86080000  0.93620000  1.0 0.5515033323
C  C73  1  0.39200000  0.82840000  0.68340000  1.0 -0.0596792829
C  C74  1  0.82840000  0.39200000  0.81660000  1.0 -0.0596792829
C  C75  1  0.60800000  0.17160000  0.31660000  1.0 -0.0596792829
C  C76  1  0.17160000  0.60800000  0.18340000  1.0 -0.0596792829
C  C77  1  0.28010000  0.75170000  0.52180000  1.0 -0.2533464749
C  C78  1  0.75170000  0.28010000  0.97820000  1.0 -0.2533464749
C  C79  1  0.71990000  0.24830000  0.47820000  1.0 -0.2533464749
C  C80  1  0.24830000  0.71990000  0.02180000  1.0 -0.2533464749
C  C81  1  0.44120000  0.69220000  0.76530000  1.0 -0.3346040305
C  C82  1  0.69220000  0.44120000  0.73470000  1.0 -0.3346040305
C  C83  1  0.55880000  0.30780000  0.23470000  1.0 -0.3350238558
C  C84  1  0.30780000  0.55880000  0.26530000  1.0 -0.3346040305
C  C85  1  0.27100000  0.28340000  0.85900000  1.0 -0.1618209091
C  C86  1  0.28340000  0.27100000  0.64100000  1.0 -0.1618209091
C  C87  1  0.72900000  0.71660000  0.14100000  1.0 -0.1618209091
C  C88  1  0.71660000  0.72900000  0.35900000  1.0 -0.1618209091
C  C89  1  0.23290000  0.71630000  0.44110000  1.0 -0.005633608
C  C90  1  0.71630000  0.23290000  0.05890000  1.0 -0.005633608
C  C91  1  0.76710000  0.28370000  0.55890000  1.0 -0.005633608
C  C92  1  0.28370000  0.76710000  0.94110000  1.0 -0.005633608
N  N1  1  0.38560000  0.04900000  0.05320000  1.0 -0.2533464749
N  N2  1  0.04900000  0.38560000  0.44680000  1.0 -0.2533464749
N  N3  1  0.61440000  0.95100000  0.94680000  1.0 -0.2533464749
N  N4  1  0.95100000  0.61440000  0.55320000  1.0 -0.2533464749
N  N5  1  0.11890000  0.44390000  0.69820000  1.0 -0.2194783595
N  N6  1  0.44390000  0.11890000  0.80180000  1.0 -0.2194783595
N  N7  1  0.88110000  0.55610000  0.30180000  1.0 -0.2194783595
N  N8  1  0.55610000  0.88110000  0.19820000  1.0 -0.2194783595
O  O1  1  0.47110000  0.96330000  0.27730000  1.0 -0.5436775144
O  O2  1  0.96330000  0.47110000  0.22270000  1.0 -0.5436775144
O  O3  1  0.52890000  0.03670000  0.72270000  1.0 -0.5436775144
O  O4  1  0.03670000  0.52890000  0.77730000  1.0 -0.5436775144
O  O5  1  0.10220000  0.60140000  0.36450000  1.0 -0.5084779468
O  O6  1  0.60140000  0.10220000  0.13550000  1.0 -0.5084779468
O  O7  1  0.89780000  0.39860000  0.63550000  1.0 -0.5084779468
O  O8  1  0.39860000  0.89780000  0.86450000  1.0 -0.5084779468
O  O9  1  0.35220000  0.84960000  0.20710000  1.0 -0.5686681327
O  O10  1  0.84960000  0.35220000  0.29290000  1.0 -0.5686681327
O  O11  1  0.64780000  0.15040000  0.79290000  1.0 -0.5686681327
O  O12  1  0.15040000  0.64780000  0.70710000  1.0 -0.5686681327
O  O13  1  0.10060000  0.59460000  0.50290000  1.0 -0.5502761659
O  O14  1  0.59460000  0.10060000  0.99710000  1.0 -0.5502761659
O  O15  1  0.89940000  0.40540000  0.49710000  1.0 -0.5502761659
O  O16  1  0.40540000  0.89940000  0.00290000  1.0 -0.5502761659
O  O17  1  0.41860000  0.87640000  0.59510000  1.0 -0.1805735759
O  O18  1  0.87640000  0.41860000  0.90490000  1.0 -0.1805735759
O  O19  1  0.58140000  0.12360000  0.40490000  1.0 -0.1805735759
O  O20  1  0.12360000  0.58140000  0.09510000  1.0 -0.1805735759
