# DDEC6 charges by PACMAN v1.1 (https://github.com/mtap-research/PACMAN-charge/)
data_GURTIX_ASR_pacman
_symmetry_space_group_name_H-M   'P 1'
_cell_length_a   13.50200000
_cell_length_b   15.46500000
_cell_length_c   32.41600000
_cell_angle_alpha   90.00000000
_cell_angle_beta   90.00000000
_cell_angle_gamma   90.00000000
_symmetry_Int_Tables_number   1
_chemical_formula_structural   In2H11C19O12
_chemical_formula_sum   'In16 H88 C152 O96'
_cell_volume   6768.73406688
_cell_formula_units_Z   8
loop_
 _symmetry_equiv_pos_site_id
 _symmetry_equiv_pos_as_xyz
  1  'x, y, z'
loop_
 _atom_site_type_symbol
 _atom_site_label
 _atom_site_symmetry_multiplicity
 _atom_site_fract_x
 _atom_site_fract_y
 _atom_site_fract_z
 _atom_site_occupancy
 _atom_site_charge
In  In1  1  0.27763000  0.07624000  0.34118000  1.0 1.5825123652
In  In2  1  0.22237000  0.92376000  0.84118000  1.0 1.5825123652
In  In3  1  0.72237000  0.57624000  0.15882000  1.0 1.5825123652
In  In4  1  0.77763000  0.42376000  0.65882000  1.0 1.5825123652
In  In5  1  0.72237000  0.92376000  0.65882000  1.0 1.5825123652
In  In6  1  0.77763000  0.07624000  0.15882000  1.0 1.5825123652
In  In7  1  0.27763000  0.42376000  0.84118000  1.0 1.5825123652
In  In8  1  0.22237000  0.57624000  0.34118000  1.0 1.5825123652
In  In9  1  0.72279000  0.18182000  0.61846000  1.0 1.6023626789
In  In10  1  0.77721000  0.81818000  0.11846000  1.0 1.6023626789
In  In11  1  0.27721000  0.68182000  0.88154000  1.0 1.6023626789
In  In12  1  0.22279000  0.31818000  0.38154000  1.0 1.6023626789
In  In13  1  0.27721000  0.81818000  0.38154000  1.0 1.6023626789
In  In14  1  0.22279000  0.18182000  0.88154000  1.0 1.6023626789
In  In15  1  0.72279000  0.31818000  0.11846000  1.0 1.6023626789
In  In16  1  0.77721000  0.68182000  0.61846000  1.0 1.6023626789
H  H1  1  0.00160000  0.00790000  0.24040000  1.0 0.1584424987
H  H2  1  0.49840000  0.99210000  0.74040000  1.0 0.1584424987
H  H3  1  0.99840000  0.50790000  0.25960000  1.0 0.1584424987
H  H4  1  0.50160000  0.49210000  0.75960000  1.0 0.1584424987
H  H5  1  0.99840000  0.99210000  0.75960000  1.0 0.1584424987
H  H6  1  0.50160000  0.00790000  0.25960000  1.0 0.1584424987
H  H7  1  0.00160000  0.49210000  0.74040000  1.0 0.1584424987
H  H8  1  0.49840000  0.50790000  0.24040000  1.0 0.1584424987
H  H9  1  0.97290000  0.74890000  0.19670000  1.0 0.1499282918
H  H10  1  0.52710000  0.25110000  0.69670000  1.0 0.1499282918
H  H11  1  0.02710000  0.24890000  0.30330000  1.0 0.1499282918
H  H12  1  0.47290000  0.75110000  0.80330000  1.0 0.1499282918
H  H13  1  0.02710000  0.25110000  0.80330000  1.0 0.1499282918
H  H14  1  0.47290000  0.74890000  0.30330000  1.0 0.1499282918
H  H15  1  0.97290000  0.75110000  0.69670000  1.0 0.1499282918
H  H16  1  0.52710000  0.24890000  0.19670000  1.0 0.1499282918
H  H17  1  0.08190000  0.69310000  0.24470000  1.0 0.1499282918
H  H18  1  0.41810000  0.30690000  0.74470000  1.0 0.1499282918
H  H19  1  0.91810000  0.19310000  0.25530000  1.0 0.1499282918
H  H20  1  0.58190000  0.80690000  0.75530000  1.0 0.1499282918
H  H21  1  0.91810000  0.30690000  0.75530000  1.0 0.1499282918
H  H22  1  0.58190000  0.69310000  0.25530000  1.0 0.1499282918
H  H23  1  0.08190000  0.80690000  0.74470000  1.0 0.1499282918
H  H24  1  0.41810000  0.19310000  0.24470000  1.0 0.1499282918
H  H25  1  0.56360000  0.28060000  0.51480000  1.0 0.1135596111
H  H26  1  0.93640000  0.71940000  0.01480000  1.0 0.1135596111
H  H27  1  0.43640000  0.78060000  0.98520000  1.0 0.1135596111
H  H28  1  0.06360000  0.21940000  0.48520000  1.0 0.1135596111
H  H29  1  0.43640000  0.71940000  0.48520000  1.0 0.1135596111
H  H30  1  0.06360000  0.28060000  0.98520000  1.0 0.1135596111
H  H31  1  0.56360000  0.21940000  0.01480000  1.0 0.1135596111
H  H32  1  0.93640000  0.78060000  0.51480000  1.0 0.1135596111
H  H33  1  0.46540000  0.31450000  0.46060000  1.0 0.1135596111
H  H34  1  0.03460000  0.68550000  0.96060000  1.0 0.1135596111
H  H35  1  0.53460000  0.81450000  0.03940000  1.0 0.1135596111
H  H36  1  0.96540000  0.18550000  0.53940000  1.0 0.1135596111
H  H37  1  0.53460000  0.68550000  0.53940000  1.0 0.1135596111
H  H38  1  0.96540000  0.31450000  0.03940000  1.0 0.1135596111
H  H39  1  0.46540000  0.18550000  0.96060000  1.0 0.1135596111
H  H40  1  0.03460000  0.81450000  0.46060000  1.0 0.1135596111
H  H41  1  0.48680000  0.05580000  0.42220000  1.0 0.1584424987
H  H42  1  0.01320000  0.94420000  0.92220000  1.0 0.1584424987
H  H43  1  0.51320000  0.55580000  0.07780000  1.0 0.1584424987
H  H44  1  0.98680000  0.44420000  0.57780000  1.0 0.1584424987
H  H45  1  0.51320000  0.94420000  0.57780000  1.0 0.1584424987
H  H46  1  0.98680000  0.05580000  0.07780000  1.0 0.1584424987
H  H47  1  0.48680000  0.44420000  0.92220000  1.0 0.1584424987
H  H48  1  0.01320000  0.55580000  0.42220000  1.0 0.1584424987
H  H49  1  0.59410000  0.02670000  0.47460000  1.0 0.1499282918
H  H50  1  0.90590000  0.97330000  0.97460000  1.0 0.1499282918
H  H51  1  0.40590000  0.52670000  0.02540000  1.0 0.1499282918
H  H52  1  0.09410000  0.47330000  0.52540000  1.0 0.1499282918
H  H53  1  0.40590000  0.97330000  0.52540000  1.0 0.1499282918
H  H54  1  0.09410000  0.02670000  0.02540000  1.0 0.1499282918
H  H55  1  0.59410000  0.47330000  0.97460000  1.0 0.1499282918
H  H56  1  0.90590000  0.52670000  0.47460000  1.0 0.1499282918
H  H57  1  0.12520000  0.15430000  0.37690000  1.0 0.4161645039
H  H58  1  0.37480000  0.84570000  0.87690000  1.0 0.4161645039
H  H59  1  0.87480000  0.65430000  0.12310000  1.0 0.4161645039
H  H60  1  0.62520000  0.34570000  0.62310000  1.0 0.4161645039
H  H61  1  0.87480000  0.84570000  0.62310000  1.0 0.4161645039
H  H62  1  0.62520000  0.15430000  0.12310000  1.0 0.4161645039
H  H63  1  0.12520000  0.34570000  0.87690000  1.0 0.4161645039
H  H64  1  0.37480000  0.65430000  0.37690000  1.0 0.4161645039
H  H65  1  0.22380000  0.98680000  0.41150000  1.0 0.4047325417
H  H66  1  0.27620000  0.01320000  0.91150000  1.0 0.4047325417
H  H67  1  0.77620000  0.48680000  0.08850000  1.0 0.4047325417
H  H68  1  0.72380000  0.51320000  0.58850000  1.0 0.4047325417
H  H69  1  0.77620000  0.01320000  0.58850000  1.0 0.4047325417
H  H70  1  0.72380000  0.98680000  0.08850000  1.0 0.4047325417
H  H71  1  0.22380000  0.51320000  0.91150000  1.0 0.4047325417
H  H72  1  0.27620000  0.48680000  0.41150000  1.0 0.4047325417
H  H73  1  0.00350000  0.27050000  0.46270000  1.0 0.116063112
H  H74  1  0.49650000  0.72950000  0.96270000  1.0 0.1135596111
H  H75  1  0.99650000  0.77050000  0.03730000  1.0 0.1135596111
H  H76  1  0.50350000  0.22950000  0.53730000  1.0 0.116063112
H  H77  1  0.99650000  0.72950000  0.53730000  1.0 0.116063112
H  H78  1  0.50350000  0.27050000  0.03730000  1.0 0.1135596111
H  H79  1  0.00350000  0.22950000  0.96270000  1.0 0.116063112
H  H80  1  0.49650000  0.77050000  0.46270000  1.0 0.1135596111
H  H81  1  0.90760000  0.22100000  0.51740000  1.0 0.0980484686
H  H82  1  0.59240000  0.77900000  0.01740000  1.0 0.0980484686
H  H83  1  0.09240000  0.72100000  0.98260000  1.0 0.0980484686
H  H84  1  0.40760000  0.27900000  0.48260000  1.0 0.0980484686
H  H85  1  0.09240000  0.77900000  0.48260000  1.0 0.0980484686
H  H86  1  0.40760000  0.22100000  0.98260000  1.0 0.0980484686
H  H87  1  0.90760000  0.27900000  0.01740000  1.0 0.0980484686
H  H88  1  0.59240000  0.72100000  0.51740000  1.0 0.0980484686
C  C1  1  0.08110000  0.91730000  0.26940000  1.0 0.0307092551
C  C2  1  0.41890000  0.08270000  0.76940000  1.0 0.0307092551
C  C3  1  0.91890000  0.41730000  0.23060000  1.0 0.0307092551
C  C4  1  0.58110000  0.58270000  0.73060000  1.0 0.0307092551
C  C5  1  0.91890000  0.08270000  0.73060000  1.0 0.0307092551
C  C6  1  0.58110000  0.91730000  0.23060000  1.0 0.0307092551
C  C7  1  0.08110000  0.58270000  0.76940000  1.0 0.0307092551
C  C8  1  0.41890000  0.41730000  0.26940000  1.0 0.0307092551
C  C9  1  0.01820000  0.94960000  0.24210000  1.0 -0.1271798117
C  C10  1  0.48180000  0.05040000  0.74210000  1.0 -0.1197211549
C  C11  1  0.98180000  0.44960000  0.25790000  1.0 -0.1271798117
C  C12  1  0.51820000  0.55040000  0.75790000  1.0 -0.1271798117
C  C13  1  0.98180000  0.05040000  0.75790000  1.0 -0.1271798117
C  C14  1  0.51820000  0.94960000  0.25790000  1.0 -0.1271798117
C  C15  1  0.01820000  0.55040000  0.74210000  1.0 -0.1197211549
C  C16  1  0.48180000  0.44960000  0.24210000  1.0 -0.1271798117
C  C17  1  0.97790000  0.88250000  0.21490000  1.0 -0.0774092631
C  C18  1  0.52210000  0.11750000  0.71490000  1.0 -0.0774092631
C  C19  1  0.02210000  0.38250000  0.28510000  1.0 -0.0774092631
C  C20  1  0.47790000  0.61750000  0.78510000  1.0 -0.0774092631
C  C21  1  0.02210000  0.11750000  0.78510000  1.0 -0.0774092631
C  C22  1  0.47790000  0.88250000  0.28510000  1.0 -0.0774092631
C  C23  1  0.97790000  0.61750000  0.71490000  1.0 -0.0774092631
C  C24  1  0.52210000  0.38250000  0.21490000  1.0 -0.0774092631
C  C25  1  0.00270000  0.78530000  0.21590000  1.0 -0.0774092631
C  C26  1  0.49730000  0.21470000  0.71590000  1.0 -0.0774092631
C  C27  1  0.99730000  0.28530000  0.28410000  1.0 -0.0774092631
C  C28  1  0.50270000  0.71470000  0.78410000  1.0 -0.0719594663
C  C29  1  0.99730000  0.21470000  0.78410000  1.0 -0.0719594663
C  C30  1  0.50270000  0.78530000  0.28410000  1.0 -0.0774092631
C  C31  1  0.00270000  0.71470000  0.71590000  1.0 -0.0719594663
C  C32  1  0.49730000  0.28530000  0.21590000  1.0 -0.0774092631
C  C33  1  0.06520000  0.75140000  0.24330000  1.0 -0.0929983579
C  C34  1  0.43480000  0.24860000  0.74330000  1.0 -0.0929983579
C  C35  1  0.93480000  0.25140000  0.25670000  1.0 -0.0929983579
C  C36  1  0.56520000  0.74860000  0.75670000  1.0 -0.0929983579
C  C37  1  0.93480000  0.24860000  0.75670000  1.0 -0.0929983579
C  C38  1  0.56520000  0.75140000  0.25670000  1.0 -0.0929983579
C  C39  1  0.06520000  0.74860000  0.74330000  1.0 -0.0929983579
C  C40  1  0.43480000  0.25140000  0.24330000  1.0 -0.0929983579
C  C41  1  0.10320000  0.81690000  0.27020000  1.0 -0.0719594663
C  C42  1  0.39680000  0.18310000  0.77020000  1.0 -0.0719594663
C  C43  1  0.89680000  0.31690000  0.22980000  1.0 -0.0719594663
C  C44  1  0.60320000  0.68310000  0.72980000  1.0 -0.0719594663
C  C45  1  0.89680000  0.18310000  0.72980000  1.0 -0.0719594663
C  C46  1  0.60320000  0.81690000  0.22980000  1.0 -0.0719594663
C  C47  1  0.10320000  0.68310000  0.77020000  1.0 -0.0719594663
C  C48  1  0.39680000  0.31690000  0.27020000  1.0 -0.0719594663
C  C49  1  0.12170000  0.99570000  0.29700000  1.0 0.5365450993
C  C50  1  0.37830000  0.00430000  0.79700000  1.0 0.5365450993
C  C51  1  0.87830000  0.49570000  0.20300000  1.0 0.5365450993
C  C52  1  0.62170000  0.50430000  0.70300000  1.0 0.5365450993
C  C53  1  0.87830000  0.00430000  0.70300000  1.0 0.5365450993
C  C54  1  0.62170000  0.99570000  0.20300000  1.0 0.5365450993
C  C55  1  0.12170000  0.50430000  0.79700000  1.0 0.5365450993
C  C56  1  0.37830000  0.49570000  0.29700000  1.0 0.5365450993
C  C57  1  0.16370000  0.77420000  0.30220000  1.0 0.6314158603
C  C58  1  0.33630000  0.22580000  0.80220000  1.0 0.6314158603
C  C59  1  0.83630000  0.27420000  0.19780000  1.0 0.6314158603
C  C60  1  0.66370000  0.72580000  0.69780000  1.0 0.6314158603
C  C61  1  0.83630000  0.22580000  0.69780000  1.0 0.6314158603
C  C62  1  0.66370000  0.77420000  0.19780000  1.0 0.6314158603
C  C63  1  0.16370000  0.72580000  0.80220000  1.0 0.6314158603
C  C64  1  0.33630000  0.27420000  0.30220000  1.0 0.6314158603
C  C65  1  0.90890000  0.91580000  0.18620000  1.0 0.60521418
C  C66  1  0.59110000  0.08420000  0.68620000  1.0 0.60521418
C  C67  1  0.09110000  0.41580000  0.31380000  1.0 0.60521418
C  C68  1  0.40890000  0.58420000  0.81380000  1.0 0.60521418
C  C69  1  0.09110000  0.08420000  0.81380000  1.0 0.60521418
C  C70  1  0.40890000  0.91580000  0.31380000  1.0 0.60521418
C  C71  1  0.90890000  0.58420000  0.68620000  1.0 0.60521418
C  C72  1  0.59110000  0.41580000  0.18620000  1.0 0.60521418
C  C73  1  0.63830000  0.12130000  0.53710000  1.0 0.519532518
C  C74  1  0.86170000  0.87870000  0.03710000  1.0 0.519532518
C  C75  1  0.36170000  0.62130000  0.96290000  1.0 0.519532518
C  C76  1  0.13830000  0.37870000  0.46290000  1.0 0.519532518
C  C77  1  0.36170000  0.87870000  0.46290000  1.0 0.519532518
C  C78  1  0.13830000  0.12130000  0.96290000  1.0 0.519532518
C  C79  1  0.63830000  0.37870000  0.03710000  1.0 0.519532518
C  C80  1  0.86170000  0.62130000  0.53710000  1.0 0.519532518
C  C81  1  0.57540000  0.14270000  0.50330000  1.0 -0.0130658927
C  C82  1  0.92460000  0.85730000  0.00330000  1.0 -0.0130658927
C  C83  1  0.42460000  0.64270000  0.99670000  1.0 -0.0130658927
C  C84  1  0.07540000  0.35730000  0.49670000  1.0 -0.0130658927
C  C85  1  0.42460000  0.85730000  0.49670000  1.0 -0.0130658927
C  C86  1  0.07540000  0.14270000  0.99670000  1.0 -0.0130658927
C  C87  1  0.57540000  0.35730000  0.00330000  1.0 -0.0130658927
C  C88  1  0.92460000  0.64270000  0.50330000  1.0 -0.0130658927
C  C89  1  0.54160000  0.23790000  0.49680000  1.0 -0.0576964984
C  C90  1  0.95840000  0.76210000  0.99680000  1.0 -0.0576964984
C  C91  1  0.45840000  0.73790000  0.00320000  1.0 -0.0576964984
C  C92  1  0.04160000  0.26210000  0.50320000  1.0 -0.0576964984
C  C93  1  0.45840000  0.76210000  0.50320000  1.0 -0.0576964984
C  C94  1  0.04160000  0.23790000  0.00320000  1.0 -0.0576964984
C  C95  1  0.54160000  0.26210000  0.99680000  1.0 -0.0576964984
C  C96  1  0.95840000  0.73790000  0.49680000  1.0 -0.0576964984
C  C97  1  0.48400000  0.25830000  0.46710000  1.0 -0.0507811587
C  C98  1  0.01600000  0.74170000  0.96710000  1.0 -0.0507811587
C  C99  1  0.51600000  0.75830000  0.03290000  1.0 -0.0507811587
C  C100  1  0.98400000  0.24170000  0.53290000  1.0 -0.0507811587
C  C101  1  0.51600000  0.74170000  0.53290000  1.0 -0.0507811587
C  C102  1  0.98400000  0.25830000  0.03290000  1.0 -0.0507811587
C  C103  1  0.48400000  0.24170000  0.96710000  1.0 -0.0507811587
C  C104  1  0.01600000  0.75830000  0.46710000  1.0 -0.0507811587
C  C105  1  0.45000000  0.17820000  0.44390000  1.0 -0.0241283425
C  C106  1  0.05000000  0.82180000  0.94390000  1.0 -0.0241283425
C  C107  1  0.55000000  0.67820000  0.05610000  1.0 -0.0241283425
C  C108  1  0.95000000  0.32180000  0.55610000  1.0 -0.0241283425
C  C109  1  0.55000000  0.82180000  0.55610000  1.0 -0.0241283425
C  C110  1  0.95000000  0.17820000  0.05610000  1.0 -0.0241283425
C  C111  1  0.45000000  0.32180000  0.94390000  1.0 -0.0241283425
C  C112  1  0.05000000  0.67820000  0.44390000  1.0 -0.0241283425
C  C113  1  0.49870000  0.09570000  0.44310000  1.0 -0.1197211549
C  C114  1  0.00130000  0.90430000  0.94310000  1.0 -0.1197211549
C  C115  1  0.50130000  0.59570000  0.05690000  1.0 -0.1197211549
C  C116  1  0.99870000  0.40430000  0.55690000  1.0 -0.1197211549
C  C117  1  0.50130000  0.90430000  0.55690000  1.0 -0.1197211549
C  C118  1  0.99870000  0.09570000  0.05690000  1.0 -0.1197211549
C  C119  1  0.49870000  0.40430000  0.94310000  1.0 -0.1197211549
C  C120  1  0.00130000  0.59570000  0.44310000  1.0 -0.1197211549
C  C121  1  0.56080000  0.07920000  0.47330000  1.0 -0.1271798117
C  C122  1  0.93920000  0.92080000  0.97330000  1.0 -0.1271798117
C  C123  1  0.43920000  0.57920000  0.02670000  1.0 -0.1271798117
C  C124  1  0.06080000  0.42080000  0.52670000  1.0 -0.1271798117
C  C125  1  0.43920000  0.92080000  0.52670000  1.0 -0.1271798117
C  C126  1  0.06080000  0.07920000  0.02670000  1.0 -0.1271798117
C  C127  1  0.56080000  0.42080000  0.97330000  1.0 -0.1271798117
C  C128  1  0.93920000  0.57920000  0.47330000  1.0 -0.1271798117
C  C129  1  0.37820000  0.19380000  0.41330000  1.0 0.5491662561
C  C130  1  0.12180000  0.80620000  0.91330000  1.0 0.5491662561
C  C131  1  0.62180000  0.69380000  0.08670000  1.0 0.5491662561
C  C132  1  0.87820000  0.30620000  0.58670000  1.0 0.5491662561
C  C133  1  0.62180000  0.80620000  0.58670000  1.0 0.5491662561
C  C134  1  0.87820000  0.19380000  0.08670000  1.0 0.5491662561
C  C135  1  0.37820000  0.30620000  0.91330000  1.0 0.5491662561
C  C136  1  0.12180000  0.69380000  0.41330000  1.0 0.5491662561
C  C137  1  0.00800000  0.29500000  0.48880000  1.0 -0.0391497693
C  C138  1  0.49200000  0.70500000  0.98880000  1.0 -0.0391497693
C  C139  1  0.99200000  0.79500000  0.01120000  1.0 -0.0391497693
C  C140  1  0.50800000  0.20500000  0.51120000  1.0 -0.0391497693
C  C141  1  0.99200000  0.70500000  0.51120000  1.0 -0.0391497693
C  C142  1  0.50800000  0.29500000  0.01120000  1.0 -0.0391497693
C  C143  1  0.00800000  0.20500000  0.98880000  1.0 -0.0391497693
C  C144  1  0.49200000  0.79500000  0.48880000  1.0 -0.0391497693
C  C145  1  0.94800000  0.26950000  0.51960000  1.0 -0.0391497693
C  C146  1  0.55200000  0.73050000  0.01960000  1.0 -0.0391497693
C  C147  1  0.05200000  0.76950000  0.98040000  1.0 -0.0391497693
C  C148  1  0.44800000  0.23050000  0.48040000  1.0 -0.0391497693
C  C149  1  0.05200000  0.73050000  0.48040000  1.0 -0.0391497693
C  C150  1  0.44800000  0.26950000  0.98040000  1.0 -0.0391497693
C  C151  1  0.94800000  0.23050000  0.01960000  1.0 -0.0391497693
C  C152  1  0.55200000  0.76950000  0.51960000  1.0 -0.0391497693
O  O1  1  0.20340000  0.00660000  0.29317000  1.0 -0.3654754098
O  O2  1  0.29660000  0.99340000  0.79317000  1.0 -0.3631258145
O  O3  1  0.79660000  0.50660000  0.20683000  1.0 -0.3654754098
O  O4  1  0.70340000  0.49340000  0.70683000  1.0 -0.3654754098
O  O5  1  0.79660000  0.99340000  0.70683000  1.0 -0.3654754098
O  O6  1  0.70340000  0.00660000  0.20683000  1.0 -0.3654754098
O  O7  1  0.20340000  0.49340000  0.79317000  1.0 -0.3631258145
O  O8  1  0.29660000  0.50660000  0.29317000  1.0 -0.3654754098
O  O9  1  0.07640000  0.04680000  0.31890000  1.0 -0.411246641
O  O10  1  0.42360000  0.95320000  0.81890000  1.0 -0.411246641
O  O11  1  0.92360000  0.54680000  0.18110000  1.0 -0.411246641
O  O12  1  0.57640000  0.45320000  0.68110000  1.0 -0.4155472056
O  O13  1  0.92360000  0.95320000  0.68110000  1.0 -0.4155472056
O  O14  1  0.57640000  0.04680000  0.18110000  1.0 -0.411246641
O  O15  1  0.07640000  0.45320000  0.81890000  1.0 -0.411246641
O  O16  1  0.42360000  0.54680000  0.31890000  1.0 -0.411246641
O  O17  1  0.19220000  0.68960000  0.29559000  1.0 -0.6321062096
O  O18  1  0.30780000  0.31040000  0.79559000  1.0 -0.6321062096
O  O19  1  0.80780000  0.18960000  0.20441000  1.0 -0.6321062096
O  O20  1  0.69220000  0.81040000  0.70441000  1.0 -0.6321062096
O  O21  1  0.80780000  0.31040000  0.70441000  1.0 -0.6321062096
O  O22  1  0.69220000  0.68960000  0.20441000  1.0 -0.6321062096
O  O23  1  0.19220000  0.81040000  0.79559000  1.0 -0.6321062096
O  O24  1  0.30780000  0.18960000  0.29559000  1.0 -0.6321062096
O  O25  1  0.17710000  0.82550000  0.33387000  1.0 -0.5765420221
O  O26  1  0.32290000  0.17450000  0.83387000  1.0 -0.5765420221
O  O27  1  0.82290000  0.32550000  0.16613000  1.0 -0.5765420221
O  O28  1  0.67710000  0.67450000  0.66613000  1.0 -0.5765420221
O  O29  1  0.82290000  0.17450000  0.66613000  1.0 -0.5765420221
O  O30  1  0.67710000  0.82550000  0.16613000  1.0 -0.5765420221
O  O31  1  0.17710000  0.67450000  0.83387000  1.0 -0.5765420221
O  O32  1  0.32290000  0.32550000  0.33387000  1.0 -0.5765420221
O  O33  1  0.87730000  0.85100000  0.16380000  1.0 -0.5592404664
O  O34  1  0.62270000  0.14900000  0.66380000  1.0 -0.5592404664
O  O35  1  0.12270000  0.35100000  0.33620000  1.0 -0.5592404664
O  O36  1  0.37730000  0.64900000  0.83620000  1.0 -0.5592404664
O  O37  1  0.12270000  0.14900000  0.83620000  1.0 -0.5592404664
O  O38  1  0.37730000  0.85100000  0.33620000  1.0 -0.5592404664
O  O39  1  0.87730000  0.64900000  0.66380000  1.0 -0.5592404664
O  O40  1  0.62270000  0.35100000  0.16380000  1.0 -0.5592404664
O  O41  1  0.88720000  0.00380000  0.18701000  1.0 -0.6321062096
O  O42  1  0.61280000  0.99620000  0.68701000  1.0 -0.6321062096
O  O43  1  0.11280000  0.50380000  0.31299000  1.0 -0.6321062096
O  O44  1  0.38720000  0.49620000  0.81299000  1.0 -0.6321062096
O  O45  1  0.11280000  0.99620000  0.81299000  1.0 -0.6321062096
O  O46  1  0.38720000  0.00380000  0.31299000  1.0 -0.6321062096
O  O47  1  0.88720000  0.49620000  0.68701000  1.0 -0.6321062096
O  O48  1  0.61280000  0.50380000  0.18701000  1.0 -0.6321062096
O  O49  1  0.63610000  0.17940000  0.56750000  1.0 -0.5765420221
O  O50  1  0.86390000  0.82060000  0.06750000  1.0 -0.5765420221
O  O51  1  0.36390000  0.67940000  0.93250000  1.0 -0.5765420221
O  O52  1  0.13610000  0.32060000  0.43250000  1.0 -0.5765420221
O  O53  1  0.36390000  0.82060000  0.43250000  1.0 -0.5765420221
O  O54  1  0.13610000  0.17940000  0.93250000  1.0 -0.5765420221
O  O55  1  0.63610000  0.32060000  0.06750000  1.0 -0.5765420221
O  O56  1  0.86390000  0.67940000  0.56750000  1.0 -0.5765420221
O  O57  1  0.68560000  0.04760000  0.53500000  1.0 -0.5048328773
O  O58  1  0.81440000  0.95240000  0.03500000  1.0 -0.5048328773
O  O59  1  0.31440000  0.54760000  0.96500000  1.0 -0.5060842619
O  O60  1  0.18560000  0.45240000  0.46500000  1.0 -0.5060842619
O  O61  1  0.31440000  0.95240000  0.46500000  1.0 -0.5060842619
O  O62  1  0.18560000  0.04760000  0.96500000  1.0 -0.5060842619
O  O63  1  0.68560000  0.45240000  0.03500000  1.0 -0.5048328773
O  O64  1  0.81440000  0.54760000  0.53500000  1.0 -0.5048328773
O  O65  1  0.32630000  0.26380000  0.42059000  1.0 -0.5430198074
O  O66  1  0.17370000  0.73620000  0.92059000  1.0 -0.5430198074
O  O67  1  0.67370000  0.76380000  0.07941000  1.0 -0.5430198074
O  O68  1  0.82630000  0.23620000  0.57941000  1.0 -0.5430198074
O  O69  1  0.67370000  0.73620000  0.57941000  1.0 -0.5430198074
O  O70  1  0.82630000  0.26380000  0.07941000  1.0 -0.5430198074
O  O71  1  0.32630000  0.23620000  0.92059000  1.0 -0.5430198074
O  O72  1  0.17370000  0.76380000  0.42059000  1.0 -0.5430198074
O  O73  1  0.37710000  0.13700000  0.38256000  1.0 -0.5700167329
O  O74  1  0.12290000  0.86300000  0.88256000  1.0 -0.5700167329
O  O75  1  0.62290000  0.63700000  0.11744000  1.0 -0.5700167329
O  O76  1  0.87710000  0.36300000  0.61744000  1.0 -0.5700167329
O  O77  1  0.62290000  0.86300000  0.61744000  1.0 -0.5700167329
O  O78  1  0.87710000  0.13700000  0.11744000  1.0 -0.5700167329
O  O79  1  0.37710000  0.36300000  0.88256000  1.0 -0.5700167329
O  O80  1  0.12290000  0.63700000  0.38256000  1.0 -0.5700167329
O  O81  1  0.18780000  0.17260000  0.36870000  1.0 -0.8994210646
O  O82  1  0.31220000  0.82740000  0.86870000  1.0 -0.8994210646
O  O83  1  0.81220000  0.67260000  0.13130000  1.0 -0.8994210646
O  O84  1  0.68780000  0.32740000  0.63130000  1.0 -0.8994210646
O  O85  1  0.81220000  0.82740000  0.63130000  1.0 -0.8994210646
O  O86  1  0.68780000  0.17260000  0.13130000  1.0 -0.8994210646
O  O87  1  0.18780000  0.32740000  0.86870000  1.0 -0.8994210646
O  O88  1  0.31220000  0.67260000  0.36870000  1.0 -0.8994210646
O  O89  1  0.25030000  0.96890000  0.38647000  1.0 -0.8994210646
O  O90  1  0.24970000  0.03110000  0.88647000  1.0 -0.8994210646
O  O91  1  0.74970000  0.46890000  0.11353000  1.0 -0.8994210646
O  O92  1  0.75030000  0.53110000  0.61353000  1.0 -0.8994210646
O  O93  1  0.74970000  0.03110000  0.61353000  1.0 -0.8994210646
O  O94  1  0.75030000  0.96890000  0.11353000  1.0 -0.8994210646
O  O95  1  0.25030000  0.53110000  0.88647000  1.0 -0.8994210646
O  O96  1  0.24970000  0.46890000  0.38647000  1.0 -0.8994210646
