# DDEC6 charges by PACMAN v1.1 (https://github.com/mtap-research/PACMAN-charge/)
data_GUSNEN_FSR_pacman
_symmetry_space_group_name_H-M   'P 1'
_cell_length_a   10.59610000
_cell_length_b   10.59610000
_cell_length_c   6.78200000
_cell_angle_alpha   76.18150000
_cell_angle_beta   103.81800000
_cell_angle_gamma   136.52300000
_symmetry_Int_Tables_number   1
_chemical_formula_structural   CrC8O5
_chemical_formula_sum   'Cr2 C16 O10'
_cell_volume   506.31984736
_cell_formula_units_Z   2
loop_
 _symmetry_equiv_pos_site_id
 _symmetry_equiv_pos_as_xyz
  1  'x, y, z'
loop_
 _atom_site_type_symbol
 _atom_site_label
 _atom_site_symmetry_multiplicity
 _atom_site_fract_x
 _atom_site_fract_y
 _atom_site_fract_z
 _atom_site_occupancy
 _atom_site_charge
Cr  Cr1  1  0.00000000  0.00000000  0.00000000  1.0 1.6214865157
Cr  Cr2  1  0.00000000  0.00000000  0.50000000  1.0 1.6214865157
C  C1  1  0.92100000  0.69900000  0.33000000  1.0 0.6312230537
C  C2  1  0.69900000  0.92100000  0.17000000  1.0 0.6312230537
C  C3  1  0.07900000  0.30100000  0.67000000  1.0 0.6312230537
C  C4  1  0.30100000  0.07900000  0.83000000  1.0 0.6312230537
C  C5  1  0.90200000  0.50600000  0.61800000  1.0 0.0499767321
C  C6  1  0.50600000  0.90200000  0.88200000  1.0 0.0499767321
C  C7  1  0.09800000  0.49400000  0.38200000  1.0 0.0499767321
C  C8  1  0.49400000  0.09800000  0.11800000  1.0 0.0499767321
C  C9  1  0.04900000  0.59100000  0.29600000  1.0 0.0499767321
C  C10  1  0.59100000  0.04900000  0.20400000  1.0 0.0499767321
C  C11  1  0.95100000  0.40900000  0.70400000  1.0 0.0499767321
C  C12  1  0.40900000  0.95100000  0.79600000  1.0 0.0499767321
C  C13  1  0.97400000  0.60600000  0.42100000  1.0 -0.0942538334
C  C14  1  0.60600000  0.97400000  0.07900000  1.0 -0.0942538334
C  C15  1  0.02600000  0.39400000  0.57900000  1.0 -0.0942538334
C  C16  1  0.39400000  0.02600000  0.92100000  1.0 -0.0942538334
O  O1  1  0.11300000  0.11300000  0.25000000  1.0 -0.916397064
O  O2  1  0.88700000  0.88700000  0.75000000  1.0 -0.916397064
O  O3  1  0.90200000  0.76600000  0.44500000  1.0 -0.5137705198
O  O4  1  0.76600000  0.90200000  0.05500000  1.0 -0.5137705198
O  O5  1  0.09800000  0.23400000  0.55500000  1.0 -0.5137705198
O  O6  1  0.23400000  0.09800000  0.94500000  1.0 -0.5137705198
O  O7  1  0.94600000  0.77200000  0.15200000  1.0 -0.4764205506
O  O8  1  0.77200000  0.94600000  0.34800000  1.0 -0.4764205506
O  O9  1  0.05400000  0.22800000  0.84800000  1.0 -0.4749732306
O  O10  1  0.22800000  0.05400000  0.65200000  1.0 -0.4749732306
