# DDEC6 charges by PACMAN v1.1 (https://github.com/mtap-research/PACMAN-charge/)
data_GUVBEF_ASR_pacman
_symmetry_space_group_name_H-M   'P 1'
_cell_length_a   13.20000000
_cell_length_b   13.20000000
_cell_length_c   13.20000000
_cell_angle_alpha   99.52580000
_cell_angle_beta   99.52580000
_cell_angle_gamma   131.99100000
_symmetry_Int_Tables_number   1
_chemical_formula_structural   Ni3P4(WO7)4
_chemical_formula_sum   'Ni6 P8 W8 O56'
_cell_volume   1561.60916142
_cell_formula_units_Z   2
loop_
 _symmetry_equiv_pos_site_id
 _symmetry_equiv_pos_as_xyz
  1  'x, y, z'
loop_
 _atom_site_type_symbol
 _atom_site_label
 _atom_site_symmetry_multiplicity
 _atom_site_fract_x
 _atom_site_fract_y
 _atom_site_fract_z
 _atom_site_occupancy
 _atom_site_charge
Ni  Ni1  1  0.75000000  0.25000000  0.50000000  1.0 1.1833191399
Ni  Ni2  1  0.50000000  0.50000000  0.00000000  1.0 1.1621265893
Ni  Ni3  1  0.12500000  0.87500000  0.25000000  1.0 1.3000320677
Ni  Ni4  1  0.62500000  0.87500000  0.75000000  1.0 1.2917453532
Ni  Ni5  1  0.12500000  0.87500000  0.75000000  1.0 1.3000320677
Ni  Ni6  1  0.12500000  0.37500000  0.25000000  1.0 1.2917453532
P  P1  1  0.43642000  0.15417000  0.44819000  1.0 1.4920080637
P  P2  1  0.70598000  0.98823000  0.55181000  1.0 1.4920080637
P  P3  1  0.23823000  0.18642000  0.78225000  1.0 1.4920080637
P  P4  1  0.40417000  0.45598000  0.21775000  1.0 1.4920080637
P  P5  1  0.81358000  0.59583000  0.05181000  1.0 1.4920080637
P  P6  1  0.54402000  0.76177000  0.94819000  1.0 1.4920080637
P  P7  1  0.01177000  0.56358000  0.71775000  1.0 1.4920080637
P  P8  1  0.84583000  0.29402000  0.28225000  1.0 1.4920080637
W  W1  1  0.15653000  0.00978000  0.52951000  1.0 2.3691108708
W  W2  1  0.48027000  0.62702000  0.47049000  1.0 2.3691108708
W  W3  1  0.87702000  0.90653000  0.64675000  1.0 2.3691108708
W  W4  1  0.25978000  0.23027000  0.35325000  1.0 2.3691108708
W  W5  1  0.09347000  0.74022000  0.97049000  1.0 2.3691108708
W  W6  1  0.76973000  0.12298000  0.02951000  1.0 2.3576459174
W  W7  1  0.37298000  0.84347000  0.85325000  1.0 2.3691108708
W  W8  1  0.99022000  0.51973000  0.14675000  1.0 2.3576459174
O  O1  1  0.15980000  0.91410000  0.60790000  1.0 -0.6993913877
O  O2  1  0.30620000  0.55190000  0.39210000  1.0 -0.6993913877
O  O3  1  0.80190000  0.90980000  0.74570000  1.0 -0.6993913877
O  O4  1  0.16410000  0.05620000  0.25430000  1.0 -0.6993913877
O  O5  1  0.09020000  0.83590000  0.89210000  1.0 -0.6993913877
O  O6  1  0.94380000  0.19810000  0.10790000  1.0 -0.6993913877
O  O7  1  0.44810000  0.84020000  0.75430000  1.0 -0.6993913877
O  O8  1  0.08590000  0.69380000  0.24570000  1.0 -0.6993913877
O  O9  1  0.20700000  0.17320000  0.46680000  1.0 -0.7368972938
O  O10  1  0.70640000  0.74020000  0.53320000  1.0 -0.7368972938
O  O11  1  0.99020000  0.95700000  0.53380000  1.0 -0.7368972938
O  O12  1  0.42320000  0.45640000  0.46620000  1.0 -0.7368972938
O  O13  1  0.04300000  0.57680000  0.03320000  1.0 -0.7368972938
O  O14  1  0.54360000  0.00980000  0.96680000  1.0 -0.7368972938
O  O15  1  0.25980000  0.79300000  0.96620000  1.0 -0.7368972938
O  O16  1  0.82680000  0.29360000  0.03380000  1.0 -0.7368972938
O  O17  1  0.08290000  0.89020000  0.39330000  1.0 -0.6914102252
O  O18  1  0.49690000  0.68960000  0.60670000  1.0 -0.6914102252
O  O19  1  0.93960000  0.83290000  0.69270000  1.0 -0.6914102252
O  O20  1  0.14020000  0.24690000  0.30730000  1.0 -0.6914102252
O  O21  1  0.16710000  0.85980000  0.10670000  1.0 -0.6914102252
O  O22  1  0.75310000  0.06040000  0.89330000  1.0 -0.6914102252
O  O23  1  0.31040000  0.91710000  0.80730000  1.0 -0.6914102252
O  O24  1  0.10980000  0.50310000  0.19270000  1.0 -0.6914102252
O  O25  1  0.36620000  0.11840000  0.53740000  1.0 -0.6612653735
O  O26  1  0.58100000  0.82880000  0.46260000  1.0 -0.6612653735
O  O27  1  0.07880000  0.11620000  0.74780000  1.0 -0.6612653735
O  O28  1  0.36840000  0.33100000  0.25220000  1.0 -0.6612653735
O  O29  1  0.88380000  0.63160000  0.96260000  1.0 -0.6612653735
O  O30  1  0.66900000  0.92120000  0.03740000  1.0 -0.6612653735
O  O31  1  0.17120000  0.63380000  0.75220000  1.0 -0.6612653735
O  O32  1  0.88160000  0.41900000  0.24780000  1.0 -0.6612653735
O  O33  1  0.34820000  0.01560000  0.34760000  1.0 -0.6993913877
O  O34  1  0.66800000  0.00060000  0.65240000  1.0 -0.6993913877
O  O35  1  0.25060000  0.09820000  0.83260000  1.0 -0.6993913877
O  O36  1  0.26560000  0.41800000  0.16740000  1.0 -0.6993913877
O  O37  1  0.90180000  0.73440000  0.15240000  1.0 -0.6993913877
O  O38  1  0.58200000  0.74940000  0.84760000  1.0 -0.6993913877
O  O39  1  0.99940000  0.65180000  0.66740000  1.0 -0.6993913877
O  O40  1  0.98440000  0.33200000  0.33260000  1.0 -0.6993913877
O  O41  1  0.44180000  0.26460000  0.41420000  1.0 -0.6612653735
O  O42  1  0.85040000  0.02760000  0.58580000  1.0 -0.6612653735
O  O43  1  0.27760000  0.19180000  0.67720000  1.0 -0.6612653735
O  O44  1  0.51460000  0.60040000  0.32280000  1.0 -0.6612653735
O  O45  1  0.80820000  0.48540000  0.08580000  1.0 -0.6612653735
O  O46  1  0.39960000  0.72240000  0.91420000  1.0 -0.6612653735
O  O47  1  0.97240000  0.55820000  0.82280000  1.0 -0.6612653735
O  O48  1  0.73540000  0.14960000  0.17720000  1.0 -0.6612653735
O  O49  1  0.59330000  0.23070000  0.50560000  1.0 -0.6497567262
O  O50  1  0.72510000  0.08770000  0.49440000  1.0 -0.6497567262
O  O51  1  0.33770000  0.34330000  0.86260000  1.0 -0.6497567262
O  O52  1  0.48070000  0.47510000  0.13740000  1.0 -0.6497567262
O  O53  1  0.65670000  0.51930000  0.99440000  1.0 -0.6497567262
O  O54  1  0.52490000  0.66230000  0.00560000  1.0 -0.6497567262
O  O55  1  0.91230000  0.40670000  0.63740000  1.0 -0.6497567262
O  O56  1  0.76930000  0.27490000  0.36260000  1.0 -0.6497567262
