# DDEC6 charges by PACMAN v1.1 (https://github.com/mtap-research/PACMAN-charge/)
data_GUVCOP_ion_pacman
_symmetry_space_group_name_H-M   'P 1'
_cell_length_a   13.54640000
_cell_length_b   13.54640000
_cell_length_c   31.15000000
_cell_angle_alpha   74.26000000
_cell_angle_beta   105.74000000
_cell_angle_gamma   125.09600000
_symmetry_Int_Tables_number   1
_chemical_formula_structural   Cu5H48Pt3C42(N11O26)2
_chemical_formula_sum   'Cu10 H96 Pt6 C84 N44 O104'
_cell_volume   4453.03417424
_cell_formula_units_Z   2
loop_
 _symmetry_equiv_pos_site_id
 _symmetry_equiv_pos_as_xyz
  1  'x, y, z'
loop_
 _atom_site_type_symbol
 _atom_site_label
 _atom_site_symmetry_multiplicity
 _atom_site_fract_x
 _atom_site_fract_y
 _atom_site_fract_z
 _atom_site_occupancy
 _atom_site_charge
Cu  Cu1  1  0.50000000  0.50000000  0.50000000  1.0 1.0243736767
Cu  Cu2  1  0.50000000  0.50000000  0.00000000  1.0 1.0243736767
Cu  Cu3  1  0.65983000  0.73455000  0.54298000  1.0 1.0944125913
Cu  Cu4  1  0.73455000  0.65983000  0.95702000  1.0 1.0954573416
Cu  Cu5  1  0.34017000  0.26545000  0.45702000  1.0 1.0944125913
Cu  Cu6  1  0.26545000  0.34017000  0.04298000  1.0 1.0944125913
Cu  Cu7  1  0.52972000  0.72932000  0.42929000  1.0 1.1339322987
Cu  Cu8  1  0.72932000  0.52972000  0.07071000  1.0 1.1339322987
Cu  Cu9  1  0.47028000  0.27068000  0.57071000  1.0 1.1339322987
Cu  Cu10  1  0.27068000  0.47028000  0.92929000  1.0 1.1356827282
H  H1  1  0.13660000  0.67780000  0.68080000  1.0 0.2595358222
H  H2  1  0.67780000  0.13660000  0.81920000  1.0 0.2595358222
H  H3  1  0.86340000  0.32220000  0.31920000  1.0 0.2595358222
H  H4  1  0.32220000  0.86340000  0.18080000  1.0 0.2595358222
H  H5  1  0.12150000  0.78090000  0.66666667  1.0 0.2689133656
H  H6  1  0.78090000  0.12150000  0.83340000  1.0 0.2595358222
H  H7  1  0.87850000  0.21910000  0.33340000  1.0 0.2689133656
H  H8  1  0.21910000  0.87850000  0.16660000  1.0 0.2689133656
H  H9  1  0.40230000  0.00170000  0.61720000  1.0 0.2689133656
H  H10  1  0.00170000  0.40230000  0.88280000  1.0 0.2689133656
H  H11  1  0.59770000  0.99830000  0.38280000  1.0 0.2689133656
H  H12  1  0.99830000  0.59770000  0.11720000  1.0 0.2689133656
H  H13  1  0.44610000  0.92090000  0.63810000  1.0 0.2252010815
H  H14  1  0.92090000  0.44610000  0.86190000  1.0 0.2252010815
H  H15  1  0.55390000  0.07910000  0.36190000  1.0 0.2252010815
H  H16  1  0.07910000  0.55390000  0.13810000  1.0 0.2252010815
H  H17  1  0.81060000  0.94500000  0.18950000  1.0 0.2689133656
H  H18  1  0.94500000  0.81060000  0.31050000  1.0 0.2689133656
H  H19  1  0.18940000  0.05500000  0.81050000  1.0 0.2689133656
H  H20  1  0.05500000  0.18940000  0.68950000  1.0 0.2689133656
H  H21  1  0.88030000  0.89770000  0.18490000  1.0 0.2469593287
H  H22  1  0.89770000  0.88030000  0.31510000  1.0 0.2469593287
H  H23  1  0.11970000  0.10230000  0.81510000  1.0 0.2469593287
H  H24  1  0.10230000  0.11970000  0.68490000  1.0 0.2469593287
H  H25  1  0.32360000  0.78280000  0.71520000  1.0 0.1311914669
H  H26  1  0.78280000  0.32360000  0.78480000  1.0 0.1311914669
H  H27  1  0.67640000  0.21720000  0.28480000  1.0 0.1311914669
H  H28  1  0.21720000  0.67640000  0.21520000  1.0 0.1311914669
H  H29  1  0.26710000  0.84710000  0.72440000  1.0 0.1376787387
H  H30  1  0.84710000  0.26710000  0.77560000  1.0 0.1376787387
H  H31  1  0.73290000  0.15290000  0.27560000  1.0 0.1376787387
H  H32  1  0.15290000  0.73290000  0.22440000  1.0 0.1376787387
H  H33  1  0.35580000  0.00000000  0.67760000  1.0 0.1376787387
H  H34  1  0.00000000  0.35580000  0.82240000  1.0 0.1376787387
H  H35  1  0.64420000  0.00000000  0.32240000  1.0 0.1376787387
H  H36  1  0.00000000  0.64420000  0.17760000  1.0 0.1376787387
H  H37  1  0.45340000  0.96640000  0.69980000  1.0 0.1311914669
H  H38  1  0.96640000  0.45340000  0.80020000  1.0 0.1311914669
H  H39  1  0.54660000  0.03360000  0.30020000  1.0 0.1311914669
H  H40  1  0.03360000  0.54660000  0.19980000  1.0 0.1311914669
H  H41  1  0.96420000  0.71260000  0.58690000  1.0 0.1205953676
H  H42  1  0.71260000  0.96420000  0.91310000  1.0 0.1205953676
H  H43  1  0.03580000  0.28740000  0.41310000  1.0 0.1205953676
H  H44  1  0.28740000  0.03580000  0.08690000  1.0 0.1205953676
H  H45  1  0.76430000  0.39590000  0.53970000  1.0 0.1376787387
H  H46  1  0.39590000  0.76430000  0.96030000  1.0 0.1376787387
H  H47  1  0.23570000  0.60410000  0.46030000  1.0 0.1376787387
H  H48  1  0.60410000  0.23570000  0.03970000  1.0 0.1376787387
H  H49  1  0.93680000  0.38720000  0.55790000  1.0 0.1376787387
H  H50  1  0.38720000  0.93680000  0.94210000  1.0 0.1376787387
H  H51  1  0.06320000  0.61280000  0.44210000  1.0 0.1376787387
H  H52  1  0.61280000  0.06320000  0.05790000  1.0 0.1376787387
H  H53  1  0.12120000  0.54880000  0.58150000  1.0 0.1105844994
H  H54  1  0.54880000  0.12120000  0.91850000  1.0 0.1105844994
H  H55  1  0.87880000  0.45120000  0.41850000  1.0 0.1105844994
H  H56  1  0.45120000  0.87880000  0.08150000  1.0 0.1105844994
H  H57  1  0.41040000  0.79660000  0.57000000  1.0 0.1105844994
H  H58  1  0.79660000  0.41040000  0.93000000  1.0 0.1105844994
H  H59  1  0.58960000  0.20340000  0.43000000  1.0 0.1105844994
H  H60  1  0.20340000  0.58960000  0.07000000  1.0 0.1105844994
H  H61  1  0.36150000  0.89630000  0.43640000  1.0 0.1311914669
H  H62  1  0.89630000  0.36150000  0.06360000  1.0 0.1311914669
H  H63  1  0.63850000  0.10370000  0.56360000  1.0 0.1311914669
H  H64  1  0.10370000  0.63850000  0.93640000  1.0 0.1311914669
H  H65  1  0.21300000  0.91880000  0.44730000  1.0 0.1311914669
H  H66  1  0.91880000  0.21300000  0.05270000  1.0 0.1311914669
H  H67  1  0.78700000  0.08120000  0.55270000  1.0 0.1311914669
H  H68  1  0.08120000  0.78700000  0.94730000  1.0 0.1311914669
H  H69  1  0.16760000  0.87680000  0.51810000  1.0 0.1105844994
H  H70  1  0.87680000  0.16760000  0.98190000  1.0 0.1105844994
H  H71  1  0.83240000  0.12320000  0.48190000  1.0 0.1105844994
H  H72  1  0.12320000  0.83240000  0.01810000  1.0 0.1105844994
H  H73  1  0.95130000  0.06550000  0.23710000  1.0 0.1311914669
H  H74  1  0.06550000  0.95130000  0.26290000  1.0 0.1311914669
H  H75  1  0.04870000  0.93450000  0.76290000  1.0 0.1311914669
H  H76  1  0.93450000  0.04870000  0.73710000  1.0 0.1311914669
H  H77  1  0.03460000  0.06160000  0.21230000  1.0 0.1311914669
H  H78  1  0.06160000  0.03460000  0.28770000  1.0 0.1311914669
H  H79  1  0.96540000  0.93840000  0.78770000  1.0 0.1311914669
H  H80  1  0.93840000  0.96540000  0.71230000  1.0 0.1311914669
H  H81  1  0.66190000  0.71050000  0.33240000  1.0 0.1311914669
H  H82  1  0.71050000  0.66190000  0.16760000  1.0 0.1311914669
H  H83  1  0.33810000  0.28950000  0.66760000  1.0 0.1311914669
H  H84  1  0.28950000  0.33810000  0.83240000  1.0 0.1311914669
H  H85  1  0.54510000  0.36430000  0.38640000  1.0 0.1311914669
H  H86  1  0.36430000  0.54510000  0.11360000  1.0 0.1311914669
H  H87  1  0.45490000  0.63570000  0.61360000  1.0 0.1311914669
H  H88  1  0.63570000  0.45490000  0.88640000  1.0 0.1311914669
H  H89  1  0.60250000  0.34570000  0.32890000  1.0 0.1311914669
H  H90  1  0.34570000  0.60250000  0.17110000  1.0 0.1311914669
H  H91  1  0.39750000  0.65430000  0.67110000  1.0 0.1311914669
H  H92  1  0.65430000  0.39750000  0.82890000  1.0 0.1311914669
H  H93  1  0.69920000  0.51080000  0.27560000  1.0 0.1205953676
H  H94  1  0.51080000  0.69920000  0.22440000  1.0 0.1205953676
H  H95  1  0.30080000  0.48920000  0.72440000  1.0 0.1205953676
H  H96  1  0.48920000  0.30080000  0.77560000  1.0 0.1205953676
Pt  Pt1  1  0.22535000  0.78969000  0.60971000  1.0 0.2595358222
Pt  Pt2  1  0.78969000  0.22535000  0.89029000  1.0 0.2595358222
Pt  Pt3  1  0.77465000  0.21031000  0.39029000  1.0 0.2595358222
Pt  Pt4  1  0.21031000  0.77465000  0.10971000  1.0 0.2595358222
Pt  Pt5  1  0.76883000  0.76883000  0.25000000  1.0 0.2988323383
Pt  Pt6  1  0.23117000  0.23117000  0.75000000  1.0 0.2988323383
C  C1  1  0.28870000  0.83130000  0.70080000  1.0 -0.0487986885
C  C2  1  0.83130000  0.28870000  0.79920000  1.0 -0.0487986885
C  C3  1  0.71130000  0.16870000  0.29920000  1.0 -0.0487986885
C  C4  1  0.16870000  0.71130000  0.20080000  1.0 -0.0487986885
C  C5  1  0.37490000  0.93910000  0.68070000  1.0 -0.0487986885
C  C6  1  0.93910000  0.37490000  0.81930000  1.0 -0.0487986885
C  C7  1  0.62510000  0.06090000  0.31930000  1.0 -0.0487986885
C  C8  1  0.06090000  0.62510000  0.18070000  1.0 -0.0487986885
C  C9  1  0.96020000  0.64840000  0.57920000  1.0 0.0791958049
C  C10  1  0.64840000  0.96020000  0.92080000  1.0 0.0791958049
C  C11  1  0.03980000  0.35160000  0.42080000  1.0 0.0791958049
C  C12  1  0.35160000  0.03980000  0.07920000  1.0 0.0791958049
C  C13  1  0.84830000  0.55590000  0.56150000  1.0 -0.031881392
C  C14  1  0.55590000  0.84830000  0.93850000  1.0 -0.031881392
C  C15  1  0.15170000  0.44410000  0.43850000  1.0 -0.031881392
C  C16  1  0.44410000  0.15170000  0.06150000  1.0 -0.031881392
C  C17  1  0.83840000  0.45860000  0.55220000  1.0 -0.0214718814
C  C18  1  0.45860000  0.83840000  0.94780000  1.0 -0.0214718814
C  C19  1  0.16160000  0.54140000  0.44780000  1.0 -0.0214718814
C  C20  1  0.54140000  0.16160000  0.05220000  1.0 -0.0214718814
C  C21  1  0.94200000  0.45580000  0.56180000  1.0 -0.0905759548
C  C22  1  0.45580000  0.94200000  0.93820000  1.0 -0.0905759548
C  C23  1  0.05800000  0.54420000  0.43820000  1.0 -0.0905759548
C  C24  1  0.54420000  0.05800000  0.06180000  1.0 -0.0905759548
C  C25  1  0.05150000  0.55090000  0.57700000  1.0 0.0346312337
C  C26  1  0.55090000  0.05150000  0.92300000  1.0 0.0346312337
C  C27  1  0.94850000  0.44910000  0.42300000  1.0 0.0346312337
C  C28  1  0.44910000  0.94850000  0.07700000  1.0 0.0346312337
C  C29  1  0.74070000  0.56910000  0.55160000  1.0 0.6159460806
C  C30  1  0.56910000  0.74070000  0.94840000  1.0 0.6159460806
C  C31  1  0.25930000  0.43090000  0.44840000  1.0 0.6159460806
C  C32  1  0.43090000  0.25930000  0.05160000  1.0 0.6159460806
C  C33  1  0.36880000  0.81940000  0.54460000  1.0 -0.0214718814
C  C34  1  0.81940000  0.36880000  0.95540000  1.0 -0.0214718814
C  C35  1  0.63120000  0.18060000  0.45540000  1.0 -0.0214718814
C  C36  1  0.18060000  0.63120000  0.04460000  1.0 -0.0214718814
C  C37  1  0.39890000  0.83850000  0.50210000  1.0 -0.0487986885
C  C38  1  0.83850000  0.39890000  0.99790000  1.0 -0.0487986885
C  C39  1  0.60110000  0.16150000  0.49790000  1.0 -0.0487986885
C  C40  1  0.16150000  0.60110000  0.00210000  1.0 -0.0487986885
C  C41  1  0.34170000  0.87890000  0.46500000  1.0 -0.0487986885
C  C42  1  0.87890000  0.34170000  0.03500000  1.0 -0.0487986885
C  C43  1  0.65830000  0.12110000  0.53500000  1.0 -0.0487986885
C  C44  1  0.12110000  0.65830000  0.96500000  1.0 -0.0487986885
C  C45  1  0.25430000  0.89270000  0.47160000  1.0 -0.1120940065
C  C46  1  0.89270000  0.25430000  0.02840000  1.0 -0.1120940065
C  C47  1  0.74570000  0.10730000  0.52840000  1.0 -0.1120940065
C  C48  1  0.10730000  0.74570000  0.97160000  1.0 -0.1120940065
C  C49  1  0.22790000  0.86770000  0.51460000  1.0 0.0970099084
C  C50  1  0.86770000  0.22790000  0.98540000  1.0 0.0970099084
C  C51  1  0.77210000  0.13230000  0.48540000  1.0 0.0970099084
C  C52  1  0.13230000  0.77210000  0.01460000  1.0 0.0970099084
C  C53  1  0.48650000  0.80770000  0.49890000  1.0 0.5681479983
C  C54  1  0.80770000  0.48650000  0.00110000  1.0 0.5681479983
C  C55  1  0.51350000  0.19230000  0.50110000  1.0 0.5681479983
C  C56  1  0.19230000  0.51350000  0.99890000  1.0 0.5681479983
C  C57  1  0.97040000  0.01240000  0.23110000  1.0 -0.0684710294
C  C58  1  0.01240000  0.97040000  0.26890000  1.0 -0.0684710294
C  C59  1  0.02960000  0.98760000  0.76890000  1.0 -0.0684710294
C  C60  1  0.98760000  0.02960000  0.73110000  1.0 -0.0684710294
C  C61  1  0.64860000  0.63560000  0.33150000  1.0 0.0476623569
C  C62  1  0.63560000  0.64860000  0.16850000  1.0 0.0476623569
C  C63  1  0.35140000  0.36440000  0.66850000  1.0 0.0476623569
C  C64  1  0.36440000  0.35140000  0.83150000  1.0 0.0476623569
C  C65  1  0.59250000  0.53990000  0.36370000  1.0 -0.0214718814
C  C66  1  0.53990000  0.59250000  0.13630000  1.0 -0.0214718814
C  C67  1  0.40750000  0.46010000  0.63630000  1.0 -0.0214718814
C  C68  1  0.46010000  0.40750000  0.86370000  1.0 -0.0214718814
C  C69  1  0.57890000  0.42950000  0.36360000  1.0 -0.031881392
C  C70  1  0.42950000  0.57890000  0.13640000  1.0 -0.031881392
C  C71  1  0.42110000  0.57050000  0.63640000  1.0 -0.031881392
C  C72  1  0.57050000  0.42110000  0.86360000  1.0 -0.031881392
C  C73  1  0.61460000  0.41940000  0.33030000  1.0 -0.1120940065
C  C74  1  0.41940000  0.61460000  0.16970000  1.0 -0.1120940065
C  C75  1  0.38540000  0.58060000  0.66970000  1.0 -0.1120940065
C  C76  1  0.58060000  0.38540000  0.83030000  1.0 -0.1120940065
C  C77  1  0.67140000  0.51860000  0.29800000  1.0 0.0685748868
C  C78  1  0.51860000  0.67140000  0.20200000  1.0 0.0685748868
C  C79  1  0.32860000  0.48140000  0.70200000  1.0 0.0685748868
C  C80  1  0.48140000  0.32860000  0.79800000  1.0 0.0685748868
C  C81  1  0.55130000  0.55450000  0.40030000  1.0 0.6137048565
C  C82  1  0.55450000  0.55130000  0.09970000  1.0 0.6137048565
C  C83  1  0.44870000  0.44550000  0.59970000  1.0 0.6137048565
C  C84  1  0.44550000  0.44870000  0.90030000  1.0 0.6137048565
N  N1  1  0.17360000  0.75760000  0.66970000  1.0 -0.3691828025
N  N2  1  0.75760000  0.17360000  0.83030000  1.0 -0.3691828025
N  N3  1  0.82640000  0.24240000  0.33030000  1.0 -0.3691828025
N  N4  1  0.24240000  0.82640000  0.16970000  1.0 -0.3691828025
N  N5  1  0.38510000  0.93170000  0.63570000  1.0 -0.3691828025
N  N6  1  0.93170000  0.38510000  0.86430000  1.0 -0.3691828025
N  N7  1  0.61490000  0.06830000  0.36430000  1.0 -0.3691828025
N  N8  1  0.06830000  0.61490000  0.13570000  1.0 -0.3691828025
N  N9  1  0.06080000  0.65000000  0.58570000  1.0 -0.1508014034
N  N10  1  0.65000000  0.06080000  0.91430000  1.0 -0.1508014034
N  N11  1  0.93920000  0.35000000  0.41430000  1.0 -0.1508014034
N  N12  1  0.35000000  0.93920000  0.08570000  1.0 -0.1508014034
N  N13  1  0.28140000  0.83280000  0.54990000  1.0 -0.140927527
N  N14  1  0.83280000  0.28140000  0.95010000  1.0 -0.140927527
N  N15  1  0.71860000  0.16720000  0.45010000  1.0 -0.140927527
N  N16  1  0.16720000  0.71860000  0.04990000  1.0 -0.140927527
N  N17  1  0.85840000  0.91680000  0.20470000  1.0 -0.3797332682
N  N18  1  0.91680000  0.85840000  0.29530000  1.0 -0.3797332682
N  N19  1  0.14160000  0.08320000  0.79530000  1.0 -0.3797332682
N  N20  1  0.08320000  0.14160000  0.70470000  1.0 -0.3797332682
N  N21  1  0.68510000  0.62350000  0.29840000  1.0 -0.1508014034
N  N22  1  0.62350000  0.68510000  0.20160000  1.0 -0.1508014034
N  N23  1  0.31490000  0.37650000  0.70160000  1.0 -0.1508014034
N  N24  1  0.37650000  0.31490000  0.79840000  1.0 -0.1508014034
N  N25  1  0.24700000  0.44100000  0.29080000  1.0 0.6785576008
N  N26  1  0.44100000  0.24700000  0.20920000  1.0 0.6785576008
N  N27  1  0.75300000  0.55900000  0.70920000  1.0 0.6785576008
N  N28  1  0.55900000  0.75300000  0.79080000  1.0 0.6785576008
N  N29  1  0.35840000  0.08160000  0.34780000  1.0 0.5203552507
N  N30  1  0.08160000  0.35840000  0.15220000  1.0 0.5203552507
N  N31  1  0.64160000  0.91840000  0.65220000  1.0 0.5203552507
N  N32  1  0.91840000  0.64160000  0.84780000  1.0 0.5203552507
N  N33  1  0.95670000  0.04050000  0.36640000  1.0 0.5412033908
N  N34  1  0.04050000  0.95670000  0.13360000  1.0 0.5412033908
N  N35  1  0.04330000  0.95950000  0.63360000  1.0 0.5412033908
N  N36  1  0.95950000  0.04330000  0.86640000  1.0 0.5412033908
N  N37  1  0.24250000  0.09670000  0.96010000  1.0 0.6370324158
N  N38  1  0.09670000  0.24250000  0.53990000  1.0 0.6370324158
N  N39  1  0.75750000  0.90330000  0.03990000  1.0 0.6370324158
N  N40  1  0.90330000  0.75750000  0.46010000  1.0 0.6370324158
N  N41  1  0.43800000  0.02000000  0.80120000  1.0 0.6630766504
N  N42  1  0.02000000  0.43800000  0.69880000  1.0 0.6630766504
N  N43  1  0.56200000  0.98000000  0.19880000  1.0 0.6630766504
N  N44  1  0.98000000  0.56200000  0.30120000  1.0 0.6630766504
O  O1  1  0.64210000  0.48750000  0.53260000  1.0 -0.5465026237
O  O2  1  0.48750000  0.64210000  0.96740000  1.0 -0.5465026237
O  O3  1  0.35790000  0.51250000  0.46740000  1.0 -0.5465026237
O  O4  1  0.51250000  0.35790000  0.03260000  1.0 -0.5465026237
O  O5  1  0.76040000  0.66320000  0.56190000  1.0 -0.4805191069
O  O6  1  0.66320000  0.76040000  0.93810000  1.0 -0.4805191069
O  O7  1  0.23960000  0.33680000  0.43810000  1.0 -0.4805191069
O  O8  1  0.33680000  0.23960000  0.06190000  1.0 -0.4742067791
O  O9  1  0.54440000  0.78460000  0.53310000  1.0 -0.4805191069
O  O10  1  0.78460000  0.54440000  0.96690000  1.0 -0.4805191069
O  O11  1  0.45560000  0.21540000  0.46690000  1.0 -0.4805191069
O  O12  1  0.21540000  0.45560000  0.03310000  1.0 -0.4805191069
O  O13  1  0.49070000  0.81070000  0.45790000  1.0 -0.5006281398
O  O14  1  0.81070000  0.49070000  0.04210000  1.0 -0.5006281398
O  O15  1  0.50930000  0.18930000  0.54210000  1.0 -0.5006281398
O  O16  1  0.18930000  0.50930000  0.95790000  1.0 -0.5006281398
O  O17  1  0.52000000  0.47520000  0.43280000  1.0 -0.5596860726
O  O18  1  0.47520000  0.52000000  0.06720000  1.0 -0.5596860726
O  O19  1  0.48000000  0.52480000  0.56720000  1.0 -0.5596860726
O  O20  1  0.52480000  0.48000000  0.93280000  1.0 -0.5596860726
O  O21  1  0.55760000  0.65360000  0.39370000  1.0 -0.4648042954
O  O22  1  0.65360000  0.55760000  0.10630000  1.0 -0.4648042954
O  O23  1  0.44240000  0.34640000  0.60630000  1.0 -0.4648042954
O  O24  1  0.34640000  0.44240000  0.89370000  1.0 -0.4648042954
O  O25  1  0.60750000  0.67650000  0.48480000  1.0 -0.867909018
O  O26  1  0.67650000  0.60750000  0.01520000  1.0 -0.867909018
O  O27  1  0.39250000  0.32350000  0.51520000  1.0 -0.867909018
O  O28  1  0.32350000  0.39250000  0.98480000  1.0 -0.867909018
O  O29  1  0.83300000  0.90960000  0.51020000  1.0 0.0109335417
O  O30  1  0.90960000  0.83300000  0.98980000  1.0 0.0109335417
O  O31  1  0.16700000  0.09040000  0.48980000  1.0 0.0198227372
O  O32  1  0.09040000  0.16700000  0.01020000  1.0 0.0109335417
O  O33  1  0.72330000  0.79430000  0.60160000  1.0 -0.5006281398
O  O34  1  0.79430000  0.72330000  0.89840000  1.0 -0.5006281398
O  O35  1  0.27670000  0.20570000  0.39840000  1.0 -0.5006281398
O  O36  1  0.20570000  0.27670000  0.10160000  1.0 -0.5006281398
O  O37  1  0.44310000  0.76990000  0.37380000  1.0 -0.5696743704
O  O38  1  0.76990000  0.44310000  0.12620000  1.0 -0.5696743704
O  O39  1  0.55690000  0.23010000  0.62620000  1.0 -0.5696743704
O  O40  1  0.23010000  0.55690000  0.87380000  1.0 -0.5696743704
O  O41  1  0.71330000  0.91190000  0.41790000  1.0 -0.2639155723
O  O42  1  0.91190000  0.71330000  0.08210000  1.0 -0.2639155723
O  O43  1  0.28670000  0.08810000  0.58210000  1.0 -0.2639155723
O  O44  1  0.08810000  0.28670000  0.91790000  1.0 -0.2672210551
O  O45  1  0.32100000  0.53300000  0.27310000  1.0 -0.3649725653
O  O46  1  0.20600000  0.43800000  0.32610000  1.0 -0.449681919
O  O47  1  0.22400000  0.32800000  0.27840000  1.0 -0.5596860726
O  O48  1  0.53300000  0.32100000  0.22690000  1.0 -0.3691828025
O  O49  1  0.43800000  0.20600000  0.17390000  1.0 -0.449681919
O  O50  1  0.32800000  0.22400000  0.22160000  1.0 -0.5696743704
O  O51  1  0.67900000  0.46700000  0.72690000  1.0 -0.3649725653
O  O52  1  0.79400000  0.56200000  0.67390000  1.0 -0.449681919
O  O53  1  0.77600000  0.67200000  0.72160000  1.0 -0.5596860726
O  O54  1  0.46700000  0.67900000  0.77310000  1.0 -0.3649725653
O  O55  1  0.56200000  0.79400000  0.82610000  1.0 -0.449681919
O  O56  1  0.67200000  0.77600000  0.77840000  1.0 -0.5596860726
O  O57  1  0.41850000  0.12890000  0.37250000  1.0 -0.0905759548
O  O58  1  0.37060000  0.03140000  0.32430000  1.0 -0.2672210551
O  O59  1  0.26100000  0.03100000  0.35280000  1.0 -0.0487986885
O  O60  1  0.12890000  0.41850000  0.12750000  1.0 -0.0905759548
O  O61  1  0.03140000  0.37060000  0.17570000  1.0 -0.2672210551
O  O62  1  0.03100000  0.26100000  0.14720000  1.0 -0.0487986885
O  O63  1  0.58150000  0.87110000  0.62750000  1.0 -0.0905759548
O  O64  1  0.62940000  0.96860000  0.67570000  1.0 -0.2672210551
O  O65  1  0.73900000  0.96900000  0.64720000  1.0 -0.0487986885
O  O66  1  0.87110000  0.58150000  0.87250000  1.0 -0.0905759548
O  O67  1  0.96860000  0.62940000  0.82430000  1.0 -0.2672210551
O  O68  1  0.96900000  0.73900000  0.85280000  1.0 -0.0487986885
O  O69  1  0.85770000  0.96710000  0.35190000  1.0 -0.2968119532
O  O70  1  0.03920000  0.03880000  0.36730000  1.0 -0.1700036265
O  O71  1  0.98390000  0.12210000  0.38110000  1.0 -0.2020799257
O  O72  1  0.96710000  0.85770000  0.14810000  1.0 -0.2968119532
O  O73  1  0.03880000  0.03920000  0.13270000  1.0 -0.1700036265
O  O74  1  0.12210000  0.98390000  0.11890000  1.0 -0.2020799257
O  O75  1  0.14230000  0.03290000  0.64810000  1.0 -0.2968119532
O  O76  1  0.96080000  0.96120000  0.63270000  1.0 -0.1700036265
O  O77  1  0.01610000  0.87790000  0.61890000  1.0 -0.2020799257
O  O78  1  0.03290000  0.14230000  0.85190000  1.0 -0.2968119532
O  O79  1  0.96120000  0.96080000  0.86730000  1.0 -0.1700036265
O  O80  1  0.87790000  0.01610000  0.88110000  1.0 -0.2020799257
O  O81  1  0.29870000  0.20590000  0.95480000  1.0 -0.2968119532
O  O82  1  0.15290000  0.04070000  0.98160000  1.0 -0.3691828025
O  O83  1  0.27170000  0.04410000  0.94640000  1.0 -0.3979427255
O  O84  1  0.20590000  0.29870000  0.54520000  1.0 -0.2968119532
O  O85  1  0.04070000  0.15290000  0.51840000  1.0 -0.3691828025
O  O86  1  0.04410000  0.27170000  0.55360000  1.0 -0.3979427255
O  O87  1  0.70130000  0.79410000  0.04520000  1.0 -0.2968119532
O  O88  1  0.84710000  0.95930000  0.01840000  1.0 -0.3691828025
O  O89  1  0.72830000  0.95590000  0.05360000  1.0 -0.3979427255
O  O90  1  0.79410000  0.70130000  0.45480000  1.0 -0.2968119532
O  O91  1  0.95930000  0.84710000  0.48160000  1.0 -0.3691828025
O  O92  1  0.95590000  0.72830000  0.44640000  1.0 -0.3979427255
O  O93  1  0.52450000  0.10350000  0.77940000  1.0 -0.3905686624
O  O94  1  0.34380000  0.00820000  0.78220000  1.0 -0.3691828025
O  O95  1  0.46800000  0.96800000  0.83670000  1.0 -0.3905686624
O  O96  1  0.10350000  0.52450000  0.72060000  1.0 -0.3905686624
O  O97  1  0.00820000  0.34380000  0.71780000  1.0 -0.3691828025
O  O98  1  0.96800000  0.46800000  0.66330000  1.0 -0.3905686624
O  O99  1  0.47550000  0.89650000  0.22060000  1.0 -0.3905686624
O  O100  1  0.65620000  0.99180000  0.21780000  1.0 -0.3691828025
O  O101  1  0.53200000  0.03200000  0.16330000  1.0 -0.3905686624
O  O102  1  0.89650000  0.47550000  0.27940000  1.0 -0.3905686624
O  O103  1  0.99180000  0.65620000  0.28220000  1.0 -0.3691828025
O  O104  1  0.03200000  0.53200000  0.33670000  1.0 -0.3905686624
