# DDEC6 charges by PACMAN v1.1 (https://github.com/mtap-research/PACMAN-charge/)
data_GUVYUT_ASR_pacman
_symmetry_space_group_name_H-M   'P 1'
_cell_length_a   10.88700000
_cell_length_b   10.92300000
_cell_length_c   14.06800000
_cell_angle_alpha   89.21400000
_cell_angle_beta   87.59000000
_cell_angle_gamma   79.81600000
_symmetry_Int_Tables_number   1
_chemical_formula_structural   ZnH4C19NO4
_chemical_formula_sum   'Zn4 H16 C76 N4 O16'
_cell_volume   1645.10104169
_cell_formula_units_Z   4
loop_
 _symmetry_equiv_pos_site_id
 _symmetry_equiv_pos_as_xyz
  1  'x, y, z'
loop_
 _atom_site_type_symbol
 _atom_site_label
 _atom_site_symmetry_multiplicity
 _atom_site_fract_x
 _atom_site_fract_y
 _atom_site_fract_z
 _atom_site_occupancy
 _atom_site_charge
Zn  Zn1  1  0.78220000  0.66213000  0.70020000  1.0 0.8174894012
Zn  Zn2  1  0.77039000  0.66047000  0.90990000  1.0 0.8426324285
Zn  Zn3  1  0.21780000  0.33787000  0.29980000  1.0 0.8174894012
Zn  Zn4  1  0.22961000  0.33953000  0.09010000  1.0 0.8426324285
H  H1  1  0.38460000  0.70470000  0.66800000  1.0 0.1385915733
H  H2  1  0.37950000  0.62410000  0.94980000  1.0 0.1210373628
H  H3  1  0.16740000  0.61570000  0.94600000  1.0 0.1210373628
H  H4  1  0.17280000  0.69290000  0.66440000  1.0 0.1292861558
H  H5  1  0.95790000  0.64260000  0.22760000  1.0 0.1385915733
H  H6  1  0.57930000  0.69300000  0.24150000  1.0 0.1385915733
H  H7  1  0.95170000  0.64210000  0.06410000  1.0 0.1210373628
H  H8  1  0.58530000  0.69110000  0.07640000  1.0 0.1210373628
H  H9  1  0.61540000  0.29530000  0.33200000  1.0 0.1385915733
H  H10  1  0.62050000  0.37590000  0.05020000  1.0 0.1210373628
H  H11  1  0.83260000  0.38430000  0.05400000  1.0 0.1210373628
H  H12  1  0.82720000  0.30710000  0.33560000  1.0 0.1292861558
H  H13  1  0.04210000  0.35740000  0.77240000  1.0 0.1385915733
H  H14  1  0.42070000  0.30700000  0.75850000  1.0 0.1385915733
H  H15  1  0.04830000  0.35790000  0.93590000  1.0 0.1210373628
H  H16  1  0.41470000  0.30890000  0.92360000  1.0 0.1210373628
C  C1  1  0.54040000  0.67160000  0.81170000  1.0 0.580192045
C  C2  1  0.40260000  0.66730000  0.80970000  1.0 -0.0094320919
C  C3  1  0.33750000  0.63960000  0.89180000  1.0 -0.1100504
C  C4  1  0.34050000  0.68690000  0.72470000  1.0 -0.0814299652
C  C5  1  0.21460000  0.68040000  0.72270000  1.0 -0.0976501939
C  C6  1  0.21150000  0.63430000  0.88950000  1.0 -0.1100504
C  C7  1  0.14960000  0.65570000  0.80580000  1.0 -0.0094320919
C  C8  1  0.01260000  0.65100000  0.80410000  1.0 0.580192045
C  C9  1  0.78850000  0.42400000  0.80260000  1.0 0.5680301047
C  C10  1  0.77790000  0.28810000  0.80100000  1.0 -0.0569424939
C  C11  1  0.72320000  0.23990000  0.71890000  1.0 0.0811124041
C  C12  1  0.75500000  0.22670000  0.88210000  1.0 -0.0185842483
C  C13  1  0.75200000  0.09500000  0.88050000  1.0 0.0020795559
C  C14  1  0.69290000  0.74120000  0.51130000  1.0 0.059624495
C  C15  1  0.85360000  0.57780000  0.40550000  1.0 -0.0474777066
C  C16  1  0.85000000  0.57570000  0.50430000  1.0 0.059624495
C  C17  1  0.68490000  0.74580000  0.41460000  1.0 0.0210276542
C  C18  1  0.77220000  0.66300000  0.35830000  1.0 0.0531754687
C  C19  1  0.76950000  0.66590000  0.25330000  1.0 0.1292861558
C  C20  1  0.87980000  0.65220000  0.19820000  1.0 -0.1819217385
C  C21  1  0.65700000  0.68190000  0.20660000  1.0 -0.1819217385
C  C22  1  0.87520000  0.65250000  0.10060000  1.0 0.0914631033
C  C23  1  0.66180000  0.68100000  0.10800000  1.0 0.0914631033
C  C24  1  0.75980000  0.89880000  0.79780000  1.0 0.59677665
C  C25  1  0.76210000  0.03590000  0.79800000  1.0 -0.0852863559
C  C26  1  0.71400000  0.11700000  0.72320000  1.0 0.0914631033
C  C27  1  0.87380000  0.68800000  0.40170000  1.0 -0.0814299652
C  C28  1  0.87210000  0.68800000  0.50180000  1.0 0.0531754687
C  C29  1  0.68100000  0.64600000  0.41090000  1.0 0.0020795559
C  C30  1  0.68890000  0.64200000  0.51270000  1.0 0.1054400548
C  C31  1  0.81520000  0.08600000  0.87180000  1.0 -0.0185842483
C  C32  1  0.76900000  0.09990000  0.71950000  1.0 0.0696796484
C  C33  1  0.67200000  0.32500000  0.64270000  1.0 -0.0278173312
C  C34  1  0.66200000  0.07200000  0.63500000  1.0 0.0210276542
C  C35  1  0.62900000  0.29870000  0.52630000  1.0 -0.2902324193
C  C36  1  0.62000000  0.16200000  0.53200000  1.0 -0.1944265508
C  C37  1  0.82270000  0.20950000  0.87430000  1.0 -0.0569424939
C  C38  1  0.77100000  0.23180000  0.72590000  1.0 0.0531754687
C  C39  1  0.45960000  0.32840000  0.18830000  1.0 0.580192045
C  C40  1  0.59740000  0.33270000  0.19030000  1.0 -0.0094320919
C  C41  1  0.66250000  0.36040000  0.10820000  1.0 -0.1100504
C  C42  1  0.65950000  0.31310000  0.27530000  1.0 -0.0814299652
C  C43  1  0.78540000  0.31960000  0.27730000  1.0 -0.0976501939
C  C44  1  0.78850000  0.36570000  0.11050000  1.0 -0.1100504
C  C45  1  0.85040000  0.34430000  0.19420000  1.0 -0.0094320919
C  C46  1  0.98740000  0.34900000  0.19590000  1.0 0.580192045
C  C47  1  0.21150000  0.57600000  0.19740000  1.0 0.5680301047
C  C48  1  0.22210000  0.71190000  0.19900000  1.0 -0.0569424939
C  C49  1  0.27680000  0.76010000  0.28110000  1.0 0.0811124041
C  C50  1  0.24500000  0.77330000  0.11790000  1.0 -0.0278173312
C  C51  1  0.24800000  0.90500000  0.11950000  1.0 0.0020795559
C  C52  1  0.30710000  0.25880000  0.48870000  1.0 0.0531754687
C  C53  1  0.14640000  0.42220000  0.59450000  1.0 -0.0474777066
C  C54  1  0.15000000  0.42430000  0.49570000  1.0 0.059624495
C  C55  1  0.31510000  0.25420000  0.58540000  1.0 0.0210276542
C  C56  1  0.22780000  0.33700000  0.64170000  1.0 0.0531754687
C  C57  1  0.23050000  0.33410000  0.74670000  1.0 0.1292861558
C  C58  1  0.12020000  0.34780000  0.80180000  1.0 -0.1819217385
C  C59  1  0.34300000  0.31810000  0.79340000  1.0 -0.1819217385
C  C60  1  0.12480000  0.34750000  0.89940000  1.0 0.0914631033
C  C61  1  0.33820000  0.31900000  0.89200000  1.0 0.0914631033
C  C62  1  0.24020000  0.10120000  0.20220000  1.0 0.59677665
C  C63  1  0.23790000  0.96410000  0.20200000  1.0 -0.0814299652
C  C64  1  0.28600000  0.88300000  0.27680000  1.0 0.0914631033
C  C65  1  0.12620000  0.31200000  0.59830000  1.0 -0.0814299652
C  C66  1  0.12790000  0.31200000  0.49820000  1.0 0.0531754687
C  C67  1  0.31900000  0.35400000  0.58910000  1.0 0.0020795559
C  C68  1  0.31110000  0.35800000  0.48730000  1.0 0.1054400548
C  C69  1  0.18480000  0.91400000  0.12820000  1.0 -0.0185842483
C  C70  1  0.23100000  0.90010000  0.28050000  1.0 0.0696796484
C  C71  1  0.32800000  0.67500000  0.35730000  1.0 -0.0278173312
C  C72  1  0.33800000  0.92800000  0.36500000  1.0 0.0210276542
C  C73  1  0.37100000  0.70130000  0.47370000  1.0 -0.2902324193
C  C74  1  0.38000000  0.83800000  0.46800000  1.0 -0.1968558275
C  C75  1  0.17730000  0.79050000  0.12570000  1.0 -0.0569424939
C  C76  1  0.22900000  0.76820000  0.27410000  1.0 0.0531754687
N  N1  1  0.77870000  0.65980000  0.55660000  1.0 -0.0976501939
N  N2  1  0.76860000  0.66680000  0.05450000  1.0 -0.2079142251
N  N3  1  0.22130000  0.34020000  0.44340000  1.0 -0.0976501939
N  N4  1  0.23140000  0.33320000  0.94550000  1.0 -0.2079142251
O  O1  1  0.59900000  0.67360000  0.73400000  1.0 -0.5213970982
O  O2  1  0.58630000  0.67280000  0.89120000  1.0 -0.5310608887
O  O3  1  0.96480000  0.65260000  0.72600000  1.0 -0.5112030053
O  O4  1  0.95660000  0.64620000  0.88310000  1.0 -0.5355502211
O  O5  1  0.80100000  0.47710000  0.72600000  1.0 -0.458532288
O  O6  1  0.78660000  0.47410000  0.88230000  1.0 -0.4928485819
O  O7  1  0.76330000  0.84710000  0.71900000  1.0 -0.4836753749
O  O8  1  0.75560000  0.84530000  0.87640000  1.0 -0.4928485819
O  O9  1  0.40100000  0.32640000  0.26600000  1.0 -0.5213970982
O  O10  1  0.41370000  0.32720000  0.10880000  1.0 -0.5310608887
O  O11  1  0.03520000  0.34740000  0.27400000  1.0 -0.5112030053
O  O12  1  0.04340000  0.35380000  0.11690000  1.0 -0.5355502211
O  O13  1  0.19900000  0.52290000  0.27400000  1.0 -0.458532288
O  O14  1  0.21340000  0.52590000  0.11770000  1.0 -0.4928485819
O  O15  1  0.23670000  0.15290000  0.28100000  1.0 -0.4836753749
O  O16  1  0.24440000  0.15470000  0.12360000  1.0 -0.4928485819
