# DDEC6 charges by PACMAN v1.1 (https://github.com/mtap-research/PACMAN-charge/)
data_GUXWOO_ASR_pacman
_symmetry_space_group_name_H-M   'P 1'
_cell_length_a   13.64090000
_cell_length_b   13.64090000
_cell_length_c   17.96100000
_cell_angle_alpha   70.43620000
_cell_angle_beta   109.56400000
_cell_angle_gamma   125.75800000
_symmetry_Int_Tables_number   1
_chemical_formula_structural   CuH22C26IN3O2
_chemical_formula_sum   'Cu4 H88 C104 I4 N12 O8'
_cell_volume   2512.80982331
_cell_formula_units_Z   4
loop_
 _symmetry_equiv_pos_site_id
 _symmetry_equiv_pos_as_xyz
  1  'x, y, z'
loop_
 _atom_site_type_symbol
 _atom_site_label
 _atom_site_symmetry_multiplicity
 _atom_site_fract_x
 _atom_site_fract_y
 _atom_site_fract_z
 _atom_site_occupancy
 _atom_site_charge
Cu  Cu1  1  0.55395000  0.55227000  0.43754000  1.0 0.1876747758
Cu  Cu2  1  0.55227000  0.55395000  0.06246000  1.0 0.1876747758
Cu  Cu3  1  0.44605000  0.44773000  0.56246000  1.0 0.1876747758
Cu  Cu4  1  0.44773000  0.44605000  0.93754000  1.0 0.1876747758
H  H1  1  0.42575000  0.78643000  0.55940000  1.0 0.129324304
H  H2  1  0.74779000  0.64397000  0.34393000  1.0 0.1084603602
H  H3  1  0.21778000  0.44574000  0.84551000  1.0 0.1004675851
H  H4  1  0.53315000  0.59511000  0.78562000  1.0 0.1004675851
H  H5  1  0.14639000  0.52869000  0.71886000  1.0 0.1184688152
H  H6  1  0.47379000  0.68035000  0.65867000  1.0 0.1184688152
H  H7  1  0.14026000  0.80296000  0.40024000  1.0 0.1184688152
H  H8  1  0.73397000  0.51065000  0.57281000  1.0 0.1004675851
H  H9  1  0.94528000  0.69330000  0.36549000  1.0 0.129324304
H  H10  1  0.93008000  0.55580000  0.60009000  1.0 0.1184688152
H  H11  1  0.65846000  0.01084000  0.37460000  1.0 0.1084603602
H  H12  1  0.40921000  0.10241000  0.23827000  1.0 0.1004675851
H  H13  1  0.77612000  0.19762000  0.30688000  1.0 0.0891475217
H  H14  1  0.72810000  0.11294000  0.24340000  1.0 0.0581140662
H  H15  1  0.78024000  0.25674000  0.21369000  1.0 0.0581140662
H  H16  1  0.72218000  0.19054000  0.26512000  1.0 0.0891475217
H  H17  1  0.63557000  0.10521000  0.19850000  1.0 0.0891475217
H  H18  1  0.70208000  0.25134000  0.17262000  1.0 0.1004675851
H  H19  1  0.52625000  0.88155000  0.45224000  1.0 0.1184688152
H  H20  1  0.27007000  0.97259000  0.35042000  1.0 0.1084603602
H  H21  1  0.60522000  0.00828000  0.33356000  1.0 0.1004675851
H  H22  1  0.38055000  0.14019000  0.26078000  1.0 0.1084603602
H  H23  1  0.78643000  0.42575000  0.94060000  1.0 0.129324304
H  H24  1  0.64397000  0.74779000  0.15607000  1.0 0.1084603602
H  H25  1  0.44574000  0.21778000  0.65449000  1.0 0.1004675851
H  H26  1  0.59511000  0.53315000  0.71437000  1.0 0.1004675851
H  H27  1  0.52869000  0.14639000  0.78114000  1.0 0.1184688152
H  H28  1  0.68035000  0.47379000  0.84133000  1.0 0.1184688152
H  H29  1  0.80296000  0.14026000  0.09976000  1.0 0.1184688152
H  H30  1  0.51065000  0.73397000  0.92719000  1.0 0.1004675851
H  H31  1  0.69330000  0.94528000  0.13451000  1.0 0.129324304
H  H32  1  0.55580000  0.93008000  0.89991000  1.0 0.1184688152
H  H33  1  0.01084000  0.65846000  0.12540000  1.0 0.1084603602
H  H34  1  0.10241000  0.40921000  0.26173000  1.0 0.1004675851
H  H35  1  0.19762000  0.77612000  0.19312000  1.0 0.0891475217
H  H36  1  0.11294000  0.72810000  0.25660000  1.0 0.0581140662
H  H37  1  0.25674000  0.78024000  0.28631000  1.0 0.0581140662
H  H38  1  0.19054000  0.72218000  0.23488000  1.0 0.0891475217
H  H39  1  0.10521000  0.63557000  0.30150000  1.0 0.0891475217
H  H40  1  0.25134000  0.70208000  0.32738000  1.0 0.1004675851
H  H41  1  0.88155000  0.52625000  0.04776000  1.0 0.1184688152
H  H42  1  0.97259000  0.27007000  0.14958000  1.0 0.1084603602
H  H43  1  0.00828000  0.60522000  0.16644000  1.0 0.1004675851
H  H44  1  0.14019000  0.38055000  0.23922000  1.0 0.1084603602
H  H45  1  0.57425000  0.21357000  0.44060000  1.0 0.129324304
H  H46  1  0.25221000  0.35603000  0.65607000  1.0 0.1084603602
H  H47  1  0.78222000  0.55426000  0.15449000  1.0 0.1004675851
H  H48  1  0.46685000  0.40489000  0.21437000  1.0 0.1004675851
H  H49  1  0.85361000  0.47131000  0.28114000  1.0 0.1184688152
H  H50  1  0.52621000  0.31965000  0.34133000  1.0 0.1184688152
H  H51  1  0.85974000  0.19704000  0.59976000  1.0 0.1184688152
H  H52  1  0.26603000  0.48935000  0.42719000  1.0 0.1004675851
H  H53  1  0.05472000  0.30670000  0.63451000  1.0 0.129324304
H  H54  1  0.06992000  0.44420000  0.39991000  1.0 0.1184688152
H  H55  1  0.34154000  0.98916000  0.62540000  1.0 0.1084603602
H  H56  1  0.59079000  0.89759000  0.76173000  1.0 0.1004675851
H  H57  1  0.22388000  0.80238000  0.69312000  1.0 0.0891475217
H  H58  1  0.27190000  0.88706000  0.75660000  1.0 0.0581140662
H  H59  1  0.21976000  0.74326000  0.78631000  1.0 0.0581140662
H  H60  1  0.27782000  0.80946000  0.73488000  1.0 0.0891475217
H  H61  1  0.36443000  0.89479000  0.80150000  1.0 0.0891475217
H  H62  1  0.29792000  0.74866000  0.82738000  1.0 0.1004675851
H  H63  1  0.47375000  0.11845000  0.54776000  1.0 0.1184688152
H  H64  1  0.72993000  0.02741000  0.64958000  1.0 0.1084603602
H  H65  1  0.39478000  0.99172000  0.66644000  1.0 0.1004675851
H  H66  1  0.61945000  0.85981000  0.73922000  1.0 0.1084603602
H  H67  1  0.21357000  0.57425000  0.05940000  1.0 0.129324304
H  H68  1  0.35603000  0.25221000  0.84393000  1.0 0.1084603602
H  H69  1  0.55426000  0.78222000  0.34551000  1.0 0.1004675851
H  H70  1  0.40489000  0.46685000  0.28563000  1.0 0.1004675851
H  H71  1  0.47131000  0.85361000  0.21886000  1.0 0.1184688152
H  H72  1  0.31965000  0.52621000  0.15867000  1.0 0.1184688152
H  H73  1  0.19704000  0.85974000  0.90024000  1.0 0.1184688152
H  H74  1  0.48935000  0.26603000  0.07281000  1.0 0.1004675851
H  H75  1  0.30670000  0.05472000  0.86549000  1.0 0.129324304
H  H76  1  0.44420000  0.06992000  0.10009000  1.0 0.1184688152
H  H77  1  0.98916000  0.34154000  0.87460000  1.0 0.1084603602
H  H78  1  0.89759000  0.59079000  0.73827000  1.0 0.1004675851
H  H79  1  0.80238000  0.22388000  0.80688000  1.0 0.0891475217
H  H80  1  0.88706000  0.27190000  0.74340000  1.0 0.0581140662
H  H81  1  0.74326000  0.21976000  0.71369000  1.0 0.0581140662
H  H82  1  0.80946000  0.27782000  0.76512000  1.0 0.0891475217
H  H83  1  0.89479000  0.36443000  0.69850000  1.0 0.0891475217
H  H84  1  0.74866000  0.29792000  0.67262000  1.0 0.1004675851
H  H85  1  0.11845000  0.47375000  0.95224000  1.0 0.1184688152
H  H86  1  0.02741000  0.72993000  0.85042000  1.0 0.1084603602
H  H87  1  0.99172000  0.39478000  0.83356000  1.0 0.1004675851
H  H88  1  0.85981000  0.61945000  0.76078000  1.0 0.1084603602
C  C1  1  0.34150000  0.76090000  0.54380000  1.0 -0.3078420087
C  C2  1  0.96680000  0.63940000  0.48800000  1.0 0.1004675851
C  C3  1  0.78610000  0.62710000  0.39730000  1.0 0.0721828938
C  C4  1  0.27080000  0.49480000  0.80720000  1.0 -0.0061945619
C  C5  1  0.25880000  0.67140000  0.59420000  1.0 0.2097272166
C  C6  1  0.45310000  0.58150000  0.77180000  1.0 0.0581140662
C  C7  1  0.22710000  0.54430000  0.73110000  1.0 -0.3078420087
C  C8  1  0.09740000  0.68040000  0.50560000  1.0 0.2153735609
C  C9  1  0.30250000  0.61570000  0.67450000  1.0 0.0812359726
C  C10  1  0.29820000  0.81380000  0.46870000  1.0 0.0891475217
C  C11  1  0.41900000  0.63340000  0.69580000  1.0 -0.1898296847
C  C12  1  0.17370000  0.77090000  0.45030000  1.0 -0.276722297
C  C13  1  0.77790000  0.54990000  0.52970000  1.0 0.0581140662
C  C14  1  0.38080000  0.90940000  0.41130000  1.0 -0.1197877153
C  C15  1  0.90460000  0.65840000  0.40980000  1.0 -0.1702450575
C  C16  1  0.49010000  0.92290000  0.41160000  1.0 -0.0979840718
C  C17  1  0.34830000  0.98950000  0.35040000  1.0 -0.0979840718
C  C18  1  0.89600000  0.57840000  0.54670000  1.0 -0.2092722579
C  C19  1  0.58180000  0.00420000  0.36400000  1.0 -0.0979840718
C  C20  1  0.43400000  0.06200000  0.28800000  1.0 -0.017343602
C  C21  1  0.54500000  0.07300000  0.30000000  1.0 0.0812359726
C  C22  1  0.73410000  0.18390000  0.25200000  1.0 -0.1991561203
C  C23  1  0.66310000  0.18090000  0.21400000  1.0 -0.0061945619
C  C24  1  0.50600000  0.08600000  0.28800000  1.0 0.0812359726
C  C25  1  0.53970000  0.00630000  0.34300000  1.0 -0.044394303
C  C26  1  0.40550000  0.08450000  0.29300000  1.0 -0.1066126338
C  C27  1  0.76090000  0.34150000  0.95620000  1.0 -0.3078420087
C  C28  1  0.63940000  0.96680000  0.01200000  1.0 0.1084603602
C  C29  1  0.62710000  0.78610000  0.10270000  1.0 0.0721828938
C  C30  1  0.49480000  0.27080000  0.69280000  1.0 -0.0061945619
C  C31  1  0.67140000  0.25880000  0.90580000  1.0 0.2097272166
C  C32  1  0.58150000  0.45310000  0.72820000  1.0 0.0581140662
C  C33  1  0.54430000  0.22710000  0.76890000  1.0 -0.3078420087
C  C34  1  0.68040000  0.09740000  0.99440000  1.0 0.2153735609
C  C35  1  0.61570000  0.30250000  0.82550000  1.0 0.0812359726
C  C36  1  0.81380000  0.29820000  0.03130000  1.0 0.0891475217
C  C37  1  0.63340000  0.41900000  0.80420000  1.0 -0.1898296847
C  C38  1  0.77090000  0.17370000  0.04970000  1.0 -0.276722297
C  C39  1  0.54990000  0.77790000  0.97030000  1.0 0.0545674265
C  C40  1  0.90940000  0.38080000  0.08870000  1.0 -0.1197877153
C  C41  1  0.65840000  0.90460000  0.09020000  1.0 -0.1702450575
C  C42  1  0.92290000  0.49010000  0.08840000  1.0 -0.0979840718
C  C43  1  0.98950000  0.34830000  0.14960000  1.0 -0.0979840718
C  C44  1  0.57840000  0.89600000  0.95330000  1.0 -0.2092722579
C  C45  1  0.00420000  0.58180000  0.13600000  1.0 -0.0979840718
C  C46  1  0.06200000  0.43400000  0.21200000  1.0 -0.017343602
C  C47  1  0.07300000  0.54500000  0.20000000  1.0 0.0812359726
C  C48  1  0.18390000  0.73410000  0.24800000  1.0 -0.1991561203
C  C49  1  0.18090000  0.66310000  0.28600000  1.0 -0.0061945619
C  C50  1  0.08600000  0.50600000  0.21200000  1.0 0.0812359726
C  C51  1  0.00630000  0.53970000  0.15700000  1.0 -0.045499213
C  C52  1  0.08450000  0.40550000  0.20700000  1.0 -0.1066126338
C  C53  1  0.65850000  0.23910000  0.45620000  1.0 -0.3078420087
C  C54  1  0.03320000  0.36060000  0.51200000  1.0 0.1084603602
C  C55  1  0.21390000  0.37290000  0.60270000  1.0 0.0721828938
C  C56  1  0.72920000  0.50520000  0.19280000  1.0 -0.0061945619
C  C57  1  0.74120000  0.32860000  0.40580000  1.0 0.2097272166
C  C58  1  0.54690000  0.41850000  0.22820000  1.0 0.0581140662
C  C59  1  0.77290000  0.45570000  0.26890000  1.0 -0.3078420087
C  C60  1  0.90260000  0.31960000  0.49440000  1.0 0.2153735609
C  C61  1  0.69750000  0.38430000  0.32550000  1.0 0.0812359726
C  C62  1  0.70180000  0.18620000  0.53130000  1.0 0.0891475217
C  C63  1  0.58100000  0.36660000  0.30420000  1.0 -0.1898296847
C  C64  1  0.82630000  0.22910000  0.54970000  1.0 -0.276722297
C  C65  1  0.22210000  0.45010000  0.47030000  1.0 0.0545674265
C  C66  1  0.61920000  0.09060000  0.58870000  1.0 -0.1197877153
C  C67  1  0.09540000  0.34160000  0.59020000  1.0 -0.1702450575
C  C68  1  0.50990000  0.07710000  0.58840000  1.0 -0.0979840718
C  C69  1  0.65170000  0.01050000  0.64960000  1.0 -0.0979840718
C  C70  1  0.10400000  0.42160000  0.45330000  1.0 -0.2092722579
C  C71  1  0.41820000  0.99580000  0.63600000  1.0 -0.0979840718
C  C72  1  0.56600000  0.93800000  0.71200000  1.0 -0.017343602
C  C73  1  0.45500000  0.92700000  0.70000000  1.0 0.0812359726
C  C74  1  0.26590000  0.81610000  0.74800000  1.0 -0.1991561203
C  C75  1  0.33690000  0.81910000  0.78600000  1.0 -0.0061945619
C  C76  1  0.49400000  0.91400000  0.71200000  1.0 0.0812359726
C  C77  1  0.46030000  0.99370000  0.65700000  1.0 -0.045499213
C  C78  1  0.59450000  0.91550000  0.70700000  1.0 -0.1066126338
C  C79  1  0.23910000  0.65850000  0.04380000  1.0 -0.3078420087
C  C80  1  0.36060000  0.03320000  0.98800000  1.0 0.1004675851
C  C81  1  0.37290000  0.21390000  0.89730000  1.0 0.0721828938
C  C82  1  0.50520000  0.72920000  0.30720000  1.0 -0.0061945619
C  C83  1  0.32860000  0.74120000  0.09420000  1.0 0.2097272166
C  C84  1  0.41850000  0.54690000  0.27180000  1.0 0.0581140662
C  C85  1  0.45570000  0.77290000  0.23110000  1.0 -0.3078420087
C  C86  1  0.31960000  0.90260000  0.00560000  1.0 0.2153735609
C  C87  1  0.38430000  0.69750000  0.17450000  1.0 0.0812359726
C  C88  1  0.18620000  0.70180000  0.96870000  1.0 0.0891475217
C  C89  1  0.36660000  0.58100000  0.19580000  1.0 -0.1898296847
C  C90  1  0.22910000  0.82630000  0.95030000  1.0 -0.276722297
C  C91  1  0.45010000  0.22210000  0.02970000  1.0 0.0545674265
C  C92  1  0.09060000  0.61920000  0.91130000  1.0 -0.1197877153
C  C93  1  0.34160000  0.09540000  0.90980000  1.0 -0.1702450575
C  C94  1  0.07710000  0.50990000  0.91160000  1.0 -0.0979840718
C  C95  1  0.01050000  0.65170000  0.85040000  1.0 -0.0979840718
C  C96  1  0.42160000  0.10400000  0.04670000  1.0 -0.2092722579
C  C97  1  0.99580000  0.41820000  0.86400000  1.0 -0.0979840718
C  C98  1  0.93800000  0.56600000  0.78800000  1.0 -0.017343602
C  C99  1  0.92700000  0.45500000  0.80000000  1.0 0.0812359726
C  C100  1  0.81610000  0.26590000  0.75200000  1.0 -0.1991561203
C  C101  1  0.81910000  0.33690000  0.71400000  1.0 -0.0061945619
C  C102  1  0.91400000  0.49400000  0.78800000  1.0 0.0812359726
C  C103  1  0.99370000  0.46030000  0.84300000  1.0 -0.044394303
C  C104  1  0.91550000  0.59450000  0.79300000  1.0 -0.1066126338
I  I1  1  0.39802000  0.31046000  0.46307000  1.0 -0.4591824859
I  I2  1  0.31046000  0.39802000  0.03693000  1.0 -0.4591824859
I  I3  1  0.60198000  0.68954000  0.53693000  1.0 -0.4591824859
I  I4  1  0.68954000  0.60198000  0.96307000  1.0 -0.4591824859
N  N1  1  0.72020000  0.57360000  0.45630000  1.0 -0.1702450575
N  N2  1  0.38230000  0.51370000  0.82750000  1.0 -0.1702450575
N  N3  1  0.13920000  0.63260000  0.57750000  1.0 -0.3437788337
N  N4  1  0.57360000  0.72020000  0.04370000  1.0 -0.1702450575
N  N5  1  0.51370000  0.38230000  0.67250000  1.0 -0.1702450575
N  N6  1  0.63260000  0.13920000  0.92250000  1.0 -0.3437788337
N  N7  1  0.27980000  0.42640000  0.54370000  1.0 -0.1702450575
N  N8  1  0.61770000  0.48630000  0.17250000  1.0 -0.1702450575
N  N9  1  0.86080000  0.36740000  0.42250000  1.0 -0.3437788337
N  N10  1  0.42640000  0.27980000  0.95630000  1.0 -0.1702450575
N  N11  1  0.48630000  0.61770000  0.32750000  1.0 -0.1702450575
N  N12  1  0.36740000  0.86080000  0.07750000  1.0 -0.3437788337
O  O1  1  0.61240000  0.15960000  0.23970000  1.0 -0.017343602
O  O2  1  0.56180000  0.17420000  0.22480000  1.0 -0.0904198251
O  O3  1  0.15960000  0.61240000  0.26030000  1.0 -0.017343602
O  O4  1  0.17420000  0.56180000  0.27520000  1.0 -0.0904198251
O  O5  1  0.38760000  0.84040000  0.76030000  1.0 -0.017343602
O  O6  1  0.43820000  0.82580000  0.77520000  1.0 -0.0904198251
O  O7  1  0.84040000  0.38760000  0.73970000  1.0 -0.017343602
O  O8  1  0.82580000  0.43820000  0.72480000  1.0 -0.0904198251
