# DDEC6 charges by PACMAN v1.1 (https://github.com/mtap-research/PACMAN-charge/)
data_GUXYEG_ASR_pacman
_symmetry_space_group_name_H-M   'P 1'
_cell_length_a   12.16600000
_cell_length_b   13.37600000
_cell_length_c   18.03500000
_cell_angle_alpha   68.76000000
_cell_angle_beta   74.17000000
_cell_angle_gamma   66.27000000
_symmetry_Int_Tables_number   1
_chemical_formula_structural   Cu2H33C44I2(N3O)2
_chemical_formula_sum   'Cu4 H66 C88 I4 N12 O4'
_cell_volume   2476.34220154
_cell_formula_units_Z   2
loop_
 _symmetry_equiv_pos_site_id
 _symmetry_equiv_pos_as_xyz
  1  'x, y, z'
loop_
 _atom_site_type_symbol
 _atom_site_label
 _atom_site_symmetry_multiplicity
 _atom_site_fract_x
 _atom_site_fract_y
 _atom_site_fract_z
 _atom_site_occupancy
 _atom_site_charge
Cu  Cu1  1  0.54510000  0.42660000  0.56223000  1.0 0.180295001
Cu  Cu2  1  0.44160000  0.94260000  0.06218000  1.0 0.180295001
Cu  Cu3  1  0.45490000  0.57340000  0.43777000  1.0 0.180295001
Cu  Cu4  1  0.55840000  0.05740000  0.93782000  1.0 0.180295001
H  H1  1  0.40471000  0.94220000  0.44499000  1.0 0.1187814852
H  H2  1  0.49383000  0.83399000  0.22619000  1.0 0.1006338403
H  H3  1  0.09129000  0.30854000  0.02683000  1.0 0.1187814852
H  H4  1  0.90350000  0.19899000  0.40486000  1.0 0.1295829818
H  H5  1  0.27571000  0.37396000  0.82211000  1.0 0.1372702525
H  H6  1  0.43377000  0.86315000  0.35199000  1.0 0.1295829818
H  H7  1  0.38982000  0.01210000  0.75158000  1.0 0.1295829818
H  H8  1  0.60029000  0.74761000  0.66594000  1.0 0.1295829818
H  H9  1  0.70058000  0.30496000  0.43640000  1.0 0.1006338403
H  H10  1  0.20541000  0.39077000  0.94146000  1.0 0.1187814852
H  H11  1  0.48520000  0.81882000  0.56329000  1.0 0.1112091739
H  H12  1  0.27438000  0.09349000  0.64579000  1.0 0.1187814852
H  H13  1  0.36891000  0.35064000  0.70049000  1.0 0.1112091739
H  H14  1  0.13610000  0.11890000  0.27212000  1.0 0.1295829818
H  H15  1  0.19908000  0.53405000  0.10726000  1.0 0.1112091739
H  H16  1  0.72104000  0.74356000  0.74066000  1.0 0.1187814852
H  H17  1  0.63723000  0.67009000  0.79738000  1.0 0.1112091739
H  H18  1  0.69990000  0.72026000  0.83611000  1.0 0.1187814852
H  H19  1  0.35544000  0.74022000  0.15938000  1.0 0.1006338403
H  H20  1  0.55990000  0.53607000  0.67346000  1.0 0.1006338403
H  H21  1  0.96144000  0.22052000  0.11589000  1.0 0.1295829818
H  H22  1  0.75371000  0.28470000  0.64591000  1.0 0.1006338403
H  H23  1  0.05367000  0.48691000  0.17596000  1.0 0.1112091739
H  H24  1  0.21554000  0.08699000  0.14537000  1.0 0.1006338403
H  H25  1  0.95676000  0.18182000  0.62264000  1.0 0.1372702525
H  H26  1  0.44133000  0.70702000  0.90860000  1.0 0.1295829818
H  H27  1  0.76956000  0.22927000  0.18222000  1.0 0.1112091739
H  H28  1  0.72374000  0.17941000  0.27551000  1.0 0.1187814852
H  H29  1  0.85925000  0.11965000  0.23676000  1.0 0.1187814852
H  H30  1  0.47971000  0.83596000  0.93455000  1.0 0.1112091739
H  H31  1  0.91633000  0.40739000  0.26416000  1.0 0.1372702525
H  H32  1  0.46584000  0.57668000  0.79251000  1.0 0.1295829818
H  H33  1  0.30414000  0.60459000  0.14375000  1.0 0.1295829818
H  H34  1  0.59529000  0.05780000  0.55501000  1.0 0.1187814852
H  H35  1  0.50617000  0.16601000  0.77381000  1.0 0.1006338403
H  H36  1  0.90871000  0.69146000  0.97317000  1.0 0.1187814852
H  H37  1  0.09650000  0.80101000  0.59514000  1.0 0.1295829818
H  H38  1  0.72429000  0.62604000  0.17789000  1.0 0.1372702525
H  H39  1  0.56623000  0.13685000  0.64801000  1.0 0.1295829818
H  H40  1  0.61018000  0.98790000  0.24842000  1.0 0.1295829818
H  H41  1  0.39971000  0.25239000  0.33406000  1.0 0.1295829818
H  H42  1  0.29942000  0.69504000  0.56360000  1.0 0.1006338403
H  H43  1  0.79459000  0.60923000  0.05854000  1.0 0.1187814852
H  H44  1  0.51480000  0.18118000  0.43671000  1.0 0.1112091739
H  H45  1  0.72562000  0.90651000  0.35421000  1.0 0.1187814852
H  H46  1  0.63109000  0.64936000  0.29951000  1.0 0.1112091739
H  H47  1  0.86390000  0.88110000  0.72788000  1.0 0.1295829818
H  H48  1  0.80092000  0.46595000  0.89274000  1.0 0.1112091739
H  H49  1  0.27896000  0.25644000  0.25934000  1.0 0.1187814852
H  H50  1  0.36277000  0.32991000  0.20262000  1.0 0.1112091739
H  H51  1  0.30010000  0.27974000  0.16389000  1.0 0.1187814852
H  H52  1  0.64456000  0.25978000  0.84062000  1.0 0.1006338403
H  H53  1  0.44010000  0.46393000  0.32654000  1.0 0.1006338403
H  H54  1  0.03856000  0.77948000  0.88411000  1.0 0.1295829818
H  H55  1  0.24629000  0.71530000  0.35409000  1.0 0.1006338403
H  H56  1  0.94633000  0.51309000  0.82404000  1.0 0.1112091739
H  H57  1  0.78446000  0.91301000  0.85463000  1.0 0.1006338403
H  H58  1  0.04324000  0.81818000  0.37736000  1.0 0.1372702525
H  H59  1  0.55867000  0.29298000  0.09140000  1.0 0.1295829818
H  H60  1  0.23044000  0.77073000  0.81778000  1.0 0.1112091739
H  H61  1  0.27626000  0.82059000  0.72449000  1.0 0.1187814852
H  H62  1  0.14075000  0.88035000  0.76324000  1.0 0.1187814852
H  H63  1  0.52029000  0.16404000  0.06545000  1.0 0.1112091739
H  H64  1  0.08367000  0.59261000  0.73584000  1.0 0.1372702525
H  H65  1  0.53416000  0.42332000  0.20749000  1.0 0.1295829818
H  H66  1  0.69586000  0.39541000  0.85625000  1.0 0.1295829818
C  C1  1  0.27690000  0.99170000  0.32690000  1.0 0.0807619684
C  C2  1  0.28360000  0.00200000  0.53400000  1.0 0.1006338403
C  C3  1  0.23860000  0.01570000  0.40670000  1.0 0.2108110853
C  C4  1  0.32120000  0.98100000  0.46020000  1.0 -0.2101699183
C  C5  1  0.42250000  0.89610000  0.23410000  1.0 0.0896109696
C  C6  1  0.17980000  0.45480000  0.03580000  1.0 0.1187814852
C  C7  1  0.34970000  0.64780000  0.01790000  1.0 0.0896109696
C  C8  1  0.50350000  0.87130000  0.71940000  1.0 0.2274499194
C  C9  1  0.05630000  0.32740000  0.07600000  1.0 -0.108785127
C  C10  1  0.31230000  0.48920000  0.90780000  1.0 0.2108110853
C  C11  1  0.15950000  0.06160000  0.55210000  1.0 -0.2613515302
C  C12  1  0.87400000  0.21300000  0.45590000  1.0 -0.1671530748
C  C13  1  0.33400000  0.41000000  0.79260000  1.0 -0.1801144575
C  C14  1  0.30700000  0.57040000  0.00050000  1.0 0.2024493174
C  C15  1  0.08320000  0.10110000  0.49430000  1.0 0.180295001
C  C16  1  0.38470000  0.91010000  0.31090000  1.0 -0.1856555107
C  C17  1  0.40840000  0.97320000  0.71250000  1.0 -0.2181078687
C  C18  1  0.91800000  0.30800000  0.19830000  1.0 0.2603142516
C  C19  1  0.53260000  0.81610000  0.66320000  1.0 -0.2282332921
C  C20  1  0.75410000  0.27860000  0.47440000  1.0 0.0680358999
C  C21  1  0.08960000  0.40660000  0.09170000  1.0 0.0333193795
C  C22  1  0.36410000  0.96050000  0.59390000  1.0 0.0500826419
C  C23  1  0.22920000  0.43750000  0.95850000  1.0 -0.2282332921
C  C24  1  0.46380000  0.85940000  0.60170000  1.0 -0.1201372004
C  C25  1  0.33800000  0.02190000  0.65020000  1.0 -0.1306722432
C  C26  1  0.38800000  0.39820000  0.71950000  1.0 0.0500826419
C  C27  1  0.21150000  0.06100000  0.26440000  1.0 -0.1642556383
C  C28  1  0.95080000  0.16870000  0.51330000  1.0 0.1112091739
C  C29  1  0.22500000  0.52190000  0.05560000  1.0 -0.2507622286
C  C30  1  0.66200000  0.73500000  0.78990000  1.0 -0.2282332921
C  C31  1  0.36900000  0.73500000  0.10630000  1.0 0.0500826419
C  C32  1  0.49700000  0.50600000  0.70370000  1.0 0.0500826419
C  C33  1  0.97700000  0.27700000  0.12760000  1.0 -0.2181078687
C  C34  1  0.78500000  0.26700000  0.59610000  1.0 0.0680358999
C  C35  1  0.03380000  0.43390000  0.16320000  1.0 -0.1201372004
C  C36  1  0.26100000  0.04090000  0.18860000  1.0 0.0421398015
C  C37  1  0.36150000  0.47380000  0.82560000  1.0 0.0896109696
C  C38  1  0.90500000  0.20280000  0.58420000  1.0 -0.1856555107
C  C39  1  0.41500000  0.71600000  0.96130000  1.0 -0.1671530748
C  C40  1  0.79400000  0.19300000  0.23600000  1.0 -0.2397689267
C  C41  1  0.44000000  0.79000000  0.97790000  1.0 0.0629419417
C  C42  1  0.95200000  0.38700000  0.21540000  1.0 -0.2101699183
C  C43  1  0.44600000  0.52700000  0.77590000  1.0 -0.1856555107
C  C44  1  0.33500000  0.65460000  0.09830000  1.0 -0.2101699183
C  C45  1  0.72310000  0.00830000  0.67310000  1.0 0.0807619684
C  C46  1  0.71640000  0.99800000  0.46600000  1.0 0.1006338403
C  C47  1  0.76140000  0.98430000  0.59330000  1.0 0.2108110853
C  C48  1  0.67880000  0.01900000  0.53980000  1.0 -0.2101699183
C  C49  1  0.57750000  0.10390000  0.76590000  1.0 0.0896109696
C  C50  1  0.82020000  0.54520000  0.96420000  1.0 0.1187814852
C  C51  1  0.65030000  0.35220000  0.98210000  1.0 0.0896109696
C  C52  1  0.49650000  0.12870000  0.28060000  1.0 0.2274499194
C  C53  1  0.94370000  0.67260000  0.92400000  1.0 -0.108785127
C  C54  1  0.68770000  0.51080000  0.09220000  1.0 0.2108110853
C  C55  1  0.84050000  0.93840000  0.44790000  1.0 -0.2613515302
C  C56  1  0.12600000  0.78700000  0.54410000  1.0 -0.1671530748
C  C57  1  0.66600000  0.59000000  0.20740000  1.0 -0.1801144575
C  C58  1  0.69300000  0.42960000  0.99950000  1.0 0.2024493174
C  C59  1  0.91680000  0.89890000  0.50570000  1.0 0.180295001
C  C60  1  0.61530000  0.08990000  0.68910000  1.0 -0.1856555107
C  C61  1  0.59160000  0.02680000  0.28750000  1.0 -0.2181078687
C  C62  1  0.08200000  0.69200000  0.80170000  1.0 0.2603142516
C  C63  1  0.46740000  0.18390000  0.33680000  1.0 -0.2282332921
C  C64  1  0.24590000  0.72140000  0.52560000  1.0 0.0680358999
C  C65  1  0.91040000  0.59340000  0.90830000  1.0 0.0333193795
C  C66  1  0.63590000  0.03950000  0.40610000  1.0 0.0500826419
C  C67  1  0.77080000  0.56250000  0.04150000  1.0 -0.2282332921
C  C68  1  0.53620000  0.14060000  0.39830000  1.0 -0.1201372004
C  C69  1  0.66200000  0.97810000  0.34980000  1.0 -0.1306722432
C  C70  1  0.61200000  0.60180000  0.28050000  1.0 0.0500826419
C  C71  1  0.78850000  0.93900000  0.73560000  1.0 -0.1642556383
C  C72  1  0.04920000  0.83130000  0.48670000  1.0 0.1112091739
C  C73  1  0.77500000  0.47810000  0.94440000  1.0 -0.2507622286
C  C74  1  0.33800000  0.26500000  0.21010000  1.0 -0.2282332921
C  C75  1  0.63100000  0.26500000  0.89370000  1.0 0.0500826419
C  C76  1  0.50300000  0.49400000  0.29630000  1.0 0.0500826419
C  C77  1  0.02300000  0.72300000  0.87240000  1.0 -0.2181078687
C  C78  1  0.21500000  0.73300000  0.40390000  1.0 0.0680358999
C  C79  1  0.96620000  0.56610000  0.83680000  1.0 -0.1201372004
C  C80  1  0.73900000  0.95910000  0.81140000  1.0 0.0421398015
C  C81  1  0.63850000  0.52620000  0.17440000  1.0 0.0896109696
C  C82  1  0.09500000  0.79720000  0.41580000  1.0 -0.1856555107
C  C83  1  0.58500000  0.28400000  0.03870000  1.0 -0.1671530748
C  C84  1  0.20600000  0.80700000  0.76400000  1.0 -0.2397689267
C  C85  1  0.56000000  0.21000000  0.02210000  1.0 0.0629419417
C  C86  1  0.04800000  0.61300000  0.78460000  1.0 -0.2101699183
C  C87  1  0.55400000  0.47300000  0.22410000  1.0 -0.1856555107
C  C88  1  0.66500000  0.34540000  0.90170000  1.0 -0.2101699183
I  I1  1  0.38620000  0.38295000  0.51385000  1.0 -0.4454189881
I  I2  1  0.31985000  0.11233000  0.95081000  1.0 -0.4392261997
I  I3  1  0.61380000  0.61705000  0.48615000  1.0 -0.4454189881
I  I4  1  0.68015000  0.88767000  0.04919000  1.0 -0.4392261997
N  N1  1  0.71110000  0.30580000  0.54350000  1.0 -0.1801144575
N  N2  1  0.41750000  0.80840000  0.04850000  1.0 -0.1856555107
N  N3  1  0.46700000  0.44740000  0.67180000  1.0 -0.1801144575
N  N4  1  0.36840000  0.96040000  0.17370000  1.0 -0.1671530748
N  N5  1  0.34800000  0.55540000  0.92890000  1.0 -0.3082756295
N  N6  1  0.12290000  0.07730000  0.42260000  1.0 -0.3160309537
N  N7  1  0.28890000  0.69420000  0.45650000  1.0 -0.1801144575
N  N8  1  0.58250000  0.19160000  0.95150000  1.0 -0.1856555107
N  N9  1  0.53300000  0.55260000  0.32820000  1.0 -0.1801144575
N  N10  1  0.63160000  0.03960000  0.82630000  1.0 -0.1671530748
N  N11  1  0.65200000  0.44460000  0.07110000  1.0 -0.3082756295
N  N12  1  0.87710000  0.92270000  0.57740000  1.0 -0.3160309537
O  O1  1  0.56050000  0.83430000  0.78380000  1.0 -0.1306722432
O  O2  1  0.83530000  0.26630000  0.25590000  1.0 -0.1469761475
O  O3  1  0.43950000  0.16570000  0.21620000  1.0 -0.1306722432
O  O4  1  0.16470000  0.73370000  0.74410000  1.0 -0.1469761475
