# DDEC6 charges by PACMAN v1.1 (https://github.com/mtap-research/PACMAN-charge/)
data_HABCOF_ASR_pacman
_symmetry_space_group_name_H-M   'P 1'
_cell_length_a   20.99000000
_cell_length_b   20.99000000
_cell_length_c   20.99000000
_cell_angle_alpha   143.70400000
_cell_angle_beta   99.46630000
_cell_angle_gamma   91.69430000
_symmetry_Int_Tables_number   1
_chemical_formula_structural   NaDyZnH10C26(NO4)2
_chemical_formula_sum   'Na4 Dy4 Zn4 H40 C104 N8 O32'
_cell_volume   5187.42338359
_cell_formula_units_Z   4
loop_
 _symmetry_equiv_pos_site_id
 _symmetry_equiv_pos_as_xyz
  1  'x, y, z'
loop_
 _atom_site_type_symbol
 _atom_site_label
 _atom_site_symmetry_multiplicity
 _atom_site_fract_x
 _atom_site_fract_y
 _atom_site_fract_z
 _atom_site_occupancy
 _atom_site_charge
Na  Na1  1  0.20799000  0.20799000  0.50000000  1.0 0.8811755606
Na  Na2  1  0.29201000  0.79201000  0.00000000  1.0 0.8811755606
Na  Na3  1  0.79201000  0.79201000  0.50000000  1.0 0.8811755606
Na  Na4  1  0.70799000  0.20799000  0.00000000  1.0 0.8811755606
Dy  Dy1  1  0.32547000  0.00000000  0.32547000  1.0 2.0442364791
Dy  Dy2  1  0.17453000  0.50000000  0.67453000  1.0 2.046612797
Dy  Dy3  1  0.67453000  0.00000000  0.67453000  1.0 2.046612797
Dy  Dy4  1  0.82547000  0.50000000  0.32547000  1.0 2.046612797
Zn  Zn1  1  0.75000000  0.61860000  0.86860000  1.0 0.3599644183
Zn  Zn2  1  0.25000000  0.38140000  0.13140000  1.0 0.354264585
Zn  Zn3  1  0.75000000  0.67250000  0.92250000  1.0 0.3599644183
Zn  Zn4  1  0.25000000  0.32750000  0.07750000  1.0 0.3599644183
H  H1  1  0.01930000  0.89210000  0.18440000  1.0 0.120467889
H  H2  1  0.48070000  0.66510000  0.87280000  1.0 0.120467889
H  H3  1  0.20770000  0.33490000  0.81560000  1.0 0.120467889
H  H4  1  0.29230000  0.10790000  0.12720000  1.0 0.120467889
H  H5  1  0.98070000  0.10790000  0.81560000  1.0 0.120467889
H  H6  1  0.51930000  0.33490000  0.12720000  1.0 0.120467889
H  H7  1  0.79230000  0.66510000  0.18440000  1.0 0.120467889
H  H8  1  0.70770000  0.89210000  0.87280000  1.0 0.120467889
H  H9  1  0.99660000  0.63230000  0.85350000  1.0 0.120467889
H  H10  1  0.50340000  0.35690000  0.63570000  1.0 0.120467889
H  H11  1  0.27880000  0.64310000  0.14650000  1.0 0.120467889
H  H12  1  0.22120000  0.36770000  0.36430000  1.0 0.120467889
H  H13  1  0.00340000  0.36770000  0.14650000  1.0 0.120467889
H  H14  1  0.49660000  0.64310000  0.36430000  1.0 0.120467889
H  H15  1  0.72120000  0.35690000  0.85350000  1.0 0.120467889
H  H16  1  0.77880000  0.63230000  0.63570000  1.0 0.120467889
H  H17  1  0.18060000  0.81490000  0.07830000  1.0 0.120467889
H  H18  1  0.31940000  0.39770000  0.63430000  1.0 0.120467889
H  H19  1  0.23660000  0.60230000  0.92170000  1.0 0.120467889
H  H20  1  0.26340000  0.18510000  0.36570000  1.0 0.120467889
H  H21  1  0.81940000  0.18510000  0.92170000  1.0 0.120467889
H  H22  1  0.68060000  0.60230000  0.36570000  1.0 0.120467889
H  H23  1  0.76340000  0.39770000  0.07830000  1.0 0.120467889
H  H24  1  0.73660000  0.81490000  0.63430000  1.0 0.120467889
H  H25  1  0.97690000  0.68390000  0.07640000  1.0 0.120467889
H  H26  1  0.52310000  0.59950000  0.70700000  1.0 0.120467889
H  H27  1  0.10750000  0.40050000  0.92360000  1.0 0.120467889
H  H28  1  0.39250000  0.31610000  0.29300000  1.0 0.120467889
H  H29  1  0.02310000  0.31610000  0.92360000  1.0 0.120467889
H  H30  1  0.47690000  0.40050000  0.29300000  1.0 0.120467889
H  H31  1  0.89250000  0.59950000  0.07640000  1.0 0.120467889
H  H32  1  0.60750000  0.68390000  0.70700000  1.0 0.120467889
H  H33  1  0.96460000  0.82720000  0.95380000  1.0 0.120467889
H  H34  1  0.53540000  0.48920000  0.86260000  1.0 0.120467889
H  H35  1  0.37340000  0.51080000  0.04620000  1.0 0.120467889
H  H36  1  0.12660000  0.17280000  0.13740000  1.0 0.120467889
H  H37  1  0.03540000  0.17280000  0.04620000  1.0 0.120467889
H  H38  1  0.46460000  0.51080000  0.13740000  1.0 0.120467889
H  H39  1  0.62660000  0.48920000  0.95380000  1.0 0.120467889
H  H40  1  0.87340000  0.82720000  0.86260000  1.0 0.120467889
C  C1  1  0.92150000  0.72880000  0.98610000  1.0 -0.0824286529
C  C2  1  0.57850000  0.56460000  0.80730000  1.0 -0.0824286529
C  C3  1  0.24270000  0.43540000  0.01390000  1.0 -0.0824286529
C  C4  1  0.25730000  0.27120000  0.19270000  1.0 -0.0824286529
C  C5  1  0.07850000  0.27120000  0.01390000  1.0 -0.0824286529
C  C6  1  0.42150000  0.43540000  0.19270000  1.0 -0.0824286529
C  C7  1  0.75730000  0.56460000  0.98610000  1.0 -0.0824286529
C  C8  1  0.74270000  0.72880000  0.80730000  1.0 -0.0824286529
C  C9  1  0.03890000  0.84660000  0.12530000  1.0 -0.1331890004
C  C10  1  0.46110000  0.58640000  0.80770000  1.0 -0.1331890004
C  C11  1  0.22130000  0.41360000  0.87470000  1.0 -0.1331890004
C  C12  1  0.27870000  0.15340000  0.19230000  1.0 -0.1331890004
C  C13  1  0.96110000  0.15340000  0.87470000  1.0 -0.1331890004
C  C14  1  0.53890000  0.41360000  0.19230000  1.0 -0.1331890004
C  C15  1  0.77870000  0.58640000  0.12530000  1.0 -0.1331890004
C  C16  1  0.72130000  0.84660000  0.80770000  1.0 -0.1331890004
C  C17  1  0.02520000  0.69270000  0.93010000  1.0 -0.1393224898
C  C18  1  0.47480000  0.40490000  0.66750000  1.0 -0.1393224898
C  C19  1  0.26260000  0.59510000  0.06990000  1.0 -0.1393224898
C  C20  1  0.23740000  0.30730000  0.33250000  1.0 -0.1393224898
C  C21  1  0.97480000  0.30730000  0.06990000  1.0 -0.1393224898
C  C22  1  0.52520000  0.59510000  0.33250000  1.0 -0.1393224898
C  C23  1  0.73740000  0.40490000  0.93010000  1.0 -0.1393224898
C  C24  1  0.76260000  0.69270000  0.66750000  1.0 -0.1393224898
C  C25  1  0.09630000  0.71530000  0.95460000  1.0 0.0009304675
C  C26  1  0.40370000  0.35830000  0.61900000  1.0 0.0009304675
C  C27  1  0.26070000  0.64170000  0.04540000  1.0 0.0009304675
C  C28  1  0.23930000  0.28470000  0.38100000  1.0 0.0009304675
C  C29  1  0.90370000  0.28470000  0.04540000  1.0 -0.0007137435
C  C30  1  0.59630000  0.64170000  0.38100000  1.0 0.0009304675
C  C31  1  0.73930000  0.35830000  0.95460000  1.0 0.0009304675
C  C32  1  0.76070000  0.71530000  0.61900000  1.0 0.0009304675
C  C33  1  0.99810000  0.75710000  0.01560000  1.0 0.0667466155
C  C34  1  0.50190000  0.51750000  0.75900000  1.0 0.0667466155
C  C35  1  0.24150000  0.48250000  0.98440000  1.0 0.0667466155
C  C36  1  0.25850000  0.24290000  0.24100000  1.0 0.0667466155
C  C37  1  0.00190000  0.24290000  0.98440000  1.0 0.0667466155
C  C38  1  0.49810000  0.48250000  0.24100000  1.0 0.0667466155
C  C39  1  0.75850000  0.51750000  0.01560000  1.0 0.0667466155
C  C40  1  0.74150000  0.75710000  0.75900000  1.0 0.0667466155
C  C41  1  0.89200000  0.68630000  0.00350000  1.0 0.1721261644
C  C42  1  0.60800000  0.61150000  0.79430000  1.0 0.1721261644
C  C43  1  0.18280000  0.38850000  0.99650000  1.0 0.1721261644
C  C44  1  0.31720000  0.31370000  0.20570000  1.0 0.1721261644
C  C45  1  0.10800000  0.31370000  0.99650000  1.0 0.1721261644
C  C46  1  0.39200000  0.38850000  0.20570000  1.0 0.1721261644
C  C47  1  0.81720000  0.61150000  0.00350000  1.0 0.1721261644
C  C48  1  0.68280000  0.68630000  0.79430000  1.0 0.1721261644
C  C49  1  0.13330000  0.80200000  0.06290000  1.0 -0.1171544439
C  C50  1  0.36670000  0.42960000  0.66870000  1.0 -0.1171544439
C  C51  1  0.23910000  0.57040000  0.93710000  1.0 -0.1171544439
C  C52  1  0.26090000  0.19800000  0.33130000  1.0 -0.1171544439
C  C53  1  0.86670000  0.19800000  0.93710000  1.0 -0.1171544439
C  C54  1  0.63330000  0.57040000  0.33130000  1.0 -0.1171544439
C  C55  1  0.76090000  0.42960000  0.06290000  1.0 -0.1171544439
C  C56  1  0.73910000  0.80200000  0.66870000  1.0 -0.1171544439
C  C57  1  0.92940000  0.66700000  0.05080000  1.0 -0.172657423
C  C58  1  0.57060000  0.62140000  0.73760000  1.0 -0.172657423
C  C59  1  0.11620000  0.37860000  0.94920000  1.0 -0.172657423
C  C60  1  0.38380000  0.33300000  0.26240000  1.0 -0.172657423
C  C61  1  0.07060000  0.33300000  0.94920000  1.0 -0.172657423
C  C62  1  0.42940000  0.37860000  0.26240000  1.0 -0.172657423
C  C63  1  0.88380000  0.62140000  0.05080000  1.0 -0.172657423
C  C64  1  0.61620000  0.66700000  0.73760000  1.0 -0.172657423
C  C65  1  0.88720000  0.74520000  0.93800000  1.0 0.1517722604
C  C66  1  0.61280000  0.55080000  0.85800000  1.0 0.1517722604
C  C67  1  0.30720000  0.44920000  0.06200000  1.0 0.1517722604
C  C68  1  0.19280000  0.25480000  0.14200000  1.0 0.1517722604
C  C69  1  0.11280000  0.25480000  0.06200000  1.0 0.1517722604
C  C70  1  0.38720000  0.44920000  0.14200000  1.0 0.1517722604
C  C71  1  0.69280000  0.55080000  0.93800000  1.0 0.1517722604
C  C72  1  0.80720000  0.74520000  0.85800000  1.0 0.1517722604
C  C73  1  0.11140000  0.87430000  0.15430000  1.0 -0.0742299738
C  C74  1  0.38860000  0.54290000  0.76290000  1.0 -0.0742299738
C  C75  1  0.22000000  0.45710000  0.84570000  1.0 -0.0742299738
C  C76  1  0.28000000  0.12570000  0.23710000  1.0 -0.0742299738
C  C77  1  0.88860000  0.12570000  0.84570000  1.0 -0.0742299738
C  C78  1  0.61140000  0.45710000  0.23710000  1.0 -0.0742299738
C  C79  1  0.78000000  0.54290000  0.15430000  1.0 -0.0824286529
C  C80  1  0.72000000  0.87430000  0.76290000  1.0 -0.0742299738
C  C81  1  0.91770000  0.79740000  0.92930000  1.0 -0.1906846038
C  C82  1  0.58230000  0.51160000  0.87970000  1.0 -0.1906846038
C  C83  1  0.36810000  0.48840000  0.07070000  1.0 -0.1906846038
C  C84  1  0.13190000  0.20260000  0.12030000  1.0 -0.1906846038
C  C85  1  0.08230000  0.20260000  0.07070000  1.0 -0.1906846038
C  C86  1  0.41770000  0.48840000  0.12030000  1.0 -0.1906846038
C  C87  1  0.63190000  0.51160000  0.92930000  1.0 -0.1906846038
C  C88  1  0.86810000  0.79740000  0.87970000  1.0 -0.1906846038
C  C89  1  0.12420000  0.64280000  0.85760000  1.0 0.5972319001
C  C90  1  0.37580000  0.23340000  0.51860000  1.0 0.5972319001
C  C91  1  0.28520000  0.76660000  0.14240000  1.0 0.5972319001
C  C92  1  0.21480000  0.35720000  0.48140000  1.0 0.5972319001
C  C93  1  0.87580000  0.35720000  0.14240000  1.0 0.5972319001
C  C94  1  0.62420000  0.76660000  0.48140000  1.0 0.5972319001
C  C95  1  0.71480000  0.23340000  0.85760000  1.0 0.5972319001
C  C96  1  0.78520000  0.64280000  0.51860000  1.0 0.5972319001
C  C97  1  0.15440000  0.96950000  0.26970000  1.0 0.6212603578
C  C98  1  0.34560000  0.61530000  0.81510000  1.0 0.6212603578
C  C99  1  0.19980000  0.38470000  0.73030000  1.0 0.6212603578
C  C100  1  0.30020000  0.03050000  0.18490000  1.0 0.6212603578
C  C101  1  0.84560000  0.03050000  0.73030000  1.0 0.6212603578
C  C102  1  0.65440000  0.38470000  0.18490000  1.0 0.6212603578
C  C103  1  0.80020000  0.61530000  0.26970000  1.0 0.6212603578
C  C104  1  0.69980000  0.96950000  0.81510000  1.0 0.6212603578
N  N1  1  0.81970000  0.71850000  0.89880000  1.0 -0.3155828438
N  N2  1  0.68030000  0.57910000  0.89880000  1.0 -0.3155828438
N  N3  1  0.31970000  0.42090000  0.10120000  1.0 -0.3125036529
N  N4  1  0.18030000  0.28150000  0.10120000  1.0 -0.3125036529
N  N5  1  0.82630000  0.65180000  0.97810000  1.0 -0.2975929848
N  N6  1  0.67370000  0.65180000  0.82550000  1.0 -0.2975929848
N  N7  1  0.17370000  0.34820000  0.02190000  1.0 -0.2975929848
N  N8  1  0.32630000  0.34820000  0.17450000  1.0 -0.2975929848
O  O1  1  0.18490000  0.67100000  0.87670000  1.0 -0.6846791952
O  O2  1  0.31510000  0.19180000  0.48610000  1.0 -0.6846791952
O  O3  1  0.29430000  0.80820000  0.12330000  1.0 -0.6846791952
O  O4  1  0.20570000  0.32900000  0.51390000  1.0 -0.6846791952
O  O5  1  0.81510000  0.32900000  0.12330000  1.0 -0.6846791952
O  O6  1  0.68490000  0.80820000  0.51390000  1.0 -0.6868384899
O  O7  1  0.70570000  0.19180000  0.87670000  1.0 -0.6846791952
O  O8  1  0.79430000  0.67100000  0.48610000  1.0 -0.6846791952
O  O9  1  0.21370000  0.97260000  0.29070000  1.0 -0.6868384899
O  O10  1  0.28630000  0.57700000  0.75890000  1.0 -0.6868384899
O  O11  1  0.18190000  0.42300000  0.70930000  1.0 -0.6868384899
O  O12  1  0.31810000  0.02740000  0.24110000  1.0 -0.6868384899
O  O13  1  0.78630000  0.02740000  0.70930000  1.0 -0.6868384899
O  O14  1  0.71370000  0.42300000  0.24110000  1.0 -0.6868384899
O  O15  1  0.81810000  0.57700000  0.29070000  1.0 -0.6868384899
O  O16  1  0.68190000  0.97260000  0.75890000  1.0 -0.6868384899
O  O17  1  0.08490000  0.54510000  0.75740000  1.0 -0.67276934
O  O18  1  0.41510000  0.17250000  0.46020000  1.0 -0.67276934
O  O19  1  0.28770000  0.82750000  0.24260000  1.0 -0.67276934
O  O20  1  0.21230000  0.45490000  0.53980000  1.0 -0.67276934
O  O21  1  0.91510000  0.45490000  0.24260000  1.0 -0.67276934
O  O22  1  0.58490000  0.82750000  0.53980000  1.0 -0.67276934
O  O23  1  0.71230000  0.17250000  0.75740000  1.0 -0.67276934
O  O24  1  0.78770000  0.54510000  0.46020000  1.0 -0.67276934
O  O25  1  0.12810000  0.04440000  0.34390000  1.0 -0.5937940329
O  O26  1  0.37190000  0.71580000  0.91630000  1.0 -0.5937940329
O  O27  1  0.20050000  0.28420000  0.65610000  1.0 -0.5937940329
O  O28  1  0.29950000  0.95560000  0.08370000  1.0 -0.5937940329
O  O29  1  0.87190000  0.95560000  0.65610000  1.0 -0.5937940329
O  O30  1  0.62810000  0.28420000  0.08370000  1.0 -0.5937940329
O  O31  1  0.79950000  0.71580000  0.34390000  1.0 -0.5937940329
O  O32  1  0.70050000  0.04440000  0.91630000  1.0 -0.5954583905
