# DDEC6 charges by PACMAN v1.1 (https://github.com/mtap-research/PACMAN-charge/)
data_HABCIZ_ASR_pacman
_symmetry_space_group_name_H-M   'P 1'
_cell_length_a   21.02700000
_cell_length_b   21.02700000
_cell_length_c   21.02700000
_cell_angle_alpha   144.06600000
_cell_angle_beta   99.72880000
_cell_angle_gamma   91.22160000
_symmetry_Int_Tables_number   1
_chemical_formula_structural   NaSmZnH10C26(NO4)2
_chemical_formula_sum   'Na4 Sm4 Zn4 H40 C104 N8 O32'
_cell_volume   5172.47848555
_cell_formula_units_Z   4
loop_
 _symmetry_equiv_pos_site_id
 _symmetry_equiv_pos_as_xyz
  1  'x, y, z'
loop_
 _atom_site_type_symbol
 _atom_site_label
 _atom_site_symmetry_multiplicity
 _atom_site_fract_x
 _atom_site_fract_y
 _atom_site_fract_z
 _atom_site_occupancy
 _atom_site_charge
Na  Na1  1  0.20972000  0.20972000  0.50000000  1.0 0.882958707
Na  Na2  1  0.29028000  0.79028000  0.00000000  1.0 0.8873212306
Na  Na3  1  0.79028000  0.79028000  0.50000000  1.0 0.8873212306
Na  Na4  1  0.70972000  0.20972000  0.00000000  1.0 0.8873212306
Sm  Sm1  1  0.32737000  0.00000000  0.32737000  1.0 2.0805906026
Sm  Sm2  1  0.17263000  0.50000000  0.67263000  1.0 2.0805906026
Sm  Sm3  1  0.67263000  0.00000000  0.67263000  1.0 2.0805906026
Sm  Sm4  1  0.82737000  0.50000000  0.32737000  1.0 2.0805906026
Zn  Zn1  1  0.75000000  0.69040000  0.94040000  1.0 0.3612242012
Zn  Zn2  1  0.25000000  0.30960000  0.05960000  1.0 0.3612242012
Zn  Zn3  1  0.75000000  0.63390000  0.88390000  1.0 0.3612242012
Zn  Zn4  1  0.25000000  0.36610000  0.11610000  1.0 0.3612242012
H  H1  1  0.02180000  0.90020000  0.19540000  1.0 0.1215000591
H  H2  1  0.47820000  0.67360000  0.87840000  1.0 0.1215000591
H  H3  1  0.20480000  0.32640000  0.80460000  1.0 0.1215000591
H  H4  1  0.29520000  0.09980000  0.12160000  1.0 0.1215000591
H  H5  1  0.97820000  0.09980000  0.80460000  1.0 0.1215000591
H  H6  1  0.52180000  0.32640000  0.12160000  1.0 0.1215000591
H  H7  1  0.79520000  0.67360000  0.19540000  1.0 0.1215000591
H  H8  1  0.70480000  0.90020000  0.87840000  1.0 0.1215000591
H  H9  1  0.99300000  0.62700000  0.85480000  1.0 0.1215000591
H  H10  1  0.50700000  0.36180000  0.63400000  1.0 0.1215000591
H  H11  1  0.27220000  0.63820000  0.14520000  1.0 0.1215000591
H  H12  1  0.22780000  0.37300000  0.36600000  1.0 0.1215000591
H  H13  1  0.00700000  0.37300000  0.14520000  1.0 0.1215000591
H  H14  1  0.49300000  0.63820000  0.36600000  1.0 0.1215000591
H  H15  1  0.72780000  0.36180000  0.85480000  1.0 0.1215000591
H  H16  1  0.77220000  0.62700000  0.63400000  1.0 0.1215000591
H  H17  1  0.18150000  0.81900000  0.08430000  1.0 0.1105845837
H  H18  1  0.31850000  0.40280000  0.63750000  1.0 0.1105845837
H  H19  1  0.23470000  0.59720000  0.91570000  1.0 0.1105845837
H  H20  1  0.26530000  0.18100000  0.36250000  1.0 0.1105845837
H  H21  1  0.81850000  0.18100000  0.91570000  1.0 0.1105845837
H  H22  1  0.68150000  0.59720000  0.36250000  1.0 0.1105845837
H  H23  1  0.76530000  0.40280000  0.08430000  1.0 0.1105845837
H  H24  1  0.73470000  0.81900000  0.63750000  1.0 0.1105845837
H  H25  1  0.97820000  0.69110000  0.08170000  1.0 0.1215000591
H  H26  1  0.52180000  0.60350000  0.71290000  1.0 0.1215000591
H  H27  1  0.10940000  0.39650000  0.91830000  1.0 0.1215000591
H  H28  1  0.39060000  0.30890000  0.28710000  1.0 0.1215000591
H  H29  1  0.02180000  0.30890000  0.91830000  1.0 0.1215000591
H  H30  1  0.47820000  0.39650000  0.28710000  1.0 0.1215000591
H  H31  1  0.89060000  0.60350000  0.08170000  1.0 0.1215000591
H  H32  1  0.60940000  0.69110000  0.71290000  1.0 0.1215000591
H  H33  1  0.96250000  0.83170000  0.95500000  1.0 0.1215000591
H  H34  1  0.53750000  0.49250000  0.86920000  1.0 0.1215000591
H  H35  1  0.37670000  0.50750000  0.04500000  1.0 0.1215000591
H  H36  1  0.12330000  0.16830000  0.13080000  1.0 0.1215000591
H  H37  1  0.03750000  0.16830000  0.04500000  1.0 0.1215000591
H  H38  1  0.46250000  0.50750000  0.13080000  1.0 0.1215000591
H  H39  1  0.62330000  0.49250000  0.95500000  1.0 0.1215000591
H  H40  1  0.87670000  0.83170000  0.86920000  1.0 0.1215000591
C  C1  1  0.92300000  0.73730000  0.99490000  1.0 -0.0468063205
C  C2  1  0.57700000  0.57190000  0.81430000  1.0 -0.0468063205
C  C3  1  0.24240000  0.42810000  0.00510000  1.0 -0.0444969567
C  C4  1  0.25760000  0.26270000  0.18570000  1.0 -0.0468063205
C  C5  1  0.07700000  0.26270000  0.00510000  1.0 -0.0444969567
C  C6  1  0.42300000  0.42810000  0.18570000  1.0 -0.0468063205
C  C7  1  0.75760000  0.57190000  0.99490000  1.0 -0.0468063205
C  C8  1  0.74240000  0.73730000  0.81430000  1.0 -0.0468063205
C  C9  1  0.03970000  0.85320000  0.13390000  1.0 -0.1268203975
C  C10  1  0.46030000  0.59420000  0.81350000  1.0 -0.1268203975
C  C11  1  0.21930000  0.40580000  0.86610000  1.0 -0.1268203975
C  C12  1  0.28070000  0.14680000  0.18650000  1.0 -0.1268203975
C  C13  1  0.96030000  0.14680000  0.86610000  1.0 -0.1268203975
C  C14  1  0.53970000  0.40580000  0.18650000  1.0 -0.1268203975
C  C15  1  0.78070000  0.59420000  0.13390000  1.0 -0.1268203975
C  C16  1  0.71930000  0.85320000  0.81350000  1.0 -0.1268203975
C  C17  1  0.02170000  0.69150000  0.93160000  1.0 -0.1408759163
C  C18  1  0.47830000  0.40990000  0.66980000  1.0 -0.1408759163
C  C19  1  0.25990000  0.59010000  0.06840000  1.0 -0.1408759163
C  C20  1  0.24010000  0.30850000  0.33020000  1.0 -0.1408759163
C  C21  1  0.97830000  0.30850000  0.06840000  1.0 -0.1408759163
C  C22  1  0.52170000  0.59010000  0.33020000  1.0 -0.1408759163
C  C23  1  0.74010000  0.40990000  0.93160000  1.0 -0.1408759163
C  C24  1  0.75990000  0.69150000  0.66980000  1.0 -0.1408759163
C  C25  1  0.09290000  0.71940000  0.95810000  1.0 -0.0296675536
C  C26  1  0.40710000  0.36520000  0.62650000  1.0 -0.0296675536
C  C27  1  0.26130000  0.63480000  0.04190000  1.0 -0.0296675536
C  C28  1  0.23870000  0.28060000  0.37350000  1.0 -0.0296675536
C  C29  1  0.90710000  0.28060000  0.04190000  1.0 -0.0296675536
C  C30  1  0.59290000  0.63480000  0.37350000  1.0 -0.0296675536
C  C31  1  0.73870000  0.36520000  0.95810000  1.0 -0.0296675536
C  C32  1  0.76130000  0.71940000  0.62650000  1.0 -0.0296675536
C  C33  1  0.99680000  0.76110000  0.02070000  1.0 0.0578832688
C  C34  1  0.50320000  0.52390000  0.76430000  1.0 0.0578832688
C  C35  1  0.24040000  0.47610000  0.97930000  1.0 0.0578832688
C  C36  1  0.25960000  0.23890000  0.23570000  1.0 0.0578832688
C  C37  1  0.00320000  0.23890000  0.97930000  1.0 0.0578832688
C  C38  1  0.49680000  0.47610000  0.23570000  1.0 0.0578832688
C  C39  1  0.75960000  0.52390000  0.02070000  1.0 0.0578832688
C  C40  1  0.74040000  0.76110000  0.76430000  1.0 0.0578832688
C  C41  1  0.89320000  0.69010000  0.00930000  1.0 0.1386068385
C  C42  1  0.60680000  0.61610000  0.79690000  1.0 0.1386068385
C  C43  1  0.18080000  0.38390000  0.99070000  1.0 0.1386068385
C  C44  1  0.31920000  0.30990000  0.20310000  1.0 0.1386068385
C  C45  1  0.10680000  0.30990000  0.99070000  1.0 0.1386068385
C  C46  1  0.39320000  0.38390000  0.20310000  1.0 0.1386068385
C  C47  1  0.81920000  0.61610000  0.00930000  1.0 0.1386068385
C  C48  1  0.68080000  0.69010000  0.79690000  1.0 0.1386068385
C  C49  1  0.13430000  0.80620000  0.06810000  1.0 -0.1268203975
C  C50  1  0.36570000  0.43380000  0.67190000  1.0 -0.1268203975
C  C51  1  0.23810000  0.56620000  0.93190000  1.0 -0.1268203975
C  C52  1  0.26190000  0.19380000  0.32810000  1.0 -0.1268203975
C  C53  1  0.86570000  0.19380000  0.93190000  1.0 -0.1268203975
C  C54  1  0.63430000  0.56620000  0.32810000  1.0 -0.1268203975
C  C55  1  0.76190000  0.43380000  0.06810000  1.0 -0.1268203975
C  C56  1  0.73810000  0.80620000  0.67190000  1.0 -0.1268203975
C  C57  1  0.93070000  0.67360000  0.05590000  1.0 -0.2041709902
C  C58  1  0.56930000  0.62520000  0.74290000  1.0 -0.2041709902
C  C59  1  0.11770000  0.37480000  0.94410000  1.0 -0.2041709902
C  C60  1  0.38230000  0.32640000  0.25710000  1.0 -0.2041709902
C  C61  1  0.06930000  0.32640000  0.94410000  1.0 -0.2041709902
C  C62  1  0.43070000  0.37480000  0.25710000  1.0 -0.2041709902
C  C63  1  0.88230000  0.62520000  0.05590000  1.0 -0.2041709902
C  C64  1  0.61770000  0.67360000  0.74290000  1.0 -0.2041709902
C  C65  1  0.88710000  0.75390000  0.94640000  1.0 0.1386068385
C  C66  1  0.61290000  0.55930000  0.86680000  1.0 0.1386068385
C  C67  1  0.30750000  0.44070000  0.05360000  1.0 0.1386068385
C  C68  1  0.19250000  0.24610000  0.13320000  1.0 0.1386068385
C  C69  1  0.11290000  0.24610000  0.05360000  1.0 0.1386068385
C  C70  1  0.38710000  0.44070000  0.13320000  1.0 0.1386068385
C  C71  1  0.69250000  0.55930000  0.94640000  1.0 0.1386068385
C  C72  1  0.80750000  0.75390000  0.86680000  1.0 0.1386068385
C  C73  1  0.10680000  0.87480000  0.15500000  1.0 -0.0468063205
C  C74  1  0.39320000  0.54820000  0.76800000  1.0 -0.0468063205
C  C75  1  0.21980000  0.45180000  0.84500000  1.0 -0.0468063205
C  C76  1  0.28020000  0.12520000  0.23200000  1.0 -0.0468063205
C  C77  1  0.89320000  0.12520000  0.84500000  1.0 -0.0468063205
C  C78  1  0.60680000  0.45180000  0.23200000  1.0 -0.0468063205
C  C79  1  0.78020000  0.54820000  0.15500000  1.0 -0.0468063205
C  C80  1  0.71980000  0.87480000  0.76800000  1.0 -0.0468063205
C  C81  1  0.91590000  0.80340000  0.93270000  1.0 -0.1672981301
C  C82  1  0.58410000  0.51680000  0.88750000  1.0 -0.1672981301
C  C83  1  0.37070000  0.48320000  0.06730000  1.0 -0.1672981301
C  C84  1  0.12930000  0.19660000  0.11250000  1.0 -0.1672981301
C  C85  1  0.08410000  0.19660000  0.06730000  1.0 -0.1672981301
C  C86  1  0.41590000  0.48320000  0.11250000  1.0 -0.1672981301
C  C87  1  0.62930000  0.51680000  0.93270000  1.0 -0.1672981301
C  C88  1  0.87070000  0.80340000  0.88750000  1.0 -0.1672981301
C  C89  1  0.12240000  0.64970000  0.86450000  1.0 0.6058027712
C  C90  1  0.37760000  0.24210000  0.52730000  1.0 0.6049296228
C  C91  1  0.28520000  0.75790000  0.13550000  1.0 0.6049296228
C  C92  1  0.21480000  0.35030000  0.47270000  1.0 0.6049296228
C  C93  1  0.87760000  0.35030000  0.13550000  1.0 0.6058027712
C  C94  1  0.62240000  0.75790000  0.47270000  1.0 0.6058027712
C  C95  1  0.71480000  0.24210000  0.86450000  1.0 0.6058027712
C  C96  1  0.78520000  0.64970000  0.52730000  1.0 0.6058027712
C  C97  1  0.15200000  0.97070000  0.27330000  1.0 0.6170094578
C  C98  1  0.34800000  0.62130000  0.81870000  1.0 0.6170094578
C  C99  1  0.19740000  0.37870000  0.72670000  1.0 0.6170094578
C  C100  1  0.30260000  0.02930000  0.18130000  1.0 0.6170094578
C  C101  1  0.84800000  0.02930000  0.72670000  1.0 0.6170094578
C  C102  1  0.65200000  0.37870000  0.18130000  1.0 0.6170094578
C  C103  1  0.80260000  0.62130000  0.27330000  1.0 0.6170094578
C  C104  1  0.69740000  0.97070000  0.81870000  1.0 0.6170094578
N  N1  1  0.81950000  0.72780000  0.90830000  1.0 -0.3066086801
N  N2  1  0.68050000  0.58880000  0.90830000  1.0 -0.3066086801
N  N3  1  0.31950000  0.41120000  0.09170000  1.0 -0.3066086801
N  N4  1  0.18050000  0.27220000  0.09170000  1.0 -0.3066086801
N  N5  1  0.82560000  0.66210000  0.98770000  1.0 -0.3182843061
N  N6  1  0.67440000  0.66210000  0.83650000  1.0 -0.3182843061
N  N7  1  0.17440000  0.33790000  0.01230000  1.0 -0.3182843061
N  N8  1  0.32560000  0.33790000  0.16350000  1.0 -0.3182843061
O  O1  1  0.18271000  0.67221000  0.88030000  1.0 -0.6688981982
O  O2  1  0.31729000  0.19759000  0.48950000  1.0 -0.6688981982
O  O3  1  0.29191000  0.80241000  0.11970000  1.0 -0.6688981982
O  O4  1  0.20809000  0.32779000  0.51050000  1.0 -0.6688981982
O  O5  1  0.81729000  0.32779000  0.11970000  1.0 -0.6688981982
O  O6  1  0.68271000  0.80241000  0.51050000  1.0 -0.6688981982
O  O7  1  0.70809000  0.19759000  0.88030000  1.0 -0.6688981982
O  O8  1  0.79191000  0.67221000  0.48950000  1.0 -0.6688981982
O  O9  1  0.21140000  0.98420000  0.29480000  1.0 -0.6458612116
O  O10  1  0.28860000  0.58340000  0.77280000  1.0 -0.6442768963
O  O11  1  0.18940000  0.41660000  0.70520000  1.0 -0.6442768963
O  O12  1  0.31060000  0.01580000  0.22720000  1.0 -0.6442768963
O  O13  1  0.78860000  0.01580000  0.70520000  1.0 -0.6442768963
O  O14  1  0.71140000  0.41660000  0.22720000  1.0 -0.6458612116
O  O15  1  0.81060000  0.58340000  0.29480000  1.0 -0.6458612116
O  O16  1  0.68940000  0.98420000  0.77280000  1.0 -0.6442768963
O  O17  1  0.08360000  0.55680000  0.76040000  1.0 -0.6854666077
O  O18  1  0.41640000  0.17680000  0.47320000  1.0 -0.6854666077
O  O19  1  0.29640000  0.82320000  0.23960000  1.0 -0.6854666077
O  O20  1  0.20360000  0.44320000  0.52680000  1.0 -0.6854666077
O  O21  1  0.91640000  0.44320000  0.23960000  1.0 -0.6854666077
O  O22  1  0.58360000  0.82320000  0.52680000  1.0 -0.6854666077
O  O23  1  0.70360000  0.17680000  0.76040000  1.0 -0.6838049324
O  O24  1  0.79640000  0.55680000  0.47320000  1.0 -0.6854666077
O  O25  1  0.12910000  0.05460000  0.35610000  1.0 -0.6180259766
O  O26  1  0.37090000  0.72700000  0.92550000  1.0 -0.6180259766
O  O27  1  0.19850000  0.27300000  0.64390000  1.0 -0.6180259766
O  O28  1  0.30150000  0.94540000  0.07450000  1.0 -0.6180259766
O  O29  1  0.87090000  0.94540000  0.64390000  1.0 -0.6180259766
O  O30  1  0.62910000  0.27300000  0.07450000  1.0 -0.6180259766
O  O31  1  0.80150000  0.72700000  0.35610000  1.0 -0.6180259766
O  O32  1  0.69850000  0.05460000  0.92550000  1.0 -0.6180259766
