# DDEC6 charges by PACMAN v1.1 (https://github.com/mtap-research/PACMAN-charge/)
data_HABDAS_ASR_pacman
_symmetry_space_group_name_H-M   'P 1'
_cell_length_a   20.97750000
_cell_length_b   20.97750000
_cell_length_c   20.97750000
_cell_angle_alpha   143.56600000
_cell_angle_beta   98.32640000
_cell_angle_gamma   92.90270000
_symmetry_Int_Tables_number   1
_chemical_formula_structural   NaEuZnH10C26(NO4)2
_chemical_formula_sum   'Na4 Eu4 Zn4 H40 C104 N8 O32'
_cell_volume   5200.55487628
_cell_formula_units_Z   4
loop_
 _symmetry_equiv_pos_site_id
 _symmetry_equiv_pos_as_xyz
  1  'x, y, z'
loop_
 _atom_site_type_symbol
 _atom_site_label
 _atom_site_symmetry_multiplicity
 _atom_site_fract_x
 _atom_site_fract_y
 _atom_site_fract_z
 _atom_site_occupancy
 _atom_site_charge
Na  Na1  1  0.20860000  0.20860000  0.50000000  1.0 0.8739844189
Na  Na2  1  0.29140000  0.79140000  0.00000000  1.0 0.8773238883
Na  Na3  1  0.79140000  0.79140000  0.50000000  1.0 0.8739844189
Na  Na4  1  0.70860000  0.20860000  0.00000000  1.0 0.8773238883
Eu  Eu1  1  0.32764000  0.00000000  0.32764000  1.0 2.0515312776
Eu  Eu2  1  0.17236000  0.50000000  0.67236000  1.0 2.0515312776
Eu  Eu3  1  0.67236000  0.00000000  0.67236000  1.0 2.0515312776
Eu  Eu4  1  0.82764000  0.50000000  0.32764000  1.0 2.0515312776
Zn  Zn1  1  0.75000000  0.63930000  0.88930000  1.0 0.3476064876
Zn  Zn2  1  0.25000000  0.36070000  0.11070000  1.0 0.3438770995
Zn  Zn3  1  0.75000000  0.69490000  0.94490000  1.0 0.3476064876
Zn  Zn4  1  0.25000000  0.30510000  0.05510000  1.0 0.3438770995
H  H1  1  0.02200000  0.90470000  0.19430000  1.0 0.1189121173
H  H2  1  0.47800000  0.67230000  0.88270000  1.0 0.1189121173
H  H3  1  0.21040000  0.32770000  0.80570000  1.0 0.1189121173
H  H4  1  0.28960000  0.09530000  0.11730000  1.0 0.1189121173
H  H5  1  0.97800000  0.09530000  0.80570000  1.0 0.1189121173
H  H6  1  0.52200000  0.32770000  0.11730000  1.0 0.1189121173
H  H7  1  0.78960000  0.67230000  0.19430000  1.0 0.1189121173
H  H8  1  0.71040000  0.90470000  0.88270000  1.0 0.1189121173
H  H9  1  0.99360000  0.63900000  0.86080000  1.0 0.1189121173
H  H10  1  0.50640000  0.36720000  0.64540000  1.0 0.1189121173
H  H11  1  0.27820000  0.63280000  0.13920000  1.0 0.1189121173
H  H12  1  0.22180000  0.36100000  0.35460000  1.0 0.1189121173
H  H13  1  0.00640000  0.36100000  0.13920000  1.0 0.1189121173
H  H14  1  0.49360000  0.63280000  0.35460000  1.0 0.1189121173
H  H15  1  0.72180000  0.36720000  0.86080000  1.0 0.1189121173
H  H16  1  0.77820000  0.63900000  0.64540000  1.0 0.1189121173
H  H17  1  0.18440000  0.82550000  0.08390000  1.0 0.101152705
H  H18  1  0.31560000  0.39950000  0.64110000  1.0 0.101152705
H  H19  1  0.24160000  0.60050000  0.91610000  1.0 0.101152705
H  H20  1  0.25840000  0.17450000  0.35890000  1.0 0.101152705
H  H21  1  0.81560000  0.17450000  0.91610000  1.0 0.101152705
H  H22  1  0.68440000  0.60050000  0.35890000  1.0 0.101152705
H  H23  1  0.75840000  0.39950000  0.08390000  1.0 0.101152705
H  H24  1  0.74160000  0.82550000  0.64110000  1.0 0.101152705
H  H25  1  0.97690000  0.69800000  0.08750000  1.0 0.1189121173
H  H26  1  0.52310000  0.61060000  0.72110000  1.0 0.1189121173
H  H27  1  0.11050000  0.38940000  0.91250000  1.0 0.1149360463
H  H28  1  0.38950000  0.30200000  0.27890000  1.0 0.1189121173
H  H29  1  0.02310000  0.30200000  0.91250000  1.0 0.1149360463
H  H30  1  0.47690000  0.38940000  0.27890000  1.0 0.1189121173
H  H31  1  0.88950000  0.61060000  0.08750000  1.0 0.1189121173
H  H32  1  0.61050000  0.69800000  0.72110000  1.0 0.1189121173
H  H33  1  0.96690000  0.83210000  0.95480000  1.0 0.1189121173
H  H34  1  0.53310000  0.48790000  0.86520000  1.0 0.1189121173
H  H35  1  0.37730000  0.51210000  0.04520000  1.0 0.1189121173
H  H36  1  0.12270000  0.16790000  0.13480000  1.0 0.1189121173
H  H37  1  0.03310000  0.16790000  0.04520000  1.0 0.1189121173
H  H38  1  0.46690000  0.51210000  0.13480000  1.0 0.1189121173
H  H39  1  0.62270000  0.48790000  0.95480000  1.0 0.1189121173
H  H40  1  0.87730000  0.83210000  0.86520000  1.0 0.1189121173
C  C1  1  0.92210000  0.74120000  0.99650000  1.0 -0.1007225513
C  C2  1  0.57790000  0.57440000  0.81910000  1.0 -0.1007225513
C  C3  1  0.24470000  0.42560000  0.00350000  1.0 -0.1007225513
C  C4  1  0.25530000  0.25880000  0.18090000  1.0 -0.1007225513
C  C5  1  0.07790000  0.25880000  0.00350000  1.0 -0.1007225513
C  C6  1  0.42210000  0.42560000  0.18090000  1.0 -0.1007225513
C  C7  1  0.75530000  0.57440000  0.99650000  1.0 -0.1007225513
C  C8  1  0.74470000  0.74120000  0.81910000  1.0 -0.1007225513
C  C9  1  0.04030000  0.85670000  0.13360000  1.0 -0.141791366
C  C10  1  0.45970000  0.59330000  0.81640000  1.0 -0.141791366
C  C11  1  0.22310000  0.40670000  0.86640000  1.0 -0.141791366
C  C12  1  0.27690000  0.14330000  0.18360000  1.0 -0.141791366
C  C13  1  0.95970000  0.14330000  0.86640000  1.0 -0.141791366
C  C14  1  0.54030000  0.40670000  0.18360000  1.0 -0.141791366
C  C15  1  0.77690000  0.59330000  0.13360000  1.0 -0.141791366
C  C16  1  0.72310000  0.85670000  0.81640000  1.0 -0.141791366
C  C17  1  0.02300000  0.69940000  0.93620000  1.0 -0.1472016852
C  C18  1  0.47700000  0.41320000  0.67640000  1.0 -0.1472016852
C  C19  1  0.26320000  0.58680000  0.06380000  1.0 -0.1472016852
C  C20  1  0.23680000  0.30060000  0.32360000  1.0 -0.1472016852
C  C21  1  0.97700000  0.30060000  0.06380000  1.0 -0.1472016852
C  C22  1  0.52300000  0.58680000  0.32360000  1.0 -0.1472016852
C  C23  1  0.73680000  0.41320000  0.93620000  1.0 -0.1472016852
C  C24  1  0.76320000  0.69940000  0.67640000  1.0 -0.1472016852
C  C25  1  0.09400000  0.71870000  0.95670000  1.0 -0.0231132489
C  C26  1  0.40600000  0.36270000  0.62470000  1.0 -0.0231132489
C  C27  1  0.26200000  0.63730000  0.04330000  1.0 -0.0231132489
C  C28  1  0.23800000  0.28130000  0.37530000  1.0 -0.0231132489
C  C29  1  0.90600000  0.28130000  0.04330000  1.0 -0.0231132489
C  C30  1  0.59400000  0.63730000  0.37530000  1.0 -0.0231132489
C  C31  1  0.73800000  0.36270000  0.95670000  1.0 -0.0231132489
C  C32  1  0.76200000  0.71870000  0.62470000  1.0 -0.0231132489
C  C33  1  0.99720000  0.76550000  0.02250000  1.0 0.0670330097
C  C34  1  0.50280000  0.52530000  0.76830000  1.0 0.0670330097
C  C35  1  0.24300000  0.47470000  0.97750000  1.0 0.0670330097
C  C36  1  0.25700000  0.23450000  0.23170000  1.0 0.0670330097
C  C37  1  0.00280000  0.23450000  0.97750000  1.0 0.0670330097
C  C38  1  0.49720000  0.47470000  0.23170000  1.0 0.0670330097
C  C39  1  0.75700000  0.52530000  0.02250000  1.0 0.0670330097
C  C40  1  0.74300000  0.76550000  0.76830000  1.0 0.0670330097
C  C41  1  0.89330000  0.70020000  0.01610000  1.0 0.1577556133
C  C42  1  0.60670000  0.62280000  0.80690000  1.0 0.1577556133
C  C43  1  0.18410000  0.37720000  0.98390000  1.0 0.1577556133
C  C44  1  0.31590000  0.29980000  0.19310000  1.0 0.1577556133
C  C45  1  0.10670000  0.29980000  0.98390000  1.0 0.1577556133
C  C46  1  0.39330000  0.37720000  0.19310000  1.0 0.1577556133
C  C47  1  0.81590000  0.62280000  0.01610000  1.0 0.1577556133
C  C48  1  0.68410000  0.70020000  0.80690000  1.0 0.1577556133
C  C49  1  0.13710000  0.81020000  0.06850000  1.0 -0.132513727
C  C50  1  0.36290000  0.43140000  0.67310000  1.0 -0.132513727
C  C51  1  0.24170000  0.56860000  0.93150000  1.0 -0.132513727
C  C52  1  0.25830000  0.18980000  0.32690000  1.0 -0.132513727
C  C53  1  0.86290000  0.18980000  0.93150000  1.0 -0.132513727
C  C54  1  0.63710000  0.56860000  0.32690000  1.0 -0.132513727
C  C55  1  0.75830000  0.43140000  0.06850000  1.0 -0.132513727
C  C56  1  0.74170000  0.81020000  0.67310000  1.0 -0.132513727
C  C57  1  0.92960000  0.68100000  0.06240000  1.0 -0.1817725263
C  C58  1  0.57040000  0.63280000  0.75140000  1.0 -0.1817725263
C  C59  1  0.11860000  0.36720000  0.93760000  1.0 -0.1817725263
C  C60  1  0.38140000  0.31900000  0.24860000  1.0 -0.1817725263
C  C61  1  0.07040000  0.31900000  0.93760000  1.0 -0.1817725263
C  C62  1  0.42960000  0.36720000  0.24860000  1.0 -0.1817725263
C  C63  1  0.88140000  0.63280000  0.06240000  1.0 -0.1817725263
C  C64  1  0.61860000  0.68100000  0.75140000  1.0 -0.1817725263
C  C65  1  0.88880000  0.75780000  0.95040000  1.0 0.1481902693
C  C66  1  0.61120000  0.56160000  0.86900000  1.0 0.1481902693
C  C67  1  0.30740000  0.43840000  0.04960000  1.0 0.1481902693
C  C68  1  0.19260000  0.24220000  0.13100000  1.0 0.1481902693
C  C69  1  0.11120000  0.24220000  0.04960000  1.0 0.1481902693
C  C70  1  0.38880000  0.43840000  0.13100000  1.0 0.1481902693
C  C71  1  0.69260000  0.56160000  0.95040000  1.0 0.1481902693
C  C72  1  0.80740000  0.75780000  0.86900000  1.0 0.1481902693
C  C73  1  0.10940000  0.87830000  0.15650000  1.0 -0.0439481697
C  C74  1  0.39060000  0.54710000  0.76890000  1.0 -0.0439481697
C  C75  1  0.22180000  0.45290000  0.84350000  1.0 -0.0439481697
C  C76  1  0.27820000  0.12170000  0.23110000  1.0 -0.0439481697
C  C77  1  0.89060000  0.12170000  0.84350000  1.0 -0.0439481697
C  C78  1  0.60940000  0.45290000  0.23110000  1.0 -0.0439481697
C  C79  1  0.77820000  0.54710000  0.15650000  1.0 -0.0439481697
C  C80  1  0.72180000  0.87830000  0.76890000  1.0 -0.0439481697
C  C81  1  0.92000000  0.80540000  0.93440000  1.0 -0.1817725263
C  C82  1  0.58000000  0.51440000  0.88540000  1.0 -0.1817725263
C  C83  1  0.37100000  0.48560000  0.06560000  1.0 -0.1817725263
C  C84  1  0.12900000  0.19460000  0.11460000  1.0 -0.1817725263
C  C85  1  0.08000000  0.19460000  0.06560000  1.0 -0.1817725263
C  C86  1  0.42000000  0.48560000  0.11460000  1.0 -0.1817725263
C  C87  1  0.62900000  0.51440000  0.93440000  1.0 -0.1817725263
C  C88  1  0.87100000  0.80540000  0.88540000  1.0 -0.1817725263
C  C89  1  0.12340000  0.64870000  0.86350000  1.0 0.5930465385
C  C90  1  0.37660000  0.24010000  0.52530000  1.0 0.5930465385
C  C91  1  0.28520000  0.75990000  0.13650000  1.0 0.5930465385
C  C92  1  0.21480000  0.35130000  0.47470000  1.0 0.5930465385
C  C93  1  0.87660000  0.35130000  0.13650000  1.0 0.5930465385
C  C94  1  0.62340000  0.75990000  0.47470000  1.0 0.5930465385
C  C95  1  0.71480000  0.24010000  0.86350000  1.0 0.5930465385
C  C96  1  0.78520000  0.64870000  0.52530000  1.0 0.5930465385
C  C97  1  0.15690000  0.97180000  0.27230000  1.0 0.6168301926
C  C98  1  0.34310000  0.61540000  0.81490000  1.0 0.6168301926
C  C99  1  0.19950000  0.38460000  0.72770000  1.0 0.6168301926
C  C100  1  0.30050000  0.02820000  0.18510000  1.0 0.6168301926
C  C101  1  0.84310000  0.02820000  0.72770000  1.0 0.6168301926
C  C102  1  0.65690000  0.38460000  0.18510000  1.0 0.6168301926
C  C103  1  0.80050000  0.61540000  0.27230000  1.0 0.6168301926
C  C104  1  0.69950000  0.97180000  0.81490000  1.0 0.6168301926
N  N1  1  0.81970000  0.73040000  0.91070000  1.0 -0.3090397268
N  N2  1  0.68030000  0.59100000  0.91070000  1.0 -0.3090397268
N  N3  1  0.31970000  0.40900000  0.08930000  1.0 -0.3090397268
N  N4  1  0.18030000  0.26960000  0.08930000  1.0 -0.3090397268
N  N5  1  0.82460000  0.66730000  0.99190000  1.0 -0.2957976833
N  N6  1  0.67540000  0.66730000  0.84270000  1.0 -0.2957976833
N  N7  1  0.17540000  0.33270000  0.00810000  1.0 -0.2940396443
N  N8  1  0.32460000  0.33270000  0.15730000  1.0 -0.2940396443
O  O1  1  0.18320000  0.67330000  0.87830000  1.0 -0.6640891308
O  O2  1  0.31680000  0.19510000  0.49010000  1.0 -0.6640891308
O  O3  1  0.29500000  0.80490000  0.12170000  1.0 -0.6640891308
O  O4  1  0.20500000  0.32670000  0.50990000  1.0 -0.665333189
O  O5  1  0.81680000  0.32670000  0.12170000  1.0 -0.6640891308
O  O6  1  0.68320000  0.80490000  0.50990000  1.0 -0.6640891308
O  O7  1  0.70500000  0.19510000  0.87830000  1.0 -0.665333189
O  O8  1  0.79500000  0.67330000  0.49010000  1.0 -0.6640891308
O  O9  1  0.21410000  0.97480000  0.28990000  1.0 -0.6435946273
O  O10  1  0.28590000  0.57580000  0.76070000  1.0 -0.6435946273
O  O11  1  0.18490000  0.42420000  0.71010000  1.0 -0.6435946273
O  O12  1  0.31510000  0.02520000  0.23930000  1.0 -0.6435946273
O  O13  1  0.78590000  0.02520000  0.71010000  1.0 -0.6435946273
O  O14  1  0.71410000  0.42420000  0.23930000  1.0 -0.6435946273
O  O15  1  0.81510000  0.57580000  0.28990000  1.0 -0.6435946273
O  O16  1  0.68490000  0.97480000  0.76070000  1.0 -0.6435946273
O  O17  1  0.08420000  0.55950000  0.76410000  1.0 -0.6453455701
O  O18  1  0.41580000  0.17990000  0.47530000  1.0 -0.6435946273
O  O19  1  0.29540000  0.82010000  0.23590000  1.0 -0.6435946273
O  O20  1  0.20460000  0.44050000  0.52470000  1.0 -0.6453455701
O  O21  1  0.91580000  0.44050000  0.23590000  1.0 -0.6435946273
O  O22  1  0.58420000  0.82010000  0.52470000  1.0 -0.6453455701
O  O23  1  0.70460000  0.17990000  0.76410000  1.0 -0.6453455701
O  O24  1  0.79540000  0.55950000  0.47530000  1.0 -0.6453455701
O  O25  1  0.13370000  0.04680000  0.35070000  1.0 -0.5876276567
O  O26  1  0.36630000  0.71700000  0.91310000  1.0 -0.5876276567
O  O27  1  0.19610000  0.28300000  0.64930000  1.0 -0.5876276567
O  O28  1  0.30390000  0.95320000  0.08690000  1.0 -0.5876276567
O  O29  1  0.86630000  0.95320000  0.64930000  1.0 -0.5876276567
O  O30  1  0.63370000  0.28300000  0.08690000  1.0 -0.5876276567
O  O31  1  0.80390000  0.71700000  0.35070000  1.0 -0.5876276567
O  O32  1  0.69610000  0.04680000  0.91310000  1.0 -0.5876276567
