# DDEC6 charges by PACMAN v1.1 (https://github.com/mtap-research/PACMAN-charge/)
data_HABRUZ_FSR_pacman
_symmetry_space_group_name_H-M   'P 1'
_cell_length_a   9.31950000
_cell_length_b   14.26030000
_cell_length_c   18.49820000
_cell_angle_alpha   105.30700000
_cell_angle_beta   99.07700000
_cell_angle_gamma   95.40600000
_symmetry_Int_Tables_number   1
_chemical_formula_structural   Cd2BH34C33(N4O3)3
_chemical_formula_sum   'Cd4 B2 H68 C66 N24 O18'
_cell_volume   2317.54140667
_cell_formula_units_Z   2
loop_
 _symmetry_equiv_pos_site_id
 _symmetry_equiv_pos_as_xyz
  1  'x, y, z'
loop_
 _atom_site_type_symbol
 _atom_site_label
 _atom_site_symmetry_multiplicity
 _atom_site_fract_x
 _atom_site_fract_y
 _atom_site_fract_z
 _atom_site_occupancy
 _atom_site_charge
Cd  Cd1  1  0.95105000  0.70657000  0.31653000  1.0 0.8269727934
Cd  Cd2  1  0.04895000  0.29343000  0.68347000  1.0 0.8269727934
Cd  Cd3  1  0.82297000  0.82311000  0.73906000  1.0 0.7573111761
Cd  Cd4  1  0.17703000  0.17689000  0.26094000  1.0 0.7573111761
B  B1  1  0.30850000  0.93820000  0.60550000  1.0 0.5035309303
B  B2  1  0.69150000  0.06180000  0.39450000  1.0 0.5035309303
H  H1  1  0.30620000  0.67340000  0.40420000  1.0 0.119716389
H  H2  1  0.69380000  0.32660000  0.59580000  1.0 0.119716389
H  H3  1  0.47470000  0.37020000  0.21830000  1.0 0.1004138324
H  H4  1  0.52530000  0.62980000  0.78170000  1.0 0.1004138324
H  H5  1  0.56850000  0.37970000  0.15660000  1.0 0.0888844985
H  H6  1  0.43150000  0.62030000  0.84340000  1.0 0.0888844985
H  H7  1  0.59620000  0.25660000  0.21960000  1.0 0.1004138324
H  H8  1  0.40380000  0.74340000  0.78040000  1.0 0.1004138324
H  H9  1  0.73000000  0.30800000  0.19690000  1.0 0.1004138324
H  H10  1  0.27000000  0.69200000  0.80310000  1.0 0.1004138324
H  H11  1  0.81560000  0.29470000  0.30260000  1.0 0.1004138324
H  H12  1  0.18440000  0.70530000  0.69740000  1.0 0.1004138324
H  H13  1  0.67390000  0.31830000  0.33570000  1.0 0.1004138324
H  H14  1  0.32610000  0.68170000  0.66430000  1.0 0.1004138324
H  H15  1  0.60720000  0.62570000  0.26850000  1.0 0.1415078599
H  H16  1  0.39280000  0.37430000  0.73150000  1.0 0.1415078599
H  H17  1  0.45810000  0.55450000  0.24180000  1.0 0.119716389
H  H18  1  0.54190000  0.44550000  0.75820000  1.0 0.119716389
H  H19  1  0.56080000  0.56120000  0.18340000  1.0 0.129343989
H  H20  1  0.43920000  0.43880000  0.81660000  1.0 0.129343989
H  H21  1  0.95160000  0.53270000  0.41810000  1.0 0.129343989
H  H22  1  0.04840000  0.46730000  0.58190000  1.0 0.129343989
H  H23  1  0.99760000  0.42780000  0.39210000  1.0 0.119716389
H  H24  1  0.00240000  0.57220000  0.60790000  1.0 0.119716389
H  H25  1  0.87930000  0.44620000  0.44380000  1.0 0.129343989
H  H26  1  0.12070000  0.55380000  0.55620000  1.0 0.129343989
H  H27  1  0.36300000  0.98100000  0.76800000  1.0 0.129343989
H  H28  1  0.63700000  0.01900000  0.23200000  1.0 0.129343989
H  H29  1  0.16300000  0.08700000  0.68300000  1.0 0.1093162301
H  H30  1  0.83700000  0.91300000  0.31700000  1.0 0.1093162301
H  H31  1  0.50500000  0.83600000  0.67500000  1.0 0.1004138324
H  H32  1  0.49500000  0.16400000  0.32500000  1.0 0.1004138324
H  H33  1  0.52800000  0.51700000  0.62600000  1.0 0.1093162301
H  H34  1  0.47200000  0.48300000  0.37400000  1.0 0.1093162301
H  H35  1  0.55500000  0.08500000  0.62600000  1.0 0.119716389
H  H36  1  0.44500000  0.91500000  0.37400000  1.0 0.119716389
H  H37  1  0.02900000  0.83400000  0.60800000  1.0 0.119716389
H  H38  1  0.97100000  0.16600000  0.39200000  1.0 0.119716389
H  H39  1  0.22400000  0.20900000  0.53000000  1.0 0.129343989
H  H40  1  0.77600000  0.79100000  0.47000000  1.0 0.129343989
H  H41  1  0.70900000  0.68700000  0.06200000  1.0 0.129343989
H  H42  1  0.29100000  0.31300000  0.93800000  1.0 0.129343989
H  H43  1  0.08600000  0.88000000  0.47700000  1.0 0.1093162301
H  H44  1  0.91400000  0.12000000  0.52300000  1.0 0.1093162301
H  H45  1  0.15300000  0.93100000  0.82200000  1.0 0.119716389
H  H46  1  0.84700000  0.06900000  0.17800000  1.0 0.119716389
H  H47  1  0.95100000  0.38700000  0.11400000  1.0 0.2798139411
H  H48  1  0.04900000  0.61300000  0.88600000  1.0 0.2798139411
H  H49  1  0.32400000  0.04800000  0.49800000  1.0 0.119716389
H  H50  1  0.67600000  0.95200000  0.50200000  1.0 0.119716389
H  H51  1  0.17500000  0.38300000  0.20300000  1.0 0.1093162301
H  H52  1  0.82500000  0.61700000  0.79700000  1.0 0.1093162301
H  H53  1  0.79500000  0.04800000  0.69400000  1.0 0.129343989
H  H54  1  0.20500000  0.95200000  0.30600000  1.0 0.129343989
H  H55  1  0.04000000  0.90000000  0.13900000  1.0 0.119716389
H  H56  1  0.96000000  0.10000000  0.86100000  1.0 0.119716389
H  H57  1  0.66700000  0.70900000  0.94200000  1.0 0.1004138324
H  H58  1  0.33300000  0.29100000  0.05800000  1.0 0.1004138324
H  H59  1  0.01400000  0.92500000  0.01700000  1.0 0.1004138324
H  H60  1  0.98600000  0.07500000  0.98300000  1.0 0.1004138324
H  H61  1  0.44800000  0.78500000  0.53500000  1.0 0.119716389
H  H62  1  0.55200000  0.21500000  0.46500000  1.0 0.119716389
H  H63  1  0.84100000  0.53500000  0.15800000  1.0 0.0706608663
H  H64  1  0.15900000  0.46500000  0.84200000  1.0 0.0706608663
H  H65  1  0.18500000  0.53300000  0.31000000  1.0 0.129343989
H  H66  1  0.81500000  0.46700000  0.69000000  1.0 0.129343989
H  H67  1  0.63400000  0.61100000  0.45500000  1.0 0.119716389
H  H68  1  0.36600000  0.38900000  0.54500000  1.0 0.119716389
C  C1  1  0.08840000  0.86520000  0.65430000  1.0 0.119716389
C  C2  1  0.91160000  0.13480000  0.34570000  1.0 0.119716389
C  C3  1  0.27050000  0.94670000  0.74360000  1.0 -0.0898789209
C  C4  1  0.72950000  0.05330000  0.25640000  1.0 -0.0898789209
C  C5  1  0.15910000  0.92120000  0.77580000  1.0 -0.0502418452
C  C6  1  0.84090000  0.07880000  0.22420000  1.0 -0.0502418452
C  C7  1  0.54470000  0.89490000  0.67290000  1.0 0.1093162301
C  C8  1  0.45530000  0.10510000  0.32710000  1.0 0.1093162301
C  C9  1  0.70790000  0.01360000  0.68170000  1.0 -0.019477772
C  C10  1  0.29210000  0.98640000  0.31830000  1.0 -0.019477772
C  C11  1  0.58020000  0.03200000  0.64530000  1.0 -0.0708500337
C  C12  1  0.41980000  0.96800000  0.35470000  1.0 -0.0708500337
C  C13  1  0.15350000  0.84070000  0.47410000  1.0 0.129343989
C  C14  1  0.84650000  0.15930000  0.52590000  1.0 0.129343989
C  C15  1  0.27660000  0.72860000  0.43440000  1.0 -0.0502418452
C  C16  1  0.72340000  0.27140000  0.56560000  1.0 -0.0502418452
C  C17  1  0.35450000  0.78510000  0.50180000  1.0 -0.0785068073
C  C18  1  0.64550000  0.21490000  0.49820000  1.0 -0.0785068073
C  C19  1  0.95000000  0.51530000  0.18390000  1.0 0.1604189533
C  C20  1  0.05000000  0.48470000  0.81610000  1.0 0.1604189533
C  C21  1  0.11810000  0.42840000  0.20700000  1.0 -0.0610189703
C  C22  1  0.88190000  0.57160000  0.79300000  1.0 -0.0610189703
C  C23  1  0.13930000  0.51370000  0.26230000  1.0 -0.0610189703
C  C24  1  0.86070000  0.48630000  0.73770000  1.0 -0.0610189703
C  C25  1  0.19160000  0.09650000  0.64030000  1.0 0.119716389
C  C26  1  0.80840000  0.90350000  0.35970000  1.0 0.119716389
C  C27  1  0.23240000  0.16570000  0.55430000  1.0 -0.0390232433
C  C28  1  0.76760000  0.83430000  0.44570000  1.0 -0.0390232433
C  C29  1  0.28390000  0.07950000  0.53770000  1.0 -0.1066193548
C  C30  1  0.71610000  0.92050000  0.46230000  1.0 -0.1049906578
C  C31  1  0.83180000  0.83240000  0.88900000  1.0 0.3787268955
C  C32  1  0.16820000  0.16760000  0.11100000  1.0 0.3787268955
C  C33  1  0.84380000  0.82020000  0.96760000  1.0 -0.0785068073
C  C34  1  0.15620000  0.17980000  0.03240000  1.0 -0.0785068073
C  C35  1  0.95290000  0.87500000  0.02630000  1.0 -0.1260741171
C  C36  1  0.04710000  0.12500000  0.97370000  1.0 -0.1260741171
C  C37  1  0.96940000  0.85970000  0.09750000  1.0 -0.1180529294
C  C38  1  0.03060000  0.14030000  0.90250000  1.0 -0.1180529294
C  C39  1  0.87760000  0.78820000  0.11110000  1.0 -0.0107559063
C  C40  1  0.12240000  0.21180000  0.88890000  1.0 -0.0107559063
C  C41  1  0.76760000  0.73390000  0.05240000  1.0 -0.1066193548
C  C42  1  0.23240000  0.26610000  0.94760000  1.0 -0.1066193548
C  C43  1  0.74940000  0.74990000  0.98110000  1.0 -0.1437185299
C  C44  1  0.25060000  0.25010000  0.01890000  1.0 -0.1437185299
C  C45  1  0.89870000  0.76630000  0.18670000  1.0 0.539510082
C  C46  1  0.10130000  0.23370000  0.81330000  1.0 0.539510082
C  C47  1  0.69610000  0.66770000  0.60590000  1.0 0.5208502519
C  C48  1  0.30390000  0.33230000  0.39410000  1.0 0.5208502519
C  C49  1  0.59570000  0.57990000  0.55100000  1.0 -0.019477772
C  C50  1  0.40430000  0.42010000  0.44900000  1.0 -0.019477772
C  C51  1  0.51580000  0.51370000  0.57700000  1.0 -0.1180529294
C  C52  1  0.48420000  0.48630000  0.42300000  1.0 -0.1180529294
C  C53  1  0.57860000  0.56590000  0.47300000  1.0 -0.1180529294
C  C54  1  0.42140000  0.43410000  0.52700000  1.0 -0.1180529294
C  C55  1  0.74480000  0.51060000  0.31390000  1.0 0.4645620096
C  C56  1  0.25520000  0.48940000  0.68610000  1.0 0.4645620096
C  C57  1  0.57360000  0.38570000  0.21040000  1.0 -0.1180529294
C  C58  1  0.42640000  0.61430000  0.78960000  1.0 -0.1180529294
C  C59  1  0.66020000  0.31840000  0.23100000  1.0 -0.2350057256
C  C60  1  0.33980000  0.68160000  0.76900000  1.0 -0.2350057256
C  C61  1  0.73830000  0.33580000  0.30350000  1.0 -0.1180529294
C  C62  1  0.26170000  0.66420000  0.69650000  1.0 -0.1180529294
C  C63  1  0.55830000  0.56330000  0.23540000  1.0 -0.3186632287
C  C64  1  0.44170000  0.43670000  0.76460000  1.0 -0.3186632287
C  C65  1  0.91750000  0.46340000  0.40310000  1.0 -0.307605534
C  C66  1  0.08250000  0.53660000  0.59690000  1.0 -0.307605534
N  N1  1  0.22690000  0.91030000  0.66503000  1.0 -0.2309759375
N  N2  1  0.77310000  0.08970000  0.33497000  1.0 -0.2309759375
N  N3  1  0.04400000  0.86950000  0.71924000  1.0 -0.3264151704
N  N4  1  0.95600000  0.13050000  0.28076000  1.0 -0.3264151704
N  N5  1  0.68440000  0.92680000  0.69889000  1.0 -0.307605534
N  N6  1  0.31560000  0.07320000  0.30111000  1.0 -0.307605534
N  N7  1  0.47460000  0.95460000  0.63906000  1.0 -0.212923747
N  N8  1  0.52540000  0.04540000  0.36094000  1.0 -0.212923747
N  N9  1  0.27440000  0.85730000  0.52853000  1.0 -0.212923747
N  N10  1  0.72560000  0.14270000  0.47147000  1.0 -0.212923747
N  N11  1  0.14760000  0.76330000  0.41640000  1.0 -0.3023618651
N  N12  1  0.85240000  0.23670000  0.58360000  1.0 -0.3023618651
N  N13  1  0.99880000  0.43060000  0.15810000  1.0 -0.1949621629
N  N14  1  0.00120000  0.56940000  0.84190000  1.0 -0.1949621629
N  N15  1  0.03310000  0.56940000  0.24830000  1.0 -0.307605534
N  N16  1  0.96690000  0.43060000  0.75170000  1.0 -0.307605534
N  N17  1  0.17390000  0.17660000  0.61875000  1.0 -0.3023618651
N  N18  1  0.82610000  0.82340000  0.38125000  1.0 -0.3023618651
N  N19  1  0.26000000  0.03380000  0.59344000  1.0 -0.2219819915
N  N20  1  0.74000000  0.96620000  0.40656000  1.0 -0.2219819915
N  N21  1  0.63130000  0.48610000  0.25430000  1.0 -0.1506066476
N  N22  1  0.36870000  0.51390000  0.74570000  1.0 -0.1506066476
N  N23  1  0.80320000  0.43870000  0.33580000  1.0 -0.1180529294
N  N24  1  0.19680000  0.56130000  0.66420000  1.0 -0.1180529294
O  O1  1  0.92170000  0.89960000  0.87780000  1.0 -0.1790743139
O  O2  1  0.07830000  0.10040000  0.12220000  1.0 -0.1790743139
O  O3  1  0.70290000  0.80450000  0.84110000  1.0 -0.1506066476
O  O4  1  0.29710000  0.19550000  0.15890000  1.0 -0.1506066476
O  O5  1  0.00730000  0.81160000  0.23809000  1.0 -0.5660944473
O  O6  1  0.99270000  0.18840000  0.76191000  1.0 -0.5660944473
O  O7  1  0.80770000  0.70160000  0.19646000  1.0 -0.5508873256
O  O8  1  0.19230000  0.29840000  0.80354000  1.0 -0.5508873256
O  O9  1  0.69180000  0.68080000  0.67495000  1.0 -0.5508873256
O  O10  1  0.30820000  0.31920000  0.32505000  1.0 -0.5508873256
O  O11  1  0.77500000  0.72210000  0.58240000  1.0 -0.54176252
O  O12  1  0.22500000  0.27790000  0.41760000  1.0 -0.54176252
O  O13  1  0.79070000  0.59840000  0.34830000  1.0 -0.5508873256
O  O14  1  0.20930000  0.40160000  0.65170000  1.0 -0.5508873256
O  O15  1  0.93850000  0.85210000  0.86420000  1.0 -0.1066193548
O  O16  1  0.06150000  0.14790000  0.13580000  1.0 -0.1066193548
O  O17  1  0.74800000  0.77540000  0.83950000  1.0 -0.0390232433
O  O18  1  0.25200000  0.22460000  0.16050000  1.0 -0.0309431725
