# DDEC6 charges by PACMAN v1.1 (https://github.com/mtap-research/PACMAN-charge/)
data_HADDOI_ASR_pacman
_symmetry_space_group_name_H-M   'P 1'
_cell_length_a   20.89600000
_cell_length_b   7.38720000
_cell_length_c   31.83400000
_cell_angle_alpha   90.00000000
_cell_angle_beta   124.63600000
_cell_angle_gamma   90.00000000
_symmetry_Int_Tables_number   1
_chemical_formula_structural   Zn5H36C72N6(O2F3)8
_chemical_formula_sum   'Zn10 H72 C144 N12 O32 F48'
_cell_volume   4043.12947004
_cell_formula_units_Z   2
loop_
 _symmetry_equiv_pos_site_id
 _symmetry_equiv_pos_as_xyz
  1  'x, y, z'
loop_
 _atom_site_type_symbol
 _atom_site_label
 _atom_site_symmetry_multiplicity
 _atom_site_fract_x
 _atom_site_fract_y
 _atom_site_fract_z
 _atom_site_occupancy
 _atom_site_charge
Zn  Zn1  1  0.50000000  0.00000000  0.50000000  1.0 0.7102746923
Zn  Zn2  1  0.50000000  0.00000000  0.00000000  1.0 0.7102746923
Zn  Zn3  1  0.32553000  0.55349000  0.34398000  1.0 0.8528785666
Zn  Zn4  1  0.67447000  0.55349000  0.15602000  1.0 0.8528785666
Zn  Zn5  1  0.67447000  0.44651000  0.65602000  1.0 0.8528785666
Zn  Zn6  1  0.32553000  0.44651000  0.84398000  1.0 0.8528785666
Zn  Zn7  1  0.32214000  0.18879000  0.40950000  1.0 0.8382913728
Zn  Zn8  1  0.67786000  0.18879000  0.09050000  1.0 0.8382913728
Zn  Zn9  1  0.67786000  0.81121000  0.59050000  1.0 0.8382913728
Zn  Zn10  1  0.32214000  0.81121000  0.90950000  1.0 0.8382913728
H  H1  1  0.17250000  0.88810000  0.36000000  1.0 0.1290332232
H  H2  1  0.82750000  0.88810000  0.14000000  1.0 0.1290332232
H  H3  1  0.82750000  0.11190000  0.64000000  1.0 0.1290332232
H  H4  1  0.17250000  0.11190000  0.86000000  1.0 0.1290332232
H  H5  1  0.07310000  0.00780000  0.36290000  1.0 0.1193917686
H  H6  1  0.92690000  0.00780000  0.13710000  1.0 0.1193917686
H  H7  1  0.92690000  0.99220000  0.63710000  1.0 0.1193917686
H  H8  1  0.07310000  0.99220000  0.86290000  1.0 0.1193917686
H  H9  1  0.07300000  0.56530000  0.43520000  1.0 0.1193917686
H  H10  1  0.92700000  0.56530000  0.06480000  1.0 0.1193917686
H  H11  1  0.92700000  0.43470000  0.56480000  1.0 0.1193917686
H  H12  1  0.07300000  0.43470000  0.93520000  1.0 0.1193917686
H  H13  1  0.17210000  0.44480000  0.43170000  1.0 0.1290332232
H  H14  1  0.82790000  0.44480000  0.06830000  1.0 0.1290332232
H  H15  1  0.82790000  0.55520000  0.56830000  1.0 0.1290332232
H  H16  1  0.17210000  0.55520000  0.93170000  1.0 0.1290332232
H  H17  1  0.92290000  0.22330000  0.37120000  1.0 0.1129006197
H  H18  1  0.07710000  0.22330000  0.12880000  1.0 0.1129006197
H  H19  1  0.07710000  0.77670000  0.62880000  1.0 0.1129006197
H  H20  1  0.92290000  0.77670000  0.87120000  1.0 0.1129006197
H  H21  1  0.83140000  0.33910000  0.29220000  1.0 0.1290332232
H  H22  1  0.16860000  0.33910000  0.20780000  1.0 0.1290332232
H  H23  1  0.16860000  0.66090000  0.70780000  1.0 0.1290332232
H  H24  1  0.83140000  0.66090000  0.79220000  1.0 0.1290332232
H  H25  1  0.83410000  0.87860000  0.22760000  1.0 0.1290332232
H  H26  1  0.16590000  0.87860000  0.27240000  1.0 0.1290332232
H  H27  1  0.16590000  0.12140000  0.77240000  1.0 0.1290332232
H  H28  1  0.83410000  0.12140000  0.72760000  1.0 0.1290332232
H  H29  1  0.92690000  0.76460000  0.30670000  1.0 0.1193917686
H  H30  1  0.07310000  0.76460000  0.19330000  1.0 0.1193917686
H  H31  1  0.07310000  0.23540000  0.69330000  1.0 0.1193917686
H  H32  1  0.92690000  0.23540000  0.80670000  1.0 0.1193917686
H  H33  1  0.52240000  0.58840000  0.42050000  1.0 0.1407915388
H  H34  1  0.47760000  0.58840000  0.07950000  1.0 0.1407915388
H  H35  1  0.47760000  0.41160000  0.57950000  1.0 0.1407915388
H  H36  1  0.52240000  0.41160000  0.92050000  1.0 0.1407915388
H  H37  1  0.59740000  0.36040000  0.48760000  1.0 0.1407915388
H  H38  1  0.40260000  0.36040000  0.01240000  1.0 0.1407915388
H  H39  1  0.40260000  0.63960000  0.51240000  1.0 0.1407915388
H  H40  1  0.59740000  0.63960000  0.98760000  1.0 0.1407915388
H  H41  1  0.44330000  0.94410000  0.10390000  1.0 0.1290332232
H  H42  1  0.55670000  0.94410000  0.39610000  1.0 0.1290332232
H  H43  1  0.55670000  0.05590000  0.89610000  1.0 0.1290332232
H  H44  1  0.44330000  0.05590000  0.60390000  1.0 0.1290332232
H  H45  1  0.23720000  0.12300000  0.98510000  1.0 0.1129006197
H  H46  1  0.76280000  0.12300000  0.51490000  1.0 0.1129006197
H  H47  1  0.76280000  0.87700000  0.01490000  1.0 0.1129006197
H  H48  1  0.23720000  0.87700000  0.48510000  1.0 0.1129006197
H  H49  1  0.22060000  0.28360000  0.04060000  1.0 0.1129006197
H  H50  1  0.77940000  0.28360000  0.45940000  1.0 0.1129006197
H  H51  1  0.77940000  0.71640000  0.95940000  1.0 0.1129006197
H  H52  1  0.22060000  0.71640000  0.54060000  1.0 0.1129006197
H  H53  1  0.42220000  0.08460000  0.15890000  1.0 0.1193917686
H  H54  1  0.57780000  0.08460000  0.34110000  1.0 0.1193917686
H  H55  1  0.57780000  0.91540000  0.84110000  1.0 0.1193917686
H  H56  1  0.42220000  0.91540000  0.65890000  1.0 0.1193917686
H  H57  1  0.40040000  0.36560000  0.24870000  1.0 0.1129006197
H  H58  1  0.59960000  0.36560000  0.25130000  1.0 0.1129006197
H  H59  1  0.59960000  0.63440000  0.75130000  1.0 0.1129006197
H  H60  1  0.40040000  0.63440000  0.74870000  1.0 0.1129006197
H  H61  1  0.42050000  0.17320000  0.31230000  1.0 0.1193917686
H  H62  1  0.57950000  0.17320000  0.18770000  1.0 0.1193917686
H  H63  1  0.57950000  0.82680000  0.68770000  1.0 0.1193917686
H  H64  1  0.42050000  0.82680000  0.81230000  1.0 0.1193917686
H  H65  1  0.27910000  0.80780000  0.20730000  1.0 0.1129006197
H  H66  1  0.72090000  0.80780000  0.29270000  1.0 0.1129006197
H  H67  1  0.72090000  0.19220000  0.79270000  1.0 0.1129006197
H  H68  1  0.27910000  0.19220000  0.70730000  1.0 0.1129006197
H  H69  1  0.26290000  0.99280000  0.14420000  1.0 0.1193917686
H  H70  1  0.73710000  0.99280000  0.35580000  1.0 0.1193917686
H  H71  1  0.73710000  0.00720000  0.85580000  1.0 0.1193917686
H  H72  1  0.26290000  0.00720000  0.64420000  1.0 0.1193917686
C  C1  1  0.24400000  0.56940000  0.39130000  1.0 0.5928621848
C  C2  1  0.75600000  0.56940000  0.10870000  1.0 0.5928621848
C  C3  1  0.75600000  0.43060000  0.60870000  1.0 0.5928621848
C  C4  1  0.24400000  0.43060000  0.89130000  1.0 0.5928621848
C  C5  1  0.18140000  0.65360000  0.39500000  1.0 -0.0231448499
C  C6  1  0.81860000  0.65360000  0.10500000  1.0 -0.0231448499
C  C7  1  0.81860000  0.34640000  0.60500000  1.0 -0.0231448499
C  C8  1  0.18140000  0.34640000  0.89500000  1.0 -0.0231448499
C  C9  1  0.15230000  0.82240000  0.37480000  1.0 -0.0809048641
C  C10  1  0.84770000  0.82240000  0.12520000  1.0 -0.0809048641
C  C11  1  0.84770000  0.17760000  0.62520000  1.0 -0.0809048641
C  C12  1  0.15230000  0.17760000  0.87480000  1.0 -0.0809048641
C  C13  1  0.09270000  0.89390000  0.37680000  1.0 -0.1317926239
C  C14  1  0.90730000  0.89390000  0.12320000  1.0 -0.1317926239
C  C15  1  0.90730000  0.10610000  0.62320000  1.0 -0.1317926239
C  C16  1  0.09270000  0.10610000  0.87680000  1.0 -0.1317926239
C  C17  1  0.06170000  0.79980000  0.39890000  1.0 0.0774583875
C  C18  1  0.93830000  0.79980000  0.10110000  1.0 0.0774583875
C  C19  1  0.93830000  0.20020000  0.60110000  1.0 0.0774583875
C  C20  1  0.06170000  0.20020000  0.89890000  1.0 0.0774583875
C  C21  1  0.09240000  0.63050000  0.41980000  1.0 -0.1512971579
C  C22  1  0.90760000  0.63050000  0.08020000  1.0 -0.1512971579
C  C23  1  0.90760000  0.36950000  0.58020000  1.0 -0.1512971579
C  C24  1  0.09240000  0.36950000  0.91980000  1.0 -0.1512971579
C  C25  1  0.15200000  0.55830000  0.41770000  1.0 -0.0905072945
C  C26  1  0.84800000  0.55830000  0.08230000  1.0 -0.0905072945
C  C27  1  0.84800000  0.44170000  0.58230000  1.0 -0.0905072945
C  C28  1  0.15200000  0.44170000  0.91770000  1.0 -0.0905072945
C  C29  1  0.99600000  0.89150000  0.40020000  1.0 -0.2797503847
C  C30  1  0.00400000  0.89150000  0.09980000  1.0 -0.2797503847
C  C31  1  0.00400000  0.10850000  0.59980000  1.0 -0.2797503847
C  C32  1  0.99600000  0.10850000  0.90020000  1.0 -0.2797503847
C  C33  1  0.95070000  0.75690000  0.41150000  1.0 0.6630264741
C  C34  1  0.04930000  0.75690000  0.08850000  1.0 0.6630264741
C  C35  1  0.04930000  0.24310000  0.58850000  1.0 0.6630264741
C  C36  1  0.95070000  0.24310000  0.91150000  1.0 0.6630264741
C  C37  1  0.03590000  0.03150000  0.44410000  1.0 0.6630264741
C  C38  1  0.96410000  0.03150000  0.05590000  1.0 0.6630264741
C  C39  1  0.96410000  0.96850000  0.55590000  1.0 0.6630264741
C  C40  1  0.03590000  0.96850000  0.94410000  1.0 0.6630264741
C  C41  1  0.93520000  0.97990000  0.34780000  1.0 0.0774583875
C  C42  1  0.06480000  0.97990000  0.15220000  1.0 0.0774583875
C  C43  1  0.06480000  0.02010000  0.65220000  1.0 0.0774583875
C  C44  1  0.93520000  0.02010000  0.84780000  1.0 0.0774583875
C  C45  1  0.90540000  0.15330000  0.34230000  1.0 -0.1512971579
C  C46  1  0.09460000  0.15330000  0.15770000  1.0 -0.1512971579
C  C47  1  0.09460000  0.84670000  0.65770000  1.0 -0.1512971579
C  C48  1  0.90540000  0.84670000  0.84230000  1.0 -0.1512971579
C  C49  1  0.85070000  0.22300000  0.29500000  1.0 -0.0809048641
C  C50  1  0.14930000  0.22300000  0.20500000  1.0 -0.0809048641
C  C51  1  0.14930000  0.77700000  0.70500000  1.0 -0.0809048641
C  C52  1  0.85070000  0.77700000  0.79500000  1.0 -0.0809048641
C  C53  1  0.82420000  0.12170000  0.25160000  1.0 -0.029021543
C  C54  1  0.17580000  0.12170000  0.24840000  1.0 -0.029021543
C  C55  1  0.17580000  0.87830000  0.74840000  1.0 -0.029021543
C  C56  1  0.82420000  0.87830000  0.75160000  1.0 -0.029021543
C  C57  1  0.85240000  0.94930000  0.25650000  1.0 -0.0809048641
C  C58  1  0.14760000  0.94930000  0.24350000  1.0 -0.0809048641
C  C59  1  0.14760000  0.05070000  0.74350000  1.0 -0.0809048641
C  C60  1  0.85240000  0.05070000  0.75650000  1.0 -0.0809048641
C  C61  1  0.90770000  0.88060000  0.30410000  1.0 -0.1383047008
C  C62  1  0.09230000  0.88060000  0.19590000  1.0 -0.1383047008
C  C63  1  0.09230000  0.11940000  0.69590000  1.0 -0.1383047008
C  C64  1  0.90770000  0.11940000  0.80410000  1.0 -0.1383047008
C  C65  1  0.76590000  0.20020000  0.19990000  1.0 0.5965181549
C  C66  1  0.23410000  0.20020000  0.30010000  1.0 0.5965181549
C  C67  1  0.23410000  0.79980000  0.80010000  1.0 0.5965181549
C  C68  1  0.76590000  0.79980000  0.69990000  1.0 0.5965181549
C  C69  1  0.50180000  0.49140000  0.42780000  1.0 -0.0146681944
C  C70  1  0.49820000  0.49140000  0.07220000  1.0 -0.0146681944
C  C71  1  0.49820000  0.50860000  0.57220000  1.0 -0.0146681944
C  C72  1  0.50180000  0.50860000  0.92780000  1.0 -0.0146681944
C  C73  1  0.54350000  0.36490000  0.46510000  1.0 -0.029021543
C  C74  1  0.45650000  0.36490000  0.03490000  1.0 -0.029021543
C  C75  1  0.45650000  0.63510000  0.53490000  1.0 -0.029021543
C  C76  1  0.54350000  0.63510000  0.96510000  1.0 -0.029021543
C  C77  1  0.35880000  0.94060000  0.00210000  1.0 0.5699381788
C  C78  1  0.64120000  0.94060000  0.49790000  1.0 0.5699381788
C  C79  1  0.64120000  0.05940000  0.99790000  1.0 0.5699381788
C  C80  1  0.35880000  0.05940000  0.50210000  1.0 0.5699381788
C  C81  1  0.34300000  0.02120000  0.03840000  1.0 -0.029021543
C  C82  1  0.65700000  0.02120000  0.46160000  1.0 -0.029021543
C  C83  1  0.65700000  0.97880000  0.96160000  1.0 -0.029021543
C  C84  1  0.34300000  0.97880000  0.53840000  1.0 -0.029021543
C  C85  1  0.39810000  0.01090000  0.09100000  1.0 -0.0809048641
C  C86  1  0.60190000  0.01090000  0.40900000  1.0 -0.0809048641
C  C87  1  0.60190000  0.98910000  0.90900000  1.0 -0.0809048641
C  C88  1  0.39810000  0.98910000  0.59100000  1.0 -0.0809048641
C  C89  1  0.27570000  0.11990000  0.02000000  1.0 -0.0905072945
C  C90  1  0.72430000  0.11990000  0.48000000  1.0 -0.0905072945
C  C91  1  0.72430000  0.88010000  0.98000000  1.0 -0.0905072945
C  C92  1  0.27570000  0.88010000  0.52000000  1.0 -0.0905072945
C  C93  1  0.26520000  0.21450000  0.05350000  1.0 -0.1512971579
C  C94  1  0.73480000  0.21450000  0.44650000  1.0 -0.1512971579
C  C95  1  0.73480000  0.78550000  0.94650000  1.0 -0.1512971579
C  C96  1  0.26520000  0.78550000  0.55350000  1.0 -0.1512971579
C  C97  1  0.32020000  0.20710000  0.10550000  1.0 0.0729975511
C  C98  1  0.67980000  0.20710000  0.39450000  1.0 0.0729975511
C  C99  1  0.67980000  0.79290000  0.89450000  1.0 0.0729975511
C  C100  1  0.32020000  0.79290000  0.60550000  1.0 0.0729975511
C  C101  1  0.38620000  0.09780000  0.12390000  1.0 -0.1317926239
C  C102  1  0.61380000  0.09780000  0.37610000  1.0 -0.1317926239
C  C103  1  0.61380000  0.90220000  0.87610000  1.0 -0.1317926239
C  C104  1  0.38620000  0.90220000  0.62390000  1.0 -0.1317926239
C  C105  1  0.31600000  0.31990000  0.14460000  1.0 -0.2797503847
C  C106  1  0.68400000  0.31990000  0.35540000  1.0 -0.2797503847
C  C107  1  0.68400000  0.68010000  0.85540000  1.0 -0.2797503847
C  C108  1  0.31600000  0.68010000  0.64460000  1.0 -0.2797503847
C  C109  1  0.37580000  0.47460000  0.16180000  1.0 0.6630264741
C  C110  1  0.62420000  0.47460000  0.33820000  1.0 0.6630264741
C  C111  1  0.62420000  0.52540000  0.83820000  1.0 0.6630264741
C  C112  1  0.37580000  0.52540000  0.66180000  1.0 0.6630264741
C  C113  1  0.23450000  0.40740000  0.12130000  1.0 0.6630264741
C  C114  1  0.76550000  0.40740000  0.37870000  1.0 0.6630264741
C  C115  1  0.76550000  0.59260000  0.87870000  1.0 0.6630264741
C  C116  1  0.23450000  0.59260000  0.62130000  1.0 0.6630264741
C  C117  1  0.33080000  0.20000000  0.18910000  1.0 0.0774583875
C  C118  1  0.66920000  0.20000000  0.31090000  1.0 0.0774583875
C  C119  1  0.66920000  0.80000000  0.81090000  1.0 0.0774583875
C  C120  1  0.33080000  0.80000000  0.68910000  1.0 0.0774583875
C  C121  1  0.37690000  0.25220000  0.24010000  1.0 -0.1512971579
C  C122  1  0.62310000  0.25220000  0.25990000  1.0 -0.1512971579
C  C123  1  0.62310000  0.74780000  0.75990000  1.0 -0.1512971579
C  C124  1  0.37690000  0.74780000  0.74010000  1.0 -0.1512971579
C  C125  1  0.38820000  0.13710000  0.27830000  1.0 -0.0905072945
C  C126  1  0.61180000  0.13710000  0.22170000  1.0 -0.0905072945
C  C127  1  0.61180000  0.86290000  0.72170000  1.0 -0.0905072945
C  C128  1  0.38820000  0.86290000  0.77830000  1.0 -0.0905072945
C  C129  1  0.35230000  0.97000000  0.26670000  1.0 -0.0231448499
C  C130  1  0.64770000  0.97000000  0.23330000  1.0 -0.0231448499
C  C131  1  0.64770000  0.03000000  0.73330000  1.0 -0.0231448499
C  C132  1  0.35230000  0.03000000  0.76670000  1.0 -0.0231448499
C  C133  1  0.30460000  0.91880000  0.21590000  1.0 -0.0905072945
C  C134  1  0.69540000  0.91880000  0.28410000  1.0 -0.0905072945
C  C135  1  0.69540000  0.08120000  0.78410000  1.0 -0.0905072945
C  C136  1  0.30460000  0.08120000  0.71590000  1.0 -0.0905072945
C  C137  1  0.29450000  0.03070000  0.17800000  1.0 -0.1383047008
C  C138  1  0.70550000  0.03070000  0.32200000  1.0 -0.1383047008
C  C139  1  0.70550000  0.96930000  0.82200000  1.0 -0.1383047008
C  C140  1  0.29450000  0.96930000  0.67800000  1.0 -0.1383047008
C  C141  1  0.36420000  0.84850000  0.30800000  1.0 0.5570812185
C  C142  1  0.63580000  0.84850000  0.19200000  1.0 0.5570812185
C  C143  1  0.63580000  0.15150000  0.69200000  1.0 0.5570812185
C  C144  1  0.36420000  0.15150000  0.80800000  1.0 0.5570812185
N  N1  1  0.42620000  0.45170000  0.40360000  1.0 -0.1732070263
N  N2  1  0.57380000  0.45170000  0.09640000  1.0 -0.1732070263
N  N3  1  0.57380000  0.54830000  0.59640000  1.0 -0.1732070263
N  N4  1  0.42620000  0.54830000  0.90360000  1.0 -0.1732070263
N  N5  1  0.42210000  0.30430000  0.42600000  1.0 -0.0905072945
N  N6  1  0.57790000  0.30430000  0.07400000  1.0 -0.0905072945
N  N7  1  0.57790000  0.69570000  0.57400000  1.0 -0.0905072945
N  N8  1  0.42210000  0.69570000  0.92600000  1.0 -0.0905072945
N  N9  1  0.49290000  0.24820000  0.46320000  1.0 -0.1383047008
N  N10  1  0.50710000  0.24820000  0.03680000  1.0 -0.1383047008
N  N11  1  0.50710000  0.75180000  0.53680000  1.0 -0.1383047008
N  N12  1  0.49290000  0.75180000  0.96320000  1.0 -0.1383047008
O  O1  1  0.26310000  0.40970000  0.40660000  1.0 -0.5503958392
O  O2  1  0.73690000  0.40970000  0.09340000  1.0 -0.5503958392
O  O3  1  0.73690000  0.59030000  0.59340000  1.0 -0.5503958392
O  O4  1  0.26310000  0.59030000  0.90660000  1.0 -0.5503958392
O  O5  1  0.27390000  0.66640000  0.37400000  1.0 -0.5298226367
O  O6  1  0.72610000  0.66640000  0.12600000  1.0 -0.5298226367
O  O7  1  0.72610000  0.33360000  0.62600000  1.0 -0.5298226367
O  O8  1  0.27390000  0.33360000  0.87400000  1.0 -0.5298226367
O  O9  1  0.74090000  0.35600000  0.19900000  1.0 -0.5503958392
O  O10  1  0.25910000  0.35600000  0.30100000  1.0 -0.5503958392
O  O11  1  0.25910000  0.64400000  0.80100000  1.0 -0.5503958392
O  O12  1  0.74090000  0.64400000  0.69900000  1.0 -0.5503958392
O  O13  1  0.74590000  0.10770000  0.16100000  1.0 -0.5223709683
O  O14  1  0.25410000  0.10770000  0.33900000  1.0 -0.5223709683
O  O15  1  0.25410000  0.89230000  0.83900000  1.0 -0.5223709683
O  O16  1  0.74590000  0.89230000  0.66100000  1.0 -0.5223709683
O  O17  1  0.42750000  0.89110000  0.01906000  1.0 -0.5503958392
O  O18  1  0.57250000  0.89110000  0.48094000  1.0 -0.5503958392
O  O19  1  0.57250000  0.10890000  0.98094000  1.0 -0.5503958392
O  O20  1  0.42750000  0.10890000  0.51906000  1.0 -0.5503958392
O  O21  1  0.30240000  0.93210000  0.95559000  1.0 -0.5122697989
O  O22  1  0.69760000  0.93210000  0.54441000  1.0 -0.5122697989
O  O23  1  0.69760000  0.06790000  0.04441000  1.0 -0.5122697989
O  O24  1  0.30240000  0.06790000  0.45559000  1.0 -0.5122697989
O  O25  1  0.41440000  0.88650000  0.35320000  1.0 -0.5503958392
O  O26  1  0.58560000  0.88650000  0.14680000  1.0 -0.5503958392
O  O27  1  0.58560000  0.11350000  0.64680000  1.0 -0.5503958392
O  O28  1  0.41440000  0.11350000  0.85320000  1.0 -0.5503958392
O  O29  1  0.32100000  0.71070000  0.29390000  1.0 -0.5298226367
O  O30  1  0.67900000  0.71070000  0.20610000  1.0 -0.5298226367
O  O31  1  0.67900000  0.28930000  0.70610000  1.0 -0.5298226367
O  O32  1  0.32100000  0.28930000  0.79390000  1.0 -0.5298226367
F  F1  1  0.99290000  0.69210000  0.45870000  1.0 -0.1904638924
F  F2  1  0.00710000  0.69210000  0.04130000  1.0 -0.1904638924
F  F3  1  0.00710000  0.30790000  0.54130000  1.0 -0.1904638924
F  F4  1  0.99290000  0.30790000  0.95870000  1.0 -0.1904638924
F  F5  1  0.92660000  0.61420000  0.37990000  1.0 -0.1904638924
F  F6  1  0.07340000  0.61420000  0.12010000  1.0 -0.1904638924
F  F7  1  0.07340000  0.38580000  0.62010000  1.0 -0.1904638924
F  F8  1  0.92660000  0.38580000  0.87990000  1.0 -0.1904638924
F  F9  1  0.88830000  0.83340000  0.40470000  1.0 -0.1904638924
F  F10  1  0.11170000  0.83340000  0.09530000  1.0 -0.1904638924
F  F11  1  0.11170000  0.16660000  0.59530000  1.0 -0.1904638924
F  F12  1  0.88830000  0.16660000  0.90470000  1.0 -0.1904638924
F  F13  1  0.09540000  0.95800000  0.48747000  1.0 -0.1904638924
F  F14  1  0.90460000  0.95800000  0.01253000  1.0 -0.1904638924
F  F15  1  0.90460000  0.04200000  0.51253000  1.0 -0.1904638924
F  F16  1  0.09540000  0.04200000  0.98747000  1.0 -0.1904638924
F  F17  1  0.06630000  0.16850000  0.43318000  1.0 -0.1904638924
F  F18  1  0.93370000  0.16850000  0.06682000  1.0 -0.1904638924
F  F19  1  0.93370000  0.83150000  0.56682000  1.0 -0.1904638924
F  F20  1  0.06630000  0.83150000  0.93318000  1.0 -0.1904638924
F  F21  1  0.98810000  0.10420000  0.45444000  1.0 -0.1996299441
F  F22  1  0.01190000  0.10420000  0.04556000  1.0 -0.1996299441
F  F23  1  0.01190000  0.89580000  0.54556000  1.0 -0.1996299441
F  F24  1  0.98810000  0.89580000  0.95444000  1.0 -0.1996299441
F  F25  1  0.37000000  0.60250000  0.18850000  1.0 -0.1904638924
F  F26  1  0.63000000  0.60250000  0.31150000  1.0 -0.1904638924
F  F27  1  0.63000000  0.39750000  0.81150000  1.0 -0.1904638924
F  F28  1  0.37000000  0.39750000  0.68850000  1.0 -0.1904638924
F  F29  1  0.44820000  0.41210000  0.19059000  1.0 -0.1841869413
F  F30  1  0.55180000  0.41210000  0.30941000  1.0 -0.1841869413
F  F31  1  0.55180000  0.58790000  0.80941000  1.0 -0.1841869413
F  F32  1  0.44820000  0.58790000  0.69059000  1.0 -0.1841869413
F  F33  1  0.36860000  0.55500000  0.12180000  1.0 -0.1904638924
F  F34  1  0.63140000  0.55500000  0.37820000  1.0 -0.1904638924
F  F35  1  0.63140000  0.44500000  0.87820000  1.0 -0.1904638924
F  F36  1  0.36860000  0.44500000  0.62180000  1.0 -0.1904638924
F  F37  1  0.22970000  0.48270000  0.15770000  1.0 -0.1904638924
F  F38  1  0.77030000  0.48270000  0.34230000  1.0 -0.1904638924
F  F39  1  0.77030000  0.51730000  0.84230000  1.0 -0.1904638924
F  F40  1  0.22970000  0.51730000  0.65770000  1.0 -0.1904638924
F  F41  1  0.17770000  0.28610000  0.09764000  1.0 -0.1841869413
F  F42  1  0.82230000  0.28610000  0.40236000  1.0 -0.1841869413
F  F43  1  0.82230000  0.71390000  0.90236000  1.0 -0.1841869413
F  F44  1  0.17770000  0.71390000  0.59764000  1.0 -0.1841869413
F  F45  1  0.21850000  0.53770000  0.08740000  1.0 -0.1996299441
F  F46  1  0.78150000  0.53770000  0.41260000  1.0 -0.1996299441
F  F47  1  0.78150000  0.46230000  0.91260000  1.0 -0.1996299441
F  F48  1  0.21850000  0.46230000  0.58740000  1.0 -0.1996299441
