# DDEC6 charges by PACMAN v1.1 (https://github.com/mtap-research/PACMAN-charge/)
data_HAFFEC_FSR_pacman
_symmetry_space_group_name_H-M   'P 1'
_cell_length_a   19.31270000
_cell_length_b   19.31270000
_cell_length_c   19.31270000
_cell_angle_alpha   56.07810000
_cell_angle_beta   56.07810000
_cell_angle_gamma   56.07810000
_symmetry_Int_Tables_number   1
_chemical_formula_structural   CuH15C23N3O5
_chemical_formula_sum   'Cu6 H90 C138 N18 O30'
_cell_volume   4630.84916315
_cell_formula_units_Z   6
loop_
 _symmetry_equiv_pos_site_id
 _symmetry_equiv_pos_as_xyz
  1  'x, y, z'
loop_
 _atom_site_type_symbol
 _atom_site_label
 _atom_site_symmetry_multiplicity
 _atom_site_fract_x
 _atom_site_fract_y
 _atom_site_fract_z
 _atom_site_occupancy
 _atom_site_charge
Cu  Cu1  1  0.45580000  0.03130000  0.07290000  1.0 0.833900087
Cu  Cu2  1  0.07290000  0.45580000  0.03130000  1.0 0.833900087
Cu  Cu3  1  0.03130000  0.07290000  0.45580000  1.0 0.833900087
Cu  Cu4  1  0.54420000  0.92710000  0.96870000  1.0 0.833900087
Cu  Cu5  1  0.96870000  0.54420000  0.92710000  1.0 0.833900087
Cu  Cu6  1  0.92710000  0.96870000  0.54420000  1.0 0.833900087
H  H1  1  0.15510000  0.34670000  0.78040000  1.0 0.1385289435
H  H2  1  0.78040000  0.15510000  0.34670000  1.0 0.1385289435
H  H3  1  0.34670000  0.78040000  0.15510000  1.0 0.1385289435
H  H4  1  0.84490000  0.21960000  0.65330000  1.0 0.1385289435
H  H5  1  0.65330000  0.84490000  0.21960000  1.0 0.1385289435
H  H6  1  0.21960000  0.65330000  0.84490000  1.0 0.1385289435
H  H7  1  0.26800000  0.25500000  0.95150000  1.0 0.1297659506
H  H8  1  0.95150000  0.26800000  0.25500000  1.0 0.1297659506
H  H9  1  0.25500000  0.95150000  0.26800000  1.0 0.1297659506
H  H10  1  0.73200000  0.04850000  0.74500000  1.0 0.1297659506
H  H11  1  0.74500000  0.73200000  0.04850000  1.0 0.1297659506
H  H12  1  0.04850000  0.74500000  0.73200000  1.0 0.1297659506
H  H13  1  0.35870000  0.11210000  0.80840000  1.0 0.1385289435
H  H14  1  0.80840000  0.35870000  0.11210000  1.0 0.1385289435
H  H15  1  0.11210000  0.80840000  0.35870000  1.0 0.1385289435
H  H16  1  0.64130000  0.19160000  0.88790000  1.0 0.1385289435
H  H17  1  0.88790000  0.64130000  0.19160000  1.0 0.1385289435
H  H18  1  0.19160000  0.88790000  0.64130000  1.0 0.1385289435
H  H19  1  0.19790000  0.28590000  0.69340000  1.0 0.2848100443
H  H20  1  0.69340000  0.19790000  0.28590000  1.0 0.2848100443
H  H21  1  0.28590000  0.69340000  0.19790000  1.0 0.2848100443
H  H22  1  0.80210000  0.30660000  0.71410000  1.0 0.2848100443
H  H23  1  0.71410000  0.80210000  0.30660000  1.0 0.2848100443
H  H24  1  0.30660000  0.71410000  0.80210000  1.0 0.2848100443
H  H25  1  0.32420000  0.05880000  0.61750000  1.0 0.0645932038
H  H26  1  0.61750000  0.32420000  0.05880000  1.0 0.0645932038
H  H27  1  0.05880000  0.61750000  0.32420000  1.0 0.0645932038
H  H28  1  0.67580000  0.38250000  0.94120000  1.0 0.0645932038
H  H29  1  0.94120000  0.67580000  0.38250000  1.0 0.0645932038
H  H30  1  0.38250000  0.94120000  0.67580000  1.0 0.0645932038
H  H31  1  0.27440000  0.07240000  0.52440000  1.0 0.0787614961
H  H32  1  0.52440000  0.27440000  0.07240000  1.0 0.0787614961
H  H33  1  0.07240000  0.52440000  0.27440000  1.0 0.0787614961
H  H34  1  0.72560000  0.47560000  0.92760000  1.0 0.0787614961
H  H35  1  0.92760000  0.72560000  0.47560000  1.0 0.0787614961
H  H36  1  0.47560000  0.92760000  0.72560000  1.0 0.0787614961
H  H37  1  0.11170000  0.32350000  0.51310000  1.0 0.0645932038
H  H38  1  0.51310000  0.11170000  0.32350000  1.0 0.0645932038
H  H39  1  0.32350000  0.51310000  0.11170000  1.0 0.0645932038
H  H40  1  0.88830000  0.48690000  0.67650000  1.0 0.0645932038
H  H41  1  0.67650000  0.88830000  0.48690000  1.0 0.0645932038
H  H42  1  0.48690000  0.67650000  0.88830000  1.0 0.0645932038
H  H43  1  0.16230000  0.31010000  0.60520000  1.0 0.0645932038
H  H44  1  0.60520000  0.16230000  0.31010000  1.0 0.0645932038
H  H45  1  0.31010000  0.60520000  0.16230000  1.0 0.0645932038
H  H46  1  0.83770000  0.39480000  0.68990000  1.0 0.0706187644
H  H47  1  0.68990000  0.83770000  0.39480000  1.0 0.0645932038
H  H48  1  0.39480000  0.68990000  0.83770000  1.0 0.0645932038
H  H49  1  0.16670000  0.32510000  0.35240000  1.0 0.0994095434
H  H50  1  0.35240000  0.16670000  0.32510000  1.0 0.0994095434
H  H51  1  0.32510000  0.35240000  0.16670000  1.0 0.0994095434
H  H52  1  0.83330000  0.64760000  0.67490000  1.0 0.0994095434
H  H53  1  0.67490000  0.83330000  0.64760000  1.0 0.0994095434
H  H54  1  0.64760000  0.67490000  0.83330000  1.0 0.0994095434
H  H55  1  0.07170000  0.23370000  0.30270000  1.0 0.0994095434
H  H56  1  0.30270000  0.07170000  0.23370000  1.0 0.0994095434
H  H57  1  0.23370000  0.30270000  0.07170000  1.0 0.0994095434
H  H58  1  0.92830000  0.69730000  0.76630000  1.0 0.0994095434
H  H59  1  0.76630000  0.92830000  0.69730000  1.0 0.0994095434
H  H60  1  0.69730000  0.76630000  0.92830000  1.0 0.0994095434
H  H61  1  0.12610000  0.09340000  0.51700000  1.0 0.1110890586
H  H62  1  0.51700000  0.12610000  0.09340000  1.0 0.1110890586
H  H63  1  0.09340000  0.51700000  0.12610000  1.0 0.1110890586
H  H64  1  0.87390000  0.48300000  0.90660000  1.0 0.1110890586
H  H65  1  0.90660000  0.87390000  0.48300000  1.0 0.1110890586
H  H66  1  0.48300000  0.90660000  0.87390000  1.0 0.1110890586
H  H67  1  0.26700000  0.05300000  0.66850000  1.0 0.0706187644
H  H68  1  0.66850000  0.26700000  0.05300000  1.0 0.0706187644
H  H69  1  0.05300000  0.66850000  0.26700000  1.0 0.0706187644
H  H70  1  0.73300000  0.33150000  0.94700000  1.0 0.0706187644
H  H71  1  0.94700000  0.73300000  0.33150000  1.0 0.0706187644
H  H72  1  0.33150000  0.94700000  0.73300000  1.0 0.0706187644
H  H73  1  0.21750000  0.06650000  0.57550000  1.0 0.0880860169
H  H74  1  0.57550000  0.21750000  0.06650000  1.0 0.0880860169
H  H75  1  0.06650000  0.57550000  0.21750000  1.0 0.0880860169
H  H76  1  0.78250000  0.42450000  0.93350000  1.0 0.0880860169
H  H77  1  0.93350000  0.78250000  0.42450000  1.0 0.0880860169
H  H78  1  0.42450000  0.93350000  0.78250000  1.0 0.0880860169
H  H79  1  0.16890000  0.32930000  0.46210000  1.0 0.0645932038
H  H80  1  0.46210000  0.16890000  0.32930000  1.0 0.0645932038
H  H81  1  0.32930000  0.46210000  0.16890000  1.0 0.0645932038
H  H82  1  0.83110000  0.53790000  0.67070000  1.0 0.0645932038
H  H83  1  0.67070000  0.83110000  0.53790000  1.0 0.0645932038
H  H84  1  0.53790000  0.67070000  0.83110000  1.0 0.0645932038
H  H85  1  0.21850000  0.31590000  0.55520000  1.0 0.0706187644
H  H86  1  0.55520000  0.21850000  0.31590000  1.0 0.0706187644
H  H87  1  0.31590000  0.55520000  0.21850000  1.0 0.0706187644
H  H88  1  0.78150000  0.44480000  0.68410000  1.0 0.0706187644
H  H89  1  0.68410000  0.78150000  0.44480000  1.0 0.0706187644
H  H90  1  0.44480000  0.68410000  0.78150000  1.0 0.0706187644
C  C1  1  0.39230000  0.09750000  0.92650000  1.0 0.5888337423
C  C2  1  0.92650000  0.39230000  0.09750000  1.0 0.5888337423
C  C3  1  0.09750000  0.92650000  0.39230000  1.0 0.5888337423
C  C4  1  0.60770000  0.07350000  0.90250000  1.0 0.5888337423
C  C5  1  0.90250000  0.60770000  0.07350000  1.0 0.5888337423
C  C6  1  0.07350000  0.90250000  0.60770000  1.0 0.5888337423
C  C7  1  0.25650000  0.22770000  0.78360000  1.0 0.2263753443
C  C8  1  0.78360000  0.25650000  0.22770000  1.0 0.2263753443
C  C9  1  0.22770000  0.78360000  0.25650000  1.0 0.2263753443
C  C10  1  0.74350000  0.21640000  0.77230000  1.0 0.2263753443
C  C11  1  0.77230000  0.74350000  0.21640000  1.0 0.2263753443
C  C12  1  0.21640000  0.77230000  0.74350000  1.0 0.2263753443
C  C13  1  0.19720000  0.30340000  0.80680000  1.0 -0.2308338578
C  C14  1  0.80680000  0.19720000  0.30340000  1.0 -0.2308338578
C  C15  1  0.30340000  0.80680000  0.19720000  1.0 -0.2308338578
C  C16  1  0.80280000  0.19320000  0.69660000  1.0 -0.2308338578
C  C17  1  0.69660000  0.80280000  0.19320000  1.0 -0.2308338578
C  C18  1  0.19320000  0.69660000  0.80280000  1.0 -0.2308338578
C  C19  1  0.20180000  0.31360000  0.86970000  1.0 0.0163979063
C  C20  1  0.86970000  0.20180000  0.31360000  1.0 0.0163979063
C  C21  1  0.31360000  0.86970000  0.20180000  1.0 0.0163979063
C  C22  1  0.79820000  0.13030000  0.68640000  1.0 0.0163979063
C  C23  1  0.68640000  0.79820000  0.13030000  1.0 0.0163979063
C  C24  1  0.13030000  0.68640000  0.79820000  1.0 0.0163979063
C  C25  1  0.26460000  0.24820000  0.91040000  1.0 -0.1394475545
C  C26  1  0.91040000  0.26460000  0.24820000  1.0 -0.1394475545
C  C27  1  0.24820000  0.91040000  0.26460000  1.0 -0.1394475545
C  C28  1  0.73540000  0.08960000  0.75180000  1.0 -0.1394475545
C  C29  1  0.75180000  0.73540000  0.08960000  1.0 -0.1394475545
C  C30  1  0.08960000  0.75180000  0.73540000  1.0 -0.1394475545
C  C31  1  0.32380000  0.17250000  0.88700000  1.0 -0.0171469328
C  C32  1  0.88700000  0.32380000  0.17250000  1.0 -0.0171469328
C  C33  1  0.17250000  0.88700000  0.32380000  1.0 -0.0171469328
C  C34  1  0.67620000  0.11300000  0.82750000  1.0 -0.0171469328
C  C35  1  0.82750000  0.67620000  0.11300000  1.0 -0.0171469328
C  C36  1  0.11300000  0.82750000  0.67620000  1.0 -0.0171469328
C  C37  1  0.31930000  0.16230000  0.82400000  1.0 -0.1826342911
C  C38  1  0.82400000  0.31930000  0.16230000  1.0 -0.1826342911
C  C39  1  0.16230000  0.82400000  0.31930000  1.0 -0.1826342911
C  C40  1  0.68070000  0.17600000  0.83770000  1.0 -0.1826342911
C  C41  1  0.83770000  0.68070000  0.17600000  1.0 -0.1826342911
C  C42  1  0.17600000  0.83770000  0.68070000  1.0 -0.1826342911
C  C43  1  0.13950000  0.38660000  0.91120000  1.0 0.5801557828
C  C44  1  0.91120000  0.13950000  0.38660000  1.0 0.5801557828
C  C45  1  0.38660000  0.91120000  0.13950000  1.0 0.5801557828
C  C46  1  0.86050000  0.08880000  0.61340000  1.0 0.5801557828
C  C47  1  0.61340000  0.86050000  0.08880000  1.0 0.5801557828
C  C48  1  0.08880000  0.61340000  0.86050000  1.0 0.5801557828
C  C49  1  0.28090000  0.17390000  0.68190000  1.0 0.4297455429
C  C50  1  0.68190000  0.28090000  0.17390000  1.0 0.4297455429
C  C51  1  0.17390000  0.68190000  0.28090000  1.0 0.4297455429
C  C52  1  0.71910000  0.31810000  0.82610000  1.0 0.4297455429
C  C53  1  0.82610000  0.71910000  0.31810000  1.0 0.4297455429
C  C54  1  0.31810000  0.82610000  0.71910000  1.0 0.4297455429
C  C55  1  0.24810000  0.18300000  0.62100000  1.0 -0.0620448548
C  C56  1  0.62100000  0.24810000  0.18300000  1.0 -0.0620448548
C  C57  1  0.18300000  0.62100000  0.24810000  1.0 -0.0620448548
C  C58  1  0.75190000  0.37900000  0.81700000  1.0 -0.0620448548
C  C59  1  0.81700000  0.75190000  0.37900000  1.0 -0.0620448548
C  C60  1  0.37900000  0.81700000  0.75190000  1.0 -0.0620448548
C  C61  1  0.28150000  0.11150000  0.59700000  1.0 -0.0320622537
C  C62  1  0.59700000  0.28150000  0.11150000  1.0 -0.0320622537
C  C63  1  0.11150000  0.59700000  0.28150000  1.0 -0.0320622537
C  C64  1  0.71850000  0.40300000  0.88850000  1.0 -0.0320622537
C  C65  1  0.88850000  0.71850000  0.40300000  1.0 -0.0320622537
C  C66  1  0.40300000  0.88850000  0.71850000  1.0 -0.0320622537
C  C67  1  0.25210000  0.11910000  0.54110000  1.0 -0.0494623788
C  C68  1  0.54110000  0.25210000  0.11910000  1.0 -0.0494623788
C  C69  1  0.11910000  0.54110000  0.25210000  1.0 -0.0494623788
C  C70  1  0.74790000  0.45890000  0.88090000  1.0 -0.0494623788
C  C71  1  0.88090000  0.74790000  0.45890000  1.0 -0.0494623788
C  C72  1  0.45890000  0.88090000  0.74790000  1.0 -0.0494623788
C  C73  1  0.18840000  0.19890000  0.50940000  1.0 0.0324820285
C  C74  1  0.50940000  0.18840000  0.19890000  1.0 0.0324820285
C  C75  1  0.19890000  0.50940000  0.18840000  1.0 0.0324820285
C  C76  1  0.81160000  0.49060000  0.80110000  1.0 0.0324820285
C  C77  1  0.80110000  0.81160000  0.49060000  1.0 0.0324820285
C  C78  1  0.49060000  0.80110000  0.81160000  1.0 0.0324820285
C  C79  1  0.15440000  0.27080000  0.53360000  1.0 -0.0398903518
C  C80  1  0.53360000  0.15440000  0.27080000  1.0 -0.0320622537
C  C81  1  0.27080000  0.53360000  0.15440000  1.0 -0.0398903518
C  C82  1  0.84560000  0.46640000  0.72920000  1.0 -0.0320622537
C  C83  1  0.72920000  0.84560000  0.46640000  1.0 -0.0320622537
C  C84  1  0.46640000  0.72920000  0.84560000  1.0 -0.0398903518
C  C85  1  0.18430000  0.26270000  0.58950000  1.0 -0.0398903518
C  C86  1  0.58950000  0.18430000  0.26270000  1.0 -0.0398903518
C  C87  1  0.26270000  0.58950000  0.18430000  1.0 -0.0398903518
C  C88  1  0.81570000  0.41050000  0.73730000  1.0 -0.0398903518
C  C89  1  0.73730000  0.81570000  0.41050000  1.0 -0.0398903518
C  C90  1  0.41050000  0.73730000  0.81570000  1.0 -0.0398903518
C  C91  1  0.15690000  0.20760000  0.45150000  1.0 -0.1307174596
C  C92  1  0.45150000  0.15690000  0.20760000  1.0 -0.1307174596
C  C93  1  0.20760000  0.45150000  0.15690000  1.0 -0.1307174596
C  C94  1  0.84310000  0.54850000  0.79240000  1.0 -0.1307174596
C  C95  1  0.79240000  0.84310000  0.54850000  1.0 -0.1307174596
C  C96  1  0.54850000  0.79240000  0.84310000  1.0 -0.1307174596
C  C97  1  0.12580000  0.14460000  0.46700000  1.0 0.0706187644
C  C98  1  0.46700000  0.12580000  0.14460000  1.0 0.0706187644
C  C99  1  0.14460000  0.46700000  0.12580000  1.0 0.0706187644
C  C100  1  0.87420000  0.53300000  0.85540000  1.0 0.0706187644
C  C101  1  0.85540000  0.87420000  0.53300000  1.0 0.0706187644
C  C102  1  0.53300000  0.85540000  0.87420000  1.0 0.0706187644
C  C103  1  0.09280000  0.22550000  0.34020000  1.0 0.2072203089
C  C104  1  0.34020000  0.09280000  0.22550000  1.0 0.2072203089
C  C105  1  0.22550000  0.34020000  0.09280000  1.0 0.2072203089
C  C106  1  0.90720000  0.65980000  0.77450000  1.0 0.2072203089
C  C107  1  0.77450000  0.90720000  0.65980000  1.0 0.2072203089
C  C108  1  0.65980000  0.77450000  0.90720000  1.0 0.2072203089
C  C109  1  0.14860000  0.28170000  0.36770000  1.0 -0.0130741175
C  C110  1  0.36770000  0.14860000  0.28170000  1.0 -0.0130741175
C  C111  1  0.28170000  0.36770000  0.14860000  1.0 -0.0130741175
C  C112  1  0.85140000  0.63230000  0.71830000  1.0 -0.0130741175
C  C113  1  0.71830000  0.85140000  0.63230000  1.0 -0.0130741175
C  C114  1  0.63230000  0.71830000  0.85140000  1.0 -0.0130741175
C  C115  1  0.24780000  0.10810000  0.62720000  1.0 -0.0171469328
C  C116  1  0.62720000  0.24780000  0.10810000  1.0 -0.0171469328
C  C117  1  0.10810000  0.62720000  0.24780000  1.0 -0.0171469328
C  C118  1  0.75220000  0.37280000  0.89190000  1.0 -0.0171469328
C  C119  1  0.89190000  0.75220000  0.37280000  1.0 -0.0171469328
C  C120  1  0.37280000  0.89190000  0.75220000  1.0 -0.0171469328
C  C121  1  0.21770000  0.11570000  0.57170000  1.0 -0.0320622537
C  C122  1  0.57170000  0.21770000  0.11570000  1.0 -0.0320622537
C  C123  1  0.11570000  0.57170000  0.21770000  1.0 -0.0320622537
C  C124  1  0.78230000  0.42830000  0.88430000  1.0 -0.0320622537
C  C125  1  0.88430000  0.78230000  0.42830000  1.0 -0.0320622537
C  C126  1  0.42830000  0.88430000  0.78230000  1.0 -0.0320622537
C  C127  1  0.18840000  0.27430000  0.50330000  1.0 -0.0494623788
C  C128  1  0.50330000  0.18840000  0.27430000  1.0 -0.0494623788
C  C129  1  0.27430000  0.50330000  0.18840000  1.0 -0.0494623788
C  C130  1  0.81160000  0.49670000  0.72570000  1.0 -0.0494623788
C  C131  1  0.72570000  0.81160000  0.49670000  1.0 -0.0494623788
C  C132  1  0.49670000  0.72570000  0.81160000  1.0 -0.0494623788
C  C133  1  0.21840000  0.26620000  0.55910000  1.0 -0.0494623788
C  C134  1  0.55910000  0.21840000  0.26620000  1.0 -0.0494623788
C  C135  1  0.26620000  0.55910000  0.21840000  1.0 -0.0494623788
C  C136  1  0.78160000  0.44090000  0.73380000  1.0 -0.0494623788
C  C137  1  0.73380000  0.78160000  0.44090000  1.0 -0.0494623788
C  C138  1  0.44090000  0.73380000  0.78160000  1.0 -0.0494623788
N  N1  1  0.23680000  0.23720000  0.71640000  1.0 -0.3610333324
N  N2  1  0.71640000  0.23680000  0.23720000  1.0 -0.3610333324
N  N3  1  0.23720000  0.71640000  0.23680000  1.0 -0.3610333324
N  N4  1  0.76320000  0.28360000  0.76280000  1.0 -0.3610333324
N  N5  1  0.76280000  0.76320000  0.28360000  1.0 -0.3610333324
N  N6  1  0.28360000  0.76280000  0.76320000  1.0 -0.3610333324
N  N7  1  0.09560000  0.15290000  0.41420000  1.0 -0.2543188404
N  N8  1  0.41420000  0.09560000  0.15290000  1.0 -0.2543188404
N  N9  1  0.15290000  0.41420000  0.09560000  1.0 -0.2543188404
N  N10  1  0.90440000  0.58580000  0.84710000  1.0 -0.2543188404
N  N11  1  0.84710000  0.90440000  0.58580000  1.0 -0.2543188404
N  N12  1  0.58580000  0.84710000  0.90440000  1.0 -0.2543188404
N  N13  1  0.11830000  0.29010000  0.31490000  1.0 -0.2308338578
N  N14  1  0.31490000  0.11830000  0.29010000  1.0 -0.2308338578
N  N15  1  0.29010000  0.31490000  0.11830000  1.0 -0.2308338578
N  N16  1  0.88170000  0.68510000  0.70990000  1.0 -0.2308338578
N  N17  1  0.70990000  0.88170000  0.68510000  1.0 -0.2308338578
N  N18  1  0.68510000  0.70990000  0.88170000  1.0 -0.2308338578
O  O1  1  0.40100000  0.10520000  0.98240000  1.0 -0.5502176504
O  O2  1  0.98240000  0.40100000  0.10520000  1.0 -0.5502176504
O  O3  1  0.10520000  0.98240000  0.40100000  1.0 -0.5502176504
O  O4  1  0.59900000  0.01760000  0.89480000  1.0 -0.5502176504
O  O5  1  0.89480000  0.59900000  0.01760000  1.0 -0.5502176504
O  O6  1  0.01760000  0.89480000  0.59900000  1.0 -0.5502176504
O  O7  1  0.44080000  0.02720000  0.90750000  1.0 -0.5758842896
O  O8  1  0.90750000  0.44080000  0.02720000  1.0 -0.5758842896
O  O9  1  0.02720000  0.90750000  0.44080000  1.0 -0.5758842896
O  O10  1  0.55920000  0.09250000  0.97280000  1.0 -0.5758842896
O  O11  1  0.97280000  0.55920000  0.09250000  1.0 -0.5758842896
O  O12  1  0.09250000  0.97280000  0.55920000  1.0 -0.5758842896
O  O13  1  0.15620000  0.37840000  0.97080000  1.0 -0.5077023179
O  O14  1  0.97080000  0.15620000  0.37840000  1.0 -0.5077023179
O  O15  1  0.37840000  0.97080000  0.15620000  1.0 -0.5077023179
O  O16  1  0.84380000  0.02920000  0.62160000  1.0 -0.5077023179
O  O17  1  0.62160000  0.84380000  0.02920000  1.0 -0.5077023179
O  O18  1  0.02920000  0.62160000  0.84380000  1.0 -0.5077023179
O  O19  1  0.07250000  0.45090000  0.89020000  1.0 -0.5502176504
O  O20  1  0.89020000  0.07250000  0.45090000  1.0 -0.5502176504
O  O21  1  0.45090000  0.89020000  0.07250000  1.0 -0.5502176504
O  O22  1  0.92750000  0.10980000  0.54910000  1.0 -0.5502176504
O  O23  1  0.54910000  0.92750000  0.10980000  1.0 -0.5502176504
O  O24  1  0.10980000  0.54910000  0.92750000  1.0 -0.5502176504
O  O25  1  0.33120000  0.10020000  0.71220000  1.0 -0.4431014131
O  O26  1  0.71220000  0.33120000  0.10020000  1.0 -0.4431014131
O  O27  1  0.10020000  0.71220000  0.33120000  1.0 -0.4431014131
O  O28  1  0.66880000  0.28780000  0.89980000  1.0 -0.4431014131
O  O29  1  0.89980000  0.66880000  0.28780000  1.0 -0.4431014131
O  O30  1  0.28780000  0.89980000  0.66880000  1.0 -0.4431014131
