# DDEC6 charges by PACMAN v1.1 (https://github.com/mtap-research/PACMAN-charge/)
data_HAFFAY_FSR_pacman
_symmetry_space_group_name_H-M   'P 1'
_cell_length_a   19.30640000
_cell_length_b   19.30640000
_cell_length_c   19.30640000
_cell_angle_alpha   55.84130000
_cell_angle_beta   55.84130000
_cell_angle_gamma   55.84130000
_symmetry_Int_Tables_number   1
_chemical_formula_structural   CuH15C23N3O5
_chemical_formula_sum   'Cu6 H90 C138 N18 O30'
_cell_volume   4597.89095392
_cell_formula_units_Z   6
loop_
 _symmetry_equiv_pos_site_id
 _symmetry_equiv_pos_as_xyz
  1  'x, y, z'
loop_
 _atom_site_type_symbol
 _atom_site_label
 _atom_site_symmetry_multiplicity
 _atom_site_fract_x
 _atom_site_fract_y
 _atom_site_fract_z
 _atom_site_occupancy
 _atom_site_charge
Cu  Cu1  1  0.46810000  0.02640000  0.07060000  1.0 0.8163701976
Cu  Cu2  1  0.07060000  0.46810000  0.02640000  1.0 0.8163701976
Cu  Cu3  1  0.02640000  0.07060000  0.46810000  1.0 0.8163701976
Cu  Cu4  1  0.53190000  0.92940000  0.97360000  1.0 0.8163701976
Cu  Cu5  1  0.97360000  0.53190000  0.92940000  1.0 0.8163701976
Cu  Cu6  1  0.92940000  0.97360000  0.53190000  1.0 0.8163701976
H  H1  1  0.13800000  0.33400000  0.80300000  1.0 0.1374466403
H  H2  1  0.80300000  0.13800000  0.33400000  1.0 0.1374466403
H  H3  1  0.33400000  0.80300000  0.13800000  1.0 0.1374466403
H  H4  1  0.86200000  0.19700000  0.66600000  1.0 0.1374466403
H  H5  1  0.66600000  0.86200000  0.19700000  1.0 0.1374466403
H  H6  1  0.19700000  0.66600000  0.86200000  1.0 0.1374466403
H  H7  1  0.27840000  0.25540000  0.94340000  1.0 0.1329418677
H  H8  1  0.94340000  0.27840000  0.25540000  1.0 0.1329418677
H  H9  1  0.25540000  0.94340000  0.27840000  1.0 0.1329418677
H  H10  1  0.72160000  0.05660000  0.74460000  1.0 0.1329418677
H  H11  1  0.74460000  0.72160000  0.05660000  1.0 0.1329418677
H  H12  1  0.05660000  0.74460000  0.72160000  1.0 0.1329418677
H  H13  1  0.36580000  0.12180000  0.79280000  1.0 0.1329418677
H  H14  1  0.79280000  0.36580000  0.12180000  1.0 0.1329418677
H  H15  1  0.12180000  0.79280000  0.36580000  1.0 0.1329418677
H  H16  1  0.63420000  0.20720000  0.87820000  1.0 0.1329418677
H  H17  1  0.87820000  0.63420000  0.20720000  1.0 0.1329418677
H  H18  1  0.20720000  0.87820000  0.63420000  1.0 0.1329418677
H  H19  1  0.19940000  0.28560000  0.69250000  1.0 0.2845419927
H  H20  1  0.69250000  0.19940000  0.28560000  1.0 0.2845419927
H  H21  1  0.28560000  0.69250000  0.19940000  1.0 0.2845419927
H  H22  1  0.80060000  0.30750000  0.71440000  1.0 0.2845419927
H  H23  1  0.71440000  0.80060000  0.30750000  1.0 0.2845419927
H  H24  1  0.30750000  0.71440000  0.80060000  1.0 0.2845419927
H  H25  1  0.32860000  0.05880000  0.61370000  1.0 0.0595161675
H  H26  1  0.61370000  0.32860000  0.05880000  1.0 0.0595161675
H  H27  1  0.05880000  0.61370000  0.32860000  1.0 0.0595161675
H  H28  1  0.67140000  0.38630000  0.94120000  1.0 0.0595161675
H  H29  1  0.94120000  0.67140000  0.38630000  1.0 0.0595161675
H  H30  1  0.38630000  0.94120000  0.67140000  1.0 0.0595161675
H  H31  1  0.27760000  0.07260000  0.52160000  1.0 0.0712573299
H  H32  1  0.52160000  0.27760000  0.07260000  1.0 0.0712573299
H  H33  1  0.07260000  0.52160000  0.27760000  1.0 0.0712573299
H  H34  1  0.72240000  0.47840000  0.92740000  1.0 0.0712573299
H  H35  1  0.92740000  0.72240000  0.47840000  1.0 0.0712573299
H  H36  1  0.47840000  0.92740000  0.72240000  1.0 0.0712573299
H  H37  1  0.10840000  0.32140000  0.51640000  1.0 0.0595161675
H  H38  1  0.51640000  0.10840000  0.32140000  1.0 0.0595161675
H  H39  1  0.32140000  0.51640000  0.10840000  1.0 0.0595161675
H  H40  1  0.89160000  0.48360000  0.67860000  1.0 0.0595161675
H  H41  1  0.67860000  0.89160000  0.48360000  1.0 0.0595161675
H  H42  1  0.48360000  0.67860000  0.89160000  1.0 0.0595161675
H  H43  1  0.15900000  0.30800000  0.60850000  1.0 0.0595161675
H  H44  1  0.60850000  0.15900000  0.30800000  1.0 0.0595161675
H  H45  1  0.30800000  0.60850000  0.15900000  1.0 0.0595161675
H  H46  1  0.84100000  0.39150000  0.69200000  1.0 0.0712573299
H  H47  1  0.69200000  0.84100000  0.39150000  1.0 0.0712573299
H  H48  1  0.39150000  0.69200000  0.84100000  1.0 0.0712573299
H  H49  1  0.16990000  0.32650000  0.35200000  1.0 0.0904439907
H  H50  1  0.35200000  0.16990000  0.32650000  1.0 0.0904439907
H  H51  1  0.32650000  0.35200000  0.16990000  1.0 0.0904439907
H  H52  1  0.83010000  0.64800000  0.67350000  1.0 0.0904439907
H  H53  1  0.67350000  0.83010000  0.64800000  1.0 0.0904439907
H  H54  1  0.64800000  0.67350000  0.83010000  1.0 0.0904439907
H  H55  1  0.06400000  0.23470000  0.30340000  1.0 0.1110238566
H  H56  1  0.30340000  0.06400000  0.23470000  1.0 0.1110238566
H  H57  1  0.23470000  0.30340000  0.06400000  1.0 0.1110238566
H  H58  1  0.93600000  0.69660000  0.76530000  1.0 0.1110238566
H  H59  1  0.76530000  0.93600000  0.69660000  1.0 0.1110238566
H  H60  1  0.69660000  0.76530000  0.93600000  1.0 0.1110238566
H  H61  1  0.12630000  0.09120000  0.52350000  1.0 0.1110238566
H  H62  1  0.52350000  0.12630000  0.09120000  1.0 0.1110238566
H  H63  1  0.09120000  0.52350000  0.12630000  1.0 0.1110238566
H  H64  1  0.87370000  0.47650000  0.90880000  1.0 0.1110238566
H  H65  1  0.90880000  0.87370000  0.47650000  1.0 0.1110238566
H  H66  1  0.47650000  0.90880000  0.87370000  1.0 0.1110238566
H  H67  1  0.26440000  0.05220000  0.67130000  1.0 0.0712573299
H  H68  1  0.67130000  0.26440000  0.05220000  1.0 0.0712573299
H  H69  1  0.05220000  0.67130000  0.26440000  1.0 0.0712573299
H  H70  1  0.73560000  0.32870000  0.94780000  1.0 0.0712573299
H  H71  1  0.94780000  0.73560000  0.32870000  1.0 0.0712573299
H  H72  1  0.32870000  0.94780000  0.73560000  1.0 0.0712573299
H  H73  1  0.21420000  0.06520000  0.57920000  1.0 0.0806380655
H  H74  1  0.57920000  0.21420000  0.06520000  1.0 0.0806380655
H  H75  1  0.06520000  0.57920000  0.21420000  1.0 0.0806380655
H  H76  1  0.78580000  0.42080000  0.93480000  1.0 0.0806380655
H  H77  1  0.93480000  0.78580000  0.42080000  1.0 0.0806380655
H  H78  1  0.42080000  0.93480000  0.78580000  1.0 0.0806380655
H  H79  1  0.17260000  0.32800000  0.45880000  1.0 0.0595161675
H  H80  1  0.45880000  0.17260000  0.32800000  1.0 0.0595161675
H  H81  1  0.32800000  0.45880000  0.17260000  1.0 0.0595161675
H  H82  1  0.82740000  0.54120000  0.67200000  1.0 0.0595161675
H  H83  1  0.67200000  0.82740000  0.54120000  1.0 0.0595161675
H  H84  1  0.54120000  0.67200000  0.82740000  1.0 0.0595161675
H  H85  1  0.22220000  0.31460000  0.55190000  1.0 0.0595161675
H  H86  1  0.55190000  0.22220000  0.31460000  1.0 0.0595161675
H  H87  1  0.31460000  0.55190000  0.22220000  1.0 0.0595161675
H  H88  1  0.77780000  0.44810000  0.68540000  1.0 0.0595161675
H  H89  1  0.68540000  0.77780000  0.44810000  1.0 0.0595161675
H  H90  1  0.44810000  0.68540000  0.77780000  1.0 0.0595161675
C  C1  1  0.38740000  0.09910000  0.92830000  1.0 0.58842407
C  C2  1  0.92830000  0.38740000  0.09910000  1.0 0.58842407
C  C3  1  0.09910000  0.92830000  0.38740000  1.0 0.58842407
C  C4  1  0.61260000  0.07170000  0.90090000  1.0 0.58842407
C  C5  1  0.90090000  0.61260000  0.07170000  1.0 0.58842407
C  C6  1  0.07170000  0.90090000  0.61260000  1.0 0.58842407
C  C7  1  0.24980000  0.22600000  0.78840000  1.0 0.2234134509
C  C8  1  0.78840000  0.24980000  0.22600000  1.0 0.2234134509
C  C9  1  0.22600000  0.78840000  0.24980000  1.0 0.2234134509
C  C10  1  0.75020000  0.21160000  0.77400000  1.0 0.2234134509
C  C11  1  0.77400000  0.75020000  0.21160000  1.0 0.2234134509
C  C12  1  0.21160000  0.77400000  0.75020000  1.0 0.2234134509
C  C13  1  0.18720000  0.29520000  0.82020000  1.0 -0.2207740909
C  C14  1  0.82020000  0.18720000  0.29520000  1.0 -0.2207740909
C  C15  1  0.29520000  0.82020000  0.18720000  1.0 -0.2207740909
C  C16  1  0.81280000  0.17980000  0.70480000  1.0 -0.2207740909
C  C17  1  0.70480000  0.81280000  0.17980000  1.0 -0.2207740909
C  C18  1  0.17980000  0.70480000  0.81280000  1.0 -0.2207740909
C  C19  1  0.19690000  0.30690000  0.87890000  1.0 0.0093611593
C  C20  1  0.87890000  0.19690000  0.30690000  1.0 0.0093611593
C  C21  1  0.30690000  0.87890000  0.19690000  1.0 0.0093611593
C  C22  1  0.80310000  0.12110000  0.69310000  1.0 0.0093611593
C  C23  1  0.69310000  0.80310000  0.12110000  1.0 0.0093611593
C  C24  1  0.12110000  0.69310000  0.80310000  1.0 0.0093611593
C  C25  1  0.27080000  0.24880000  0.90480000  1.0 -0.1397154447
C  C26  1  0.90480000  0.27080000  0.24880000  1.0 -0.1397154447
C  C27  1  0.24880000  0.90480000  0.27080000  1.0 -0.1397154447
C  C28  1  0.72920000  0.09520000  0.75120000  1.0 -0.1397154447
C  C29  1  0.75120000  0.72920000  0.09520000  1.0 -0.1397154447
C  C30  1  0.09520000  0.75120000  0.72920000  1.0 -0.1397154447
C  C31  1  0.33490000  0.17880000  0.87230000  1.0 -0.0092741849
C  C32  1  0.87230000  0.33490000  0.17880000  1.0 -0.0092741849
C  C33  1  0.17880000  0.87230000  0.33490000  1.0 -0.0092741849
C  C34  1  0.66510000  0.12770000  0.82120000  1.0 -0.0092741849
C  C35  1  0.82120000  0.66510000  0.12770000  1.0 -0.0092741849
C  C36  1  0.12770000  0.82120000  0.66510000  1.0 -0.0092741849
C  C37  1  0.32420000  0.16750000  0.81420000  1.0 -0.1973917823
C  C38  1  0.81420000  0.32420000  0.16750000  1.0 -0.1973917823
C  C39  1  0.16750000  0.81420000  0.32420000  1.0 -0.1973917823
C  C40  1  0.67580000  0.18580000  0.83250000  1.0 -0.1973917823
C  C41  1  0.83250000  0.67580000  0.18580000  1.0 -0.1973917823
C  C42  1  0.18580000  0.83250000  0.67580000  1.0 -0.1973917823
C  C43  1  0.13260000  0.36380000  0.93670000  1.0 0.58842407
C  C44  1  0.93670000  0.13260000  0.36380000  1.0 0.58842407
C  C45  1  0.36380000  0.93670000  0.13260000  1.0 0.58842407
C  C46  1  0.86740000  0.06330000  0.63620000  1.0 0.58842407
C  C47  1  0.63620000  0.86740000  0.06330000  1.0 0.58842407
C  C48  1  0.06330000  0.63620000  0.86740000  1.0 0.58842407
C  C49  1  0.28220000  0.17320000  0.68220000  1.0 0.4284773453
C  C50  1  0.68220000  0.28220000  0.17320000  1.0 0.4284773453
C  C51  1  0.17320000  0.68220000  0.28220000  1.0 0.4284773453
C  C52  1  0.71780000  0.31780000  0.82680000  1.0 0.4284773453
C  C53  1  0.82680000  0.71780000  0.31780000  1.0 0.4284773453
C  C54  1  0.31780000  0.82680000  0.71780000  1.0 0.4284773453
C  C55  1  0.24850000  0.18210000  0.62090000  1.0 -0.0562722423
C  C56  1  0.62090000  0.24850000  0.18210000  1.0 -0.0562722423
C  C57  1  0.18210000  0.62090000  0.24850000  1.0 -0.0562722423
C  C58  1  0.75150000  0.37910000  0.81790000  1.0 -0.0562722423
C  C59  1  0.81790000  0.75150000  0.37910000  1.0 -0.0562722423
C  C60  1  0.37910000  0.81790000  0.75150000  1.0 -0.0562722423
C  C61  1  0.28430000  0.11110000  0.59460000  1.0 -0.0293144882
C  C62  1  0.59460000  0.28430000  0.11110000  1.0 -0.0293144882
C  C63  1  0.11110000  0.59460000  0.28430000  1.0 -0.0293144882
C  C64  1  0.71570000  0.40540000  0.88890000  1.0 -0.0293144882
C  C65  1  0.88890000  0.71570000  0.40540000  1.0 -0.0293144882
C  C66  1  0.40540000  0.88890000  0.71570000  1.0 -0.0293144882
C  C67  1  0.25400000  0.11920000  0.53910000  1.0 -0.0505460647
C  C68  1  0.53910000  0.25400000  0.11920000  1.0 -0.0505460647
C  C69  1  0.11920000  0.53910000  0.25400000  1.0 -0.0505460647
C  C70  1  0.74600000  0.46090000  0.88080000  1.0 -0.0505460647
C  C71  1  0.88080000  0.74600000  0.46090000  1.0 -0.0505460647
C  C72  1  0.46090000  0.88080000  0.74600000  1.0 -0.0505460647
C  C73  1  0.18810000  0.19820000  0.50950000  1.0 0.0366319141
C  C74  1  0.50950000  0.18810000  0.19820000  1.0 0.0366319141
C  C75  1  0.19820000  0.50950000  0.18810000  1.0 0.0366319141
C  C76  1  0.81190000  0.49050000  0.80180000  1.0 0.0366319141
C  C77  1  0.80180000  0.81190000  0.49050000  1.0 0.0366319141
C  C78  1  0.49050000  0.80180000  0.81190000  1.0 0.0366319141
C  C79  1  0.15230000  0.26920000  0.53580000  1.0 -0.0407096719
C  C80  1  0.53580000  0.15230000  0.26920000  1.0 -0.0407096719
C  C81  1  0.26920000  0.53580000  0.15230000  1.0 -0.0407096719
C  C82  1  0.84770000  0.46420000  0.73080000  1.0 -0.0407096719
C  C83  1  0.73080000  0.84770000  0.46420000  1.0 -0.0407096719
C  C84  1  0.46420000  0.73080000  0.84770000  1.0 -0.0407096719
C  C85  1  0.18250000  0.26110000  0.59140000  1.0 -0.0407096719
C  C86  1  0.59140000  0.18250000  0.26110000  1.0 -0.0407096719
C  C87  1  0.26110000  0.59140000  0.18250000  1.0 -0.0407096719
C  C88  1  0.81750000  0.40860000  0.73890000  1.0 -0.0407096719
C  C89  1  0.73890000  0.81750000  0.40860000  1.0 -0.0407096719
C  C90  1  0.40860000  0.73890000  0.81750000  1.0 -0.0407096719
C  C91  1  0.15600000  0.20680000  0.45020000  1.0 -0.11508763
C  C92  1  0.45020000  0.15600000  0.20680000  1.0 -0.1141710372
C  C93  1  0.20680000  0.45020000  0.15600000  1.0 -0.11508763
C  C94  1  0.84400000  0.54980000  0.79320000  1.0 -0.1141710372
C  C95  1  0.79320000  0.84400000  0.54980000  1.0 -0.1141710372
C  C96  1  0.54980000  0.79320000  0.84400000  1.0 -0.11508763
C  C97  1  0.12440000  0.14140000  0.47220000  1.0 0.0904439907
C  C98  1  0.47220000  0.12440000  0.14140000  1.0 0.0904439907
C  C99  1  0.14140000  0.47220000  0.12440000  1.0 0.0904439907
C  C100  1  0.87560000  0.52780000  0.85860000  1.0 0.0904439907
C  C101  1  0.85860000  0.87560000  0.52780000  1.0 0.0904439907
C  C102  1  0.52780000  0.85860000  0.87560000  1.0 0.0904439907
C  C103  1  0.08660000  0.22890000  0.33820000  1.0 0.1877969785
C  C104  1  0.33820000  0.08660000  0.22890000  1.0 0.1877969785
C  C105  1  0.22890000  0.33820000  0.08660000  1.0 0.1877969785
C  C106  1  0.91340000  0.66180000  0.77110000  1.0 0.1877969785
C  C107  1  0.77110000  0.91340000  0.66180000  1.0 0.1877969785
C  C108  1  0.66180000  0.77110000  0.91340000  1.0 0.1877969785
C  C109  1  0.15030000  0.28390000  0.36770000  1.0 0.0038348706
C  C110  1  0.36770000  0.15030000  0.28390000  1.0 0.0038348706
C  C111  1  0.28390000  0.36770000  0.15030000  1.0 0.0038348706
C  C112  1  0.84970000  0.63230000  0.71610000  1.0 0.0038348706
C  C113  1  0.71610000  0.84970000  0.63230000  1.0 0.0038348706
C  C114  1  0.63230000  0.71610000  0.84970000  1.0 0.0038348706
C  C115  1  0.24610000  0.10710000  0.62900000  1.0 -0.0092741849
C  C116  1  0.62900000  0.24610000  0.10710000  1.0 -0.0092741849
C  C117  1  0.10710000  0.62900000  0.24610000  1.0 -0.0092741849
C  C118  1  0.75390000  0.37100000  0.89290000  1.0 -0.0092741849
C  C119  1  0.89290000  0.75390000  0.37100000  1.0 -0.0092741849
C  C120  1  0.37100000  0.89290000  0.75390000  1.0 -0.0092741849
C  C121  1  0.21580000  0.11520000  0.57350000  1.0 -0.0293144882
C  C122  1  0.57350000  0.21580000  0.11520000  1.0 -0.0293144882
C  C123  1  0.11520000  0.57350000  0.21580000  1.0 -0.0293144882
C  C124  1  0.78420000  0.42650000  0.88480000  1.0 -0.0293144882
C  C125  1  0.88480000  0.78420000  0.42650000  1.0 -0.0293144882
C  C126  1  0.42650000  0.88480000  0.78420000  1.0 -0.0293144882
C  C127  1  0.19070000  0.27310000  0.50130000  1.0 -0.0562722423
C  C128  1  0.50130000  0.19070000  0.27310000  1.0 -0.0562722423
C  C129  1  0.27310000  0.50130000  0.19070000  1.0 -0.0562722423
C  C130  1  0.80930000  0.49870000  0.72690000  1.0 -0.0562722423
C  C131  1  0.72690000  0.80930000  0.49870000  1.0 -0.0562722423
C  C132  1  0.49870000  0.72690000  0.80930000  1.0 -0.0562722423
C  C133  1  0.22080000  0.26500000  0.55700000  1.0 -0.0505460647
C  C134  1  0.55700000  0.22080000  0.26500000  1.0 -0.0505460647
C  C135  1  0.26500000  0.55700000  0.22080000  1.0 -0.0505460647
C  C136  1  0.77920000  0.44300000  0.73500000  1.0 -0.0505460647
C  C137  1  0.73500000  0.77920000  0.44300000  1.0 -0.0505460647
C  C138  1  0.44300000  0.73500000  0.77920000  1.0 -0.0505460647
N  N1  1  0.23750000  0.23680000  0.71670000  1.0 -0.3535430646
N  N2  1  0.71670000  0.23750000  0.23680000  1.0 -0.3535430646
N  N3  1  0.23680000  0.71670000  0.23750000  1.0 -0.3535430646
N  N4  1  0.76250000  0.28330000  0.76320000  1.0 -0.3535430646
N  N5  1  0.76320000  0.76250000  0.28330000  1.0 -0.3535430646
N  N6  1  0.28330000  0.76320000  0.76250000  1.0 -0.3535430646
N  N7  1  0.09222000  0.15172000  0.42002000  1.0 -0.2318376617
N  N8  1  0.42002000  0.09222000  0.15172000  1.0 -0.2318376617
N  N9  1  0.15172000  0.42002000  0.09222000  1.0 -0.2318376617
N  N10  1  0.90778000  0.57998000  0.84828000  1.0 -0.2318376617
N  N11  1  0.84828000  0.90778000  0.57998000  1.0 -0.2318376617
N  N12  1  0.57998000  0.84828000  0.90778000  1.0 -0.2318376617
N  N13  1  0.11820000  0.29410000  0.31550000  1.0 -0.2318376617
N  N14  1  0.31550000  0.11820000  0.29410000  1.0 -0.2318376617
N  N15  1  0.29410000  0.31550000  0.11820000  1.0 -0.2318376617
N  N16  1  0.88180000  0.68450000  0.70590000  1.0 -0.2318376617
N  N17  1  0.70590000  0.88180000  0.68450000  1.0 -0.2318376617
N  N18  1  0.68450000  0.70590000  0.88180000  1.0 -0.2318376617
O  O1  1  0.39200000  0.12000000  0.97900000  1.0 -0.586683424
O  O2  1  0.97900000  0.39200000  0.12000000  1.0 -0.586683424
O  O3  1  0.12000000  0.97900000  0.39200000  1.0 -0.586683424
O  O4  1  0.60800000  0.02100000  0.88000000  1.0 -0.586683424
O  O5  1  0.88000000  0.60800000  0.02100000  1.0 -0.586683424
O  O6  1  0.02100000  0.88000000  0.60800000  1.0 -0.586683424
O  O7  1  0.44860000  0.02820000  0.90740000  1.0 -0.542311968
O  O8  1  0.90740000  0.44860000  0.02820000  1.0 -0.542311968
O  O9  1  0.02820000  0.90740000  0.44860000  1.0 -0.542311968
O  O10  1  0.55140000  0.09260000  0.97180000  1.0 -0.542311968
O  O11  1  0.97180000  0.55140000  0.09260000  1.0 -0.542311968
O  O12  1  0.09260000  0.97180000  0.55140000  1.0 -0.542311968
O  O13  1  0.15370000  0.37930000  0.97900000  1.0 -0.5166849113
O  O14  1  0.97900000  0.15370000  0.37930000  1.0 -0.5166849113
O  O15  1  0.37930000  0.97900000  0.15370000  1.0 -0.5166849113
O  O16  1  0.84630000  0.02100000  0.62070000  1.0 -0.5166849113
O  O17  1  0.62070000  0.84630000  0.02100000  1.0 -0.5166849113
O  O18  1  0.02100000  0.62070000  0.84630000  1.0 -0.5166849113
O  O19  1  0.07440000  0.42800000  0.89770000  1.0 -0.5515977459
O  O20  1  0.89770000  0.07440000  0.42800000  1.0 -0.5515977459
O  O21  1  0.42800000  0.89770000  0.07440000  1.0 -0.5515977459
O  O22  1  0.92560000  0.10230000  0.57200000  1.0 -0.5515977459
O  O23  1  0.57200000  0.92560000  0.10230000  1.0 -0.5515977459
O  O24  1  0.10230000  0.57200000  0.92560000  1.0 -0.5515977459
O  O25  1  0.31830000  0.09430000  0.72230000  1.0 -0.4409058706
O  O26  1  0.72230000  0.31830000  0.09430000  1.0 -0.4409058706
O  O27  1  0.09430000  0.72230000  0.31830000  1.0 -0.4409058706
O  O28  1  0.68170000  0.27770000  0.90570000  1.0 -0.4409058706
O  O29  1  0.90570000  0.68170000  0.27770000  1.0 -0.4409058706
O  O30  1  0.27770000  0.90570000  0.68170000  1.0 -0.4409058706
