# DDEC6 charges by PACMAN v1.1 (https://github.com/mtap-research/PACMAN-charge/)
data_HAFGUQ_ASR_pacman
_symmetry_space_group_name_H-M   'P 1'
_cell_length_a   9.10900000
_cell_length_b   11.02100000
_cell_length_c   11.98700000
_cell_angle_alpha   90.00000000
_cell_angle_beta   90.00000000
_cell_angle_gamma   90.00000000
_symmetry_Int_Tables_number   1
_chemical_formula_structural   GaP2HO8
_chemical_formula_sum   'Ga4 P8 H4 O32'
_cell_volume   1203.37839424
_cell_formula_units_Z   4
loop_
 _symmetry_equiv_pos_site_id
 _symmetry_equiv_pos_as_xyz
  1  'x, y, z'
loop_
 _atom_site_type_symbol
 _atom_site_label
 _atom_site_symmetry_multiplicity
 _atom_site_fract_x
 _atom_site_fract_y
 _atom_site_fract_z
 _atom_site_occupancy
 _atom_site_charge
Ga  Ga1  1  0.70350000  0.75000000  0.75000000  1.0 1.3881690148
Ga  Ga2  1  0.79650000  0.25000000  0.25000000  1.0 1.3881690148
Ga  Ga3  1  0.29650000  0.25000000  0.25000000  1.0 1.3881690148
Ga  Ga4  1  0.20350000  0.75000000  0.75000000  1.0 1.3881690148
P  P1  1  0.54160000  0.31350000  0.40620000  1.0 1.2818855528
P  P2  1  0.95840000  0.68650000  0.90620000  1.0 1.2818855528
P  P3  1  0.54160000  0.18650000  0.09380000  1.0 1.2867167238
P  P4  1  0.95840000  0.81350000  0.59380000  1.0 1.2818855528
P  P5  1  0.45840000  0.68650000  0.59380000  1.0 1.2818855528
P  P6  1  0.04160000  0.31350000  0.09380000  1.0 1.2867167238
P  P7  1  0.45840000  0.81350000  0.90620000  1.0 1.2818855528
P  P8  1  0.04160000  0.18650000  0.40620000  1.0 1.2867167238
H  H1  1  0.50000000  0.50000000  0.50000000  1.0 0.5273838955
H  H2  1  0.00000000  0.50000000  0.00000000  1.0 0.5273838955
H  H3  1  0.50000000  0.00000000  0.00000000  1.0 0.5273838955
H  H4  1  0.00000000  0.00000000  0.50000000  1.0 0.5273838955
O  O1  1  0.54320000  0.39610000  0.50950000  1.0 -0.4982437845
O  O2  1  0.95680000  0.60390000  0.00950000  1.0 -0.4982437845
O  O3  1  0.54320000  0.10390000  0.99050000  1.0 -0.4982437845
O  O4  1  0.95680000  0.89610000  0.49050000  1.0 -0.4982437845
O  O5  1  0.45680000  0.60390000  0.49050000  1.0 -0.4982437845
O  O6  1  0.04320000  0.39610000  0.99050000  1.0 -0.4982437845
O  O7  1  0.45680000  0.89610000  0.00950000  1.0 -0.4982437845
O  O8  1  0.04320000  0.10390000  0.50950000  1.0 -0.4982437845
O  O9  1  0.53530000  0.18160000  0.43680000  1.0 -0.5217300412
O  O10  1  0.96470000  0.81840000  0.93680000  1.0 -0.5217300412
O  O11  1  0.53530000  0.31840000  0.06320000  1.0 -0.5287497994
O  O12  1  0.96470000  0.68160000  0.56320000  1.0 -0.5217300412
O  O13  1  0.46470000  0.81840000  0.56320000  1.0 -0.5217300412
O  O14  1  0.03530000  0.18160000  0.06320000  1.0 -0.5217300412
O  O15  1  0.46470000  0.68160000  0.93680000  1.0 -0.5217300412
O  O16  1  0.03530000  0.31840000  0.43680000  1.0 -0.5217300412
O  O17  1  0.40790000  0.35270000  0.33410000  1.0 -0.6103112008
O  O18  1  0.09210000  0.64730000  0.83410000  1.0 -0.6103112008
O  O19  1  0.40790000  0.14730000  0.16590000  1.0 -0.6103112008
O  O20  1  0.09210000  0.85270000  0.66590000  1.0 -0.6103112008
O  O21  1  0.59210000  0.64730000  0.66590000  1.0 -0.6103112008
O  O22  1  0.90790000  0.35270000  0.16590000  1.0 -0.6103112008
O  O23  1  0.59210000  0.85270000  0.83410000  1.0 -0.6103112008
O  O24  1  0.90790000  0.14730000  0.33410000  1.0 -0.6103112008
O  O25  1  0.31680000  0.65560000  0.65990000  1.0 -0.6103112008
O  O26  1  0.18320000  0.34440000  0.15990000  1.0 -0.6103112008
O  O27  1  0.31680000  0.84440000  0.84010000  1.0 -0.6103112008
O  O28  1  0.18320000  0.15560000  0.34010000  1.0 -0.6103112008
O  O29  1  0.68320000  0.34440000  0.34010000  1.0 -0.6103112008
O  O30  1  0.81680000  0.65560000  0.84010000  1.0 -0.6103112008
O  O31  1  0.68320000  0.15560000  0.15990000  1.0 -0.6103112008
O  O32  1  0.81680000  0.84440000  0.65990000  1.0 -0.6103112008
