# DDEC6 charges by PACMAN v1.1 (https://github.com/mtap-research/PACMAN-charge/)
data_HAFQUC_FSR_pacman
_symmetry_space_group_name_H-M   'P 1'
_cell_length_a   6.64390000
_cell_length_b   15.08900000
_cell_length_c   16.26880000
_cell_angle_alpha   90.00000000
_cell_angle_beta   113.20900000
_cell_angle_gamma   90.00000000
_symmetry_Int_Tables_number   1
_chemical_formula_structural   AlH5C8O5
_chemical_formula_sum   'Al4 H20 C32 O20'
_cell_volume   1498.95738178
_cell_formula_units_Z   4
loop_
 _symmetry_equiv_pos_site_id
 _symmetry_equiv_pos_as_xyz
  1  'x, y, z'
loop_
 _atom_site_type_symbol
 _atom_site_label
 _atom_site_symmetry_multiplicity
 _atom_site_fract_x
 _atom_site_fract_y
 _atom_site_fract_z
 _atom_site_occupancy
 _atom_site_charge
Al  Al1  1  0.00000000  0.00000000  0.00000000  1.0 1.6005347447
Al  Al2  1  0.00000000  0.50000000  0.50000000  1.0 1.6005347447
Al  Al3  1  0.50000000  0.00000000  0.00000000  1.0 1.6292672233
Al  Al4  1  0.50000000  0.50000000  0.50000000  1.0 1.6292672233
H  H1  1  0.85260000  0.02753000  0.10346000  1.0 0.4195993842
H  H2  1  0.14740000  0.52753000  0.39654000  1.0 0.4195993842
H  H3  1  0.14740000  0.97247000  0.89654000  1.0 0.4195993842
H  H4  1  0.85260000  0.47247000  0.60346000  1.0 0.4195993842
H  H5  1  0.35411000  0.37471000  0.78542000  1.0 0.1138364153
H  H6  1  0.64589000  0.87471000  0.71458000  1.0 0.1138364153
H  H7  1  0.64589000  0.62529000  0.21458000  1.0 0.1138364153
H  H8  1  0.35411000  0.12529000  0.28542000  1.0 0.1138364153
H  H9  1  0.46381000  0.25942000  0.88754000  1.0 0.1261548923
H  H10  1  0.53619000  0.75942000  0.61246000  1.0 0.1261548923
H  H11  1  0.53619000  0.74058000  0.11246000  1.0 0.1261548923
H  H12  1  0.46381000  0.24058000  0.38754000  1.0 0.1261548923
H  H13  1  0.55606000  0.23834000  0.62108000  1.0 0.1214994268
H  H14  1  0.44394000  0.73834000  0.87892000  1.0 0.1214994268
H  H15  1  0.44394000  0.76166000  0.37892000  1.0 0.1214994268
H  H16  1  0.55606000  0.26166000  0.12108000  1.0 0.1214994268
H  H17  1  0.66581000  0.12300000  0.72314000  1.0 0.1214994268
H  H18  1  0.33419000  0.62300000  0.77686000  1.0 0.1214994268
H  H19  1  0.33419000  0.87700000  0.27686000  1.0 0.1214994268
H  H20  1  0.66581000  0.37700000  0.22314000  1.0 0.1214994268
C  C1  1  0.36098000  0.38966000  0.62507000  1.0 0.5988994317
C  C2  1  0.63902000  0.88966000  0.87493000  1.0 0.5988994317
C  C3  1  0.63902000  0.61034000  0.37493000  1.0 0.5988994317
C  C4  1  0.36098000  0.11034000  0.12507000  1.0 0.5988994317
C  C5  1  0.43975000  0.31677000  0.69247000  1.0 -0.0390421744
C  C6  1  0.56025000  0.81677000  0.80753000  1.0 -0.0390421744
C  C7  1  0.56025000  0.68323000  0.30753000  1.0 -0.0390421744
C  C8  1  0.43975000  0.18323000  0.19247000  1.0 -0.0390421744
C  C9  1  0.41537000  0.32380000  0.77263000  1.0 -0.1007269163
C  C10  1  0.58463000  0.82380000  0.72737000  1.0 -0.1007269163
C  C11  1  0.58463000  0.67620000  0.22737000  1.0 -0.1007269163
C  C12  1  0.41537000  0.17620000  0.27263000  1.0 -0.1007269163
C  C13  1  0.63718000  0.10382000  0.87941000  1.0 0.630634077
C  C14  1  0.36282000  0.60382000  0.62059000  1.0 0.630634077
C  C15  1  0.36282000  0.89618000  0.12059000  1.0 0.630634077
C  C16  1  0.63718000  0.39618000  0.37941000  1.0 0.630634077
C  C17  1  0.57633000  0.17995000  0.81555000  1.0 -0.0390421744
C  C18  1  0.42367000  0.67995000  0.68445000  1.0 -0.0390421744
C  C19  1  0.42367000  0.82005000  0.18445000  1.0 -0.0390421744
C  C20  1  0.57633000  0.32005000  0.31555000  1.0 -0.0390421744
C  C21  1  0.48225000  0.25510000  0.83396000  1.0 -0.1115204224
C  C22  1  0.51775000  0.75510000  0.66604000  1.0 -0.1115204224
C  C23  1  0.51775000  0.74490000  0.16604000  1.0 -0.1115204224
C  C24  1  0.48225000  0.24490000  0.33396000  1.0 -0.1115204224
C  C25  1  0.53606000  0.24229000  0.67440000  1.0 -0.1007269163
C  C26  1  0.46394000  0.74229000  0.82560000  1.0 -0.1007269163
C  C27  1  0.46394000  0.75771000  0.32560000  1.0 -0.1007269163
C  C28  1  0.53606000  0.25771000  0.17440000  1.0 -0.1007269163
C  C29  1  0.60302000  0.17354000  0.73568000  1.0 -0.1200682594
C  C30  1  0.39698000  0.67354000  0.76432000  1.0 -0.1200682594
C  C31  1  0.39698000  0.82646000  0.26432000  1.0 -0.1200682594
C  C32  1  0.60302000  0.32646000  0.23568000  1.0 -0.1200682594
O  O1  1  0.80278000  0.01019000  0.05201000  1.0 -0.9658335073
O  O2  1  0.19722000  0.51019000  0.44799000  1.0 -0.9658335073
O  O3  1  0.19722000  0.98981000  0.94799000  1.0 -0.9658335073
O  O4  1  0.80278000  0.48981000  0.55201000  1.0 -0.9658335073
O  O5  1  0.82956000  0.07478000  0.90456000  1.0 -0.5574824585
O  O6  1  0.17044000  0.57478000  0.59544000  1.0 -0.5574824585
O  O7  1  0.17044000  0.92522000  0.09544000  1.0 -0.5574824585
O  O8  1  0.82956000  0.42522000  0.40456000  1.0 -0.5574824585
O  O9  1  0.45634000  0.39896000  0.57235000  1.0 -0.5885309352
O  O10  1  0.54366000  0.89896000  0.92765000  1.0 -0.5885309352
O  O11  1  0.54366000  0.60104000  0.42765000  1.0 -0.5885309352
O  O12  1  0.45634000  0.10104000  0.07235000  1.0 -0.5885309352
O  O13  1  0.49275000  0.07545000  0.90456000  1.0 -0.5991413517
O  O14  1  0.50725000  0.57545000  0.59544000  1.0 -0.5991413517
O  O15  1  0.50725000  0.92455000  0.09544000  1.0 -0.5991413517
O  O16  1  0.49275000  0.42455000  0.40456000  1.0 -0.5991413517
O  O17  1  0.20552000  0.43677000  0.62609000  1.0 -0.5250871701
O  O18  1  0.79448000  0.93677000  0.87391000  1.0 -0.5250871701
O  O19  1  0.79448000  0.56323000  0.37391000  1.0 -0.5243741794
O  O20  1  0.20552000  0.06323000  0.12609000  1.0 -0.5250871701
