# DDEC6 charges by PACMAN v1.1 (https://github.com/mtap-research/PACMAN-charge/)
data_HAHPIQ_ion_pacman
_symmetry_space_group_name_H-M   'P 1'
_cell_length_a   21.79000000
_cell_length_b   21.79000000
_cell_length_c   12.02000000
_cell_angle_alpha   90.00000000
_cell_angle_beta   90.00000000
_cell_angle_gamma   120.00000000
_symmetry_Int_Tables_number   1
_chemical_formula_structural   Ag8H60C84(N7O3)3
_chemical_formula_sum   'Ag16 H120 C168 N42 O18'
_cell_volume   4942.53279730
_cell_formula_units_Z   2
loop_
 _symmetry_equiv_pos_site_id
 _symmetry_equiv_pos_as_xyz
  1  'x, y, z'
loop_
 _atom_site_type_symbol
 _atom_site_label
 _atom_site_symmetry_multiplicity
 _atom_site_fract_x
 _atom_site_fract_y
 _atom_site_fract_z
 _atom_site_occupancy
 _atom_site_charge
Ag  Ag1  1  0.73758000  0.47516000  0.75000000  1.0 0.298841523
Ag  Ag2  1  0.52484000  0.26242000  0.75000000  1.0 0.298841523
Ag  Ag3  1  0.73758000  0.26242000  0.75000000  1.0 0.298841523
Ag  Ag4  1  0.26242000  0.52484000  0.25000000  1.0 0.298841523
Ag  Ag5  1  0.47516000  0.73758000  0.25000000  1.0 0.298841523
Ag  Ag6  1  0.26242000  0.73758000  0.25000000  1.0 0.298841523
Ag  Ag7  1  0.66666667  0.33333333  0.58998000  1.0 0.2912708973
Ag  Ag8  1  0.33333333  0.66666667  0.08998000  1.0 0.2912708973
Ag  Ag9  1  0.33333333  0.66666667  0.41002000  1.0 0.2912708973
Ag  Ag10  1  0.66666667  0.33333333  0.91002000  1.0 0.2912708973
Ag  Ag11  1  0.49942000  0.49942000  0.50000000  1.0 0.336615753
Ag  Ag12  1  0.50058000  0.00000000  0.50000000  1.0 0.336615753
Ag  Ag13  1  0.00000000  0.50058000  0.50000000  1.0 0.336615753
Ag  Ag14  1  0.50058000  0.50058000  0.00000000  1.0 0.336615753
Ag  Ag15  1  0.49942000  0.00000000  0.00000000  1.0 0.336615753
Ag  Ag16  1  0.00000000  0.49942000  0.00000000  1.0 0.336615753
H  H1  1  0.93200000  0.34810000  0.92370000  1.0 0.1128640779
H  H2  1  0.65190000  0.58390000  0.92370000  1.0 0.1128640779
H  H3  1  0.41610000  0.06800000  0.92370000  1.0 0.1128640779
H  H4  1  0.06800000  0.65190000  0.42370000  1.0 0.1128640779
H  H5  1  0.34810000  0.41610000  0.42370000  1.0 0.1128640779
H  H6  1  0.58390000  0.93200000  0.42370000  1.0 0.1128640779
H  H7  1  0.34810000  0.93200000  0.07630000  1.0 0.1128640779
H  H8  1  0.58390000  0.65190000  0.07630000  1.0 0.1128640779
H  H9  1  0.06800000  0.41610000  0.07630000  1.0 0.1128640779
H  H10  1  0.65190000  0.06800000  0.57630000  1.0 0.1128640779
H  H11  1  0.41610000  0.34810000  0.57630000  1.0 0.1128640779
H  H12  1  0.93200000  0.58390000  0.57630000  1.0 0.1128640779
H  H13  1  0.92230000  0.24350000  0.98930000  1.0 0.1128640779
H  H14  1  0.75650000  0.67880000  0.98930000  1.0 0.1128640779
H  H15  1  0.32120000  0.07770000  0.98930000  1.0 0.1128640779
H  H16  1  0.07770000  0.75650000  0.48930000  1.0 0.1128640779
H  H17  1  0.24350000  0.32120000  0.48930000  1.0 0.1128640779
H  H18  1  0.67880000  0.92230000  0.48930000  1.0 0.1128640779
H  H19  1  0.24350000  0.92230000  0.01070000  1.0 0.1128640779
H  H20  1  0.67880000  0.75650000  0.01070000  1.0 0.1128640779
H  H21  1  0.07770000  0.32120000  0.01070000  1.0 0.1128640779
H  H22  1  0.75650000  0.07770000  0.51070000  1.0 0.1128640779
H  H23  1  0.32120000  0.24350000  0.51070000  1.0 0.1128640779
H  H24  1  0.92230000  0.67880000  0.51070000  1.0 0.1128640779
H  H25  1  0.82490000  0.16620000  0.09500000  1.0 0.1128640779
H  H26  1  0.83380000  0.65870000  0.09500000  1.0 0.1128640779
H  H27  1  0.34130000  0.17510000  0.09500000  1.0 0.1128640779
H  H28  1  0.17510000  0.83380000  0.59500000  1.0 0.1128640779
H  H29  1  0.16620000  0.34130000  0.59500000  1.0 0.1128640779
H  H30  1  0.65870000  0.82490000  0.59500000  1.0 0.1128640779
H  H31  1  0.16620000  0.82490000  0.90500000  1.0 0.1128640779
H  H32  1  0.65870000  0.83380000  0.90500000  1.0 0.1128640779
H  H33  1  0.17510000  0.34130000  0.90500000  1.0 0.1128640779
H  H34  1  0.83380000  0.17510000  0.40500000  1.0 0.1128640779
H  H35  1  0.34130000  0.16620000  0.40500000  1.0 0.1128640779
H  H36  1  0.82490000  0.65870000  0.40500000  1.0 0.1128640779
H  H37  1  0.73720000  0.19360000  0.13520000  1.0 0.1179003976
H  H38  1  0.80640000  0.54360000  0.13520000  1.0 0.1179003976
H  H39  1  0.45640000  0.26280000  0.13520000  1.0 0.1179003976
H  H40  1  0.26280000  0.80640000  0.63520000  1.0 0.1179003976
H  H41  1  0.19360000  0.45640000  0.63520000  1.0 0.1179003976
H  H42  1  0.54360000  0.73720000  0.63520000  1.0 0.1179003976
H  H43  1  0.19360000  0.73720000  0.86480000  1.0 0.1179003976
H  H44  1  0.54360000  0.80640000  0.86480000  1.0 0.1179003976
H  H45  1  0.26280000  0.45640000  0.86480000  1.0 0.1179003976
H  H46  1  0.80640000  0.26280000  0.36480000  1.0 0.1179003976
H  H47  1  0.45640000  0.19360000  0.36480000  1.0 0.1179003976
H  H48  1  0.73720000  0.54360000  0.36480000  1.0 0.1179003976
H  H49  1  0.74680000  0.29810000  0.06970000  1.0 0.1179003976
H  H50  1  0.70190000  0.44870000  0.06970000  1.0 0.1179003976
H  H51  1  0.55130000  0.25320000  0.06970000  1.0 0.1179003976
H  H52  1  0.25320000  0.70190000  0.56970000  1.0 0.1179003976
H  H53  1  0.29810000  0.55130000  0.56970000  1.0 0.1179003976
H  H54  1  0.44870000  0.74680000  0.56970000  1.0 0.1179003976
H  H55  1  0.29810000  0.74680000  0.93030000  1.0 0.1179003976
H  H56  1  0.44870000  0.70190000  0.93030000  1.0 0.1179003976
H  H57  1  0.25320000  0.55130000  0.93030000  1.0 0.1179003976
H  H58  1  0.70190000  0.25320000  0.43030000  1.0 0.1179003976
H  H59  1  0.55130000  0.29810000  0.43030000  1.0 0.1179003976
H  H60  1  0.74680000  0.44870000  0.43030000  1.0 0.1179003976
H  H61  1  0.00830000  0.56340000  0.79080000  1.0 0.1128640779
H  H62  1  0.43660000  0.44490000  0.79080000  1.0 0.1128640779
H  H63  1  0.55510000  0.99170000  0.79080000  1.0 0.1128640779
H  H64  1  0.99170000  0.43660000  0.29080000  1.0 0.1128640779
H  H65  1  0.56340000  0.55510000  0.29080000  1.0 0.1128640779
H  H66  1  0.44490000  0.00830000  0.29080000  1.0 0.1128640779
H  H67  1  0.56340000  0.00830000  0.20920000  1.0 0.1128640779
H  H68  1  0.44490000  0.43660000  0.20920000  1.0 0.1128640779
H  H69  1  0.99170000  0.55510000  0.20920000  1.0 0.1128640779
H  H70  1  0.43660000  0.99170000  0.70920000  1.0 0.1128640779
H  H71  1  0.55510000  0.56340000  0.70920000  1.0 0.1128640779
H  H72  1  0.00830000  0.44490000  0.70920000  1.0 0.1128640779
H  H73  1  0.08190000  0.68040000  0.73800000  1.0 0.1179003976
H  H74  1  0.31960000  0.40150000  0.73800000  1.0 0.1179003976
H  H75  1  0.59850000  0.91810000  0.73800000  1.0 0.1179003976
H  H76  1  0.91810000  0.31960000  0.23800000  1.0 0.1179003976
H  H77  1  0.68040000  0.59850000  0.23800000  1.0 0.1179003976
H  H78  1  0.40150000  0.08190000  0.23800000  1.0 0.1179003976
H  H79  1  0.68040000  0.08190000  0.26200000  1.0 0.1179003976
H  H80  1  0.40150000  0.31960000  0.26200000  1.0 0.1179003976
H  H81  1  0.91810000  0.59850000  0.26200000  1.0 0.1179003976
H  H82  1  0.31960000  0.91810000  0.76200000  1.0 0.1179003976
H  H83  1  0.59850000  0.68040000  0.76200000  1.0 0.1179003976
H  H84  1  0.08190000  0.40150000  0.76200000  1.0 0.1179003976
H  H85  1  0.04160000  0.76060000  0.74820000  1.0 0.1179003976
H  H86  1  0.23940000  0.28100000  0.74820000  1.0 0.1179003976
H  H87  1  0.71900000  0.95840000  0.74820000  1.0 0.1179003976
H  H88  1  0.95840000  0.23940000  0.24820000  1.0 0.1179003976
H  H89  1  0.76060000  0.71900000  0.24820000  1.0 0.1179003976
H  H90  1  0.28100000  0.04160000  0.24820000  1.0 0.1179003976
H  H91  1  0.76060000  0.04160000  0.25180000  1.0 0.1179003976
H  H92  1  0.28100000  0.23940000  0.25180000  1.0 0.1179003976
H  H93  1  0.95840000  0.71900000  0.25180000  1.0 0.1179003976
H  H94  1  0.23940000  0.95840000  0.75180000  1.0 0.1179003976
H  H95  1  0.71900000  0.76060000  0.75180000  1.0 0.1179003976
H  H96  1  0.04160000  0.28100000  0.75180000  1.0 0.1128640779
H  H97  1  0.92780000  0.72400000  0.81130000  1.0 0.1179003976
H  H98  1  0.27600000  0.20380000  0.81130000  1.0 0.1179003976
H  H99  1  0.79620000  0.07220000  0.81130000  1.0 0.1179003976
H  H100  1  0.07220000  0.27600000  0.31130000  1.0 0.1179003976
H  H101  1  0.72400000  0.79620000  0.31130000  1.0 0.1179003976
H  H102  1  0.20380000  0.92780000  0.31130000  1.0 0.1179003976
H  H103  1  0.72400000  0.92780000  0.18870000  1.0 0.1179003976
H  H104  1  0.20380000  0.27600000  0.18870000  1.0 0.1179003976
H  H105  1  0.07220000  0.79620000  0.18870000  1.0 0.1179003976
H  H106  1  0.27600000  0.07220000  0.68870000  1.0 0.1179003976
H  H107  1  0.79620000  0.72400000  0.68870000  1.0 0.1179003976
H  H108  1  0.92780000  0.20380000  0.68870000  1.0 0.1179003976
H  H109  1  0.85420000  0.60700000  0.86410000  1.0 0.1128640779
H  H110  1  0.39300000  0.24720000  0.86410000  1.0 0.1128640779
H  H111  1  0.75280000  0.14580000  0.86410000  1.0 0.1128640779
H  H112  1  0.14580000  0.39300000  0.36410000  1.0 0.1128640779
H  H113  1  0.60700000  0.75280000  0.36410000  1.0 0.1128640779
H  H114  1  0.24720000  0.85420000  0.36410000  1.0 0.1128640779
H  H115  1  0.60700000  0.85420000  0.13590000  1.0 0.1128640779
H  H116  1  0.24720000  0.39300000  0.13590000  1.0 0.1128640779
H  H117  1  0.14580000  0.75280000  0.13590000  1.0 0.1128640779
H  H118  1  0.39300000  0.14580000  0.63590000  1.0 0.1128640779
H  H119  1  0.75280000  0.60700000  0.63590000  1.0 0.1128640779
H  H120  1  0.85420000  0.24720000  0.63590000  1.0 0.1128640779
C  C1  1  0.55080000  0.39200000  0.56200000  1.0 0.2779548285
C  C2  1  0.60800000  0.15880000  0.56200000  1.0 0.2779548285
C  C3  1  0.84120000  0.44920000  0.56200000  1.0 0.2779548285
C  C4  1  0.44920000  0.60800000  0.06200000  1.0 0.2779548285
C  C5  1  0.39200000  0.84120000  0.06200000  1.0 0.2779548285
C  C6  1  0.15880000  0.55080000  0.06200000  1.0 0.2779548285
C  C7  1  0.39200000  0.55080000  0.43800000  1.0 0.2779548285
C  C8  1  0.15880000  0.60800000  0.43800000  1.0 0.2779548285
C  C9  1  0.44920000  0.84120000  0.43800000  1.0 0.2779548285
C  C10  1  0.60800000  0.44920000  0.93800000  1.0 0.2779548285
C  C11  1  0.84120000  0.39200000  0.93800000  1.0 0.2779548285
C  C12  1  0.55080000  0.15880000  0.93800000  1.0 0.2779548285
C  C13  1  0.88060000  0.50200000  0.87130000  1.0 0.2912708973
C  C14  1  0.49800000  0.37860000  0.87130000  1.0 0.2912708973
C  C15  1  0.62140000  0.11940000  0.87130000  1.0 0.2912708973
C  C16  1  0.11940000  0.49800000  0.37130000  1.0 0.2912708973
C  C17  1  0.50200000  0.62140000  0.37130000  1.0 0.2912708973
C  C18  1  0.37860000  0.88060000  0.37130000  1.0 0.2912708973
C  C19  1  0.50200000  0.88060000  0.12870000  1.0 0.2912708973
C  C20  1  0.37860000  0.49800000  0.12870000  1.0 0.2912708973
C  C21  1  0.11940000  0.62140000  0.12870000  1.0 0.2912708973
C  C22  1  0.49800000  0.11940000  0.62870000  1.0 0.2912708973
C  C23  1  0.62140000  0.50200000  0.62870000  1.0 0.2912708973
C  C24  1  0.88060000  0.37860000  0.62870000  1.0 0.2912708973
C  C25  1  0.84040000  0.33350000  0.99020000  1.0 0.0029304432
C  C26  1  0.66650000  0.50690000  0.99020000  1.0 0.0029304432
C  C27  1  0.49310000  0.15960000  0.99020000  1.0 0.0029304432
C  C28  1  0.15960000  0.66650000  0.49020000  1.0 0.0029304432
C  C29  1  0.33350000  0.49310000  0.49020000  1.0 0.0029304432
C  C30  1  0.50690000  0.84040000  0.49020000  1.0 0.0029304432
C  C31  1  0.33350000  0.84040000  0.00980000  1.0 0.0029304432
C  C32  1  0.50690000  0.66650000  0.00980000  1.0 0.0029304432
C  C33  1  0.15960000  0.49310000  0.00980000  1.0 0.0029304432
C  C34  1  0.66650000  0.15960000  0.50980000  1.0 0.0029304432
C  C35  1  0.49310000  0.33350000  0.50980000  1.0 0.0029304432
C  C36  1  0.84040000  0.50690000  0.50980000  1.0 0.0029304432
C  C37  1  0.89290000  0.31710000  0.96610000  1.0 -0.1482600775
C  C38  1  0.68290000  0.57580000  0.96610000  1.0 -0.1482600775
C  C39  1  0.42420000  0.10710000  0.96610000  1.0 -0.1482600775
C  C40  1  0.10710000  0.68290000  0.46610000  1.0 -0.1482600775
C  C41  1  0.31710000  0.42420000  0.46610000  1.0 -0.1482600775
C  C42  1  0.57580000  0.89290000  0.46610000  1.0 -0.1482600775
C  C43  1  0.31710000  0.89290000  0.03390000  1.0 -0.1482600775
C  C44  1  0.57580000  0.68290000  0.03390000  1.0 -0.1482600775
C  C45  1  0.10710000  0.42420000  0.03390000  1.0 -0.1482600775
C  C46  1  0.68290000  0.10710000  0.53390000  1.0 -0.1482600775
C  C47  1  0.42420000  0.31710000  0.53390000  1.0 -0.1482600775
C  C48  1  0.89290000  0.57580000  0.53390000  1.0 -0.1482600775
C  C49  1  0.88710000  0.25440000  0.00540000  1.0 -0.097515111
C  C50  1  0.74560000  0.63270000  0.00540000  1.0 -0.097515111
C  C51  1  0.36730000  0.11290000  0.00540000  1.0 -0.097515111
C  C52  1  0.11290000  0.74560000  0.50540000  1.0 -0.097515111
C  C53  1  0.25440000  0.36730000  0.50540000  1.0 -0.097515111
C  C54  1  0.63270000  0.88710000  0.50540000  1.0 -0.097515111
C  C55  1  0.25440000  0.88710000  0.99460000  1.0 -0.097515111
C  C56  1  0.63270000  0.74560000  0.99460000  1.0 -0.097515111
C  C57  1  0.11290000  0.36730000  0.99460000  1.0 -0.097515111
C  C58  1  0.74560000  0.11290000  0.49460000  1.0 -0.097515111
C  C59  1  0.36730000  0.25440000  0.49460000  1.0 -0.097515111
C  C60  1  0.88710000  0.63270000  0.49460000  1.0 -0.097515111
C  C61  1  0.82880000  0.20810000  0.06870000  1.0 -0.108344111
C  C62  1  0.79190000  0.62070000  0.06870000  1.0 -0.108344111
C  C63  1  0.37930000  0.17120000  0.06870000  1.0 -0.108344111
C  C64  1  0.17120000  0.79190000  0.56870000  1.0 -0.108344111
C  C65  1  0.20810000  0.37930000  0.56870000  1.0 -0.108344111
C  C66  1  0.62070000  0.82880000  0.56870000  1.0 -0.108344111
C  C67  1  0.20810000  0.82880000  0.93130000  1.0 -0.108344111
C  C68  1  0.62070000  0.79190000  0.93130000  1.0 -0.108344111
C  C69  1  0.17120000  0.37930000  0.93130000  1.0 -0.108344111
C  C70  1  0.79190000  0.17120000  0.43130000  1.0 -0.108344111
C  C71  1  0.37930000  0.20810000  0.43130000  1.0 -0.108344111
C  C72  1  0.82880000  0.62070000  0.43130000  1.0 -0.108344111
C  C73  1  0.77620000  0.22450000  0.09280000  1.0 -0.0748020728
C  C74  1  0.77550000  0.55170000  0.09280000  1.0 -0.0748020728
C  C75  1  0.44830000  0.22380000  0.09280000  1.0 -0.0748020728
C  C76  1  0.22380000  0.77550000  0.59280000  1.0 -0.0748020728
C  C77  1  0.22450000  0.44830000  0.59280000  1.0 -0.0748020728
C  C78  1  0.55170000  0.77620000  0.59280000  1.0 -0.0748020728
C  C79  1  0.22450000  0.77620000  0.90720000  1.0 -0.0748020728
C  C80  1  0.55170000  0.77550000  0.90720000  1.0 -0.0748020728
C  C81  1  0.22380000  0.44830000  0.90720000  1.0 -0.0748020728
C  C82  1  0.77550000  0.22380000  0.40720000  1.0 -0.0748020728
C  C83  1  0.44830000  0.22450000  0.40720000  1.0 -0.0748020728
C  C84  1  0.77620000  0.55170000  0.40720000  1.0 -0.0748020728
C  C85  1  0.78200000  0.28720000  0.05360000  1.0 -0.1187244412
C  C86  1  0.71280000  0.49480000  0.05360000  1.0 -0.1187244412
C  C87  1  0.50520000  0.21800000  0.05360000  1.0 -0.1187244412
C  C88  1  0.21800000  0.71280000  0.55360000  1.0 -0.1187244412
C  C89  1  0.28720000  0.50520000  0.55360000  1.0 -0.1187244412
C  C90  1  0.49480000  0.78200000  0.55360000  1.0 -0.1187244412
C  C91  1  0.28720000  0.78200000  0.94640000  1.0 -0.1187244412
C  C92  1  0.49480000  0.71280000  0.94640000  1.0 -0.1187244412
C  C93  1  0.21800000  0.50520000  0.94640000  1.0 -0.1187244412
C  C94  1  0.71280000  0.21800000  0.44640000  1.0 -0.1187244412
C  C95  1  0.50520000  0.28720000  0.44640000  1.0 -0.1187244412
C  C96  1  0.78200000  0.49480000  0.44640000  1.0 -0.1187244412
C  C97  1  0.92400000  0.57370000  0.83270000  1.0 0.0215522857
C  C98  1  0.42630000  0.35030000  0.83270000  1.0 0.0215522857
C  C99  1  0.64970000  0.07600000  0.83270000  1.0 0.0215522857
C  C100  1  0.07600000  0.42630000  0.33270000  1.0 0.0215522857
C  C101  1  0.57370000  0.64970000  0.33270000  1.0 0.0215522857
C  C102  1  0.35030000  0.92400000  0.33270000  1.0 0.0215522857
C  C103  1  0.57370000  0.92400000  0.16730000  1.0 0.0215522857
C  C104  1  0.35030000  0.42630000  0.16730000  1.0 0.0215522857
C  C105  1  0.07600000  0.64970000  0.16730000  1.0 0.0215522857
C  C106  1  0.42630000  0.07600000  0.66730000  1.0 0.0215522857
C  C107  1  0.64970000  0.57370000  0.66730000  1.0 0.0215522857
C  C108  1  0.92400000  0.35030000  0.66730000  1.0 0.0215522857
C  C109  1  0.99220000  0.59560000  0.79490000  1.0 -0.1482600775
C  C110  1  0.40440000  0.39660000  0.79490000  1.0 -0.1482600775
C  C111  1  0.60340000  0.00780000  0.79490000  1.0 -0.1482600775
C  C112  1  0.00780000  0.40440000  0.29490000  1.0 -0.1482600775
C  C113  1  0.59560000  0.60340000  0.29490000  1.0 -0.1482600775
C  C114  1  0.39660000  0.99220000  0.29490000  1.0 -0.1482600775
C  C115  1  0.59560000  0.99220000  0.20510000  1.0 -0.1482600775
C  C116  1  0.39660000  0.40440000  0.20510000  1.0 -0.1482600775
C  C117  1  0.00780000  0.60340000  0.20510000  1.0 -0.1482600775
C  C118  1  0.40440000  0.00780000  0.70510000  1.0 -0.1482600775
C  C119  1  0.60340000  0.59560000  0.70510000  1.0 -0.1482600775
C  C120  1  0.99220000  0.39660000  0.70510000  1.0 -0.1482600775
C  C121  1  0.03630000  0.66570000  0.76330000  1.0 -0.0801457496
C  C122  1  0.33430000  0.37060000  0.76330000  1.0 -0.0801457496
C  C123  1  0.62940000  0.96370000  0.76330000  1.0 -0.0801457496
C  C124  1  0.96370000  0.33430000  0.26330000  1.0 -0.0801457496
C  C125  1  0.66570000  0.62940000  0.26330000  1.0 -0.0801457496
C  C126  1  0.37060000  0.03630000  0.26330000  1.0 -0.0801457496
C  C127  1  0.66570000  0.03630000  0.23670000  1.0 -0.0801457496
C  C128  1  0.37060000  0.33430000  0.23670000  1.0 -0.0801457496
C  C129  1  0.96370000  0.62940000  0.23670000  1.0 -0.0801457496
C  C130  1  0.33430000  0.96370000  0.73670000  1.0 -0.0801457496
C  C131  1  0.62940000  0.66570000  0.73670000  1.0 -0.0801457496
C  C132  1  0.03630000  0.37060000  0.73670000  1.0 -0.0801457496
C  C133  1  0.01210000  0.71370000  0.76940000  1.0 -0.097515111
C  C134  1  0.28630000  0.29840000  0.76940000  1.0 -0.097515111
C  C135  1  0.70160000  0.98790000  0.76940000  1.0 -0.097515111
C  C136  1  0.98790000  0.28630000  0.26940000  1.0 -0.097515111
C  C137  1  0.71370000  0.70160000  0.26940000  1.0 -0.097515111
C  C138  1  0.29840000  0.01210000  0.26940000  1.0 -0.097515111
C  C139  1  0.71370000  0.01210000  0.23060000  1.0 -0.097515111
C  C140  1  0.29840000  0.28630000  0.23060000  1.0 -0.097515111
C  C141  1  0.98790000  0.70160000  0.23060000  1.0 -0.097515111
C  C142  1  0.28630000  0.98790000  0.73060000  1.0 -0.097515111
C  C143  1  0.70160000  0.71370000  0.73060000  1.0 -0.097515111
C  C144  1  0.01210000  0.29840000  0.73060000  1.0 -0.097515111
C  C145  1  0.94400000  0.69190000  0.80720000  1.0 -0.097515111
C  C146  1  0.30810000  0.25210000  0.80720000  1.0 -0.097515111
C  C147  1  0.74790000  0.05600000  0.80720000  1.0 -0.097515111
C  C148  1  0.05600000  0.30810000  0.30720000  1.0 -0.097515111
C  C149  1  0.69190000  0.74790000  0.30720000  1.0 -0.097515111
C  C150  1  0.25210000  0.94400000  0.30720000  1.0 -0.097515111
C  C151  1  0.69190000  0.94400000  0.19280000  1.0 -0.097515111
C  C152  1  0.25210000  0.30810000  0.19280000  1.0 -0.097515111
C  C153  1  0.05600000  0.74790000  0.19280000  1.0 -0.097515111
C  C154  1  0.30810000  0.05600000  0.69280000  1.0 -0.097515111
C  C155  1  0.74790000  0.69190000  0.69280000  1.0 -0.097515111
C  C156  1  0.94400000  0.25210000  0.69280000  1.0 -0.097515111
C  C157  1  0.89990000  0.62180000  0.83880000  1.0 -0.1354839319
C  C158  1  0.37820000  0.27810000  0.83880000  1.0 -0.1354839319
C  C159  1  0.72190000  0.10010000  0.83880000  1.0 -0.1342856767
C  C160  1  0.10010000  0.37820000  0.33880000  1.0 -0.1354839319
C  C161  1  0.62180000  0.72190000  0.33880000  1.0 -0.1354839319
C  C162  1  0.27810000  0.89990000  0.33880000  1.0 -0.1354839319
C  C163  1  0.62180000  0.89990000  0.16120000  1.0 -0.1354839319
C  C164  1  0.27810000  0.37820000  0.16120000  1.0 -0.1354839319
C  C165  1  0.10010000  0.72190000  0.16120000  1.0 -0.1354839319
C  C166  1  0.37820000  0.10010000  0.66120000  1.0 -0.1354839319
C  C167  1  0.72190000  0.62180000  0.66120000  1.0 -0.1354839319
C  C168  1  0.89990000  0.27810000  0.66120000  1.0 -0.1354839319
N  N1  1  0.53630000  0.34370000  0.85610000  1.0 -0.216542452
N  N2  1  0.65630000  0.19260000  0.85610000  1.0 -0.216542452
N  N3  1  0.80740000  0.46370000  0.85610000  1.0 -0.216542452
N  N4  1  0.46370000  0.65630000  0.35610000  1.0 -0.216542452
N  N5  1  0.34370000  0.80740000  0.35610000  1.0 -0.216542452
N  N6  1  0.19260000  0.53630000  0.35610000  1.0 -0.216542452
N  N7  1  0.34370000  0.53630000  0.14390000  1.0 -0.216542452
N  N8  1  0.19260000  0.65630000  0.14390000  1.0 -0.216542452
N  N9  1  0.46370000  0.80740000  0.14390000  1.0 -0.216542452
N  N10  1  0.65630000  0.46370000  0.64390000  1.0 -0.216542452
N  N11  1  0.80740000  0.34370000  0.64390000  1.0 -0.216542452
N  N12  1  0.53630000  0.19260000  0.64390000  1.0 -0.216542452
N  N13  1  0.60720000  0.39150000  0.60170000  1.0 -0.2322881701
N  N14  1  0.60850000  0.21570000  0.60170000  1.0 -0.2322881701
N  N15  1  0.78430000  0.39280000  0.60170000  1.0 -0.2322881701
N  N16  1  0.39280000  0.60850000  0.10170000  1.0 -0.2322881701
N  N17  1  0.39150000  0.78430000  0.10170000  1.0 -0.2322881701
N  N18  1  0.21570000  0.60720000  0.10170000  1.0 -0.2322881701
N  N19  1  0.39150000  0.60720000  0.39830000  1.0 -0.2322881701
N  N20  1  0.21570000  0.60850000  0.39830000  1.0 -0.2322881701
N  N21  1  0.39280000  0.78430000  0.39830000  1.0 -0.2322881701
N  N22  1  0.60850000  0.39280000  0.89830000  1.0 -0.2322881701
N  N23  1  0.78430000  0.39150000  0.89830000  1.0 -0.2322881701
N  N24  1  0.60720000  0.21570000  0.89830000  1.0 -0.2322881701
N  N25  1  0.55650000  0.45930000  0.57940000  1.0 -0.3994596185
N  N26  1  0.54070000  0.09720000  0.57940000  1.0 -0.3994596185
N  N27  1  0.90280000  0.44350000  0.57940000  1.0 -0.3994596185
N  N28  1  0.44350000  0.54070000  0.07940000  1.0 -0.3994596185
N  N29  1  0.45930000  0.90280000  0.07940000  1.0 -0.3994596185
N  N30  1  0.09720000  0.55650000  0.07940000  1.0 -0.3994596185
N  N31  1  0.45930000  0.55650000  0.42060000  1.0 -0.3994596185
N  N32  1  0.09720000  0.54070000  0.42060000  1.0 -0.3994596185
N  N33  1  0.44350000  0.90280000  0.42060000  1.0 -0.3994596185
N  N34  1  0.54070000  0.44350000  0.92060000  1.0 -0.3994596185
N  N35  1  0.90280000  0.45930000  0.92060000  1.0 -0.3994596185
N  N36  1  0.55650000  0.09720000  0.92060000  1.0 -0.3994596185
N  N37  1  0.41495000  0.58505000  0.75000000  1.0 0.6373958805
N  N38  1  0.17010000  0.58505000  0.75000000  1.0 0.6373958805
N  N39  1  0.41495000  0.82990000  0.75000000  1.0 0.6373958805
N  N40  1  0.58505000  0.41495000  0.25000000  1.0 0.6373958805
N  N41  1  0.82990000  0.41495000  0.25000000  1.0 0.6373958805
N  N42  1  0.58505000  0.17010000  0.25000000  1.0 0.6373958805
O  O1  1  0.43670000  0.63510000  0.67600000  1.0 -0.3994596185
O  O2  1  0.36490000  0.56330000  0.82400000  1.0 -0.3994596185
O  O3  1  0.44350000  0.55650000  0.75000000  1.0 -0.2528244338
O  O4  1  0.19840000  0.56330000  0.67600000  1.0 -0.3994596185
O  O5  1  0.19840000  0.63510000  0.82400000  1.0 -0.3994596185
O  O6  1  0.11300000  0.55650000  0.75000000  1.0 -0.2528244338
O  O7  1  0.36490000  0.80160000  0.67600000  1.0 -0.3994596185
O  O8  1  0.43670000  0.80160000  0.82400000  1.0 -0.3994596185
O  O9  1  0.44350000  0.88700000  0.75000000  1.0 -0.2528244338
O  O10  1  0.56330000  0.36490000  0.17600000  1.0 -0.3994596185
O  O11  1  0.63510000  0.43670000  0.32400000  1.0 -0.3994596185
O  O12  1  0.55650000  0.44350000  0.25000000  1.0 -0.2528244338
O  O13  1  0.80160000  0.43670000  0.17600000  1.0 -0.3994596185
O  O14  1  0.80160000  0.36490000  0.32400000  1.0 -0.3994596185
O  O15  1  0.88700000  0.44350000  0.25000000  1.0 -0.2528244338
O  O16  1  0.63510000  0.19840000  0.17600000  1.0 -0.3994596185
O  O17  1  0.56330000  0.19840000  0.32400000  1.0 -0.3994596185
O  O18  1  0.55650000  0.11300000  0.25000000  1.0 -0.2528244338
