# DDEC6 charges by PACMAN v1.1 (https://github.com/mtap-research/PACMAN-charge/)
data_HAJLOU_FSR_pacman
_symmetry_space_group_name_H-M   'P 1'
_cell_length_a   15.05870000
_cell_length_b   15.05870000
_cell_length_c   15.05870000
_cell_angle_alpha   114.30500000
_cell_angle_beta   114.30500000
_cell_angle_gamma   114.30500000
_symmetry_Int_Tables_number   1
_chemical_formula_structural   FeH52C22(SN5)2
_chemical_formula_sum   'Fe3 H156 C66 S6 N30'
_cell_volume   2026.88145069
_cell_formula_units_Z   3
loop_
 _symmetry_equiv_pos_site_id
 _symmetry_equiv_pos_as_xyz
  1  'x, y, z'
loop_
 _atom_site_type_symbol
 _atom_site_label
 _atom_site_symmetry_multiplicity
 _atom_site_fract_x
 _atom_site_fract_y
 _atom_site_fract_z
 _atom_site_occupancy
 _atom_site_charge
Fe  Fe1  1  0.50000000  0.00000000  0.00000000  1.0 0.7008129827
Fe  Fe2  1  0.00000000  0.00000000  0.50000000  1.0 0.7008129827
Fe  Fe3  1  0.00000000  0.50000000  0.00000000  1.0 0.7008129827
H  H1  1  0.76920000  0.23320000  0.11080000  1.0 0.2917072149
H  H2  1  0.23320000  0.11080000  0.76920000  1.0 0.2917072149
H  H3  1  0.11080000  0.76920000  0.23320000  1.0 0.2917072149
H  H4  1  0.23080000  0.76680000  0.88920000  1.0 0.2917072149
H  H5  1  0.76680000  0.88920000  0.23080000  1.0 0.2917072149
H  H6  1  0.88920000  0.23080000  0.76680000  1.0 0.2917072149
H  H7  1  0.52360000  0.22960000  0.21270000  1.0 0.0818018013
H  H8  1  0.22960000  0.21270000  0.52360000  1.0 0.0818018013
H  H9  1  0.21270000  0.52360000  0.22960000  1.0 0.0818018013
H  H10  1  0.47640000  0.77040000  0.78730000  1.0 0.0818018013
H  H11  1  0.77040000  0.78730000  0.47640000  1.0 0.0818018013
H  H12  1  0.78730000  0.47640000  0.77040000  1.0 0.0818018013
H  H13  1  0.65220000  0.38130000  0.36140000  1.0 0.0903059037
H  H14  1  0.38130000  0.36140000  0.65220000  1.0 0.0903059037
H  H15  1  0.36140000  0.65220000  0.38130000  1.0 0.0903059037
H  H16  1  0.34780000  0.61870000  0.63860000  1.0 0.0903059037
H  H17  1  0.61870000  0.63860000  0.34780000  1.0 0.0903059037
H  H18  1  0.63860000  0.34780000  0.61870000  1.0 0.0903059037
H  H19  1  0.55650000  0.35610000  0.23450000  1.0 0.0818018013
H  H20  1  0.35610000  0.23450000  0.55650000  1.0 0.0818018013
H  H21  1  0.23450000  0.55650000  0.35610000  1.0 0.0818018013
H  H22  1  0.44350000  0.64390000  0.76550000  1.0 0.0818018013
H  H23  1  0.64390000  0.76550000  0.44350000  1.0 0.0818018013
H  H24  1  0.76550000  0.44350000  0.64390000  1.0 0.0818018013
H  H25  1  0.96830000  0.43640000  0.20560000  1.0 0.0724577838
H  H26  1  0.43640000  0.20560000  0.96830000  1.0 0.0724577838
H  H27  1  0.20560000  0.96830000  0.43640000  1.0 0.0724577838
H  H28  1  0.03170000  0.56360000  0.79440000  1.0 0.0724577838
H  H29  1  0.56360000  0.79440000  0.03170000  1.0 0.0724577838
H  H30  1  0.79440000  0.03170000  0.56360000  1.0 0.0724577838
H  H31  1  0.95680000  0.54350000  0.22970000  1.0 0.0818018013
H  H32  1  0.54350000  0.22970000  0.95680000  1.0 0.0818018013
H  H33  1  0.22970000  0.95680000  0.54350000  1.0 0.0818018013
H  H34  1  0.04320000  0.45650000  0.77030000  1.0 0.0818018013
H  H35  1  0.45650000  0.77030000  0.04320000  1.0 0.0818018013
H  H36  1  0.77030000  0.04320000  0.45650000  1.0 0.0818018013
H  H37  1  0.04910000  0.56620000  0.35590000  1.0 0.0903059037
H  H38  1  0.56620000  0.35590000  0.04910000  1.0 0.0903059037
H  H39  1  0.35590000  0.04910000  0.56620000  1.0 0.0903059037
H  H40  1  0.95090000  0.43380000  0.64410000  1.0 0.0903059037
H  H41  1  0.43380000  0.64410000  0.95090000  1.0 0.0903059037
H  H42  1  0.64410000  0.95090000  0.43380000  1.0 0.0903059037
H  H43  1  0.97170000  0.73500000  0.68750000  1.0 0.0724577838
H  H44  1  0.73500000  0.68750000  0.97170000  1.0 0.0724577838
H  H45  1  0.68750000  0.97170000  0.73500000  1.0 0.0724577838
H  H46  1  0.02830000  0.26500000  0.31250000  1.0 0.0724577838
H  H47  1  0.26500000  0.31250000  0.02830000  1.0 0.0724577838
H  H48  1  0.31250000  0.02830000  0.26500000  1.0 0.0724577838
H  H49  1  0.83460000  0.57750000  0.55340000  1.0 0.0903059037
H  H50  1  0.57750000  0.55340000  0.83460000  1.0 0.0903059037
H  H51  1  0.55340000  0.83460000  0.57750000  1.0 0.0903059037
H  H52  1  0.16540000  0.42250000  0.44660000  1.0 0.0903059037
H  H53  1  0.42250000  0.44660000  0.16540000  1.0 0.0903059037
H  H54  1  0.44660000  0.16540000  0.42250000  1.0 0.0903059037
H  H55  1  0.97920000  0.63030000  0.61220000  1.0 0.0976086268
H  H56  1  0.63030000  0.61220000  0.97920000  1.0 0.0976086268
H  H57  1  0.61220000  0.97920000  0.63030000  1.0 0.0976086268
H  H58  1  0.02080000  0.36970000  0.38780000  1.0 0.0976086268
H  H59  1  0.36970000  0.38780000  0.02080000  1.0 0.0976086268
H  H60  1  0.38780000  0.02080000  0.36970000  1.0 0.0976086268
H  H61  1  0.87100000  0.72440000  0.24020000  1.0 0.0818018013
H  H62  1  0.72440000  0.24020000  0.87100000  1.0 0.0818018013
H  H63  1  0.24020000  0.87100000  0.72440000  1.0 0.0818018013
H  H64  1  0.12900000  0.27560000  0.75980000  1.0 0.0818018013
H  H65  1  0.27560000  0.75980000  0.12900000  1.0 0.0818018013
H  H66  1  0.75980000  0.12900000  0.27560000  1.0 0.0818018013
H  H67  1  0.88120000  0.61520000  0.20600000  1.0 0.0818018013
H  H68  1  0.61520000  0.20600000  0.88120000  1.0 0.0818018013
H  H69  1  0.20600000  0.88120000  0.61520000  1.0 0.0818018013
H  H70  1  0.11880000  0.38480000  0.79400000  1.0 0.0818018013
H  H71  1  0.38480000  0.79400000  0.11880000  1.0 0.0818018013
H  H72  1  0.79400000  0.11880000  0.38480000  1.0 0.0818018013
H  H73  1  0.74090000  0.57100000  0.15320000  1.0 0.0903059037
H  H74  1  0.57100000  0.15320000  0.74090000  1.0 0.0903059037
H  H75  1  0.15320000  0.74090000  0.57100000  1.0 0.0903059037
H  H76  1  0.25910000  0.42900000  0.84680000  1.0 0.0903059037
H  H77  1  0.42900000  0.84680000  0.25910000  1.0 0.0903059037
H  H78  1  0.84680000  0.25910000  0.42900000  1.0 0.0903059037
H  H79  1  0.00870000  0.87450000  0.64000000  1.0 0.2761058779
H  H80  1  0.87450000  0.64000000  0.00870000  1.0 0.2761058779
H  H81  1  0.64000000  0.00870000  0.87450000  1.0 0.2761058779
H  H82  1  0.99130000  0.12550000  0.36000000  1.0 0.2761058779
H  H83  1  0.12550000  0.36000000  0.99130000  1.0 0.2761058779
H  H84  1  0.36000000  0.99130000  0.12550000  1.0 0.2761058779
H  H85  1  0.63120000  0.41510000  0.32640000  1.0 0.0818018013
H  H86  1  0.41510000  0.32640000  0.63120000  1.0 0.0818018013
H  H87  1  0.32640000  0.63120000  0.41510000  1.0 0.0818018013
H  H88  1  0.36880000  0.58490000  0.67360000  1.0 0.0818018013
H  H89  1  0.58490000  0.67360000  0.36880000  1.0 0.0818018013
H  H90  1  0.67360000  0.36880000  0.58490000  1.0 0.0818018013
H  H91  1  0.50260000  0.26340000  0.17770000  1.0 0.0903059037
H  H92  1  0.26340000  0.17770000  0.50260000  1.0 0.0903059037
H  H93  1  0.17770000  0.50260000  0.26340000  1.0 0.0903059037
H  H94  1  0.49740000  0.73660000  0.82230000  1.0 0.0903059037
H  H95  1  0.73660000  0.82230000  0.49740000  1.0 0.0903059037
H  H96  1  0.82230000  0.49740000  0.73660000  1.0 0.0903059037
H  H97  1  0.59850000  0.28850000  0.30450000  1.0 0.0903059037
H  H98  1  0.28850000  0.30450000  0.59850000  1.0 0.0903059037
H  H99  1  0.30450000  0.59850000  0.28850000  1.0 0.0903059037
H  H100  1  0.40150000  0.71150000  0.69550000  1.0 0.0903059037
H  H101  1  0.71150000  0.69550000  0.40150000  1.0 0.0903059037
H  H102  1  0.69550000  0.40150000  0.71150000  1.0 0.0903059037
H  H103  1  0.01450000  0.59430000  0.32190000  1.0 0.0903059037
H  H104  1  0.59430000  0.32190000  0.01450000  1.0 0.0903059037
H  H105  1  0.32190000  0.01450000  0.59430000  1.0 0.0903059037
H  H106  1  0.98550000  0.40570000  0.67810000  1.0 0.0903059037
H  H107  1  0.40570000  0.67810000  0.98550000  1.0 0.0903059037
H  H108  1  0.67810000  0.98550000  0.40570000  1.0 0.0903059037
H  H109  1  0.02600000  0.48720000  0.29780000  1.0 0.0903059037
H  H110  1  0.48720000  0.29780000  0.02600000  1.0 0.0903059037
H  H111  1  0.29780000  0.02600000  0.48720000  1.0 0.0903059037
H  H112  1  0.97400000  0.51280000  0.70220000  1.0 0.0903059037
H  H113  1  0.51280000  0.70220000  0.97400000  1.0 0.0903059037
H  H114  1  0.70220000  0.97400000  0.51280000  1.0 0.0903059037
H  H115  1  0.93380000  0.46450000  0.17150000  1.0 0.0903059037
H  H116  1  0.46450000  0.17150000  0.93380000  1.0 0.0903059037
H  H117  1  0.17150000  0.93380000  0.46450000  1.0 0.0903059037
H  H118  1  0.06620000  0.53550000  0.82850000  1.0 0.0903059037
H  H119  1  0.53550000  0.82850000  0.06620000  1.0 0.0903059037
H  H120  1  0.82850000  0.06620000  0.53550000  1.0 0.0903059037
H  H121  1  0.88530000  0.56020000  0.54790000  1.0 0.0903059037
H  H122  1  0.56020000  0.54790000  0.88530000  1.0 0.0903059037
H  H123  1  0.54790000  0.88530000  0.56020000  1.0 0.0903059037
H  H124  1  0.11470000  0.43980000  0.45210000  1.0 0.0903059037
H  H125  1  0.43980000  0.45210000  0.11470000  1.0 0.0903059037
H  H126  1  0.45210000  0.11470000  0.43980000  1.0 0.0903059037
H  H127  1  0.02240000  0.71770000  0.68200000  1.0 0.0903059037
H  H128  1  0.71770000  0.68200000  0.02240000  1.0 0.0903059037
H  H129  1  0.68200000  0.02240000  0.71770000  1.0 0.0903059037
H  H130  1  0.97760000  0.28230000  0.31800000  1.0 0.0903059037
H  H131  1  0.28230000  0.31800000  0.97760000  1.0 0.0903059037
H  H132  1  0.31800000  0.97760000  0.28230000  1.0 0.0903059037
H  H133  1  0.87780000  0.66490000  0.62320000  1.0 0.0818018013
H  H134  1  0.66490000  0.62320000  0.87780000  1.0 0.0818018013
H  H135  1  0.62320000  0.87780000  0.66490000  1.0 0.0818018013
H  H136  1  0.12220000  0.33510000  0.37680000  1.0 0.0818018013
H  H137  1  0.33510000  0.37680000  0.12220000  1.0 0.0818018013
H  H138  1  0.37680000  0.12220000  0.33510000  1.0 0.0818018013
H  H139  1  0.79100000  0.54940000  0.15950000  1.0 0.0818018013
H  H140  1  0.54940000  0.15950000  0.79100000  1.0 0.0818018013
H  H141  1  0.15950000  0.79100000  0.54940000  1.0 0.0818018013
H  H142  1  0.20900000  0.45060000  0.84050000  1.0 0.0818018013
H  H143  1  0.45060000  0.84050000  0.20900000  1.0 0.0818018013
H  H144  1  0.84050000  0.20900000  0.45060000  1.0 0.0818018013
H  H145  1  0.78100000  0.65850000  0.19360000  1.0 0.0976086268
H  H146  1  0.65850000  0.19360000  0.78100000  1.0 0.0976086268
H  H147  1  0.19360000  0.78100000  0.65850000  1.0 0.0976086268
H  H148  1  0.21900000  0.34150000  0.80640000  1.0 0.0976086268
H  H149  1  0.34150000  0.80640000  0.21900000  1.0 0.0976086268
H  H150  1  0.80640000  0.21900000  0.34150000  1.0 0.0976086268
H  H151  1  0.92120000  0.70280000  0.24640000  1.0 0.0903059037
H  H152  1  0.70280000  0.24640000  0.92120000  1.0 0.0903059037
H  H153  1  0.24640000  0.92120000  0.70280000  1.0 0.0903059037
H  H154  1  0.07880000  0.29720000  0.75360000  1.0 0.0903059037
H  H155  1  0.29720000  0.75360000  0.07880000  1.0 0.0903059037
H  H156  1  0.75360000  0.07880000  0.29720000  1.0 0.0903059037
C  C1  1  0.72542000  0.98675000  0.07373000  1.0 0.1311208428
C  C2  1  0.98675000  0.07373000  0.72542000  1.0 0.1311208428
C  C3  1  0.07373000  0.72542000  0.98675000  1.0 0.1311208428
C  C4  1  0.27458000  0.01325000  0.92627000  1.0 0.1311208428
C  C5  1  0.01325000  0.92627000  0.27458000  1.0 0.1311208428
C  C6  1  0.92627000  0.27458000  0.01325000  1.0 0.1311208428
C  C7  1  0.68399000  0.33753000  0.23658000  1.0 0.1570474676
C  C8  1  0.33753000  0.23658000  0.68399000  1.0 0.1570474676
C  C9  1  0.23658000  0.68399000  0.33753000  1.0 0.1570474676
C  C10  1  0.31601000  0.66247000  0.76342000  1.0 0.1570474676
C  C11  1  0.66247000  0.76342000  0.31601000  1.0 0.1570474676
C  C12  1  0.76342000  0.31601000  0.66247000  1.0 0.1570474676
C  C13  1  0.79974000  0.45915000  0.29111000  1.0 -0.1061123663
C  C14  1  0.45915000  0.29111000  0.79974000  1.0 -0.1061123663
C  C15  1  0.29111000  0.79974000  0.45915000  1.0 -0.1061123663
C  C16  1  0.20026000  0.54085000  0.70889000  1.0 -0.1061123663
C  C17  1  0.54085000  0.70889000  0.20026000  1.0 -0.1061123663
C  C18  1  0.70889000  0.20026000  0.54085000  1.0 -0.1061123663
C  C19  1  0.84638000  0.41834000  0.23788000  1.0 0.119142984
C  C20  1  0.41834000  0.23788000  0.84638000  1.0 0.119142984
C  C21  1  0.23788000  0.84638000  0.41834000  1.0 0.119142984
C  C22  1  0.15362000  0.58166000  0.76212000  1.0 0.119142984
C  C23  1  0.58166000  0.76212000  0.15362000  1.0 0.119142984
C  C24  1  0.76212000  0.15362000  0.58166000  1.0 0.119142984
C  C25  1  0.59656000  0.32503000  0.26361000  1.0 -0.4157538095
C  C26  1  0.32503000  0.26361000  0.59656000  1.0 -0.4157538095
C  C27  1  0.26361000  0.59656000  0.32503000  1.0 -0.4157538095
C  C28  1  0.40344000  0.67497000  0.73639000  1.0 -0.4157538095
C  C29  1  0.67497000  0.73639000  0.40344000  1.0 -0.4157538095
C  C30  1  0.73639000  0.40344000  0.67497000  1.0 -0.4157538095
C  C31  1  0.96523000  0.49786000  0.25911000  1.0 -0.4401585786
C  C32  1  0.49786000  0.25911000  0.96523000  1.0 -0.4401585786
C  C33  1  0.25911000  0.96523000  0.49786000  1.0 -0.4401585786
C  C34  1  0.03477000  0.50214000  0.74089000  1.0 -0.4401585786
C  C35  1  0.50214000  0.74089000  0.03477000  1.0 -0.4401585786
C  C36  1  0.74089000  0.03477000  0.50214000  1.0 -0.4401585786
C  C37  1  0.91535000  0.68189000  0.51256000  1.0 0.1311208428
C  C38  1  0.68189000  0.51256000  0.91535000  1.0 0.1311208428
C  C39  1  0.51256000  0.91535000  0.68189000  1.0 0.1311208428
C  C40  1  0.08465000  0.31811000  0.48744000  1.0 0.1311208428
C  C41  1  0.31811000  0.48744000  0.08465000  1.0 0.1311208428
C  C42  1  0.48744000  0.08465000  0.31811000  1.0 0.1311208428
C  C43  1  0.85986000  0.59983000  0.38131000  1.0 -0.1206535824
C  C44  1  0.59983000  0.38131000  0.85986000  1.0 -0.1206535824
C  C45  1  0.38131000  0.85986000  0.59983000  1.0 -0.1206535824
C  C46  1  0.14014000  0.40017000  0.61869000  1.0 -0.1206535824
C  C47  1  0.40017000  0.61869000  0.14014000  1.0 -0.1206535824
C  C48  1  0.61869000  0.14014000  0.40017000  1.0 -0.1206535824
C  C49  1  0.88359000  0.68387000  0.35604000  1.0 0.1425415671
C  C50  1  0.68387000  0.35604000  0.88359000  1.0 0.1425415671
C  C51  1  0.35604000  0.88359000  0.68387000  1.0 0.1425415671
C  C52  1  0.11641000  0.31613000  0.64396000  1.0 0.1425415671
C  C53  1  0.31613000  0.64396000  0.11641000  1.0 0.1425415671
C  C54  1  0.64396000  0.11641000  0.31613000  1.0 0.1425415671
C  C55  1  0.92618000  0.65378000  0.59884000  1.0 -0.4086344072
C  C56  1  0.65378000  0.59884000  0.92618000  1.0 -0.4086344072
C  C57  1  0.59884000  0.92618000  0.65378000  1.0 -0.4086344072
C  C58  1  0.07382000  0.34622000  0.40116000  1.0 -0.4086344072
C  C59  1  0.34622000  0.40116000  0.07382000  1.0 -0.4086344072
C  C60  1  0.40116000  0.07382000  0.34622000  1.0 -0.4086344072
C  C61  1  0.84050000  0.64535000  0.22795000  1.0 -0.4303454587
C  C62  1  0.64535000  0.22795000  0.84050000  1.0 -0.4303454587
C  C63  1  0.22795000  0.84050000  0.64535000  1.0 -0.4303454587
C  C64  1  0.15950000  0.35465000  0.77205000  1.0 -0.4303454587
C  C65  1  0.35465000  0.77205000  0.15950000  1.0 -0.4303454587
C  C66  1  0.77205000  0.15950000  0.35465000  1.0 -0.4303454587
S  S1  1  0.81850000  0.95314000  0.09907000  1.0 -0.3184031574
S  S2  1  0.95314000  0.09907000  0.81850000  1.0 -0.3184031574
S  S3  1  0.09907000  0.81850000  0.95314000  1.0 -0.3184031574
S  S4  1  0.18150000  0.04686000  0.90093000  1.0 -0.3184031574
S  S5  1  0.04686000  0.90093000  0.18150000  1.0 -0.3184031574
S  S6  1  0.90093000  0.18150000  0.04686000  1.0 -0.3184031574
N  N1  1  0.65676000  0.00823000  0.05305000  1.0 -0.4614802727
N  N2  1  0.00823000  0.05305000  0.65676000  1.0 -0.4614802727
N  N3  1  0.05305000  0.65676000  0.00823000  1.0 -0.4614802727
N  N4  1  0.34324000  0.99177000  0.94695000  1.0 -0.4614802727
N  N5  1  0.99177000  0.94695000  0.34324000  1.0 -0.4614802727
N  N6  1  0.94695000  0.34324000  0.99177000  1.0 -0.4614802727
N  N7  1  0.66065000  0.22993000  0.15404000  1.0 -0.1896790742
N  N8  1  0.22993000  0.15404000  0.66065000  1.0 -0.1896790742
N  N9  1  0.15404000  0.66065000  0.22993000  1.0 -0.1896790742
N  N10  1  0.33935000  0.77007000  0.84596000  1.0 -0.1896790742
N  N11  1  0.77007000  0.84596000  0.33935000  1.0 -0.1896790742
N  N12  1  0.84596000  0.33935000  0.77007000  1.0 -0.1896790742
N  N13  1  0.76094000  0.28258000  0.15692000  1.0 -0.2936065151
N  N14  1  0.28258000  0.15692000  0.76094000  1.0 -0.2936065151
N  N15  1  0.15692000  0.76094000  0.28258000  1.0 -0.2936065151
N  N16  1  0.23906000  0.71742000  0.84308000  1.0 -0.2936065151
N  N17  1  0.71742000  0.84308000  0.23906000  1.0 -0.2936065151
N  N18  1  0.84308000  0.23906000  0.71742000  1.0 -0.2936065151
N  N19  1  0.95087000  0.81019000  0.46505000  1.0 -0.1989776272
N  N20  1  0.81019000  0.46505000  0.95087000  1.0 -0.1989776272
N  N21  1  0.46505000  0.95087000  0.81019000  1.0 -0.1989776272
N  N22  1  0.04913000  0.18981000  0.53495000  1.0 -0.1989776272
N  N23  1  0.18981000  0.53495000  0.04913000  1.0 -0.1989776272
N  N24  1  0.53495000  0.04913000  0.18981000  1.0 -0.1989776272
N  N25  1  0.96778000  0.80493000  0.55834000  1.0 -0.2936065151
N  N26  1  0.80493000  0.55834000  0.96778000  1.0 -0.2936065151
N  N27  1  0.55834000  0.96778000  0.80493000  1.0 -0.2936065151
N  N28  1  0.03222000  0.19507000  0.44166000  1.0 -0.2936065151
N  N29  1  0.19507000  0.44166000  0.03222000  1.0 -0.2936065151
N  N30  1  0.44166000  0.03222000  0.19507000  1.0 -0.2936065151
