# DDEC6 charges by PACMAN v1.1 (https://github.com/mtap-research/PACMAN-charge/)
data_HAJLEK_ASR_pacman
_symmetry_space_group_name_H-M   'P 1'
_cell_length_a   15.04750000
_cell_length_b   15.04750000
_cell_length_c   15.04750000
_cell_angle_alpha   114.30200000
_cell_angle_beta   114.30200000
_cell_angle_gamma   114.30200000
_symmetry_Int_Tables_number   1
_chemical_formula_structural   FeH52C22(SN5)2
_chemical_formula_sum   'Fe3 H156 C66 S6 N30'
_cell_volume   2022.83965116
_cell_formula_units_Z   3
loop_
 _symmetry_equiv_pos_site_id
 _symmetry_equiv_pos_as_xyz
  1  'x, y, z'
loop_
 _atom_site_type_symbol
 _atom_site_label
 _atom_site_symmetry_multiplicity
 _atom_site_fract_x
 _atom_site_fract_y
 _atom_site_fract_z
 _atom_site_occupancy
 _atom_site_charge
Fe  Fe1  1  0.50000000  0.00000000  0.00000000  1.0 0.6936337992
Fe  Fe2  1  0.00000000  0.00000000  0.50000000  1.0 0.6936337992
Fe  Fe3  1  0.00000000  0.50000000  0.00000000  1.0 0.6951178952
H  H1  1  0.76890000  0.23260000  0.10960000  1.0 0.2882871771
H  H2  1  0.23260000  0.10960000  0.76890000  1.0 0.2882871771
H  H3  1  0.10960000  0.76890000  0.23260000  1.0 0.2882871771
H  H4  1  0.76740000  0.89040000  0.23110000  1.0 0.2882871771
H  H5  1  0.89040000  0.23110000  0.76740000  1.0 0.2882871771
H  H6  1  0.23110000  0.76740000  0.89040000  1.0 0.2882871771
H  H7  1  0.52460000  0.23070000  0.21390000  1.0 0.071118762
H  H8  1  0.23070000  0.21390000  0.52460000  1.0 0.071118762
H  H9  1  0.21390000  0.52460000  0.23070000  1.0 0.071118762
H  H10  1  0.76930000  0.78610000  0.47540000  1.0 0.0810277229
H  H11  1  0.78610000  0.47540000  0.76930000  1.0 0.0810277229
H  H12  1  0.47540000  0.76930000  0.78610000  1.0 0.0810277229
H  H13  1  0.65430000  0.38250000  0.36260000  1.0 0.0810277229
H  H14  1  0.38250000  0.36260000  0.65430000  1.0 0.0810277229
H  H15  1  0.36260000  0.65430000  0.38250000  1.0 0.0810277229
H  H16  1  0.61750000  0.63740000  0.34570000  1.0 0.0810277229
H  H17  1  0.63740000  0.34570000  0.61750000  1.0 0.0810277229
H  H18  1  0.34570000  0.61750000  0.63740000  1.0 0.0810277229
H  H19  1  0.55800000  0.35760000  0.23600000  1.0 0.0810277229
H  H20  1  0.35760000  0.23600000  0.55800000  1.0 0.0810277229
H  H21  1  0.23600000  0.55800000  0.35760000  1.0 0.0810277229
H  H22  1  0.64240000  0.76400000  0.44200000  1.0 0.0810277229
H  H23  1  0.76400000  0.44200000  0.64240000  1.0 0.0810277229
H  H24  1  0.44200000  0.64240000  0.76400000  1.0 0.0810277229
H  H25  1  0.96860000  0.43570000  0.20540000  1.0 0.071118762
H  H26  1  0.43570000  0.20540000  0.96860000  1.0 0.071118762
H  H27  1  0.20540000  0.96860000  0.43570000  1.0 0.071118762
H  H28  1  0.56430000  0.79460000  0.03140000  1.0 0.071118762
H  H29  1  0.79460000  0.03140000  0.56430000  1.0 0.071118762
H  H30  1  0.03140000  0.56430000  0.79460000  1.0 0.071118762
H  H31  1  0.95740000  0.54310000  0.22950000  1.0 0.0810277229
H  H32  1  0.54310000  0.22950000  0.95740000  1.0 0.0810277229
H  H33  1  0.22950000  0.95740000  0.54310000  1.0 0.0810277229
H  H34  1  0.45690000  0.77050000  0.04260000  1.0 0.0810277229
H  H35  1  0.77050000  0.04260000  0.45690000  1.0 0.0810277229
H  H36  1  0.04260000  0.45690000  0.77050000  1.0 0.0810277229
H  H37  1  0.04950000  0.56580000  0.35590000  1.0 0.0887634069
H  H38  1  0.56580000  0.35590000  0.04950000  1.0 0.0887634069
H  H39  1  0.35590000  0.04950000  0.56580000  1.0 0.0887634069
H  H40  1  0.43420000  0.64410000  0.95050000  1.0 0.0887634069
H  H41  1  0.64410000  0.95050000  0.43420000  1.0 0.0887634069
H  H42  1  0.95050000  0.43420000  0.64410000  1.0 0.0887634069
H  H43  1  0.97210000  0.73300000  0.68670000  1.0 0.071118762
H  H44  1  0.73300000  0.68670000  0.97210000  1.0 0.071118762
H  H45  1  0.68670000  0.97210000  0.73300000  1.0 0.071118762
H  H46  1  0.26700000  0.31330000  0.02790000  1.0 0.071118762
H  H47  1  0.31330000  0.02790000  0.26700000  1.0 0.071118762
H  H48  1  0.02790000  0.26700000  0.31330000  1.0 0.071118762
H  H49  1  0.83500000  0.57550000  0.55170000  1.0 0.0887634069
H  H50  1  0.57550000  0.55170000  0.83500000  1.0 0.0887634069
H  H51  1  0.55170000  0.83500000  0.57550000  1.0 0.0887634069
H  H52  1  0.42450000  0.44830000  0.16500000  1.0 0.0887634069
H  H53  1  0.44830000  0.16500000  0.42450000  1.0 0.0887634069
H  H54  1  0.16500000  0.42450000  0.44830000  1.0 0.0887634069
H  H55  1  0.97960000  0.62870000  0.61040000  1.0 0.0967397287
H  H56  1  0.62870000  0.61040000  0.97960000  1.0 0.0967397287
H  H57  1  0.61040000  0.97960000  0.62870000  1.0 0.0967397287
H  H58  1  0.37130000  0.38960000  0.02040000  1.0 0.0967397287
H  H59  1  0.38960000  0.02040000  0.37130000  1.0 0.0967397287
H  H60  1  0.02040000  0.37130000  0.38960000  1.0 0.0967397287
H  H61  1  0.87070000  0.72440000  0.23960000  1.0 0.0810277229
H  H62  1  0.72440000  0.23960000  0.87070000  1.0 0.0810277229
H  H63  1  0.23960000  0.87070000  0.72440000  1.0 0.0810277229
H  H64  1  0.27560000  0.76040000  0.12930000  1.0 0.0810277229
H  H65  1  0.76040000  0.12930000  0.27560000  1.0 0.0810277229
H  H66  1  0.12930000  0.27560000  0.76040000  1.0 0.0810277229
H  H67  1  0.88030000  0.61490000  0.20510000  1.0 0.0810277229
H  H68  1  0.61490000  0.20510000  0.88030000  1.0 0.0810277229
H  H69  1  0.20510000  0.88030000  0.61490000  1.0 0.0810277229
H  H70  1  0.38510000  0.79490000  0.11970000  1.0 0.0810277229
H  H71  1  0.79490000  0.11970000  0.38510000  1.0 0.0810277229
H  H72  1  0.11970000  0.38510000  0.79490000  1.0 0.0810277229
H  H73  1  0.74030000  0.57130000  0.15320000  1.0 0.0887634069
H  H74  1  0.57130000  0.15320000  0.74030000  1.0 0.0887634069
H  H75  1  0.15320000  0.74030000  0.57130000  1.0 0.0887634069
H  H76  1  0.42870000  0.84680000  0.25970000  1.0 0.0887634069
H  H77  1  0.84680000  0.25970000  0.42870000  1.0 0.0887634069
H  H78  1  0.25970000  0.42870000  0.84680000  1.0 0.0887634069
H  H79  1  0.00880000  0.87380000  0.64060000  1.0 0.2710815414
H  H80  1  0.87380000  0.64060000  0.00880000  1.0 0.2710815414
H  H81  1  0.64060000  0.00880000  0.87380000  1.0 0.2710815414
H  H82  1  0.12620000  0.35940000  0.99120000  1.0 0.2710815414
H  H83  1  0.35940000  0.99120000  0.12620000  1.0 0.2710815414
H  H84  1  0.99120000  0.12620000  0.35940000  1.0 0.2710815414
H  H85  1  0.63320000  0.41650000  0.32780000  1.0 0.0810277229
H  H86  1  0.41650000  0.32780000  0.63320000  1.0 0.0810277229
H  H87  1  0.32780000  0.63320000  0.41650000  1.0 0.0810277229
H  H88  1  0.58350000  0.67220000  0.36680000  1.0 0.0810277229
H  H89  1  0.67220000  0.36680000  0.58350000  1.0 0.0810277229
H  H90  1  0.36680000  0.58350000  0.67220000  1.0 0.0810277229
H  H91  1  0.50360000  0.26480000  0.17920000  1.0 0.0810277229
H  H92  1  0.26480000  0.17920000  0.50360000  1.0 0.0810277229
H  H93  1  0.17920000  0.50360000  0.26480000  1.0 0.0810277229
H  H94  1  0.73520000  0.82080000  0.49640000  1.0 0.0810277229
H  H95  1  0.82080000  0.49640000  0.73520000  1.0 0.0810277229
H  H96  1  0.49640000  0.73520000  0.82080000  1.0 0.0810277229
H  H97  1  0.59980000  0.28960000  0.30570000  1.0 0.0887634069
H  H98  1  0.28960000  0.30570000  0.59980000  1.0 0.0887634069
H  H99  1  0.30570000  0.59980000  0.28960000  1.0 0.0887634069
H  H100  1  0.71040000  0.69430000  0.40020000  1.0 0.0887634069
H  H101  1  0.69430000  0.40020000  0.71040000  1.0 0.0887634069
H  H102  1  0.40020000  0.71040000  0.69430000  1.0 0.0887634069
H  H103  1  0.01510000  0.59400000  0.32190000  1.0 0.0810277229
H  H104  1  0.59400000  0.32190000  0.01510000  1.0 0.0810277229
H  H105  1  0.32190000  0.01510000  0.59400000  1.0 0.0810277229
H  H106  1  0.40600000  0.67810000  0.98490000  1.0 0.0810277229
H  H107  1  0.67810000  0.98490000  0.40600000  1.0 0.0810277229
H  H108  1  0.98490000  0.40600000  0.67810000  1.0 0.0810277229
H  H109  1  0.02630000  0.48670000  0.29770000  1.0 0.0887634069
H  H110  1  0.48670000  0.29770000  0.02630000  1.0 0.0887634069
H  H111  1  0.29770000  0.02630000  0.48670000  1.0 0.0887634069
H  H112  1  0.51330000  0.70230000  0.97370000  1.0 0.0887634069
H  H113  1  0.70230000  0.97370000  0.51330000  1.0 0.0887634069
H  H114  1  0.97370000  0.51330000  0.70230000  1.0 0.0887634069
H  H115  1  0.93410000  0.46400000  0.17140000  1.0 0.0887634069
H  H116  1  0.46400000  0.17140000  0.93410000  1.0 0.0887634069
H  H117  1  0.17140000  0.93410000  0.46400000  1.0 0.0887634069
H  H118  1  0.53600000  0.82860000  0.06590000  1.0 0.0887634069
H  H119  1  0.82860000  0.06590000  0.53600000  1.0 0.0887634069
H  H120  1  0.06590000  0.53600000  0.82860000  1.0 0.0887634069
H  H121  1  0.88570000  0.55850000  0.54590000  1.0 0.0887634069
H  H122  1  0.55850000  0.54590000  0.88570000  1.0 0.0887634069
H  H123  1  0.54590000  0.88570000  0.55850000  1.0 0.0887634069
H  H124  1  0.44150000  0.45410000  0.11430000  1.0 0.0887634069
H  H125  1  0.45410000  0.11430000  0.44150000  1.0 0.0887634069
H  H126  1  0.11430000  0.44150000  0.45410000  1.0 0.0887634069
H  H127  1  0.02280000  0.71600000  0.68090000  1.0 0.0887634069
H  H128  1  0.71600000  0.68090000  0.02280000  1.0 0.0887634069
H  H129  1  0.68090000  0.02280000  0.71600000  1.0 0.0887634069
H  H130  1  0.28400000  0.31910000  0.97720000  1.0 0.0887634069
H  H131  1  0.31910000  0.97720000  0.28400000  1.0 0.0887634069
H  H132  1  0.97720000  0.28400000  0.31910000  1.0 0.0887634069
H  H133  1  0.87810000  0.66270000  0.62210000  1.0 0.0810277229
H  H134  1  0.66270000  0.62210000  0.87810000  1.0 0.0810277229
H  H135  1  0.62210000  0.87810000  0.66270000  1.0 0.0810277229
H  H136  1  0.33730000  0.37790000  0.12190000  1.0 0.0810277229
H  H137  1  0.37790000  0.12190000  0.33730000  1.0 0.0810277229
H  H138  1  0.12190000  0.33730000  0.37790000  1.0 0.0810277229
H  H139  1  0.79030000  0.54940000  0.15900000  1.0 0.0810277229
H  H140  1  0.54940000  0.15900000  0.79030000  1.0 0.0810277229
H  H141  1  0.15900000  0.79030000  0.54940000  1.0 0.0810277229
H  H142  1  0.45060000  0.84100000  0.20970000  1.0 0.0810277229
H  H143  1  0.84100000  0.20970000  0.45060000  1.0 0.0810277229
H  H144  1  0.20970000  0.45060000  0.84100000  1.0 0.0810277229
H  H145  1  0.78050000  0.65880000  0.19350000  1.0 0.0887634069
H  H146  1  0.65880000  0.19350000  0.78050000  1.0 0.0887634069
H  H147  1  0.19350000  0.78050000  0.65880000  1.0 0.0887634069
H  H148  1  0.34120000  0.80650000  0.21950000  1.0 0.0887634069
H  H149  1  0.80650000  0.21950000  0.34120000  1.0 0.0887634069
H  H150  1  0.21950000  0.34120000  0.80650000  1.0 0.0887634069
H  H151  1  0.92040000  0.70250000  0.24540000  1.0 0.0887634069
H  H152  1  0.70250000  0.24540000  0.92040000  1.0 0.0887634069
H  H153  1  0.24540000  0.92040000  0.70250000  1.0 0.0887634069
H  H154  1  0.29750000  0.75460000  0.07960000  1.0 0.0887634069
H  H155  1  0.75460000  0.07960000  0.29750000  1.0 0.0887634069
H  H156  1  0.07960000  0.29750000  0.75460000  1.0 0.0887634069
C  C1  1  0.72664000  0.98736000  0.07310000  1.0 0.1374928873
C  C2  1  0.98736000  0.07310000  0.72664000  1.0 0.1374928873
C  C3  1  0.07310000  0.72664000  0.98736000  1.0 0.1374928873
C  C4  1  0.01264000  0.92690000  0.27336000  1.0 0.1374928873
C  C5  1  0.92690000  0.27336000  0.01264000  1.0 0.1374928873
C  C6  1  0.27336000  0.01264000  0.92690000  1.0 0.1374928873
C  C7  1  0.68413000  0.33724000  0.23613000  1.0 0.1639486396
C  C8  1  0.33724000  0.23613000  0.68413000  1.0 0.1639486396
C  C9  1  0.23613000  0.68413000  0.33724000  1.0 0.1639486396
C  C10  1  0.66276000  0.76387000  0.31587000  1.0 0.1639486396
C  C11  1  0.76387000  0.31587000  0.66276000  1.0 0.1639486396
C  C12  1  0.31587000  0.66276000  0.76387000  1.0 0.1639486396
C  C13  1  0.79996000  0.45874000  0.29040000  1.0 -0.11243688
C  C14  1  0.45874000  0.29040000  0.79996000  1.0 -0.11243688
C  C15  1  0.29040000  0.79996000  0.45874000  1.0 -0.11243688
C  C16  1  0.54126000  0.70960000  0.20004000  1.0 -0.11243688
C  C17  1  0.70960000  0.20004000  0.54126000  1.0 -0.11243688
C  C18  1  0.20004000  0.54126000  0.70960000  1.0 -0.11243688
C  C19  1  0.84676000  0.41817000  0.23797000  1.0 0.1273122548
C  C20  1  0.41817000  0.23797000  0.84676000  1.0 0.1273122548
C  C21  1  0.23797000  0.84676000  0.41817000  1.0 0.1239136899
C  C22  1  0.58183000  0.76203000  0.15324000  1.0 0.1239136899
C  C23  1  0.76203000  0.15324000  0.58183000  1.0 0.1273122548
C  C24  1  0.15324000  0.58183000  0.76203000  1.0 0.1239136899
C  C25  1  0.59775000  0.32610000  0.26465000  1.0 -0.4128666029
C  C26  1  0.32610000  0.26465000  0.59775000  1.0 -0.4128666029
C  C27  1  0.26465000  0.59775000  0.32610000  1.0 -0.4128666029
C  C28  1  0.67390000  0.73535000  0.40225000  1.0 -0.4128666029
C  C29  1  0.73535000  0.40225000  0.67390000  1.0 -0.4128666029
C  C30  1  0.40225000  0.67390000  0.73535000  1.0 -0.4128666029
C  C31  1  0.96550000  0.49740000  0.25900000  1.0 -0.4369021113
C  C32  1  0.49740000  0.25900000  0.96550000  1.0 -0.4369021113
C  C33  1  0.25900000  0.96550000  0.49740000  1.0 -0.4369021113
C  C34  1  0.50260000  0.74100000  0.03450000  1.0 -0.4369021113
C  C35  1  0.74100000  0.03450000  0.50260000  1.0 -0.4369021113
C  C36  1  0.03450000  0.50260000  0.74100000  1.0 -0.4369021113
C  C37  1  0.91613000  0.68187000  0.51240000  1.0 0.1374928873
C  C38  1  0.68187000  0.51240000  0.91613000  1.0 0.1374928873
C  C39  1  0.51240000  0.91613000  0.68187000  1.0 0.1374928873
C  C40  1  0.31813000  0.48760000  0.08387000  1.0 0.1374928873
C  C41  1  0.48760000  0.08387000  0.31813000  1.0 0.1374928873
C  C42  1  0.08387000  0.31813000  0.48760000  1.0 0.1273122548
C  C43  1  0.85962000  0.59914000  0.38104000  1.0 -0.11243688
C  C44  1  0.59914000  0.38104000  0.85962000  1.0 -0.11243688
C  C45  1  0.38104000  0.85962000  0.59914000  1.0 -0.11243688
C  C46  1  0.40086000  0.61896000  0.14038000  1.0 -0.11243688
C  C47  1  0.61896000  0.14038000  0.40086000  1.0 -0.11243688
C  C48  1  0.14038000  0.40086000  0.61896000  1.0 -0.11243688
C  C49  1  0.88412000  0.68452000  0.35636000  1.0 0.1507928117
C  C50  1  0.68452000  0.35636000  0.88412000  1.0 0.1507928117
C  C51  1  0.35636000  0.88412000  0.68452000  1.0 0.1507928117
C  C52  1  0.31548000  0.64364000  0.11588000  1.0 0.1507928117
C  C53  1  0.64364000  0.11588000  0.31548000  1.0 0.1507928117
C  C54  1  0.11588000  0.31548000  0.64364000  1.0 0.1507928117
C  C55  1  0.92655000  0.65220000  0.59765000  1.0 -0.4042453921
C  C56  1  0.65220000  0.59765000  0.92655000  1.0 -0.4042453921
C  C57  1  0.59765000  0.92655000  0.65220000  1.0 -0.4042453921
C  C58  1  0.34780000  0.40235000  0.07345000  1.0 -0.4042453921
C  C59  1  0.40235000  0.07345000  0.34780000  1.0 -0.4042453921
C  C60  1  0.07345000  0.34780000  0.40235000  1.0 -0.4042453921
C  C61  1  0.84002000  0.64540000  0.22748000  1.0 -0.4287912802
C  C62  1  0.64540000  0.22748000  0.84002000  1.0 -0.4287912802
C  C63  1  0.22748000  0.84002000  0.64540000  1.0 -0.4287912802
C  C64  1  0.35460000  0.77252000  0.15998000  1.0 -0.4287912802
C  C65  1  0.77252000  0.15998000  0.35460000  1.0 -0.4287912802
C  C66  1  0.15998000  0.35460000  0.77252000  1.0 -0.4287912802
S  S1  1  0.82028000  0.95455000  0.09816000  1.0 -0.3100810802
S  S2  1  0.95455000  0.09816000  0.82028000  1.0 -0.3100810802
S  S3  1  0.09816000  0.82028000  0.95455000  1.0 -0.3100810802
S  S4  1  0.04545000  0.90184000  0.17972000  1.0 -0.3100810802
S  S5  1  0.90184000  0.17972000  0.04545000  1.0 -0.3100810802
S  S6  1  0.17972000  0.04545000  0.90184000  1.0 -0.3100810802
N  N1  1  0.65753000  0.00818000  0.05299000  1.0 -0.4528644438
N  N2  1  0.00818000  0.05299000  0.65753000  1.0 -0.4528644438
N  N3  1  0.05299000  0.65753000  0.00818000  1.0 -0.4528644438
N  N4  1  0.99182000  0.94701000  0.34247000  1.0 -0.4528644438
N  N5  1  0.94701000  0.34247000  0.99182000  1.0 -0.4528644438
N  N6  1  0.34247000  0.99182000  0.94701000  1.0 -0.4528644438
N  N7  1  0.66052000  0.22908000  0.15310000  1.0 -0.1822584327
N  N8  1  0.22908000  0.15310000  0.66052000  1.0 -0.1822584327
N  N9  1  0.15310000  0.66052000  0.22908000  1.0 -0.1822584327
N  N10  1  0.77092000  0.84690000  0.33948000  1.0 -0.1822584327
N  N11  1  0.84690000  0.33948000  0.77092000  1.0 -0.1822584327
N  N12  1  0.33948000  0.77092000  0.84690000  1.0 -0.1822584327
N  N13  1  0.76080000  0.28200000  0.15620000  1.0 -0.2896401987
N  N14  1  0.28200000  0.15620000  0.76080000  1.0 -0.2896401987
N  N15  1  0.15620000  0.76080000  0.28200000  1.0 -0.2896401987
N  N16  1  0.71800000  0.84380000  0.23920000  1.0 -0.2896401987
N  N17  1  0.84380000  0.23920000  0.71800000  1.0 -0.2896401987
N  N18  1  0.23920000  0.71800000  0.84380000  1.0 -0.2896401987
N  N19  1  0.95036000  0.80989000  0.46475000  1.0 -0.2008746868
N  N20  1  0.80989000  0.46475000  0.95036000  1.0 -0.2008746868
N  N21  1  0.46475000  0.95036000  0.80989000  1.0 -0.2008746868
N  N22  1  0.19011000  0.53525000  0.04964000  1.0 -0.2008746868
N  N23  1  0.53525000  0.04964000  0.19011000  1.0 -0.2008746868
N  N24  1  0.04964000  0.19011000  0.53525000  1.0 -0.2008746868
N  N25  1  0.96800000  0.80447000  0.55873000  1.0 -0.2896401987
N  N26  1  0.80447000  0.55873000  0.96800000  1.0 -0.2896401987
N  N27  1  0.55873000  0.96800000  0.80447000  1.0 -0.2896401987
N  N28  1  0.19553000  0.44127000  0.03200000  1.0 -0.2896401987
N  N29  1  0.44127000  0.03200000  0.19553000  1.0 -0.2896401987
N  N30  1  0.03200000  0.19553000  0.44127000  1.0 -0.2896401987
