# DDEC6 charges by PACMAN v1.1 (https://github.com/mtap-research/PACMAN-charge/)
data_HAJMEL_FSR_pacman
_symmetry_space_group_name_H-M   'P 1'
_cell_length_a   15.14860000
_cell_length_b   15.14860000
_cell_length_c   15.14860000
_cell_angle_alpha   114.31600000
_cell_angle_beta   114.31600000
_cell_angle_gamma   114.31600000
_symmetry_Int_Tables_number   1
_chemical_formula_structural   FeH52C22(SN5)2
_chemical_formula_sum   'Fe3 H156 C66 S6 N30'
_cell_volume   2061.61254380
_cell_formula_units_Z   3
loop_
 _symmetry_equiv_pos_site_id
 _symmetry_equiv_pos_as_xyz
  1  'x, y, z'
loop_
 _atom_site_type_symbol
 _atom_site_label
 _atom_site_symmetry_multiplicity
 _atom_site_fract_x
 _atom_site_fract_y
 _atom_site_fract_z
 _atom_site_occupancy
 _atom_site_charge
Fe  Fe1  1  0.50000000  0.00000000  0.00000000  1.0 0.7087267663
Fe  Fe2  1  0.00000000  0.00000000  0.50000000  1.0 0.7087267663
Fe  Fe3  1  0.00000000  0.50000000  0.00000000  1.0 0.7087267663
H  H1  1  0.52300000  0.23120000  0.21020000  1.0 0.0715866711
H  H2  1  0.23120000  0.21020000  0.52300000  1.0 0.0715866711
H  H3  1  0.21020000  0.52300000  0.23120000  1.0 0.0715866711
H  H4  1  0.76880000  0.78980000  0.47700000  1.0 0.0715866711
H  H5  1  0.78980000  0.47700000  0.76880000  1.0 0.0715866711
H  H6  1  0.47700000  0.76880000  0.78980000  1.0 0.0715866711
H  H7  1  0.64790000  0.37930000  0.35510000  1.0 0.0813784675
H  H8  1  0.37930000  0.35510000  0.64790000  1.0 0.0813784675
H  H9  1  0.35510000  0.64790000  0.37930000  1.0 0.0813784675
H  H10  1  0.62070000  0.64490000  0.35210000  1.0 0.0813784675
H  H11  1  0.64490000  0.35210000  0.62070000  1.0 0.0813784675
H  H12  1  0.35210000  0.62070000  0.64490000  1.0 0.0813784675
H  H13  1  0.55480000  0.35420000  0.23090000  1.0 0.0813784675
H  H14  1  0.35420000  0.23090000  0.55480000  1.0 0.0813784675
H  H15  1  0.23090000  0.55480000  0.35420000  1.0 0.0813784675
H  H16  1  0.64580000  0.76910000  0.44520000  1.0 0.0813784675
H  H17  1  0.76910000  0.44520000  0.64580000  1.0 0.0813784675
H  H18  1  0.44520000  0.64580000  0.76910000  1.0 0.0813784675
H  H19  1  0.96550000  0.43680000  0.20710000  1.0 0.0715866711
H  H20  1  0.43680000  0.20710000  0.96550000  1.0 0.0715866711
H  H21  1  0.20710000  0.96550000  0.43680000  1.0 0.0715866711
H  H22  1  0.56320000  0.79290000  0.03450000  1.0 0.0715866711
H  H23  1  0.79290000  0.03450000  0.56320000  1.0 0.0715866711
H  H24  1  0.03450000  0.56320000  0.79290000  1.0 0.0715866711
H  H25  1  0.95510000  0.54160000  0.23090000  1.0 0.0813784675
H  H26  1  0.54160000  0.23090000  0.95510000  1.0 0.0813784675
H  H27  1  0.23090000  0.95510000  0.54160000  1.0 0.0813784675
H  H28  1  0.45840000  0.76910000  0.04490000  1.0 0.0813784675
H  H29  1  0.76910000  0.04490000  0.45840000  1.0 0.0813784675
H  H30  1  0.04490000  0.45840000  0.76910000  1.0 0.0813784675
H  H31  1  0.04440000  0.56340000  0.35380000  1.0 0.0813784675
H  H32  1  0.56340000  0.35380000  0.04440000  1.0 0.0813784675
H  H33  1  0.35380000  0.04440000  0.56340000  1.0 0.0813784675
H  H34  1  0.43660000  0.64620000  0.95560000  1.0 0.0813784675
H  H35  1  0.64620000  0.95560000  0.43660000  1.0 0.0813784675
H  H36  1  0.95560000  0.43660000  0.64620000  1.0 0.0813784675
H  H37  1  0.97340000  0.73170000  0.68460000  1.0 0.0715866711
H  H38  1  0.73170000  0.68460000  0.97340000  1.0 0.0715866711
H  H39  1  0.68460000  0.97340000  0.73170000  1.0 0.0715866711
H  H40  1  0.26830000  0.31540000  0.02660000  1.0 0.0715866711
H  H41  1  0.31540000  0.02660000  0.26830000  1.0 0.0715866711
H  H42  1  0.02660000  0.26830000  0.31540000  1.0 0.0715866711
H  H43  1  0.84030000  0.57790000  0.55420000  1.0 0.0890037433
H  H44  1  0.57790000  0.55420000  0.84030000  1.0 0.0890037433
H  H45  1  0.55420000  0.84030000  0.57790000  1.0 0.0890037433
H  H46  1  0.42210000  0.44580000  0.15970000  1.0 0.0890037433
H  H47  1  0.44580000  0.15970000  0.42210000  1.0 0.0890037433
H  H48  1  0.15970000  0.42210000  0.44580000  1.0 0.0890037433
H  H49  1  0.98140000  0.63090000  0.61090000  1.0 0.0890037433
H  H50  1  0.63090000  0.61090000  0.98140000  1.0 0.0890037433
H  H51  1  0.61090000  0.98140000  0.63090000  1.0 0.0890037433
H  H52  1  0.36910000  0.38910000  0.01860000  1.0 0.0890037433
H  H53  1  0.38910000  0.01860000  0.36910000  1.0 0.0890037433
H  H54  1  0.01860000  0.36910000  0.38910000  1.0 0.0890037433
H  H55  1  0.86460000  0.71960000  0.24000000  1.0 0.0715866711
H  H56  1  0.71960000  0.24000000  0.86460000  1.0 0.0715866711
H  H57  1  0.24000000  0.86460000  0.71960000  1.0 0.0715866711
H  H58  1  0.28040000  0.76000000  0.13540000  1.0 0.0715866711
H  H59  1  0.76000000  0.13540000  0.28040000  1.0 0.0715866711
H  H60  1  0.13540000  0.28040000  0.76000000  1.0 0.0715866711
H  H61  1  0.87210000  0.61160000  0.20340000  1.0 0.0813784675
H  H62  1  0.61160000  0.20340000  0.87210000  1.0 0.0813784675
H  H63  1  0.20340000  0.87210000  0.61160000  1.0 0.0813784675
H  H64  1  0.38840000  0.79660000  0.12790000  1.0 0.0813784675
H  H65  1  0.79660000  0.12790000  0.38840000  1.0 0.0813784675
H  H66  1  0.12790000  0.38840000  0.79660000  1.0 0.0813784675
H  H67  1  0.73730000  0.57090000  0.15630000  1.0 0.0890037433
H  H68  1  0.57090000  0.15630000  0.73730000  1.0 0.0890037433
H  H69  1  0.15630000  0.73730000  0.57090000  1.0 0.0890037433
H  H70  1  0.42910000  0.84370000  0.26270000  1.0 0.0890037433
H  H71  1  0.84370000  0.26270000  0.42910000  1.0 0.0890037433
H  H72  1  0.26270000  0.42910000  0.84370000  1.0 0.0890037433
H  H73  1  0.00910000  0.86970000  0.63720000  1.0 0.2757483548
H  H74  1  0.86970000  0.63720000  0.00910000  1.0 0.2757483548
H  H75  1  0.63720000  0.00910000  0.86970000  1.0 0.2757483548
H  H76  1  0.13030000  0.36280000  0.99090000  1.0 0.2757483548
H  H77  1  0.36280000  0.99090000  0.13030000  1.0 0.2757483548
H  H78  1  0.99090000  0.13030000  0.36280000  1.0 0.2757483548
H  H79  1  0.76730000  0.23490000  0.11250000  1.0 0.2921687688
H  H80  1  0.23490000  0.11250000  0.76730000  1.0 0.2921687688
H  H81  1  0.11250000  0.76730000  0.23490000  1.0 0.2921687688
H  H82  1  0.76510000  0.88750000  0.23270000  1.0 0.2921687688
H  H83  1  0.88750000  0.23270000  0.76510000  1.0 0.2921687688
H  H84  1  0.23270000  0.76510000  0.88750000  1.0 0.2921687688
H  H85  1  0.62750000  0.41200000  0.32060000  1.0 0.0813784675
H  H86  1  0.41200000  0.32060000  0.62750000  1.0 0.0813784675
H  H87  1  0.32060000  0.62750000  0.41200000  1.0 0.0813784675
H  H88  1  0.58800000  0.67940000  0.37250000  1.0 0.0813784675
H  H89  1  0.67940000  0.37250000  0.58800000  1.0 0.0813784675
H  H90  1  0.37250000  0.58800000  0.67940000  1.0 0.0813784675
H  H91  1  0.50260000  0.26390000  0.17570000  1.0 0.0813784675
H  H92  1  0.26390000  0.17570000  0.50260000  1.0 0.0813784675
H  H93  1  0.17570000  0.50260000  0.26390000  1.0 0.0813784675
H  H94  1  0.73610000  0.82430000  0.49740000  1.0 0.0813784675
H  H95  1  0.82430000  0.49740000  0.73610000  1.0 0.0813784675
H  H96  1  0.49740000  0.73610000  0.82430000  1.0 0.0813784675
H  H97  1  0.59550000  0.28890000  0.29990000  1.0 0.0813784675
H  H98  1  0.28890000  0.29990000  0.59550000  1.0 0.0813784675
H  H99  1  0.29990000  0.59550000  0.28890000  1.0 0.0813784675
H  H100  1  0.71110000  0.70010000  0.40450000  1.0 0.0813784675
H  H101  1  0.70010000  0.40450000  0.71110000  1.0 0.0813784675
H  H102  1  0.40450000  0.71110000  0.70010000  1.0 0.0813784675
H  H103  1  0.01130000  0.59110000  0.32080000  1.0 0.0813784675
H  H104  1  0.59110000  0.32080000  0.01130000  1.0 0.0813784675
H  H105  1  0.32080000  0.01130000  0.59110000  1.0 0.0813784675
H  H106  1  0.40890000  0.67920000  0.98870000  1.0 0.0813784675
H  H107  1  0.67920000  0.98870000  0.40890000  1.0 0.0813784675
H  H108  1  0.98870000  0.40890000  0.67920000  1.0 0.0813784675
H  H109  1  0.02160000  0.48630000  0.29710000  1.0 0.0890037433
H  H110  1  0.48630000  0.29710000  0.02160000  1.0 0.0890037433
H  H111  1  0.29710000  0.02160000  0.48630000  1.0 0.0890037433
H  H112  1  0.51370000  0.70290000  0.97840000  1.0 0.0890037433
H  H113  1  0.70290000  0.97840000  0.51370000  1.0 0.0890037433
H  H114  1  0.97840000  0.51370000  0.70290000  1.0 0.0890037433
H  H115  1  0.93230000  0.46450000  0.17420000  1.0 0.0813784675
H  H116  1  0.46450000  0.17420000  0.93230000  1.0 0.0813784675
H  H117  1  0.17420000  0.93230000  0.46450000  1.0 0.0813784675
H  H118  1  0.53550000  0.82580000  0.06770000  1.0 0.0813784675
H  H119  1  0.82580000  0.06770000  0.53550000  1.0 0.0813784675
H  H120  1  0.06770000  0.53550000  0.82580000  1.0 0.0813784675
H  H121  1  0.89010000  0.56180000  0.54840000  1.0 0.0890037433
H  H122  1  0.56180000  0.54840000  0.89010000  1.0 0.0890037433
H  H123  1  0.54840000  0.89010000  0.56180000  1.0 0.0890037433
H  H124  1  0.43820000  0.45160000  0.10990000  1.0 0.0890037433
H  H125  1  0.45160000  0.10990000  0.43820000  1.0 0.0890037433
H  H126  1  0.10990000  0.43820000  0.45160000  1.0 0.0890037433
H  H127  1  0.02300000  0.71570000  0.67890000  1.0 0.0890037433
H  H128  1  0.71570000  0.67890000  0.02300000  1.0 0.0890037433
H  H129  1  0.67890000  0.02300000  0.71570000  1.0 0.0890037433
H  H130  1  0.28430000  0.32110000  0.97700000  1.0 0.0890037433
H  H131  1  0.32110000  0.97700000  0.28430000  1.0 0.0890037433
H  H132  1  0.97700000  0.28430000  0.32110000  1.0 0.0890037433
H  H133  1  0.88190000  0.66270000  0.62220000  1.0 0.0813784675
H  H134  1  0.66270000  0.62220000  0.88190000  1.0 0.0813784675
H  H135  1  0.62220000  0.88190000  0.66270000  1.0 0.0813784675
H  H136  1  0.33730000  0.37780000  0.11810000  1.0 0.0813784675
H  H137  1  0.37780000  0.11810000  0.33730000  1.0 0.0813784675
H  H138  1  0.11810000  0.33730000  0.37780000  1.0 0.0813784675
H  H139  1  0.78470000  0.54850000  0.15980000  1.0 0.0813784675
H  H140  1  0.54850000  0.15980000  0.78470000  1.0 0.0813784675
H  H141  1  0.15980000  0.78470000  0.54850000  1.0 0.0813784675
H  H142  1  0.45150000  0.84020000  0.21530000  1.0 0.0813784675
H  H143  1  0.84020000  0.21530000  0.45150000  1.0 0.0813784675
H  H144  1  0.21530000  0.45150000  0.84020000  1.0 0.0813784675
H  H145  1  0.77720000  0.65650000  0.19640000  1.0 0.0890037433
H  H146  1  0.65650000  0.19640000  0.77720000  1.0 0.0890037433
H  H147  1  0.19640000  0.77720000  0.65650000  1.0 0.0890037433
H  H148  1  0.34350000  0.80360000  0.22280000  1.0 0.0890037433
H  H149  1  0.80360000  0.22280000  0.34350000  1.0 0.0890037433
H  H150  1  0.22280000  0.34350000  0.80360000  1.0 0.0890037433
H  H151  1  0.91200000  0.69720000  0.24350000  1.0 0.0813784675
H  H152  1  0.69720000  0.24350000  0.91200000  1.0 0.0813784675
H  H153  1  0.24350000  0.91200000  0.69720000  1.0 0.0813784675
H  H154  1  0.30280000  0.75650000  0.08800000  1.0 0.0813784675
H  H155  1  0.75650000  0.08800000  0.30280000  1.0 0.0813784675
H  H156  1  0.08800000  0.30280000  0.75650000  1.0 0.0813784675
C  C1  1  0.72391000  0.98795000  0.07314000  1.0 0.1393620274
C  C2  1  0.98795000  0.07314000  0.72391000  1.0 0.1393620274
C  C3  1  0.07314000  0.72391000  0.98795000  1.0 0.1393620274
C  C4  1  0.01205000  0.92686000  0.27609000  1.0 0.1393620274
C  C5  1  0.92686000  0.27609000  0.01205000  1.0 0.1393620274
C  C6  1  0.27609000  0.01205000  0.92686000  1.0 0.1393620274
C  C7  1  0.68142000  0.33687000  0.23411000  1.0 0.1665023691
C  C8  1  0.33687000  0.23411000  0.68142000  1.0 0.1665023691
C  C9  1  0.23411000  0.68142000  0.33687000  1.0 0.1665023691
C  C10  1  0.66313000  0.76589000  0.31858000  1.0 0.1665023691
C  C11  1  0.76589000  0.31858000  0.66313000  1.0 0.1665023691
C  C12  1  0.31858000  0.66313000  0.76589000  1.0 0.1665023691
C  C13  1  0.79798000  0.45812000  0.29030000  1.0 -0.0965447002
C  C14  1  0.45812000  0.29030000  0.79798000  1.0 -0.0965447002
C  C15  1  0.29030000  0.79798000  0.45812000  1.0 -0.0965447002
C  C16  1  0.54188000  0.70970000  0.20202000  1.0 -0.0965447002
C  C17  1  0.70970000  0.20202000  0.54188000  1.0 -0.0965447002
C  C18  1  0.20202000  0.54188000  0.70970000  1.0 -0.0965447002
C  C19  1  0.84426000  0.41810000  0.23814000  1.0 0.1197413684
C  C20  1  0.41810000  0.23814000  0.84426000  1.0 0.1197413684
C  C21  1  0.23814000  0.84426000  0.41810000  1.0 0.1197413684
C  C22  1  0.58190000  0.76186000  0.15574000  1.0 0.1197413684
C  C23  1  0.76186000  0.15574000  0.58190000  1.0 0.1197413684
C  C24  1  0.15574000  0.58190000  0.76186000  1.0 0.1197413684
C  C25  1  0.59410000  0.32430000  0.25990000  1.0 -0.4086931819
C  C26  1  0.32430000  0.25990000  0.59410000  1.0 -0.4086931819
C  C27  1  0.25990000  0.59410000  0.32430000  1.0 -0.4086931819
C  C28  1  0.67570000  0.74010000  0.40590000  1.0 -0.4086931819
C  C29  1  0.74010000  0.40590000  0.67570000  1.0 -0.4086931819
C  C30  1  0.40590000  0.67570000  0.74010000  1.0 -0.4086931819
C  C31  1  0.96280000  0.49700000  0.25940000  1.0 -0.4367272132
C  C32  1  0.49700000  0.25940000  0.96280000  1.0 -0.4367272132
C  C33  1  0.25940000  0.96280000  0.49700000  1.0 -0.4367272132
C  C34  1  0.50300000  0.74060000  0.03720000  1.0 -0.4367272132
C  C35  1  0.74060000  0.03720000  0.50300000  1.0 -0.4367272132
C  C36  1  0.03720000  0.50300000  0.74060000  1.0 -0.4367272132
C  C37  1  0.91640000  0.68050000  0.51200000  1.0 0.1197413684
C  C38  1  0.68050000  0.51200000  0.91640000  1.0 0.1197413684
C  C39  1  0.51200000  0.91640000  0.68050000  1.0 0.1197413684
C  C40  1  0.31950000  0.48800000  0.08360000  1.0 0.1197413684
C  C41  1  0.48800000  0.08360000  0.31950000  1.0 0.1318637896
C  C42  1  0.08360000  0.31950000  0.48800000  1.0 0.1197413684
C  C43  1  0.85845000  0.59815000  0.38110000  1.0 -0.1135092985
C  C44  1  0.59815000  0.38110000  0.85845000  1.0 -0.1135092985
C  C45  1  0.38110000  0.85845000  0.59815000  1.0 -0.1135092985
C  C46  1  0.40185000  0.61890000  0.14155000  1.0 -0.1135092985
C  C47  1  0.61890000  0.14155000  0.40185000  1.0 -0.1135092985
C  C48  1  0.14155000  0.40185000  0.61890000  1.0 -0.1135092985
C  C49  1  0.88060000  0.68091000  0.35569000  1.0 0.1318637896
C  C50  1  0.68091000  0.35569000  0.88060000  1.0 0.1318637896
C  C51  1  0.35569000  0.88060000  0.68091000  1.0 0.1318637896
C  C52  1  0.31909000  0.64431000  0.11940000  1.0 0.1318637896
C  C53  1  0.64431000  0.11940000  0.31909000  1.0 0.1318637896
C  C54  1  0.11940000  0.31909000  0.64431000  1.0 0.1318637896
C  C55  1  0.92900000  0.65270000  0.59800000  1.0 -0.4018679335
C  C56  1  0.65270000  0.59800000  0.92900000  1.0 -0.4018679335
C  C57  1  0.59800000  0.92900000  0.65270000  1.0 -0.4018679335
C  C58  1  0.34730000  0.40200000  0.07100000  1.0 -0.4018679335
C  C59  1  0.40200000  0.07100000  0.34730000  1.0 -0.4018679335
C  C60  1  0.07100000  0.34730000  0.40200000  1.0 -0.4018679335
C  C61  1  0.83460000  0.64240000  0.22750000  1.0 -0.4228640322
C  C62  1  0.64240000  0.22750000  0.83460000  1.0 -0.4228640322
C  C63  1  0.22750000  0.83460000  0.64240000  1.0 -0.4228640322
C  C64  1  0.35760000  0.77250000  0.16540000  1.0 -0.4228640322
C  C65  1  0.77250000  0.16540000  0.35760000  1.0 -0.4228640322
C  C66  1  0.16540000  0.35760000  0.77250000  1.0 -0.4228640322
S  S1  1  0.81548000  0.95485000  0.09828000  1.0 -0.3023956839
S  S2  1  0.95485000  0.09828000  0.81548000  1.0 -0.3023956839
S  S3  1  0.09828000  0.81548000  0.95485000  1.0 -0.3023956839
S  S4  1  0.04515000  0.90172000  0.18452000  1.0 -0.3023956839
S  S5  1  0.90172000  0.18452000  0.04515000  1.0 -0.3023956839
S  S6  1  0.18452000  0.04515000  0.90172000  1.0 -0.3023956839
N  N1  1  0.65675000  0.01016000  0.05299000  1.0 -0.455090242
N  N2  1  0.01016000  0.05299000  0.65675000  1.0 -0.455090242
N  N3  1  0.05299000  0.65675000  0.01016000  1.0 -0.455090242
N  N4  1  0.98984000  0.94701000  0.34325000  1.0 -0.455090242
N  N5  1  0.94701000  0.34325000  0.98984000  1.0 -0.4545039111
N  N6  1  0.34325000  0.98984000  0.94701000  1.0 -0.4545039111
N  N7  1  0.65838000  0.23018000  0.15234000  1.0 -0.181149577
N  N8  1  0.23018000  0.15234000  0.65838000  1.0 -0.181149577
N  N9  1  0.15234000  0.65838000  0.23018000  1.0 -0.181149577
N  N10  1  0.76982000  0.84766000  0.34162000  1.0 -0.181149577
N  N11  1  0.84766000  0.34162000  0.76982000  1.0 -0.181149577
N  N12  1  0.34162000  0.76982000  0.84766000  1.0 -0.181149577
N  N13  1  0.75876000  0.28261000  0.15673000  1.0 -0.2854755992
N  N14  1  0.28261000  0.15673000  0.75876000  1.0 -0.2854755992
N  N15  1  0.15673000  0.75876000  0.28261000  1.0 -0.2854755992
N  N16  1  0.71739000  0.84327000  0.24124000  1.0 -0.2854755992
N  N17  1  0.84327000  0.24124000  0.71739000  1.0 -0.2854755992
N  N18  1  0.24124000  0.71739000  0.84327000  1.0 -0.2854755992
N  N19  1  0.94945000  0.80727000  0.46468000  1.0 -0.181149577
N  N20  1  0.80727000  0.46468000  0.94945000  1.0 -0.181149577
N  N21  1  0.46468000  0.94945000  0.80727000  1.0 -0.181149577
N  N22  1  0.19273000  0.53532000  0.05055000  1.0 -0.181149577
N  N23  1  0.53532000  0.05055000  0.19273000  1.0 -0.181149577
N  N24  1  0.05055000  0.19273000  0.53532000  1.0 -0.181149577
N  N25  1  0.96803000  0.80177000  0.55720000  1.0 -0.283533203
N  N26  1  0.80177000  0.55720000  0.96803000  1.0 -0.283533203
N  N27  1  0.55720000  0.96803000  0.80177000  1.0 -0.283533203
N  N28  1  0.19823000  0.44280000  0.03197000  1.0 -0.283533203
N  N29  1  0.44280000  0.03197000  0.19823000  1.0 -0.283533203
N  N30  1  0.03197000  0.19823000  0.44280000  1.0 -0.283533203
