# DDEC6 charges by PACMAN v1.1 (https://github.com/mtap-research/PACMAN-charge/)
data_HAJMAH_FSR_pacman
_symmetry_space_group_name_H-M   'P 1'
_cell_length_a   15.17580000
_cell_length_b   15.17580000
_cell_length_c   15.17580000
_cell_angle_alpha   114.31900000
_cell_angle_beta   114.31900000
_cell_angle_gamma   114.31900000
_symmetry_Int_Tables_number   1
_chemical_formula_structural   FeH52C22(SN5)2
_chemical_formula_sum   'Fe3 H156 C66 S6 N30'
_cell_volume   2072.24715525
_cell_formula_units_Z   3
loop_
 _symmetry_equiv_pos_site_id
 _symmetry_equiv_pos_as_xyz
  1  'x, y, z'
loop_
 _atom_site_type_symbol
 _atom_site_label
 _atom_site_symmetry_multiplicity
 _atom_site_fract_x
 _atom_site_fract_y
 _atom_site_fract_z
 _atom_site_occupancy
 _atom_site_charge
Fe  Fe1  1  0.50000000  0.00000000  0.00000000  1.0 0.7063996925
Fe  Fe2  1  0.00000000  0.00000000  0.50000000  1.0 0.7063996925
Fe  Fe3  1  0.00000000  0.50000000  0.00000000  1.0 0.7063996925
H  H1  1  0.76680000  0.23510000  0.11130000  1.0 0.2916349902
H  H2  1  0.23510000  0.11130000  0.76680000  1.0 0.2916349902
H  H3  1  0.11130000  0.76680000  0.23510000  1.0 0.2916349902
H  H4  1  0.76490000  0.88870000  0.23320000  1.0 0.2916349902
H  H5  1  0.88870000  0.23320000  0.76490000  1.0 0.2916349902
H  H6  1  0.23320000  0.76490000  0.88870000  1.0 0.2916349902
H  H7  1  0.52340000  0.23170000  0.21020000  1.0 0.0709060602
H  H8  1  0.23170000  0.21020000  0.52340000  1.0 0.0709060602
H  H9  1  0.21020000  0.52340000  0.23170000  1.0 0.0709060602
H  H10  1  0.76830000  0.78980000  0.47660000  1.0 0.0709060602
H  H11  1  0.78980000  0.47660000  0.76830000  1.0 0.0709060602
H  H12  1  0.47660000  0.76830000  0.78980000  1.0 0.0709060602
H  H13  1  0.64790000  0.37960000  0.35480000  1.0 0.080544258
H  H14  1  0.37960000  0.35480000  0.64790000  1.0 0.080544258
H  H15  1  0.35480000  0.64790000  0.37960000  1.0 0.080544258
H  H16  1  0.62040000  0.64520000  0.35210000  1.0 0.080544258
H  H17  1  0.64520000  0.35210000  0.62040000  1.0 0.080544258
H  H18  1  0.35210000  0.62040000  0.64520000  1.0 0.080544258
H  H19  1  0.55540000  0.35450000  0.23060000  1.0 0.080544258
H  H20  1  0.35450000  0.23060000  0.55540000  1.0 0.080544258
H  H21  1  0.23060000  0.55540000  0.35450000  1.0 0.080544258
H  H22  1  0.64550000  0.76940000  0.44460000  1.0 0.080544258
H  H23  1  0.76940000  0.44460000  0.64550000  1.0 0.080544258
H  H24  1  0.44460000  0.64550000  0.76940000  1.0 0.080544258
H  H25  1  0.96570000  0.43650000  0.20810000  1.0 0.0709060602
H  H26  1  0.43650000  0.20810000  0.96570000  1.0 0.0709060602
H  H27  1  0.20810000  0.96570000  0.43650000  1.0 0.0709060602
H  H28  1  0.56350000  0.79190000  0.03430000  1.0 0.0709060602
H  H29  1  0.79190000  0.03430000  0.56350000  1.0 0.0709060602
H  H30  1  0.03430000  0.56350000  0.79190000  1.0 0.0709060602
H  H31  1  0.95640000  0.54200000  0.23250000  1.0 0.080544258
H  H32  1  0.54200000  0.23250000  0.95640000  1.0 0.080544258
H  H33  1  0.23250000  0.95640000  0.54200000  1.0 0.080544258
H  H34  1  0.45800000  0.76750000  0.04360000  1.0 0.080544258
H  H35  1  0.76750000  0.04360000  0.45800000  1.0 0.080544258
H  H36  1  0.04360000  0.45800000  0.76750000  1.0 0.080544258
H  H37  1  0.04420000  0.56250000  0.35460000  1.0 0.080544258
H  H38  1  0.56250000  0.35460000  0.04420000  1.0 0.080544258
H  H39  1  0.35460000  0.04420000  0.56250000  1.0 0.080544258
H  H40  1  0.43750000  0.64540000  0.95580000  1.0 0.080544258
H  H41  1  0.64540000  0.95580000  0.43750000  1.0 0.080544258
H  H42  1  0.95580000  0.43750000  0.64540000  1.0 0.080544258
H  H43  1  0.97310000  0.73180000  0.68390000  1.0 0.0709060602
H  H44  1  0.73180000  0.68390000  0.97310000  1.0 0.0709060602
H  H45  1  0.68390000  0.97310000  0.73180000  1.0 0.0709060602
H  H46  1  0.26820000  0.31610000  0.02690000  1.0 0.0709060602
H  H47  1  0.31610000  0.02690000  0.26820000  1.0 0.0709060602
H  H48  1  0.02690000  0.26820000  0.31610000  1.0 0.0709060602
H  H49  1  0.84020000  0.57810000  0.55380000  1.0 0.0876559639
H  H50  1  0.57810000  0.55380000  0.84020000  1.0 0.0876559639
H  H51  1  0.55380000  0.84020000  0.57810000  1.0 0.0876559639
H  H52  1  0.42190000  0.44620000  0.15980000  1.0 0.0876559639
H  H53  1  0.44620000  0.15980000  0.42190000  1.0 0.0876559639
H  H54  1  0.15980000  0.42190000  0.44620000  1.0 0.0876559639
H  H55  1  0.98100000  0.63080000  0.61050000  1.0 0.0876559639
H  H56  1  0.63080000  0.61050000  0.98100000  1.0 0.0876559639
H  H57  1  0.61050000  0.98100000  0.63080000  1.0 0.0876559639
H  H58  1  0.36920000  0.38950000  0.01900000  1.0 0.0876559639
H  H59  1  0.38950000  0.01900000  0.36920000  1.0 0.0876559639
H  H60  1  0.01900000  0.36920000  0.38950000  1.0 0.0876559639
H  H61  1  0.86460000  0.71980000  0.23980000  1.0 0.0709060602
H  H62  1  0.71980000  0.23980000  0.86460000  1.0 0.0709060602
H  H63  1  0.23980000  0.86460000  0.71980000  1.0 0.0709060602
H  H64  1  0.28020000  0.76020000  0.13540000  1.0 0.0709060602
H  H65  1  0.76020000  0.13540000  0.28020000  1.0 0.0709060602
H  H66  1  0.13540000  0.28020000  0.76020000  1.0 0.0709060602
H  H67  1  0.87190000  0.61180000  0.20310000  1.0 0.080544258
H  H68  1  0.61180000  0.20310000  0.87190000  1.0 0.080544258
H  H69  1  0.20310000  0.87190000  0.61180000  1.0 0.080544258
H  H70  1  0.38820000  0.79690000  0.12810000  1.0 0.080544258
H  H71  1  0.79690000  0.12810000  0.38820000  1.0 0.080544258
H  H72  1  0.12810000  0.38820000  0.79690000  1.0 0.080544258
H  H73  1  0.73740000  0.57130000  0.15610000  1.0 0.0876559639
H  H74  1  0.57130000  0.15610000  0.73740000  1.0 0.0876559639
H  H75  1  0.15610000  0.73740000  0.57130000  1.0 0.0876559639
H  H76  1  0.42870000  0.84390000  0.26260000  1.0 0.0876559639
H  H77  1  0.84390000  0.26260000  0.42870000  1.0 0.0876559639
H  H78  1  0.26260000  0.42870000  0.84390000  1.0 0.0876559639
H  H79  1  0.00840000  0.86900000  0.63710000  1.0 0.2732937172
H  H80  1  0.86900000  0.63710000  0.00840000  1.0 0.2732937172
H  H81  1  0.63710000  0.00840000  0.86900000  1.0 0.2732937172
H  H82  1  0.13100000  0.36290000  0.99160000  1.0 0.2732937172
H  H83  1  0.36290000  0.99160000  0.13100000  1.0 0.2732937172
H  H84  1  0.99160000  0.13100000  0.36290000  1.0 0.2732937172
H  H85  1  0.62780000  0.41210000  0.32020000  1.0 0.080544258
H  H86  1  0.41210000  0.32020000  0.62780000  1.0 0.080544258
H  H87  1  0.32020000  0.62780000  0.41210000  1.0 0.080544258
H  H88  1  0.58790000  0.67980000  0.37220000  1.0 0.080544258
H  H89  1  0.67980000  0.37220000  0.58790000  1.0 0.080544258
H  H90  1  0.37220000  0.58790000  0.67980000  1.0 0.080544258
H  H91  1  0.50320000  0.26430000  0.17560000  1.0 0.080544258
H  H92  1  0.26430000  0.17560000  0.50320000  1.0 0.080544258
H  H93  1  0.17560000  0.50320000  0.26430000  1.0 0.080544258
H  H94  1  0.73570000  0.82440000  0.49680000  1.0 0.080544258
H  H95  1  0.82440000  0.49680000  0.73570000  1.0 0.080544258
H  H96  1  0.49680000  0.73570000  0.82440000  1.0 0.080544258
H  H97  1  0.59580000  0.28950000  0.29990000  1.0 0.080544258
H  H98  1  0.28950000  0.29990000  0.59580000  1.0 0.080544258
H  H99  1  0.29990000  0.59580000  0.28950000  1.0 0.080544258
H  H100  1  0.71050000  0.70010000  0.40420000  1.0 0.080544258
H  H101  1  0.70010000  0.40420000  0.71050000  1.0 0.080544258
H  H102  1  0.40420000  0.71050000  0.70010000  1.0 0.080544258
H  H103  1  0.01190000  0.59080000  0.32200000  1.0 0.080544258
H  H104  1  0.59080000  0.32200000  0.01190000  1.0 0.080544258
H  H105  1  0.32200000  0.01190000  0.59080000  1.0 0.080544258
H  H106  1  0.40920000  0.67800000  0.98810000  1.0 0.080544258
H  H107  1  0.67800000  0.98810000  0.40920000  1.0 0.080544258
H  H108  1  0.98810000  0.40920000  0.67800000  1.0 0.080544258
H  H109  1  0.02120000  0.48530000  0.29760000  1.0 0.0876559639
H  H110  1  0.48530000  0.29760000  0.02120000  1.0 0.0876559639
H  H111  1  0.29760000  0.02120000  0.48530000  1.0 0.0876559639
H  H112  1  0.51470000  0.70240000  0.97880000  1.0 0.0876559639
H  H113  1  0.70240000  0.97880000  0.51470000  1.0 0.0876559639
H  H114  1  0.97880000  0.51470000  0.70240000  1.0 0.0876559639
H  H115  1  0.93330000  0.46490000  0.17550000  1.0 0.080544258
H  H116  1  0.46490000  0.17550000  0.93330000  1.0 0.080544258
H  H117  1  0.17550000  0.93330000  0.46490000  1.0 0.080544258
H  H118  1  0.53510000  0.82450000  0.06670000  1.0 0.080544258
H  H119  1  0.82450000  0.06670000  0.53510000  1.0 0.080544258
H  H120  1  0.06670000  0.53510000  0.82450000  1.0 0.080544258
H  H121  1  0.88980000  0.56200000  0.54820000  1.0 0.0876559639
H  H122  1  0.56200000  0.54820000  0.88980000  1.0 0.0876559639
H  H123  1  0.54820000  0.88980000  0.56200000  1.0 0.0876559639
H  H124  1  0.43800000  0.45180000  0.11020000  1.0 0.0876559639
H  H125  1  0.45180000  0.11020000  0.43800000  1.0 0.0876559639
H  H126  1  0.11020000  0.43800000  0.45180000  1.0 0.0876559639
H  H127  1  0.02270000  0.71570000  0.67830000  1.0 0.0876559639
H  H128  1  0.71570000  0.67830000  0.02270000  1.0 0.0876559639
H  H129  1  0.67830000  0.02270000  0.71570000  1.0 0.0876559639
H  H130  1  0.28430000  0.32170000  0.97730000  1.0 0.0876559639
H  H131  1  0.32170000  0.97730000  0.28430000  1.0 0.0876559639
H  H132  1  0.97730000  0.28430000  0.32170000  1.0 0.0876559639
H  H133  1  0.88190000  0.66300000  0.62160000  1.0 0.080544258
H  H134  1  0.66300000  0.62160000  0.88190000  1.0 0.080544258
H  H135  1  0.62160000  0.88190000  0.66300000  1.0 0.080544258
H  H136  1  0.33700000  0.37840000  0.11810000  1.0 0.080544258
H  H137  1  0.37840000  0.11810000  0.33700000  1.0 0.080544258
H  H138  1  0.11810000  0.33700000  0.37840000  1.0 0.080544258
H  H139  1  0.78470000  0.54890000  0.15970000  1.0 0.080544258
H  H140  1  0.54890000  0.15970000  0.78470000  1.0 0.080544258
H  H141  1  0.15970000  0.78470000  0.54890000  1.0 0.080544258
H  H142  1  0.45110000  0.84030000  0.21530000  1.0 0.080544258
H  H143  1  0.84030000  0.21530000  0.45110000  1.0 0.080544258
H  H144  1  0.21530000  0.45110000  0.84030000  1.0 0.080544258
H  H145  1  0.77730000  0.65680000  0.19630000  1.0 0.0876559639
H  H146  1  0.65680000  0.19630000  0.77730000  1.0 0.0876559639
H  H147  1  0.19630000  0.77730000  0.65680000  1.0 0.0876559639
H  H148  1  0.34320000  0.80370000  0.22270000  1.0 0.0876559639
H  H149  1  0.80370000  0.22270000  0.34320000  1.0 0.0876559639
H  H150  1  0.22270000  0.34320000  0.80370000  1.0 0.0876559639
H  H151  1  0.91180000  0.69730000  0.24330000  1.0 0.080544258
H  H152  1  0.69730000  0.24330000  0.91180000  1.0 0.080544258
H  H153  1  0.24330000  0.91180000  0.69730000  1.0 0.080544258
H  H154  1  0.30270000  0.75670000  0.08820000  1.0 0.080544258
H  H155  1  0.75670000  0.08820000  0.30270000  1.0 0.080544258
H  H156  1  0.08820000  0.30270000  0.75670000  1.0 0.080544258
C  C1  1  0.72401000  0.98830000  0.07329000  1.0 0.1372952707
C  C2  1  0.98830000  0.07329000  0.72401000  1.0 0.1372952707
C  C3  1  0.07329000  0.72401000  0.98830000  1.0 0.1372952707
C  C4  1  0.01170000  0.92671000  0.27599000  1.0 0.1372952707
C  C5  1  0.92671000  0.27599000  0.01170000  1.0 0.1372952707
C  C6  1  0.27599000  0.01170000  0.92671000  1.0 0.1372952707
C  C7  1  0.68152000  0.33701000  0.23447000  1.0 0.1651950165
C  C8  1  0.33701000  0.23447000  0.68152000  1.0 0.1651950165
C  C9  1  0.23447000  0.68152000  0.33701000  1.0 0.1651950165
C  C10  1  0.66299000  0.76553000  0.31848000  1.0 0.1651950165
C  C11  1  0.76553000  0.31848000  0.66299000  1.0 0.1647645518
C  C12  1  0.31848000  0.66299000  0.76553000  1.0 0.1647645518
C  C13  1  0.79723000  0.45778000  0.28989000  1.0 -0.0989018595
C  C14  1  0.45778000  0.28989000  0.79723000  1.0 -0.0989018595
C  C15  1  0.28989000  0.79723000  0.45778000  1.0 -0.0989018595
C  C16  1  0.54222000  0.71011000  0.20277000  1.0 -0.0989018595
C  C17  1  0.71011000  0.20277000  0.54222000  1.0 -0.0989018595
C  C18  1  0.20277000  0.54222000  0.71011000  1.0 -0.0989018595
C  C19  1  0.84420000  0.41820000  0.23810000  1.0 0.1243904218
C  C20  1  0.41820000  0.23810000  0.84420000  1.0 0.1324327232
C  C21  1  0.23810000  0.84420000  0.41820000  1.0 0.1243904218
C  C22  1  0.58180000  0.76190000  0.15580000  1.0 0.1243904218
C  C23  1  0.76190000  0.15580000  0.58180000  1.0 0.1243904218
C  C24  1  0.15580000  0.58180000  0.76190000  1.0 0.1243904218
C  C25  1  0.59430000  0.32460000  0.25970000  1.0 -0.4061616923
C  C26  1  0.32460000  0.25970000  0.59430000  1.0 -0.4061616923
C  C27  1  0.25970000  0.59430000  0.32460000  1.0 -0.4061616923
C  C28  1  0.67540000  0.74030000  0.40570000  1.0 -0.4061616923
C  C29  1  0.74030000  0.40570000  0.67540000  1.0 -0.4061616923
C  C30  1  0.40570000  0.67540000  0.74030000  1.0 -0.4061616923
C  C31  1  0.96310000  0.49670000  0.26030000  1.0 -0.4347806141
C  C32  1  0.49670000  0.26030000  0.96310000  1.0 -0.4347806141
C  C33  1  0.26030000  0.96310000  0.49670000  1.0 -0.4347806141
C  C34  1  0.50330000  0.73970000  0.03690000  1.0 -0.4347806141
C  C35  1  0.73970000  0.03690000  0.50330000  1.0 -0.4347806141
C  C36  1  0.03690000  0.50330000  0.73970000  1.0 -0.4347806141
C  C37  1  0.91630000  0.68020000  0.51150000  1.0 0.1324327232
C  C38  1  0.68020000  0.51150000  0.91630000  1.0 0.1324327232
C  C39  1  0.51150000  0.91630000  0.68020000  1.0 0.1324327232
C  C40  1  0.31980000  0.48850000  0.08370000  1.0 0.1324327232
C  C41  1  0.48850000  0.08370000  0.31980000  1.0 0.1324327232
C  C42  1  0.08370000  0.31980000  0.48850000  1.0 0.1324327232
C  C43  1  0.85819000  0.59757000  0.38014000  1.0 -0.1078944706
C  C44  1  0.59757000  0.38014000  0.85819000  1.0 -0.1078944706
C  C45  1  0.38014000  0.85819000  0.59757000  1.0 -0.1078944706
C  C46  1  0.40243000  0.61986000  0.14181000  1.0 -0.1078944706
C  C47  1  0.61986000  0.14181000  0.40243000  1.0 -0.1078944706
C  C48  1  0.14181000  0.40243000  0.61986000  1.0 -0.1078944706
C  C49  1  0.88036000  0.68094000  0.35500000  1.0 0.1372952707
C  C50  1  0.68094000  0.35500000  0.88036000  1.0 0.1372952707
C  C51  1  0.35500000  0.88036000  0.68094000  1.0 0.1372952707
C  C52  1  0.31906000  0.64500000  0.11964000  1.0 0.1372952707
C  C53  1  0.64500000  0.11964000  0.31906000  1.0 0.1372952707
C  C54  1  0.11964000  0.31906000  0.64500000  1.0 0.1372952707
C  C55  1  0.92870000  0.65280000  0.59760000  1.0 -0.4000055656
C  C56  1  0.65280000  0.59760000  0.92870000  1.0 -0.4000055656
C  C57  1  0.59760000  0.92870000  0.65280000  1.0 -0.4000055656
C  C58  1  0.34720000  0.40240000  0.07130000  1.0 -0.4000055656
C  C59  1  0.40240000  0.07130000  0.34720000  1.0 -0.4000055656
C  C60  1  0.07130000  0.34720000  0.40240000  1.0 -0.4000055656
C  C61  1  0.83450000  0.64250000  0.22720000  1.0 -0.4218035505
C  C62  1  0.64250000  0.22720000  0.83450000  1.0 -0.4218035505
C  C63  1  0.22720000  0.83450000  0.64250000  1.0 -0.4218035505
C  C64  1  0.35750000  0.77280000  0.16550000  1.0 -0.4218035505
C  C65  1  0.77280000  0.16550000  0.35750000  1.0 -0.4218035505
C  C66  1  0.16550000  0.35750000  0.77280000  1.0 -0.4218035505
S  S1  1  0.81556000  0.95490000  0.09833000  1.0 -0.3018068736
S  S2  1  0.95490000  0.09833000  0.81556000  1.0 -0.3018068736
S  S3  1  0.09833000  0.81556000  0.95490000  1.0 -0.3018068736
S  S4  1  0.04510000  0.90167000  0.18444000  1.0 -0.3018068736
S  S5  1  0.90167000  0.18444000  0.04510000  1.0 -0.3018068736
S  S6  1  0.18444000  0.04510000  0.90167000  1.0 -0.3018068736
N  N1  1  0.65632000  0.00970000  0.05268000  1.0 -0.4515899832
N  N2  1  0.00970000  0.05268000  0.65632000  1.0 -0.4515899832
N  N3  1  0.05268000  0.65632000  0.00970000  1.0 -0.4515899832
N  N4  1  0.99030000  0.94732000  0.34368000  1.0 -0.4515899832
N  N5  1  0.94732000  0.34368000  0.99030000  1.0 -0.4515899832
N  N6  1  0.34368000  0.99030000  0.94732000  1.0 -0.4515899832
N  N7  1  0.65862000  0.23028000  0.15260000  1.0 -0.1821030915
N  N8  1  0.23028000  0.15260000  0.65862000  1.0 -0.1821030915
N  N9  1  0.15260000  0.65862000  0.23028000  1.0 -0.1821030915
N  N10  1  0.76972000  0.84740000  0.34138000  1.0 -0.1821030915
N  N11  1  0.84740000  0.34138000  0.76972000  1.0 -0.1821030915
N  N12  1  0.34138000  0.76972000  0.84740000  1.0 -0.1821030915
N  N13  1  0.75870000  0.28284000  0.15626000  1.0 -0.2836647556
N  N14  1  0.28284000  0.15626000  0.75870000  1.0 -0.2836647556
N  N15  1  0.15626000  0.75870000  0.28284000  1.0 -0.2836647556
N  N16  1  0.71716000  0.84374000  0.24130000  1.0 -0.2836647556
N  N17  1  0.84374000  0.24130000  0.71716000  1.0 -0.2836647556
N  N18  1  0.24130000  0.71716000  0.84374000  1.0 -0.2836647556
N  N19  1  0.94932000  0.80686000  0.46432000  1.0 -0.1873072327
N  N20  1  0.80686000  0.46432000  0.94932000  1.0 -0.1873072327
N  N21  1  0.46432000  0.94932000  0.80686000  1.0 -0.1873072327
N  N22  1  0.19314000  0.53568000  0.05068000  1.0 -0.1873072327
N  N23  1  0.53568000  0.05068000  0.19314000  1.0 -0.1873072327
N  N24  1  0.05068000  0.19314000  0.53568000  1.0 -0.1873072327
N  N25  1  0.96785000  0.80148000  0.55737000  1.0 -0.2852879033
N  N26  1  0.80148000  0.55737000  0.96785000  1.0 -0.2852879033
N  N27  1  0.55737000  0.96785000  0.80148000  1.0 -0.2836647556
N  N28  1  0.19852000  0.44263000  0.03215000  1.0 -0.2836647556
N  N29  1  0.44263000  0.03215000  0.19852000  1.0 -0.2836647556
N  N30  1  0.03215000  0.19852000  0.44263000  1.0 -0.2836647556
