# DDEC6 charges by PACMAN v1.1 (https://github.com/mtap-research/PACMAN-charge/)
data_HAKSAQ_ASR_pacman
_symmetry_space_group_name_H-M   'P 1'
_cell_length_a   13.81000000
_cell_length_b   13.81000000
_cell_length_c   18.33000000
_cell_angle_alpha   90.00000000
_cell_angle_beta   90.00000000
_cell_angle_gamma   120.00000000
_symmetry_Int_Tables_number   1
_chemical_formula_structural   Zn2In3H18C30N9O13
_chemical_formula_sum   'Zn4 In6 H36 C60 N18 O26'
_cell_volume   3027.47422107
_cell_formula_units_Z   2
loop_
 _symmetry_equiv_pos_site_id
 _symmetry_equiv_pos_as_xyz
  1  'x, y, z'
loop_
 _atom_site_type_symbol
 _atom_site_label
 _atom_site_symmetry_multiplicity
 _atom_site_fract_x
 _atom_site_fract_y
 _atom_site_fract_z
 _atom_site_occupancy
 _atom_site_charge
Zn  Zn1  1  0.00000000  0.00000000  0.63581000  1.0 0.3130149062
Zn  Zn2  1  0.00000000  0.00000000  0.13581000  1.0 0.3130149062
Zn  Zn3  1  0.00000000  0.00000000  0.36419000  1.0 0.3130149062
Zn  Zn4  1  0.00000000  0.00000000  0.86419000  1.0 0.3130149062
In  In1  1  0.75119000  0.24881000  0.75000000  1.0 1.3730354573
In  In2  1  0.75119000  0.50238000  0.75000000  1.0 1.3730354573
In  In3  1  0.49762000  0.24881000  0.75000000  1.0 1.3730354573
In  In4  1  0.24881000  0.75119000  0.25000000  1.0 1.3730354573
In  In5  1  0.24881000  0.49762000  0.25000000  1.0 1.3730354573
In  In6  1  0.50238000  0.75119000  0.25000000  1.0 1.3730354573
H  H1  1  0.86080000  0.13920000  0.64830000  1.0 0.1129904587
H  H2  1  0.86080000  0.72160000  0.64830000  1.0 0.1129904587
H  H3  1  0.27840000  0.13920000  0.64830000  1.0 0.1129904587
H  H4  1  0.13920000  0.86080000  0.14830000  1.0 0.1129904587
H  H5  1  0.13920000  0.27840000  0.14830000  1.0 0.1129904587
H  H6  1  0.72160000  0.86080000  0.14830000  1.0 0.1129904587
H  H7  1  0.13920000  0.86080000  0.35170000  1.0 0.1129904587
H  H8  1  0.72160000  0.86080000  0.35170000  1.0 0.1129904587
H  H9  1  0.13920000  0.27840000  0.35170000  1.0 0.1129904587
H  H10  1  0.86080000  0.13920000  0.85170000  1.0 0.1129904587
H  H11  1  0.27840000  0.13920000  0.85170000  1.0 0.1129904587
H  H12  1  0.86080000  0.72160000  0.85170000  1.0 0.1129904587
H  H13  1  0.66540000  0.04210000  0.55670000  1.0 0.1129904587
H  H14  1  0.95790000  0.62330000  0.55670000  1.0 0.1129904587
H  H15  1  0.37670000  0.33460000  0.55670000  1.0 0.1129904587
H  H16  1  0.33460000  0.95790000  0.05670000  1.0 0.1129904587
H  H17  1  0.04210000  0.37670000  0.05670000  1.0 0.1129904587
H  H18  1  0.62330000  0.66540000  0.05670000  1.0 0.1129904587
H  H19  1  0.04210000  0.66540000  0.44330000  1.0 0.1129904587
H  H20  1  0.62330000  0.95790000  0.44330000  1.0 0.1129904587
H  H21  1  0.33460000  0.37670000  0.44330000  1.0 0.1129904587
H  H22  1  0.95790000  0.33460000  0.94330000  1.0 0.1129904587
H  H23  1  0.37670000  0.04210000  0.94330000  1.0 0.1129904587
H  H24  1  0.66540000  0.62330000  0.94330000  1.0 0.1129904587
H  H25  1  0.33460000  0.95790000  0.44330000  1.0 0.1129904587
H  H26  1  0.04210000  0.37670000  0.44330000  1.0 0.1129904587
H  H27  1  0.62330000  0.66540000  0.44330000  1.0 0.1129904587
H  H28  1  0.66540000  0.04210000  0.94330000  1.0 0.1129904587
H  H29  1  0.95790000  0.62330000  0.94330000  1.0 0.1129904587
H  H30  1  0.37670000  0.33460000  0.94330000  1.0 0.1129904587
H  H31  1  0.95790000  0.33460000  0.55670000  1.0 0.1129904587
H  H32  1  0.37670000  0.04210000  0.55670000  1.0 0.1129904587
H  H33  1  0.66540000  0.62330000  0.55670000  1.0 0.1129904587
H  H34  1  0.04210000  0.66540000  0.05670000  1.0 0.1129904587
H  H35  1  0.62330000  0.95790000  0.05670000  1.0 0.1129904587
H  H36  1  0.33460000  0.37670000  0.05670000  1.0 0.1129904587
C  C1  1  0.55710000  0.11420000  0.63780000  1.0 0.595480841
C  C2  1  0.88580000  0.44290000  0.63780000  1.0 0.595480841
C  C3  1  0.55710000  0.44290000  0.63780000  1.0 0.595480841
C  C4  1  0.44290000  0.88580000  0.13780000  1.0 0.595480841
C  C5  1  0.11420000  0.55710000  0.13780000  1.0 0.595480841
C  C6  1  0.44290000  0.55710000  0.13780000  1.0 0.595480841
C  C7  1  0.11420000  0.55710000  0.36220000  1.0 0.595480841
C  C8  1  0.44290000  0.88580000  0.36220000  1.0 0.595480841
C  C9  1  0.44290000  0.55710000  0.36220000  1.0 0.595480841
C  C10  1  0.88580000  0.44290000  0.86220000  1.0 0.595480841
C  C11  1  0.55710000  0.11420000  0.86220000  1.0 0.595480841
C  C12  1  0.55710000  0.44290000  0.86220000  1.0 0.595480841
C  C13  1  0.87360000  0.12640000  0.69620000  1.0 0.1417830925
C  C14  1  0.87360000  0.74720000  0.69620000  1.0 0.1417830925
C  C15  1  0.25280000  0.12640000  0.69620000  1.0 0.1417830925
C  C16  1  0.12640000  0.87360000  0.19620000  1.0 0.1417830925
C  C17  1  0.12640000  0.25280000  0.19620000  1.0 0.1417830925
C  C18  1  0.74720000  0.87360000  0.19620000  1.0 0.1417830925
C  C19  1  0.12640000  0.87360000  0.30380000  1.0 0.1417830925
C  C20  1  0.74720000  0.87360000  0.30380000  1.0 0.1417830925
C  C21  1  0.12640000  0.25280000  0.30380000  1.0 0.1417830925
C  C22  1  0.87360000  0.12640000  0.80380000  1.0 0.1417830925
C  C23  1  0.25280000  0.12640000  0.80380000  1.0 0.1417830925
C  C24  1  0.87360000  0.74720000  0.80380000  1.0 0.1417830925
C  C25  1  0.52700000  0.05400000  0.56630000  1.0 -0.0213778031
C  C26  1  0.94600000  0.47300000  0.56630000  1.0 -0.0213778031
C  C27  1  0.52700000  0.47300000  0.56630000  1.0 -0.0213778031
C  C28  1  0.47300000  0.94600000  0.06630000  1.0 -0.0213778031
C  C29  1  0.05400000  0.52700000  0.06630000  1.0 -0.0213778031
C  C30  1  0.47300000  0.52700000  0.06630000  1.0 -0.0213778031
C  C31  1  0.05400000  0.52700000  0.43370000  1.0 -0.0213778031
C  C32  1  0.47300000  0.94600000  0.43370000  1.0 -0.0213778031
C  C33  1  0.47300000  0.52700000  0.43370000  1.0 -0.0213778031
C  C34  1  0.94600000  0.47300000  0.93370000  1.0 -0.0213778031
C  C35  1  0.52700000  0.05400000  0.93370000  1.0 -0.0213778031
C  C36  1  0.52700000  0.47300000  0.93370000  1.0 -0.0213778031
C  C37  1  0.59910000  0.02600000  0.53360000  1.0 -0.1072908509
C  C38  1  0.97400000  0.57310000  0.53360000  1.0 -0.1072908509
C  C39  1  0.42690000  0.40090000  0.53360000  1.0 -0.1072908509
C  C40  1  0.40090000  0.97400000  0.03360000  1.0 -0.1072908509
C  C41  1  0.02600000  0.42690000  0.03360000  1.0 -0.1072908509
C  C42  1  0.57310000  0.59910000  0.03360000  1.0 -0.1072908509
C  C43  1  0.02600000  0.59910000  0.46640000  1.0 -0.1072908509
C  C44  1  0.57310000  0.97400000  0.46640000  1.0 -0.1072908509
C  C45  1  0.40090000  0.42690000  0.46640000  1.0 -0.1072908509
C  C46  1  0.97400000  0.40090000  0.96640000  1.0 -0.1072908509
C  C47  1  0.42690000  0.02600000  0.96640000  1.0 -0.1072908509
C  C48  1  0.59910000  0.57310000  0.96640000  1.0 -0.1072908509
C  C49  1  0.40090000  0.97400000  0.46640000  1.0 -0.1072908509
C  C50  1  0.02600000  0.42690000  0.46640000  1.0 -0.1072908509
C  C51  1  0.57310000  0.59910000  0.46640000  1.0 -0.1072908509
C  C52  1  0.59910000  0.02600000  0.96640000  1.0 -0.1072908509
C  C53  1  0.97400000  0.57310000  0.96640000  1.0 -0.1072908509
C  C54  1  0.42690000  0.40090000  0.96640000  1.0 -0.1072908509
C  C55  1  0.97400000  0.40090000  0.53360000  1.0 -0.1072908509
C  C56  1  0.42690000  0.02600000  0.53360000  1.0 -0.1072908509
C  C57  1  0.59910000  0.57310000  0.53360000  1.0 -0.1072908509
C  C58  1  0.02600000  0.59910000  0.03360000  1.0 -0.1072908509
C  C59  1  0.57310000  0.97400000  0.03360000  1.0 -0.1072908509
C  C60  1  0.40090000  0.42690000  0.03360000  1.0 -0.1072908509
N  N1  1  0.84080000  0.15920000  0.75000000  1.0 -0.3092986678
N  N2  1  0.84080000  0.68160000  0.75000000  1.0 -0.3092986678
N  N3  1  0.31840000  0.15920000  0.75000000  1.0 -0.3092986678
N  N4  1  0.15920000  0.84080000  0.25000000  1.0 -0.3092986678
N  N5  1  0.15920000  0.31840000  0.25000000  1.0 -0.3092986678
N  N6  1  0.68160000  0.84080000  0.25000000  1.0 -0.3092986678
N  N7  1  0.92730000  0.07270000  0.71240000  1.0 -0.1720561369
N  N8  1  0.92730000  0.85460000  0.71240000  1.0 -0.1720561369
N  N9  1  0.14540000  0.07270000  0.71240000  1.0 -0.1720561369
N  N10  1  0.07270000  0.92730000  0.21240000  1.0 -0.1720561369
N  N11  1  0.07270000  0.14540000  0.21240000  1.0 -0.1720561369
N  N12  1  0.85460000  0.92730000  0.21240000  1.0 -0.1720561369
N  N13  1  0.07270000  0.92730000  0.28760000  1.0 -0.1720561369
N  N14  1  0.85460000  0.92730000  0.28760000  1.0 -0.1720561369
N  N15  1  0.07270000  0.14540000  0.28760000  1.0 -0.1720561369
N  N16  1  0.92730000  0.07270000  0.78760000  1.0 -0.1720561369
N  N17  1  0.14540000  0.07270000  0.78760000  1.0 -0.1720561369
N  N18  1  0.92730000  0.85460000  0.78760000  1.0 -0.1720561369
O  O1  1  0.66666667  0.33333333  0.75000000  1.0 -1.0252735351
O  O2  1  0.33333333  0.66666667  0.25000000  1.0 -1.0239051316
O  O3  1  0.64900000  0.13650000  0.66450000  1.0 -0.5668307378
O  O4  1  0.86350000  0.51250000  0.66450000  1.0 -0.5668307378
O  O5  1  0.48750000  0.35100000  0.66450000  1.0 -0.5668307378
O  O6  1  0.35100000  0.86350000  0.16450000  1.0 -0.5668307378
O  O7  1  0.13650000  0.48750000  0.16450000  1.0 -0.5668307378
O  O8  1  0.51250000  0.64900000  0.16450000  1.0 -0.5668307378
O  O9  1  0.13650000  0.64900000  0.33550000  1.0 -0.5668307378
O  O10  1  0.51250000  0.86350000  0.33550000  1.0 -0.5668307378
O  O11  1  0.35100000  0.48750000  0.33550000  1.0 -0.5668307378
O  O12  1  0.86350000  0.35100000  0.83550000  1.0 -0.5668307378
O  O13  1  0.48750000  0.13650000  0.83550000  1.0 -0.5668307378
O  O14  1  0.64900000  0.51250000  0.83550000  1.0 -0.5668307378
O  O15  1  0.35100000  0.86350000  0.33550000  1.0 -0.5668307378
O  O16  1  0.13650000  0.48750000  0.33550000  1.0 -0.5668307378
O  O17  1  0.51250000  0.64900000  0.33550000  1.0 -0.5668307378
O  O18  1  0.64900000  0.13650000  0.83550000  1.0 -0.5668307378
O  O19  1  0.86350000  0.51250000  0.83550000  1.0 -0.5668307378
O  O20  1  0.48750000  0.35100000  0.83550000  1.0 -0.5668307378
O  O21  1  0.86350000  0.35100000  0.66450000  1.0 -0.5668307378
O  O22  1  0.48750000  0.13650000  0.66450000  1.0 -0.5668307378
O  O23  1  0.64900000  0.51250000  0.66450000  1.0 -0.5668307378
O  O24  1  0.13650000  0.64900000  0.16450000  1.0 -0.5668307378
O  O25  1  0.51250000  0.86350000  0.16450000  1.0 -0.5668307378
O  O26  1  0.35100000  0.48750000  0.16450000  1.0 -0.5668307378
