# DDEC6 charges by PACMAN v1.1 (https://github.com/mtap-research/PACMAN-charge/)
data_HALHEL_ASR_pacman
_symmetry_space_group_name_H-M   'P 1'
_cell_length_a   10.80800000
_cell_length_b   17.47620000
_cell_length_c   20.48360000
_cell_angle_alpha   90.00000000
_cell_angle_beta   108.32700000
_cell_angle_gamma   90.00000000
_symmetry_Int_Tables_number   1
_chemical_formula_structural   Cu5H44C40(NO3)6
_chemical_formula_sum   'Cu10 H88 C80 N12 O36'
_cell_volume   3672.75343186
_cell_formula_units_Z   2
loop_
 _symmetry_equiv_pos_site_id
 _symmetry_equiv_pos_as_xyz
  1  'x, y, z'
loop_
 _atom_site_type_symbol
 _atom_site_label
 _atom_site_symmetry_multiplicity
 _atom_site_fract_x
 _atom_site_fract_y
 _atom_site_fract_z
 _atom_site_occupancy
 _atom_site_charge
Cu  Cu1  1  0.35638000  0.00408000  0.48875000  1.0 0.9555902529
Cu  Cu2  1  0.45650000  0.86441000  0.41941000  1.0 0.8622765738
Cu  Cu3  1  0.64362000  0.50408000  0.01125000  1.0 0.9555902529
Cu  Cu4  1  0.54350000  0.36441000  0.08059000  1.0 0.8622765738
Cu  Cu5  1  0.64362000  0.99592000  0.51125000  1.0 0.9555902529
Cu  Cu6  1  0.54350000  0.13559000  0.58059000  1.0 0.8622765738
Cu  Cu7  1  0.35638000  0.49592000  0.98875000  1.0 0.9548590231
Cu  Cu8  1  0.45650000  0.63559000  0.91941000  1.0 0.8622765738
Cu  Cu9  1  0.50000000  0.50000000  0.50000000  1.0 0.7484349656
Cu  Cu10  1  0.50000000  0.00000000  0.00000000  1.0 0.7484349656
H  H1  1  0.51061000  0.89866000  0.53803000  1.0 0.3857229996
H  H2  1  0.98649000  0.64226000  0.33227000  1.0 0.2760060105
H  H3  1  0.48832000  0.81381000  0.31319000  1.0 0.2415247458
H  H4  1  0.65848000  0.41092000  0.57755000  1.0 0.2321643952
H  H5  1  0.12329000  0.73983000  0.38711000  1.0 0.122438978
H  H6  1  0.75448000  0.73569000  0.39129000  1.0 0.122438978
H  H7  1  0.99242000  0.90542000  0.48442000  1.0 0.1383369976
H  H8  1  0.82000000  0.59665000  0.22517000  1.0 0.1285627085
H  H9  1  0.51146000  0.49069000  0.25383000  1.0 0.1285627085
H  H10  1  0.75942000  0.60906000  0.40756000  1.0 0.122438978
H  H11  1  0.29279000  0.87483000  0.26769000  1.0 0.122438978
H  H12  1  0.29383000  0.79362000  0.23537000  1.0 0.1285627085
H  H13  1  0.22217000  0.80616000  0.29022000  1.0 0.1285627085
H  H14  1  0.34932000  0.70272000  0.35366000  1.0 0.122438978
H  H15  1  0.43387000  0.69427000  0.30435000  1.0 0.1285627085
H  H16  1  0.50152000  0.70899000  0.38303000  1.0 0.1285627085
H  H17  1  0.80063000  0.49426000  0.55509000  1.0 0.1383369976
H  H18  1  0.83954000  0.40863000  0.54973000  1.0 0.1097717184
H  H19  1  0.77559000  0.45628000  0.48275000  1.0 0.1285627085
H  H20  1  0.58799000  0.36051000  0.44156000  1.0 0.1383369976
H  H21  1  0.67976000  0.31430000  0.50358000  1.0 0.1285627085
H  H22  1  0.53434000  0.32927000  0.49918000  1.0 0.1383369976
H  H23  1  0.48939000  0.39866000  0.96197000  1.0 0.3857229996
H  H24  1  0.01351000  0.14226000  0.16773000  1.0 0.2760060105
H  H25  1  0.51168000  0.31381000  0.18681000  1.0 0.2415247458
H  H26  1  0.34152000  0.91092000  0.92245000  1.0 0.2321643952
H  H27  1  0.87671000  0.23983000  0.11289000  1.0 0.122438978
H  H28  1  0.24552000  0.23569000  0.10871000  1.0 0.122438978
H  H29  1  0.00758000  0.40542000  0.01558000  1.0 0.1383369976
H  H30  1  0.18000000  0.09665000  0.27483000  1.0 0.1285627085
H  H31  1  0.48854000  0.99069000  0.24617000  1.0 0.1285627085
H  H32  1  0.24058000  0.10906000  0.09244000  1.0 0.122438978
H  H33  1  0.70721000  0.37483000  0.23231000  1.0 0.122438978
H  H34  1  0.70617000  0.29362000  0.26463000  1.0 0.1285627085
H  H35  1  0.77783000  0.30616000  0.20978000  1.0 0.1285627085
H  H36  1  0.65068000  0.20272000  0.14634000  1.0 0.122438978
H  H37  1  0.56613000  0.19427000  0.19565000  1.0 0.1285627085
H  H38  1  0.49848000  0.20899000  0.11697000  1.0 0.1285627085
H  H39  1  0.19937000  0.99426000  0.94491000  1.0 0.1383369976
H  H40  1  0.16046000  0.90863000  0.95027000  1.0 0.1097717184
H  H41  1  0.22441000  0.95628000  0.01725000  1.0 0.1285627085
H  H42  1  0.41201000  0.86051000  0.05844000  1.0 0.1383369976
H  H43  1  0.32024000  0.81430000  0.99642000  1.0 0.1285627085
H  H44  1  0.46566000  0.82927000  0.00082000  1.0 0.1383369976
H  H45  1  0.48939000  0.10134000  0.46197000  1.0 0.3857229996
H  H46  1  0.01351000  0.35774000  0.66773000  1.0 0.2760060105
H  H47  1  0.51168000  0.18619000  0.68681000  1.0 0.2415247458
H  H48  1  0.34152000  0.58908000  0.42245000  1.0 0.2321643952
H  H49  1  0.87671000  0.26017000  0.61289000  1.0 0.122438978
H  H50  1  0.24552000  0.26431000  0.60871000  1.0 0.122438978
H  H51  1  0.00758000  0.09458000  0.51558000  1.0 0.1383369976
H  H52  1  0.18000000  0.40335000  0.77483000  1.0 0.1285627085
H  H53  1  0.48854000  0.50931000  0.74617000  1.0 0.1285627085
H  H54  1  0.24058000  0.39094000  0.59244000  1.0 0.122438978
H  H55  1  0.70721000  0.12517000  0.73231000  1.0 0.122438978
H  H56  1  0.70617000  0.20638000  0.76463000  1.0 0.1285627085
H  H57  1  0.77783000  0.19384000  0.70978000  1.0 0.1285627085
H  H58  1  0.65068000  0.29728000  0.64634000  1.0 0.122438978
H  H59  1  0.56613000  0.30573000  0.69565000  1.0 0.1285627085
H  H60  1  0.49848000  0.29101000  0.61697000  1.0 0.1285627085
H  H61  1  0.19937000  0.50574000  0.44491000  1.0 0.1383369976
H  H62  1  0.16046000  0.59137000  0.45027000  1.0 0.1097717184
H  H63  1  0.22441000  0.54372000  0.51725000  1.0 0.1285627085
H  H64  1  0.41201000  0.63949000  0.55844000  1.0 0.1383369976
H  H65  1  0.32024000  0.68570000  0.49642000  1.0 0.1285627085
H  H66  1  0.46566000  0.67073000  0.50082000  1.0 0.1383369976
H  H67  1  0.51061000  0.60134000  0.03803000  1.0 0.3857229996
H  H68  1  0.98649000  0.85774000  0.83227000  1.0 0.2760060105
H  H69  1  0.48832000  0.68619000  0.81319000  1.0 0.2415247458
H  H70  1  0.65848000  0.08908000  0.07755000  1.0 0.2321643952
H  H71  1  0.12329000  0.76017000  0.88711000  1.0 0.122438978
H  H72  1  0.75448000  0.76431000  0.89129000  1.0 0.122438978
H  H73  1  0.99242000  0.59458000  0.98442000  1.0 0.1383369976
H  H74  1  0.82000000  0.90335000  0.72517000  1.0 0.1285627085
H  H75  1  0.51146000  0.00931000  0.75383000  1.0 0.1285627085
H  H76  1  0.75942000  0.89094000  0.90756000  1.0 0.122438978
H  H77  1  0.29279000  0.62517000  0.76769000  1.0 0.122438978
H  H78  1  0.29383000  0.70638000  0.73537000  1.0 0.1285627085
H  H79  1  0.22217000  0.69384000  0.79022000  1.0 0.1285627085
H  H80  1  0.34932000  0.79728000  0.85366000  1.0 0.122438978
H  H81  1  0.43387000  0.80573000  0.80435000  1.0 0.1285627085
H  H82  1  0.50152000  0.79101000  0.88303000  1.0 0.1285627085
H  H83  1  0.80063000  0.00574000  0.05509000  1.0 0.1383369976
H  H84  1  0.83954000  0.09137000  0.04973000  1.0 0.1097717184
H  H85  1  0.77559000  0.04372000  0.98275000  1.0 0.1285627085
H  H86  1  0.58799000  0.13949000  0.94156000  1.0 0.1383369976
H  H87  1  0.67976000  0.18570000  0.00358000  1.0 0.1285627085
H  H88  1  0.53434000  0.17073000  0.99918000  1.0 0.1383369976
C  C1  1  0.20590000  0.86750000  0.45150000  1.0 0.5706579808
C  C2  1  0.07770000  0.82730000  0.43770000  1.0 0.0011793174
C  C3  1  0.05620000  0.76070000  0.40080000  1.0 -0.2106350476
C  C4  1  0.93600000  0.72310000  0.38310000  1.0 0.2321643952
C  C5  1  0.83660000  0.75810000  0.40350000  1.0 -0.2030642804
C  C6  1  0.85830000  0.82450000  0.44110000  1.0 0.0011793174
C  C7  1  0.97790000  0.86040000  0.45890000  1.0 -0.1361720458
C  C8  1  0.74540000  0.86020000  0.45940000  1.0 0.5780021
C  C9  1  0.80720000  0.61240000  0.32050000  1.0 0.2187514353
C  C10  1  0.77060000  0.58410000  0.25350000  1.0 -0.2106350476
C  C11  1  0.66170000  0.53750000  0.22830000  1.0 -0.0116653306
C  C12  1  0.58610000  0.52040000  0.27060000  1.0 -0.1361720458
C  C13  1  0.62230000  0.54780000  0.33750000  1.0 -0.0116653306
C  C14  1  0.73370000  0.59240000  0.36210000  1.0 -0.2030642804
C  C15  1  0.62770000  0.50440000  0.15780000  1.0 0.5706579808
C  C16  1  0.54590000  0.52620000  0.38430000  1.0 0.527253424
C  C17  1  0.29590000  0.82080000  0.27640000  1.0 -0.2817099195
C  C18  1  0.42630000  0.72010000  0.34430000  1.0 -0.3107454132
C  C19  1  0.77700000  0.44770000  0.52930000  1.0 -0.2934622716
C  C20  1  0.60920000  0.35030000  0.48990000  1.0 -0.3107454132
C  C21  1  0.79410000  0.36750000  0.04850000  1.0 0.5706579808
C  C22  1  0.92230000  0.32730000  0.06230000  1.0 0.0011793174
C  C23  1  0.94380000  0.26070000  0.09920000  1.0 -0.2106350476
C  C24  1  0.06400000  0.22310000  0.11690000  1.0 0.2321643952
C  C25  1  0.16340000  0.25810000  0.09650000  1.0 -0.2030642804
C  C26  1  0.14170000  0.32450000  0.05890000  1.0 0.0011793174
C  C27  1  0.02210000  0.36040000  0.04110000  1.0 -0.1361720458
C  C28  1  0.25460000  0.36020000  0.04060000  1.0 0.5780021
C  C29  1  0.19280000  0.11240000  0.17950000  1.0 0.2187514353
C  C30  1  0.22940000  0.08410000  0.24650000  1.0 -0.2106350476
C  C31  1  0.33830000  0.03750000  0.27170000  1.0 -0.0116653306
C  C32  1  0.41390000  0.02040000  0.22940000  1.0 -0.1361720458
C  C33  1  0.37770000  0.04780000  0.16250000  1.0 -0.0116653306
C  C34  1  0.26630000  0.09240000  0.13790000  1.0 -0.2030642804
C  C35  1  0.37230000  0.00440000  0.34220000  1.0 0.5706579808
C  C36  1  0.45410000  0.02620000  0.11570000  1.0 0.527253424
C  C37  1  0.70410000  0.32080000  0.22360000  1.0 -0.2817099195
C  C38  1  0.57370000  0.22010000  0.15570000  1.0 -0.3107454132
C  C39  1  0.22300000  0.94770000  0.97070000  1.0 -0.2934622716
C  C40  1  0.39080000  0.85030000  0.01010000  1.0 -0.3107454132
C  C41  1  0.79410000  0.13250000  0.54850000  1.0 0.5706579808
C  C42  1  0.92230000  0.17270000  0.56230000  1.0 0.0011793174
C  C43  1  0.94380000  0.23930000  0.59920000  1.0 -0.2106350476
C  C44  1  0.06400000  0.27690000  0.61690000  1.0 0.2321643952
C  C45  1  0.16340000  0.24190000  0.59650000  1.0 -0.2030642804
C  C46  1  0.14170000  0.17550000  0.55890000  1.0 0.0011793174
C  C47  1  0.02210000  0.13960000  0.54110000  1.0 -0.1361720458
C  C48  1  0.25460000  0.13980000  0.54060000  1.0 0.5780021
C  C49  1  0.19280000  0.38760000  0.67950000  1.0 0.2187514353
C  C50  1  0.22940000  0.41590000  0.74650000  1.0 -0.2106350476
C  C51  1  0.33830000  0.46250000  0.77170000  1.0 -0.0116653306
C  C52  1  0.41390000  0.47960000  0.72940000  1.0 -0.1361720458
C  C53  1  0.37770000  0.45220000  0.66250000  1.0 -0.0116653306
C  C54  1  0.26630000  0.40760000  0.63790000  1.0 -0.2030642804
C  C55  1  0.37230000  0.49560000  0.84220000  1.0 0.5706579808
C  C56  1  0.45410000  0.47380000  0.61570000  1.0 0.527253424
C  C57  1  0.70410000  0.17920000  0.72360000  1.0 -0.2817099195
C  C58  1  0.57370000  0.27990000  0.65570000  1.0 -0.3107454132
C  C59  1  0.22300000  0.55230000  0.47070000  1.0 -0.2934622716
C  C60  1  0.39080000  0.64970000  0.51010000  1.0 -0.3107454132
C  C61  1  0.20590000  0.63250000  0.95150000  1.0 0.5706579808
C  C62  1  0.07770000  0.67270000  0.93770000  1.0 0.0011793174
C  C63  1  0.05620000  0.73930000  0.90080000  1.0 -0.2106350476
C  C64  1  0.93600000  0.77690000  0.88310000  1.0 0.2321643952
C  C65  1  0.83660000  0.74190000  0.90350000  1.0 -0.2030642804
C  C66  1  0.85830000  0.67550000  0.94110000  1.0 0.0011793174
C  C67  1  0.97790000  0.63960000  0.95890000  1.0 -0.1361720458
C  C68  1  0.74540000  0.63980000  0.95940000  1.0 0.5780021
C  C69  1  0.80720000  0.88760000  0.82050000  1.0 0.2187514353
C  C70  1  0.77060000  0.91590000  0.75350000  1.0 -0.2106350476
C  C71  1  0.66170000  0.96250000  0.72830000  1.0 -0.0116653306
C  C72  1  0.58610000  0.97960000  0.77060000  1.0 -0.1361720458
C  C73  1  0.62230000  0.95220000  0.83750000  1.0 -0.0116653306
C  C74  1  0.73370000  0.90760000  0.86210000  1.0 -0.2030642804
C  C75  1  0.62770000  0.99560000  0.65780000  1.0 0.5706579808
C  C76  1  0.54590000  0.97380000  0.88430000  1.0 0.527253424
C  C77  1  0.29590000  0.67920000  0.77640000  1.0 -0.2817099195
C  C78  1  0.42630000  0.77990000  0.84430000  1.0 -0.3107454132
C  C79  1  0.77700000  0.05230000  0.02930000  1.0 -0.2934622716
C  C80  1  0.60920000  0.14970000  0.98990000  1.0 -0.3107454132
N  N1  1  0.92030000  0.65720000  0.34370000  1.0 -0.3609233078
N  N2  1  0.41780000  0.80190000  0.33210000  1.0 -0.2106350476
N  N3  1  0.64900000  0.42360000  0.52960000  1.0 -0.2184527655
N  N4  1  0.07970000  0.15720000  0.15630000  1.0 -0.3609233078
N  N5  1  0.58220000  0.30190000  0.16790000  1.0 -0.2106350476
N  N6  1  0.35100000  0.92360000  0.97040000  1.0 -0.2184527655
N  N7  1  0.07970000  0.34280000  0.65630000  1.0 -0.3609233078
N  N8  1  0.58220000  0.19810000  0.66790000  1.0 -0.2106350476
N  N9  1  0.35100000  0.57640000  0.47040000  1.0 -0.2184527655
N  N10  1  0.92030000  0.84280000  0.84370000  1.0 -0.3609233078
N  N11  1  0.41780000  0.69810000  0.83210000  1.0 -0.2106350476
N  N12  1  0.64900000  0.07640000  0.02960000  1.0 -0.2184527655
O  O1  1  0.28390000  0.83665000  0.42400000  1.0 -0.5522698116
O  O2  1  0.22412000  0.92822000  0.48542000  1.0 -0.5094471824
O  O3  1  0.76598000  0.92177000  0.49158000  1.0 -0.5094471824
O  O4  1  0.63870000  0.82456000  0.43890000  1.0 -0.5522698116
O  O5  1  0.58463000  0.55540000  0.44393000  1.0 -0.5271931839
O  O6  1  0.45390000  0.47950000  0.36520000  1.0 -0.5761024457
O  O7  1  0.52613000  0.46333000  0.13713000  1.0 -0.5857935202
O  O8  1  0.70410000  0.51901000  0.12330000  1.0 -0.5857935202
O  O9  1  0.49623000  0.92561000  0.50073000  1.0 -0.8229176652
O  O10  1  0.71610000  0.33665000  0.07600000  1.0 -0.5522698116
O  O11  1  0.77588000  0.42822000  0.01458000  1.0 -0.5094471824
O  O12  1  0.23402000  0.42177000  0.00842000  1.0 -0.5094471824
O  O13  1  0.36130000  0.32456000  0.06110000  1.0 -0.5522698116
O  O14  1  0.41537000  0.05540000  0.05607000  1.0 -0.5271931839
O  O15  1  0.54610000  0.97950000  0.13480000  1.0 -0.5761024457
O  O16  1  0.47387000  0.96333000  0.36287000  1.0 -0.5857935202
O  O17  1  0.29590000  0.01901000  0.37670000  1.0 -0.5857935202
O  O18  1  0.50377000  0.42561000  0.99927000  1.0 -0.8229176652
O  O19  1  0.71610000  0.16335000  0.57600000  1.0 -0.5522698116
O  O20  1  0.77588000  0.07178000  0.51458000  1.0 -0.5094471824
O  O21  1  0.23402000  0.07823000  0.50842000  1.0 -0.5094471824
O  O22  1  0.36130000  0.17544000  0.56110000  1.0 -0.5522698116
O  O23  1  0.41537000  0.44460000  0.55607000  1.0 -0.5271931839
O  O24  1  0.54610000  0.52050000  0.63480000  1.0 -0.5761024457
O  O25  1  0.47387000  0.53667000  0.86287000  1.0 -0.5857935202
O  O26  1  0.29590000  0.48099000  0.87670000  1.0 -0.5857935202
O  O27  1  0.50377000  0.07439000  0.49927000  1.0 -0.8229176652
O  O28  1  0.28390000  0.66335000  0.92400000  1.0 -0.5522698116
O  O29  1  0.22412000  0.57178000  0.98542000  1.0 -0.5094471824
O  O30  1  0.76598000  0.57823000  0.99158000  1.0 -0.5094471824
O  O31  1  0.63870000  0.67544000  0.93890000  1.0 -0.5522698116
O  O32  1  0.58463000  0.94460000  0.94393000  1.0 -0.5271931839
O  O33  1  0.45390000  0.02050000  0.86520000  1.0 -0.5761024457
O  O34  1  0.52613000  0.03667000  0.63713000  1.0 -0.5857935202
O  O35  1  0.70410000  0.98099000  0.62330000  1.0 -0.5857935202
O  O36  1  0.49623000  0.57439000  0.00073000  1.0 -0.8229176652
