# DDEC6 charges by PACMAN v1.1 (https://github.com/mtap-research/PACMAN-charge/)
data_HAMLAL_ASR_pacman
_symmetry_space_group_name_H-M   'P 1'
_cell_length_a   15.74450000
_cell_length_b   15.74450000
_cell_length_c   15.74450000
_cell_angle_alpha   151.14100000
_cell_angle_beta   96.88960000
_cell_angle_gamma   90.24230000
_symmetry_Int_Tables_number   1
_chemical_formula_structural   Ag3B3H14C10S2OF15
_chemical_formula_sum   'Ag12 B12 H56 C40 S8 O4 F60'
_cell_volume   1820.85972458
_cell_formula_units_Z   4
loop_
 _symmetry_equiv_pos_site_id
 _symmetry_equiv_pos_as_xyz
  1  'x, y, z'
loop_
 _atom_site_type_symbol
 _atom_site_label
 _atom_site_symmetry_multiplicity
 _atom_site_fract_x
 _atom_site_fract_y
 _atom_site_fract_z
 _atom_site_occupancy
 _atom_site_charge
Ag  Ag1  1  0.16336000  0.28243000  0.94579000  1.0 0.1419512511
Ag  Ag2  1  0.14760000  0.21880000  0.86640000  1.0 0.1612765597
Ag  Ag3  1  0.33664000  0.28243000  0.11907000  1.0 0.1419512511
Ag  Ag4  1  0.35240000  0.21880000  0.07120000  1.0 0.1612765597
Ag  Ag5  1  0.83664000  0.71757000  0.05421000  1.0 0.1419512511
Ag  Ag6  1  0.85240000  0.78120000  0.13360000  1.0 0.1612765597
Ag  Ag7  1  0.66336000  0.71757000  0.88093000  1.0 0.1419512511
Ag  Ag8  1  0.64760000  0.78120000  0.92880000  1.0 0.1612765597
Ag  Ag9  1  0.91253000  0.41253000  0.00000000  1.0 0.4077504159
Ag  Ag10  1  0.58747000  0.58747000  0.50000000  1.0 0.4077504159
Ag  Ag11  1  0.08747000  0.58747000  0.00000000  1.0 0.4077504159
Ag  Ag12  1  0.41253000  0.41253000  0.50000000  1.0 0.4077504159
B  B1  1  0.08000000  0.82270000  0.40270000  1.0 0.3938384087
B  B2  1  0.08030000  0.81500000  0.39530000  1.0 0.3983733685
B  B3  1  0.07870000  0.80300000  0.38170000  1.0 0.4077504159
B  B4  1  0.42000000  0.82270000  0.74270000  1.0 0.3938384087
B  B5  1  0.41970000  0.81500000  0.73470000  1.0 0.3983733685
B  B6  1  0.42130000  0.80300000  0.72430000  1.0 0.4077504159
B  B7  1  0.92000000  0.17730000  0.59730000  1.0 0.3938384087
B  B8  1  0.91970000  0.18500000  0.60470000  1.0 0.3983733685
B  B9  1  0.92130000  0.19700000  0.61830000  1.0 0.4077504159
B  B10  1  0.58000000  0.17730000  0.25730000  1.0 0.3938384087
B  B11  1  0.58030000  0.18500000  0.26530000  1.0 0.3983733685
B  B12  1  0.57870000  0.19700000  0.27570000  1.0 0.4077504159
H  H1  1  0.95050000  0.32920000  0.14210000  1.0 0.1007626609
H  H2  1  0.04250000  0.46810000  0.25760000  1.0 0.1217227088
H  H3  1  0.04060000  0.26720000  0.11300000  1.0 0.1007626609
H  H4  1  0.94310000  0.97560000  0.65130000  1.0 0.1069858038
H  H5  1  0.97390000  0.96380000  0.74090000  1.0 0.1007626609
H  H6  1  0.79850000  0.03510000  0.65540000  1.0 0.1069858038
H  H7  1  0.54950000  0.69160000  0.37870000  1.0 0.1007626609
H  H8  1  0.45750000  0.71510000  0.42560000  1.0 0.1217227088
H  H9  1  0.45940000  0.57240000  0.22660000  1.0 0.1007626609
H  H10  1  0.55690000  0.20820000  0.03250000  1.0 0.1069858038
H  H11  1  0.52610000  0.26700000  0.98990000  1.0 0.1007626609
H  H12  1  0.70150000  0.35690000  0.23660000  1.0 0.1069858038
H  H13  1  0.68710000  0.30840000  0.85790000  1.0 0.1007626609
H  H14  1  0.71050000  0.28490000  0.74240000  1.0 0.1217227088
H  H15  1  0.65420000  0.42760000  0.88700000  1.0 0.1007626609
H  H16  1  0.82430000  0.79180000  0.34870000  1.0 0.1069858038
H  H17  1  0.72290000  0.73300000  0.25910000  1.0 0.1007626609
H  H18  1  0.87970000  0.64310000  0.34460000  1.0 0.1069858038
H  H19  1  0.81290000  0.67080000  0.62130000  1.0 0.1007626609
H  H20  1  0.78950000  0.53190000  0.57440000  1.0 0.1217227088
H  H21  1  0.84580000  0.73280000  0.77340000  1.0 0.1007626609
H  H22  1  0.67570000  0.02440000  0.96750000  1.0 0.1069858038
H  H23  1  0.77710000  0.03620000  0.01010000  1.0 0.1007626609
H  H24  1  0.62030000  0.96490000  0.76340000  1.0 0.1069858038
H  H25  1  0.04950000  0.67080000  0.85790000  1.0 0.1007626609
H  H26  1  0.95750000  0.53190000  0.74240000  1.0 0.1217227088
H  H27  1  0.95940000  0.73280000  0.88700000  1.0 0.1007626609
H  H28  1  0.05690000  0.02440000  0.34870000  1.0 0.1069858038
H  H29  1  0.02610000  0.03620000  0.25910000  1.0 0.1007626609
H  H30  1  0.20150000  0.96490000  0.34460000  1.0 0.1069858038
H  H31  1  0.45050000  0.30840000  0.62130000  1.0 0.1007626609
H  H32  1  0.54250000  0.28490000  0.57440000  1.0 0.1217227088
H  H33  1  0.54060000  0.42760000  0.77340000  1.0 0.1007626609
H  H34  1  0.44310000  0.79180000  0.96750000  1.0 0.1069858038
H  H35  1  0.47390000  0.73300000  0.01010000  1.0 0.1007626609
H  H36  1  0.29850000  0.64310000  0.76340000  1.0 0.1069858038
H  H37  1  0.31290000  0.69160000  0.14210000  1.0 0.1007626609
H  H38  1  0.28950000  0.71510000  0.25760000  1.0 0.1217227088
H  H39  1  0.34580000  0.57240000  0.11300000  1.0 0.1007626609
H  H40  1  0.17570000  0.20820000  0.65130000  1.0 0.1069858038
H  H41  1  0.27710000  0.26700000  0.74090000  1.0 0.1007626609
H  H42  1  0.12030000  0.35690000  0.65540000  1.0 0.1069858038
H  H43  1  0.18710000  0.32920000  0.37870000  1.0 0.1007626609
H  H44  1  0.21050000  0.46810000  0.42560000  1.0 0.1217227088
H  H45  1  0.15420000  0.26720000  0.22660000  1.0 0.1007626609
H  H46  1  0.32430000  0.97560000  0.03250000  1.0 0.1069858038
H  H47  1  0.22290000  0.96380000  0.98990000  1.0 0.1007626609
H  H48  1  0.37970000  0.03510000  0.23660000  1.0 0.1069858038
H  H49  1  0.87710000  0.00000000  0.87710000  1.0 0.2134208512
H  H50  1  0.65320000  0.00000000  0.65320000  1.0 0.1069858038
H  H51  1  0.62290000  0.50000000  0.12290000  1.0 0.2134208512
H  H52  1  0.84680000  0.50000000  0.34680000  1.0 0.1069858038
H  H53  1  0.12290000  0.00000000  0.12290000  1.0 0.2134208512
H  H54  1  0.34680000  0.00000000  0.34680000  1.0 0.1069858038
H  H55  1  0.37710000  0.50000000  0.87710000  1.0 0.2157411011
H  H56  1  0.15320000  0.50000000  0.65320000  1.0 0.1069858038
C  C1  1  0.01070000  0.34130000  0.13920000  1.0 -0.3380395553
C  C2  1  0.94427000  0.03207000  0.75760000  1.0 -0.20368179
C  C3  1  0.85185000  0.01767000  0.76338000  1.0 0.042765668
C  C4  1  0.78506000  0.01986000  0.69920000  1.0 -0.1338373031
C  C5  1  0.48930000  0.62850000  0.33060000  1.0 -0.3380395553
C  C6  1  0.55573000  0.31333000  0.08780000  1.0 -0.20368179
C  C7  1  0.64815000  0.41153000  0.16582000  1.0 0.042765668
C  C8  1  0.71494000  0.41414000  0.23480000  1.0 -0.1338373031
C  C9  1  0.70210000  0.37150000  0.86080000  1.0 -0.3380395553
C  C10  1  0.77447000  0.68667000  0.24240000  1.0 -0.20368179
C  C11  1  0.75429000  0.58847000  0.23662000  1.0 0.042765668
C  C12  1  0.82066000  0.58586000  0.30080000  1.0 -0.1389636262
C  C13  1  0.79790000  0.65870000  0.66940000  1.0 -0.3380395553
C  C14  1  0.72553000  0.96793000  0.91220000  1.0 -0.20368179
C  C15  1  0.74571000  0.98233000  0.83418000  1.0 0.042765668
C  C16  1  0.67934000  0.98014000  0.76520000  1.0 -0.1338373031
C  C17  1  0.98930000  0.65870000  0.86080000  1.0 -0.3380395553
C  C18  1  0.05573000  0.96793000  0.24240000  1.0 -0.20368179
C  C19  1  0.14815000  0.98233000  0.23662000  1.0 0.042765668
C  C20  1  0.21494000  0.98014000  0.30080000  1.0 -0.1338373031
C  C21  1  0.51070000  0.37150000  0.66940000  1.0 -0.3380395553
C  C22  1  0.44427000  0.68667000  0.91220000  1.0 -0.20368179
C  C23  1  0.35185000  0.58847000  0.83418000  1.0 0.042765668
C  C24  1  0.28506000  0.58586000  0.76520000  1.0 -0.1338373031
C  C25  1  0.29790000  0.62850000  0.13920000  1.0 -0.3380395553
C  C26  1  0.22553000  0.31333000  0.75760000  1.0 -0.20368179
C  C27  1  0.24571000  0.41153000  0.76338000  1.0 0.042765668
C  C28  1  0.17934000  0.41414000  0.69920000  1.0 -0.1338373031
C  C29  1  0.20210000  0.34130000  0.33060000  1.0 -0.3380395553
C  C30  1  0.27447000  0.03207000  0.08780000  1.0 -0.20368179
C  C31  1  0.25429000  0.01767000  0.16582000  1.0 0.042765668
C  C32  1  0.32066000  0.01986000  0.23480000  1.0 -0.1389636262
C  C33  1  0.83160000  0.00000000  0.83160000  1.0 -0.1389636262
C  C34  1  0.69870000  0.00000000  0.69870000  1.0 -0.0928220643
C  C35  1  0.66840000  0.50000000  0.16840000  1.0 -0.1389636262
C  C36  1  0.80130000  0.50000000  0.30130000  1.0 -0.0928220643
C  C37  1  0.16840000  0.00000000  0.16840000  1.0 -0.1389636262
C  C38  1  0.30130000  0.00000000  0.30130000  1.0 -0.0928220643
C  C39  1  0.33160000  0.50000000  0.83160000  1.0 -0.1389636262
C  C40  1  0.19870000  0.50000000  0.69870000  1.0 -0.0928220643
S  S1  1  0.00813000  0.26612000  0.96419000  1.0 -0.0698209979
S  S2  1  0.49187000  0.45606000  0.25799000  1.0 -0.0698209979
S  S3  1  0.80193000  0.54394000  0.03581000  1.0 -0.0698209979
S  S4  1  0.69807000  0.73388000  0.74201000  1.0 -0.0698209979
S  S5  1  0.99187000  0.73388000  0.03581000  1.0 -0.0698209979
S  S6  1  0.50813000  0.54394000  0.74201000  1.0 -0.0698209979
S  S7  1  0.19807000  0.45606000  0.96419000  1.0 -0.0698209979
S  S8  1  0.30193000  0.26612000  0.25799000  1.0 -0.0698209979
O  O1  1  0.26270000  0.11080000  0.84810000  1.0 0.0657369339
O  O2  1  0.23730000  0.08540000  0.84810000  1.0 0.0657369339
O  O3  1  0.76270000  0.91460000  0.15190000  1.0 0.0657369339
O  O4  1  0.73730000  0.88920000  0.15190000  1.0 0.0657369339
F  F1  1  0.04220000  0.73030000  0.38910000  1.0 -0.1767990427
F  F2  1  0.99060000  0.75790000  0.34830000  1.0 -0.1071576445
F  F3  1  0.13740000  0.97140000  0.54800000  1.0 -0.1573465491
F  F4  1  0.00620000  0.78920000  0.41700000  1.0 -0.1031787588
F  F5  1  0.04740000  0.78630000  0.27910000  1.0 -0.0523364622
F  F6  1  0.45780000  0.84690000  0.68810000  1.0 -0.1767990427
F  F7  1  0.50940000  0.85770000  0.76730000  1.0 -0.1071576445
F  F8  1  0.36260000  0.91060000  0.83400000  1.0 -0.1573465491
F  F9  1  0.49380000  0.91080000  0.78300000  1.0 -0.1031787588
F  F10  1  0.45260000  0.73170000  0.73890000  1.0 -0.0523364622
F  F11  1  0.84120000  0.15310000  0.61090000  1.0 -0.1767990427
F  F12  1  0.90960000  0.14230000  0.65170000  1.0 -0.1071576445
F  F13  1  0.92340000  0.08940000  0.45200000  1.0 -0.1573465491
F  F14  1  0.87220000  0.08920000  0.58300000  1.0 -0.1031787588
F  F15  1  0.00720000  0.26830000  0.72090000  1.0 -0.0523364622
F  F16  1  0.65880000  0.26970000  0.31190000  1.0 -0.1767990427
F  F17  1  0.59040000  0.24210000  0.23270000  1.0 -0.1071576445
F  F18  1  0.57660000  0.02860000  0.16600000  1.0 -0.1573465491
F  F19  1  0.62780000  0.21080000  0.21700000  1.0 -0.1031787588
F  F20  1  0.49280000  0.21370000  0.26110000  1.0 -0.0523364622
F  F21  1  0.95780000  0.26970000  0.61090000  1.0 -0.1767990427
F  F22  1  0.00940000  0.24210000  0.65170000  1.0 -0.1071576445
F  F23  1  0.86260000  0.02860000  0.45200000  1.0 -0.1573465491
F  F24  1  0.99380000  0.21080000  0.58300000  1.0 -0.1031787588
F  F25  1  0.95260000  0.21370000  0.72090000  1.0 -0.0523364622
F  F26  1  0.54220000  0.15310000  0.31190000  1.0 -0.1767990427
F  F27  1  0.49060000  0.14230000  0.23270000  1.0 -0.1071576445
F  F28  1  0.63740000  0.08940000  0.16600000  1.0 -0.1573465491
F  F29  1  0.50620000  0.08920000  0.21700000  1.0 -0.1031787588
F  F30  1  0.54740000  0.26830000  0.26110000  1.0 -0.0523364622
F  F31  1  0.15880000  0.84690000  0.38910000  1.0 -0.1767990427
F  F32  1  0.09040000  0.85770000  0.34830000  1.0 -0.1071576445
F  F33  1  0.07660000  0.91060000  0.54800000  1.0 -0.1573465491
F  F34  1  0.12780000  0.91080000  0.41700000  1.0 -0.1031787588
F  F35  1  0.99280000  0.73170000  0.27910000  1.0 -0.0523364622
F  F36  1  0.34120000  0.73030000  0.68810000  1.0 -0.1767990427
F  F37  1  0.40960000  0.75790000  0.76730000  1.0 -0.1071576445
F  F38  1  0.42340000  0.97140000  0.83400000  1.0 -0.1573465491
F  F39  1  0.37220000  0.78920000  0.78300000  1.0 -0.1031787588
F  F40  1  0.50720000  0.78630000  0.73890000  1.0 -0.0523364622
F  F41  1  0.01660000  0.76830000  0.28490000  1.0 -0.1389636262
F  F42  1  0.07680000  0.00070000  0.57750000  1.0 -0.0024608357
F  F43  1  0.12280000  0.67870000  0.30150000  1.0 -0.2872127264
F  F44  1  0.11350000  0.96870000  0.58220000  1.0 -0.0751588518
F  F45  1  0.12020000  0.66100000  0.28120000  1.0 -0.2366189069
F  F46  1  0.48340000  0.76830000  0.75170000  1.0 -0.1389636262
F  F47  1  0.42320000  0.00070000  0.92390000  1.0 -0.0024608357
F  F48  1  0.37720000  0.67870000  0.55590000  1.0 -0.2872127264
F  F49  1  0.38650000  0.96870000  0.85520000  1.0 -0.0751588518
F  F50  1  0.37980000  0.66100000  0.54080000  1.0 -0.2366189069
F  F51  1  0.98340000  0.23170000  0.71510000  1.0 -0.1389636262
F  F52  1  0.92320000  0.99930000  0.42250000  1.0 -0.0024608357
F  F53  1  0.87720000  0.32130000  0.69850000  1.0 -0.2872127264
F  F54  1  0.88650000  0.03130000  0.41780000  1.0 -0.0751588518
F  F55  1  0.87980000  0.33900000  0.71880000  1.0 -0.2366189069
F  F56  1  0.51660000  0.23170000  0.24830000  1.0 -0.1389636262
F  F57  1  0.57680000  0.99930000  0.07610000  1.0 -0.0024608357
F  F58  1  0.62280000  0.32130000  0.44410000  1.0 -0.2872127264
F  F59  1  0.61350000  0.03130000  0.14480000  1.0 -0.0751588518
F  F60  1  0.62020000  0.33900000  0.45920000  1.0 -0.2366189069
