# DDEC6 charges by PACMAN v1.1 (https://github.com/mtap-research/PACMAN-charge/)
data_HANZOP_ASR_pacman
_symmetry_space_group_name_H-M   'P 1'
_cell_length_a   12.31280000
_cell_length_b   12.31280000
_cell_length_c   12.31280000
_cell_angle_alpha   103.91700000
_cell_angle_beta   103.91700000
_cell_angle_gamma   121.26400000
_symmetry_Int_Tables_number   1
_chemical_formula_structural   NiH7C10O7
_chemical_formula_sum   'Ni4 H28 C40 O28'
_cell_volume   1390.54381076
_cell_formula_units_Z   4
loop_
 _symmetry_equiv_pos_site_id
 _symmetry_equiv_pos_as_xyz
  1  'x, y, z'
loop_
 _atom_site_type_symbol
 _atom_site_label
 _atom_site_symmetry_multiplicity
 _atom_site_fract_x
 _atom_site_fract_y
 _atom_site_fract_z
 _atom_site_occupancy
 _atom_site_charge
Ni  Ni1  1  0.18950000  0.18950000  0.37900000  1.0 0.7528903791
Ni  Ni2  1  0.81050000  0.81050000  0.62100000  1.0 0.7528903791
Ni  Ni3  1  0.43950000  0.56050000  0.50000000  1.0 0.7528903791
Ni  Ni4  1  0.06050000  0.93950000  0.50000000  1.0 0.7528903791
H  H1  1  0.54828000  0.22809000  0.44121000  1.0 0.074222059
H  H2  1  0.17789000  0.38963000  0.71066000  1.0 0.1857175799
H  H3  1  0.04541000  0.14440000  0.62389000  1.0 0.1528708944
H  H4  1  0.78688000  0.10707000  0.55879000  1.0 0.074222059
H  H5  1  0.67897000  0.46723000  0.28934000  1.0 0.1857175799
H  H6  1  0.52051000  0.42152000  0.37611000  1.0 0.1528708944
H  H7  1  0.47809000  0.53688000  0.17981000  1.0 0.074222059
H  H8  1  0.63963000  0.42897000  0.71174000  1.0 0.1857175799
H  H9  1  0.39440000  0.27051000  0.59899000  1.0 0.1528708944
H  H10  1  0.35707000  0.29828000  0.82019000  1.0 0.074222059
H  H11  1  0.71723000  0.92789000  0.28826000  1.0 0.1857175799
H  H12  1  0.67152000  0.79541000  0.40101000  1.0 0.1528708944
H  H13  1  0.70172000  0.64293000  0.17981000  1.0 0.074222059
H  H14  1  0.07211000  0.28277000  0.71174000  1.0 0.1857175799
H  H15  1  0.20459000  0.32848000  0.59899000  1.0 0.1528708944
H  H16  1  0.46312000  0.52191000  0.82019000  1.0 0.074222059
H  H17  1  0.57103000  0.36037000  0.28826000  1.0 0.1857175799
H  H18  1  0.72949000  0.60560000  0.40101000  1.0 0.1528708944
H  H19  1  0.77191000  0.45172000  0.55879000  1.0 0.074222059
H  H20  1  0.61037000  0.82211000  0.28934000  1.0 0.1857175799
H  H21  1  0.85560000  0.95459000  0.37611000  1.0 0.1528708944
H  H22  1  0.89293000  0.21312000  0.44121000  1.0 0.074222059
H  H23  1  0.53277000  0.32103000  0.71066000  1.0 0.1857175799
H  H24  1  0.57848000  0.47949000  0.62389000  1.0 0.1528708944
H  H25  1  0.37749000  0.87749000  0.50000000  1.0 0.1317641595
H  H26  1  0.12749000  0.12749000  0.00000000  1.0 0.1317641595
H  H27  1  0.87251000  0.87251000  0.00000000  1.0 0.1317641595
H  H28  1  0.12251000  0.62251000  0.50000000  1.0 0.1317641595
C  C1  1  0.31380000  0.04310000  0.45030000  1.0 0.5621633613
C  C2  1  0.44580000  0.05510000  0.47210000  1.0 -0.0274256077
C  C3  1  0.55880000  0.16610000  0.46730000  1.0 -0.2250568858
C  C4  1  0.11200000  0.20210000  0.59810000  1.0 0.2740838388
C  C5  1  0.59280000  0.86350000  0.54970000  1.0 0.5621633613
C  C6  1  0.58300000  0.97370000  0.52790000  1.0 -0.0274256077
C  C7  1  0.69880000  0.09150000  0.53270000  1.0 -0.2250568858
C  C8  1  0.60400000  0.51390000  0.40190000  1.0 0.2740838388
C  C9  1  0.29310000  0.34280000  0.22930000  1.0 0.5621633613
C  C10  1  0.30510000  0.33300000  0.10930000  1.0 -0.0274256077
C  C11  1  0.41610000  0.44880000  0.10730000  1.0 -0.2250568858
C  C12  1  0.45210000  0.35400000  0.59010000  1.0 0.2740838388
C  C13  1  0.11350000  0.06380000  0.77070000  1.0 0.5621633613
C  C14  1  0.22370000  0.19580000  0.89070000  1.0 -0.0274256077
C  C15  1  0.34150000  0.30880000  0.89270000  1.0 -0.2250568858
C  C16  1  0.76390000  0.86200000  0.40990000  1.0 0.2740838388
C  C17  1  0.93620000  0.88650000  0.22930000  1.0 0.5621633613
C  C18  1  0.80420000  0.77630000  0.10930000  1.0 -0.0274256077
C  C19  1  0.69120000  0.65850000  0.10730000  1.0 -0.2250568858
C  C20  1  0.13800000  0.23610000  0.59010000  1.0 0.2740838388
C  C21  1  0.65720000  0.70690000  0.77070000  1.0 0.5621633613
C  C22  1  0.66700000  0.69490000  0.89070000  1.0 -0.0274256077
C  C23  1  0.55120000  0.58390000  0.89270000  1.0 -0.2250568858
C  C24  1  0.64600000  0.54790000  0.40990000  1.0 0.2740838388
C  C25  1  0.95690000  0.68620000  0.54970000  1.0 0.5621633613
C  C26  1  0.94490000  0.55420000  0.52790000  1.0 -0.0274256077
C  C27  1  0.83390000  0.44120000  0.53270000  1.0 -0.2250568858
C  C28  1  0.79790000  0.88800000  0.40190000  1.0 0.2740838388
C  C29  1  0.13650000  0.40720000  0.45030000  1.0 0.5621633613
C  C30  1  0.02630000  0.41700000  0.47210000  1.0 -0.0274256077
C  C31  1  0.90850000  0.30120000  0.46730000  1.0 -0.2244203976
C  C32  1  0.48610000  0.39600000  0.59810000  1.0 0.2740838388
C  C33  1  0.68870000  0.18870000  0.50000000  1.0 0.0551727647
C  C34  1  0.45620000  0.95620000  0.50000000  1.0 -0.1540320209
C  C35  1  0.43870000  0.43870000  0.00000000  1.0 0.0551727647
C  C36  1  0.20620000  0.20620000  0.00000000  1.0 -0.1540320209
C  C37  1  0.56130000  0.56130000  0.00000000  1.0 0.0551727647
C  C38  1  0.79380000  0.79380000  0.00000000  1.0 -0.1540320209
C  C39  1  0.81130000  0.31130000  0.50000000  1.0 0.0551727647
C  C40  1  0.04380000  0.54380000  0.50000000  1.0 -0.1540320209
O  O1  1  0.28760000  0.09600000  0.38260000  1.0 -0.5766380793
O  O2  1  0.24540000  0.98560000  0.50520000  1.0 -0.5195797375
O  O3  1  0.17530000  0.33300000  0.65410000  1.0 -0.0951612794
O  O4  1  0.71340000  0.90500000  0.61740000  1.0 -0.5766380793
O  O5  1  0.48040000  0.74020000  0.49480000  1.0 -0.5195797375
O  O6  1  0.67890000  0.52120000  0.34590000  1.0 -0.0951612794
O  O7  1  0.34600000  0.46340000  0.30840000  1.0 -0.5766380793
O  O8  1  0.23560000  0.23040000  0.24020000  1.0 -0.5195797375
O  O9  1  0.58300000  0.42890000  0.65770000  1.0 -0.0951612794
O  O10  1  0.15500000  0.03760000  0.69160000  1.0 -0.5766380793
O  O11  1  0.99020000  0.99540000  0.75980000  1.0 -0.5195797375
O  O12  1  0.77120000  0.92530000  0.34230000  1.0 -0.0939471117
O  O13  1  0.96240000  0.84500000  0.30840000  1.0 -0.5766380793
O  O14  1  0.00460000  0.00980000  0.24020000  1.0 -0.5195797375
O  O15  1  0.07470000  0.22880000  0.65770000  1.0 -0.0951612794
O  O16  1  0.53660000  0.65400000  0.69160000  1.0 -0.5766380793
O  O17  1  0.76960000  0.76440000  0.75980000  1.0 -0.5195797375
O  O18  1  0.57110000  0.41700000  0.34230000  1.0 -0.0951612794
O  O19  1  0.90400000  0.71240000  0.61740000  1.0 -0.5766380793
O  O20  1  0.01440000  0.75460000  0.49480000  1.0 -0.5195797375
O  O21  1  0.66700000  0.82470000  0.34590000  1.0 -0.0939471117
O  O22  1  0.09500000  0.28660000  0.38260000  1.0 -0.5766380793
O  O23  1  0.25980000  0.51960000  0.50520000  1.0 -0.5195797375
O  O24  1  0.47880000  0.32110000  0.65410000  1.0 -0.0951612794
O  O25  1  0.12500000  0.13690000  0.51190000  1.0 -0.3969537756
O  O26  1  0.62500000  0.61310000  0.48810000  1.0 -0.3969537756
O  O27  1  0.38690000  0.37500000  0.51190000  1.0 -0.3969537756
O  O28  1  0.86310000  0.87500000  0.48810000  1.0 -0.3969537756
