# DDEC6 charges by PACMAN v1.1 (https://github.com/mtap-research/PACMAN-charge/)
data_HAPJIV_FSR_pacman
_symmetry_space_group_name_H-M   'P 1'
_cell_length_a   13.99130000
_cell_length_b   13.99130000
_cell_length_c   8.53400000
_cell_angle_alpha   86.59380000
_cell_angle_beta   93.40620000
_cell_angle_gamma   123.91200000
_symmetry_Int_Tables_number   1
_chemical_formula_structural   CuH10C10(NO2)2
_chemical_formula_sum   'Cu4 H40 C40 N8 O16'
_cell_volume   1383.26650837
_cell_formula_units_Z   4
loop_
 _symmetry_equiv_pos_site_id
 _symmetry_equiv_pos_as_xyz
  1  'x, y, z'
loop_
 _atom_site_type_symbol
 _atom_site_label
 _atom_site_symmetry_multiplicity
 _atom_site_fract_x
 _atom_site_fract_y
 _atom_site_fract_z
 _atom_site_occupancy
 _atom_site_charge
Cu  Cu1  1  0.99799000  0.40959000  0.05863000  1.0 0.7490305304
Cu  Cu2  1  0.40959000  0.99799000  0.44137000  1.0 0.7490305304
Cu  Cu3  1  0.00201000  0.59041000  0.94137000  1.0 0.7490305304
Cu  Cu4  1  0.59041000  0.00201000  0.55863000  1.0 0.7490305304
H  H1  1  0.15410000  0.34630000  0.23830000  1.0 0.1124781369
H  H2  1  0.14730000  0.20310000  0.39990000  1.0 0.1286771247
H  H3  1  0.80200000  0.00760000  0.32650000  1.0 0.141450564
H  H4  1  0.81900000  0.15880000  0.17260000  1.0 0.1164160296
H  H5  1  0.95380000  0.58060000  0.48370000  1.0 0.141450564
H  H6  1  0.84800000  0.57140000  0.38550000  1.0 0.1286771247
H  H7  1  0.78030000  0.42130000  0.58040000  1.0 0.0931682965
H  H8  1  0.85030000  0.37670000  0.50530000  1.0 0.1001651286
H  H9  1  0.73410000  0.34150000  0.26770000  1.0 0.141450564
H  H10  1  0.65810000  0.37070000  0.36020000  1.0 0.1286771247
H  H11  1  0.34630000  0.15410000  0.26170000  1.0 0.1124781369
H  H12  1  0.20310000  0.14730000  0.10010000  1.0 0.1286771247
H  H13  1  0.00760000  0.80200000  0.17350000  1.0 0.141450564
H  H14  1  0.15880000  0.81900000  0.32740000  1.0 0.1164160296
H  H15  1  0.58060000  0.95380000  0.01630000  1.0 0.141450564
H  H16  1  0.57140000  0.84800000  0.11450000  1.0 0.1286771247
H  H17  1  0.42130000  0.78030000  0.91960000  1.0 0.0931682965
H  H18  1  0.37670000  0.85030000  0.99470000  1.0 0.1001651286
H  H19  1  0.34150000  0.73410000  0.23230000  1.0 0.141450564
H  H20  1  0.37070000  0.65810000  0.13980000  1.0 0.1286771247
H  H21  1  0.84590000  0.65370000  0.76170000  1.0 0.1124781369
H  H22  1  0.85270000  0.79690000  0.60010000  1.0 0.1286771247
H  H23  1  0.19800000  0.99240000  0.67350000  1.0 0.141450564
H  H24  1  0.18100000  0.84120000  0.82740000  1.0 0.1164160296
H  H25  1  0.04620000  0.41940000  0.51630000  1.0 0.141450564
H  H26  1  0.15200000  0.42860000  0.61450000  1.0 0.1286771247
H  H27  1  0.21970000  0.57870000  0.41960000  1.0 0.0931682965
H  H28  1  0.14970000  0.62330000  0.49470000  1.0 0.1001651286
H  H29  1  0.26590000  0.65850000  0.73230000  1.0 0.141450564
H  H30  1  0.34190000  0.62930000  0.63980000  1.0 0.1286771247
H  H31  1  0.65370000  0.84590000  0.73830000  1.0 0.1124781369
H  H32  1  0.79690000  0.85270000  0.89990000  1.0 0.1286771247
H  H33  1  0.99240000  0.19800000  0.82650000  1.0 0.141450564
H  H34  1  0.84120000  0.18100000  0.67260000  1.0 0.1164160296
H  H35  1  0.41940000  0.04620000  0.98370000  1.0 0.141450564
H  H36  1  0.42860000  0.15200000  0.88550000  1.0 0.1286771247
H  H37  1  0.57870000  0.21970000  0.08040000  1.0 0.0931682965
H  H38  1  0.62330000  0.14970000  0.00530000  1.0 0.1001651286
H  H39  1  0.65850000  0.26590000  0.76770000  1.0 0.141450564
H  H40  1  0.62930000  0.34190000  0.86020000  1.0 0.1286771247
C  C1  1  0.08153000  0.27667000  0.25700000  1.0 0.0931682965
C  C2  1  0.07857000  0.19183000  0.35310000  1.0 -0.2128887401
C  C3  1  0.97378000  0.09102000  0.37890000  1.0 0.1643365398
C  C4  1  0.87539000  0.07701000  0.31070000  1.0 -0.1935129129
C  C5  1  0.88674000  0.16706000  0.21830000  1.0 0.0931682965
C  C6  1  0.93951000  0.52989000  0.25670000  1.0 0.6206952035
C  C7  1  0.88995000  0.53365000  0.40750000  1.0 -0.3285328672
C  C8  1  0.80796000  0.41384000  0.48070000  1.0 -0.0953387023
C  C9  1  0.62761000  0.21219000  0.42490000  1.0 0.6206952035
C  C10  1  0.70523000  0.33797000  0.37240000  1.0 -0.3241817058
C  C11  1  0.27667000  0.08153000  0.24300000  1.0 0.0931682965
C  C12  1  0.19183000  0.07857000  0.14690000  1.0 -0.2128887401
C  C13  1  0.09102000  0.97378000  0.12110000  1.0 0.1643365398
C  C14  1  0.07701000  0.87539000  0.18930000  1.0 -0.1935129129
C  C15  1  0.16706000  0.88674000  0.28170000  1.0 0.0931682965
C  C16  1  0.52989000  0.93951000  0.24330000  1.0 0.6206952035
C  C17  1  0.53365000  0.88995000  0.09250000  1.0 -0.3285328672
C  C18  1  0.41384000  0.80796000  0.01930000  1.0 -0.0953387023
C  C19  1  0.21219000  0.62761000  0.07510000  1.0 0.6206952035
C  C20  1  0.33797000  0.70523000  0.12760000  1.0 -0.3241817058
C  C21  1  0.91847000  0.72333000  0.74300000  1.0 0.0931682965
C  C22  1  0.92143000  0.80817000  0.64690000  1.0 -0.2128887401
C  C23  1  0.02622000  0.90898000  0.62110000  1.0 0.1643365398
C  C24  1  0.12461000  0.92299000  0.68930000  1.0 -0.1935129129
C  C25  1  0.11326000  0.83294000  0.78170000  1.0 0.0931682965
C  C26  1  0.06049000  0.47011000  0.74330000  1.0 0.6206952035
C  C27  1  0.11005000  0.46635000  0.59250000  1.0 -0.3285328672
C  C28  1  0.19204000  0.58616000  0.51930000  1.0 -0.0953387023
C  C29  1  0.37239000  0.78781000  0.57510000  1.0 0.6206952035
C  C30  1  0.29477000  0.66203000  0.62760000  1.0 -0.3241817058
C  C31  1  0.72333000  0.91847000  0.75700000  1.0 0.0931682965
C  C32  1  0.80817000  0.92143000  0.85310000  1.0 -0.2128887401
C  C33  1  0.90898000  0.02622000  0.87890000  1.0 0.1643365398
C  C34  1  0.92299000  0.12461000  0.81070000  1.0 -0.1935129129
C  C35  1  0.83294000  0.11326000  0.71830000  1.0 0.0931682965
C  C36  1  0.47011000  0.06049000  0.75670000  1.0 0.6206952035
C  C37  1  0.46635000  0.11005000  0.90750000  1.0 -0.3285328672
C  C38  1  0.58616000  0.19204000  0.98070000  1.0 -0.0953387023
C  C39  1  0.78781000  0.37239000  0.92490000  1.0 0.6206952035
C  C40  1  0.66203000  0.29477000  0.87240000  1.0 -0.3241817058
N  N1  1  0.98807000  0.26533000  0.19000000  1.0 -0.2354788743
N  N2  1  0.95662000  0.99278000  0.47170000  1.0 -0.0953387023
N  N3  1  0.26533000  0.98807000  0.31000000  1.0 -0.2354788743
N  N4  1  0.99278000  0.95662000  0.02830000  1.0 -0.0953387023
N  N5  1  0.01193000  0.73467000  0.81000000  1.0 -0.2354788743
N  N6  1  0.04338000  0.00722000  0.52830000  1.0 -0.094413966
N  N7  1  0.73467000  0.01193000  0.69000000  1.0 -0.2354788743
N  N8  1  0.00722000  0.04338000  0.97170000  1.0 -0.094413966
O  O1  1  0.95885000  0.45315000  0.24790000  1.0 -0.5202552925
O  O2  1  0.95846000  0.60374000  0.15040000  1.0 -0.5281287134
O  O3  1  0.67547000  0.16593000  0.49110000  1.0 -0.5202552925
O  O4  1  0.52273000  0.16287000  0.39460000  1.0 -0.5202552925
O  O5  1  0.45315000  0.95885000  0.25210000  1.0 -0.5202552925
O  O6  1  0.60374000  0.95846000  0.34960000  1.0 -0.5281287134
O  O7  1  0.16593000  0.67547000  0.00890000  1.0 -0.5202552925
O  O8  1  0.16287000  0.52273000  0.10540000  1.0 -0.5202552925
O  O9  1  0.04115000  0.54685000  0.75210000  1.0 -0.5202552925
O  O10  1  0.04154000  0.39626000  0.84960000  1.0 -0.5281287134
O  O11  1  0.32453000  0.83407000  0.50890000  1.0 -0.5202552925
O  O12  1  0.47727000  0.83713000  0.60540000  1.0 -0.5202552925
O  O13  1  0.54685000  0.04115000  0.74790000  1.0 -0.5202552925
O  O14  1  0.39626000  0.04154000  0.65040000  1.0 -0.5281287134
O  O15  1  0.83407000  0.32453000  0.99110000  1.0 -0.5202552925
O  O16  1  0.83713000  0.47727000  0.89460000  1.0 -0.5202552925
