# DDEC6 charges by PACMAN v1.1 (https://github.com/mtap-research/PACMAN-charge/)
data_HAPNOE_ASR_pacman
_symmetry_space_group_name_H-M   'P 1'
_cell_length_a   11.70870000
_cell_length_b   11.70870000
_cell_length_c   23.20340000
_cell_angle_alpha   80.60680000
_cell_angle_beta   99.39320000
_cell_angle_gamma   138.44900000
_symmetry_Int_Tables_number   1
_chemical_formula_structural   ErH7C14(NO3)2
_chemical_formula_sum   'Er4 H28 C56 N8 O24'
_cell_volume   2077.54543582
_cell_formula_units_Z   4
loop_
 _symmetry_equiv_pos_site_id
 _symmetry_equiv_pos_as_xyz
  1  'x, y, z'
loop_
 _atom_site_type_symbol
 _atom_site_label
 _atom_site_symmetry_multiplicity
 _atom_site_fract_x
 _atom_site_fract_y
 _atom_site_fract_z
 _atom_site_occupancy
 _atom_site_charge
Er  Er1  1  0.28719000  0.78229000  0.77162000  1.0 2.0632586126
Er  Er2  1  0.78229000  0.28719000  0.72838000  1.0 2.0632586126
Er  Er3  1  0.71281000  0.21771000  0.22838000  1.0 2.0632586126
Er  Er4  1  0.21771000  0.71281000  0.27162000  1.0 2.0632586126
H  H1  1  0.68530000  0.87710000  0.92090000  1.0 0.1296932344
H  H2  1  0.87710000  0.68530000  0.57910000  1.0 0.1296932344
H  H3  1  0.31470000  0.12290000  0.07910000  1.0 0.1296932344
H  H4  1  0.12290000  0.31470000  0.42090000  1.0 0.1296932344
H  H5  1  0.19840000  0.22980000  0.92230000  1.0 0.121320421
H  H6  1  0.22980000  0.19840000  0.57770000  1.0 0.121320421
H  H7  1  0.80160000  0.77020000  0.07770000  1.0 0.121320421
H  H8  1  0.77020000  0.80160000  0.42230000  1.0 0.121320421
H  H9  1  0.19480000  0.34180000  0.83310000  1.0 0.1400249005
H  H10  1  0.34180000  0.19480000  0.66690000  1.0 0.1400249005
H  H11  1  0.80520000  0.65820000  0.16690000  1.0 0.1400249005
H  H12  1  0.65820000  0.80520000  0.33310000  1.0 0.1400249005
H  H13  1  0.38180000  0.12040000  0.45730000  1.0 0.1400249005
H  H14  1  0.12040000  0.38180000  0.04270000  1.0 0.1400249005
H  H15  1  0.61820000  0.87960000  0.54270000  1.0 0.1400249005
H  H16  1  0.87960000  0.61820000  0.95730000  1.0 0.1400249005
H  H17  1  0.16740000  0.84400000  0.42900000  1.0 0.121320421
H  H18  1  0.84400000  0.16740000  0.07100000  1.0 0.121320421
H  H19  1  0.83260000  0.15600000  0.57100000  1.0 0.121320421
H  H20  1  0.15600000  0.83260000  0.92900000  1.0 0.121320421
H  H21  1  0.20090000  0.67370000  0.58760000  1.0 0.1296932344
H  H22  1  0.67370000  0.20090000  0.91240000  1.0 0.1296932344
H  H23  1  0.79910000  0.32630000  0.41240000  1.0 0.1296932344
H  H24  1  0.32630000  0.79910000  0.08760000  1.0 0.1296932344
H  H25  1  0.57600000  0.24000000  0.58970000  1.0 0.3517109696
H  H26  1  0.24000000  0.57600000  0.91030000  1.0 0.3517109696
H  H27  1  0.42400000  0.76000000  0.41030000  1.0 0.3517109696
H  H28  1  0.76000000  0.42400000  0.08970000  1.0 0.3517109696
C  C1  1  0.61300000  0.95500000  0.82320000  1.0 0.6258780007
C  C2  1  0.95500000  0.61300000  0.67680000  1.0 0.6258780007
C  C3  1  0.38700000  0.04500000  0.17680000  1.0 0.6258780007
C  C4  1  0.04500000  0.38700000  0.32320000  1.0 0.6258780007
C  C5  1  0.78490000  0.04070000  0.84860000  1.0 -0.1710294316
C  C6  1  0.04070000  0.78490000  0.65140000  1.0 -0.1710294316
C  C7  1  0.21510000  0.95930000  0.15140000  1.0 -0.1710294316
C  C8  1  0.95930000  0.21510000  0.34860000  1.0 -0.1710294316
C  C9  1  0.78840000  0.97200000  0.90330000  1.0 -0.1400528605
C  C10  1  0.97200000  0.78840000  0.59670000  1.0 -0.1400528605
C  C11  1  0.21160000  0.02800000  0.09670000  1.0 -0.1400528605
C  C12  1  0.02800000  0.21160000  0.40330000  1.0 -0.1400528605
C  C13  1  0.93960000  0.04080000  0.93160000  1.0 0.1400249005
C  C14  1  0.04080000  0.93960000  0.56840000  1.0 0.1400249005
C  C15  1  0.06040000  0.95920000  0.06840000  1.0 0.1400249005
C  C16  1  0.95920000  0.06040000  0.43160000  1.0 0.1400249005
C  C17  1  0.09420000  0.18200000  0.90420000  1.0 -0.1160657638
C  C18  1  0.18200000  0.09420000  0.59580000  1.0 -0.1160657638
C  C19  1  0.90580000  0.81800000  0.09580000  1.0 -0.1160657638
C  C20  1  0.81800000  0.90580000  0.40420000  1.0 -0.1160657638
C  C21  1  0.09130000  0.24890000  0.85080000  1.0 -0.1926828529
C  C22  1  0.24890000  0.09130000  0.64920000  1.0 -0.1926828529
C  C23  1  0.90870000  0.75110000  0.14920000  1.0 -0.1926828529
C  C24  1  0.75110000  0.90870000  0.35080000  1.0 -0.1926828529
C  C25  1  0.93870000  0.18370000  0.82130000  1.0 0.3374706153
C  C26  1  0.18370000  0.93870000  0.67870000  1.0 0.3374706153
C  C27  1  0.06130000  0.81630000  0.17870000  1.0 0.3374706153
C  C28  1  0.81630000  0.06130000  0.32130000  1.0 0.3374706153
C  C29  1  0.44270000  0.96270000  0.64180000  1.0 0.6553425436
C  C30  1  0.96270000  0.44270000  0.85820000  1.0 0.6553425436
C  C31  1  0.55730000  0.03730000  0.35820000  1.0 0.6553425436
C  C32  1  0.03730000  0.55730000  0.14180000  1.0 0.6553425436
C  C33  1  0.36830000  0.92990000  0.57960000  1.0 -0.163233852
C  C34  1  0.92990000  0.36830000  0.92040000  1.0 -0.163233852
C  C35  1  0.63170000  0.07010000  0.42040000  1.0 -0.163233852
C  C36  1  0.07010000  0.63170000  0.07960000  1.0 -0.163233852
C  C37  1  0.42530000  0.06730000  0.53980000  1.0 0.275252374
C  C38  1  0.06730000  0.42530000  0.96020000  1.0 0.275252374
C  C39  1  0.57470000  0.93270000  0.46020000  1.0 0.275252374
C  C40  1  0.93270000  0.57470000  0.03980000  1.0 0.275252374
C  C41  1  0.34670000  0.03110000  0.48360000  1.0 -0.2077158447
C  C42  1  0.03110000  0.34670000  0.01640000  1.0 -0.2077158447
C  C43  1  0.65330000  0.96890000  0.51640000  1.0 -0.2077158447
C  C44  1  0.96890000  0.65330000  0.98360000  1.0 -0.2077158447
C  C45  1  0.21850000  0.86570000  0.46680000  1.0 -0.1160657638
C  C46  1  0.86570000  0.21850000  0.03320000  1.0 -0.1160657638
C  C47  1  0.78150000  0.13430000  0.53320000  1.0 -0.1160657638
C  C48  1  0.13430000  0.78150000  0.96680000  1.0 -0.1160657638
C  C49  1  0.16250000  0.72870000  0.50500000  1.0 0.1400249005
C  C50  1  0.72870000  0.16250000  0.99500000  1.0 0.1400249005
C  C51  1  0.83750000  0.27130000  0.49500000  1.0 0.1400249005
C  C52  1  0.27130000  0.83750000  0.00500000  1.0 0.1400249005
C  C53  1  0.23850000  0.76410000  0.56140000  1.0 -0.1312852371
C  C54  1  0.76410000  0.23850000  0.93860000  1.0 -0.1312852371
C  C55  1  0.76150000  0.23590000  0.43860000  1.0 -0.1312852371
C  C56  1  0.23590000  0.76150000  0.06140000  1.0 -0.1312852371
N  N1  1  0.92830000  0.96410000  0.98770000  1.0 -0.1312852371
N  N2  1  0.96410000  0.92830000  0.51230000  1.0 -0.1312852371
N  N3  1  0.07170000  0.03590000  0.01230000  1.0 -0.1312852371
N  N4  1  0.03590000  0.07170000  0.48770000  1.0 -0.1312852371
N  N5  1  0.03160000  0.56160000  0.48183000  1.0 -0.1028597932
N  N6  1  0.56160000  0.03160000  0.01817000  1.0 -0.1028597932
N  N7  1  0.96840000  0.43840000  0.51817000  1.0 -0.1028597932
N  N8  1  0.43840000  0.96840000  0.98183000  1.0 -0.1028597932
O  O1  1  0.47767000  0.81673000  0.84612000  1.0 -0.6205536033
O  O2  1  0.81673000  0.47767000  0.65388000  1.0 -0.6205536033
O  O3  1  0.52233000  0.18327000  0.15388000  1.0 -0.6205536033
O  O4  1  0.18327000  0.52233000  0.34612000  1.0 -0.6205536033
O  O5  1  0.59783000  0.01937000  0.77567000  1.0 -0.8223879095
O  O6  1  0.01937000  0.59783000  0.72433000  1.0 -0.8223879095
O  O7  1  0.40217000  0.98063000  0.22433000  1.0 -0.8223879095
O  O8  1  0.98063000  0.40217000  0.27567000  1.0 -0.8223879095
O  O9  1  0.57454000  0.11626000  0.65486000  1.0 -0.6809442545
O  O10  1  0.11626000  0.57454000  0.84514000  1.0 -0.6809442545
O  O11  1  0.42546000  0.88374000  0.34514000  1.0 -0.6809442545
O  O12  1  0.88374000  0.42546000  0.15486000  1.0 -0.6809442545
O  O13  1  0.94786000  0.25954000  0.77047000  1.0 -0.7071410771
O  O14  1  0.25954000  0.94786000  0.72953000  1.0 -0.7071410771
O  O15  1  0.05214000  0.74046000  0.22953000  1.0 -0.7071410771
O  O16  1  0.74046000  0.05214000  0.27047000  1.0 -0.7071410771
O  O17  1  0.36437000  0.83323000  0.67701000  1.0 -0.6418784018
O  O18  1  0.83323000  0.36437000  0.82299000  1.0 -0.6418784018
O  O19  1  0.63563000  0.16677000  0.32299000  1.0 -0.6418784018
O  O20  1  0.16677000  0.63563000  0.17701000  1.0 -0.6418784018
O  O21  1  0.55380000  0.23520000  0.55288000  1.0 -0.4258581455
O  O22  1  0.23520000  0.55380000  0.94712000  1.0 -0.4258581455
O  O23  1  0.44620000  0.76480000  0.44712000  1.0 -0.4258581455
O  O24  1  0.76480000  0.44620000  0.05288000  1.0 -0.4258581455
