# DDEC6 charges by PACMAN v1.1 (https://github.com/mtap-research/PACMAN-charge/)
data_HAPPAS_ASR_pacman
_symmetry_space_group_name_H-M   'P 1'
_cell_length_a   11.56670000
_cell_length_b   11.56670000
_cell_length_c   23.15800000
_cell_angle_alpha   81.19700000
_cell_angle_beta   98.80300000
_cell_angle_gamma   138.27800000
_symmetry_Int_Tables_number   1
_chemical_formula_structural   LuH6C14(NO3)2
_chemical_formula_sum   'Lu4 H24 C56 N8 O24'
_cell_volume   2034.11426090
_cell_formula_units_Z   4
loop_
 _symmetry_equiv_pos_site_id
 _symmetry_equiv_pos_as_xyz
  1  'x, y, z'
loop_
 _atom_site_type_symbol
 _atom_site_label
 _atom_site_symmetry_multiplicity
 _atom_site_fract_x
 _atom_site_fract_y
 _atom_site_fract_z
 _atom_site_occupancy
 _atom_site_charge
Lu  Lu1  1  0.21517000  0.71097000  0.77145000  1.0 1.6518804855
Lu  Lu2  1  0.71097000  0.21517000  0.72855000  1.0 1.6518804855
Lu  Lu3  1  0.78483000  0.28903000  0.22855000  1.0 1.6518804855
Lu  Lu4  1  0.28903000  0.78483000  0.27145000  1.0 1.6518804855
H  H1  1  0.11490000  0.31250000  0.92140000  1.0 0.148252799
H  H2  1  0.31250000  0.11490000  0.57860000  1.0 0.148252799
H  H3  1  0.88510000  0.68750000  0.07860000  1.0 0.148252799
H  H4  1  0.68750000  0.88510000  0.42140000  1.0 0.148252799
H  H5  1  0.32490000  0.79730000  0.58730000  1.0 0.1323800827
H  H6  1  0.79730000  0.32490000  0.91270000  1.0 0.1323800827
H  H7  1  0.67510000  0.20270000  0.41270000  1.0 0.1323800827
H  H8  1  0.20270000  0.67510000  0.08730000  1.0 0.1323800827
H  H9  1  0.16020000  0.84340000  0.43010000  1.0 0.1323800827
H  H10  1  0.84340000  0.16020000  0.06990000  1.0 0.1323800827
H  H11  1  0.83980000  0.15660000  0.56990000  1.0 0.1323800827
H  H12  1  0.15660000  0.83980000  0.93010000  1.0 0.1323800827
H  H13  1  0.76490000  0.79790000  0.92410000  1.0 0.1323800827
H  H14  1  0.79790000  0.76490000  0.57590000  1.0 0.1323800827
H  H15  1  0.23510000  0.20210000  0.07590000  1.0 0.1323800827
H  H16  1  0.20210000  0.23510000  0.42410000  1.0 0.1323800827
H  H17  1  0.87220000  0.61120000  0.45610000  1.0 0.1356460653
H  H18  1  0.61120000  0.87220000  0.04390000  1.0 0.1356460653
H  H19  1  0.12780000  0.38880000  0.54390000  1.0 0.1356460653
H  H20  1  0.38880000  0.12780000  0.95610000  1.0 0.1356460653
H  H21  1  0.65950000  0.80230000  0.83140000  1.0 0.148252799
H  H22  1  0.80230000  0.65950000  0.66860000  1.0 0.148252799
H  H23  1  0.34050000  0.19770000  0.16860000  1.0 0.148252799
H  H24  1  0.19770000  0.34050000  0.33140000  1.0 0.148252799
C  C1  1  0.04260000  0.38720000  0.82200000  1.0 0.6201045937
C  C2  1  0.38720000  0.04260000  0.67800000  1.0 0.6201045937
C  C3  1  0.95740000  0.61280000  0.17800000  1.0 0.6201045937
C  C4  1  0.61280000  0.95740000  0.32200000  1.0 0.6201045937
C  C5  1  0.95840000  0.05680000  0.92980000  1.0 0.1323800827
C  C6  1  0.05680000  0.95840000  0.57020000  1.0 0.1323800827
C  C7  1  0.04160000  0.94320000  0.07020000  1.0 0.1323800827
C  C8  1  0.94320000  0.04160000  0.42980000  1.0 0.1323800827
C  C9  1  0.02460000  0.20940000  0.90250000  1.0 -0.1243850649
C  C10  1  0.20940000  0.02460000  0.59750000  1.0 -0.1243850649
C  C11  1  0.97540000  0.79060000  0.09750000  1.0 -0.1243850649
C  C12  1  0.79060000  0.97540000  0.40250000  1.0 -0.1243850649
C  C13  1  0.03720000  0.55660000  0.64120000  1.0 0.6475151754
C  C14  1  0.55660000  0.03720000  0.85880000  1.0 0.6475151754
C  C15  1  0.96280000  0.44340000  0.35880000  1.0 0.6475151754
C  C16  1  0.44340000  0.96280000  0.14120000  1.0 0.6475151754
C  C17  1  0.23420000  0.76020000  0.56120000  1.0 -0.1243850649
C  C18  1  0.76020000  0.23420000  0.93880000  1.0 -0.1243850649
C  C19  1  0.76580000  0.23980000  0.43880000  1.0 -0.1243850649
C  C20  1  0.23980000  0.76580000  0.06120000  1.0 -0.1243850649
C  C21  1  0.13550000  0.78630000  0.46690000  1.0 -0.1101922776
C  C22  1  0.78630000  0.13550000  0.03310000  1.0 -0.1101922776
C  C23  1  0.86450000  0.21370000  0.53310000  1.0 -0.1101922776
C  C24  1  0.21370000  0.86450000  0.96690000  1.0 -0.1101922776
C  C25  1  0.95990000  0.21370000  0.84740000  1.0 -0.1462191999
C  C26  1  0.21370000  0.95990000  0.65260000  1.0 -0.1462191999
C  C27  1  0.04010000  0.78630000  0.15260000  1.0 -0.1462191999
C  C28  1  0.78630000  0.04010000  0.34740000  1.0 -0.1462191999
C  C29  1  0.06620000  0.62940000  0.57850000  1.0 -0.1343318619
C  C30  1  0.62940000  0.06620000  0.92150000  1.0 -0.1343318619
C  C31  1  0.93380000  0.37060000  0.42150000  1.0 -0.1343318619
C  C32  1  0.37060000  0.93380000  0.07850000  1.0 -0.1343318619
C  C33  1  0.26910000  0.83710000  0.50480000  1.0 0.148252799
C  C34  1  0.83710000  0.26910000  0.99520000  1.0 0.148252799
C  C35  1  0.73090000  0.16290000  0.49520000  1.0 0.148252799
C  C36  1  0.16290000  0.73090000  0.00480000  1.0 0.148252799
C  C37  1  0.81650000  0.90290000  0.90480000  1.0 -0.1034460686
C  C38  1  0.90290000  0.81650000  0.59520000  1.0 -0.1034460686
C  C39  1  0.18350000  0.09710000  0.09520000  1.0 -0.1034460686
C  C40  1  0.09710000  0.18350000  0.40480000  1.0 -0.1034460686
C  C41  1  0.92610000  0.57110000  0.54040000  1.0 0.3079372659
C  C42  1  0.57110000  0.92610000  0.95960000  1.0 0.3079372659
C  C43  1  0.07390000  0.42890000  0.45960000  1.0 0.3079372659
C  C44  1  0.42890000  0.07390000  0.04040000  1.0 0.3079372659
C  C45  1  0.96240000  0.64980000  0.48300000  1.0 -0.1679780786
C  C46  1  0.64980000  0.96240000  0.01700000  1.0 -0.1679780786
C  C47  1  0.03760000  0.35020000  0.51700000  1.0 -0.1679780786
C  C48  1  0.35020000  0.03760000  0.98300000  1.0 -0.1679780786
C  C49  1  0.75030000  0.90610000  0.84990000  1.0 -0.1679780786
C  C50  1  0.90610000  0.75030000  0.65010000  1.0 -0.1679780786
C  C51  1  0.24970000  0.09390000  0.15010000  1.0 -0.1679780786
C  C52  1  0.09390000  0.24970000  0.34990000  1.0 -0.1679780786
C  C53  1  0.81460000  0.05800000  0.82170000  1.0 0.3079372659
C  C54  1  0.05800000  0.81460000  0.67830000  1.0 0.3079372659
C  C55  1  0.18540000  0.94200000  0.17830000  1.0 0.3079372659
C  C56  1  0.94200000  0.18540000  0.32170000  1.0 0.3079372659
N  N1  1  0.03360000  0.06980000  0.98710000  1.0 -0.1101922776
N  N2  1  0.06980000  0.03360000  0.51290000  1.0 -0.1101922776
N  N3  1  0.96640000  0.93020000  0.01290000  1.0 -0.1101922776
N  N4  1  0.93020000  0.96640000  0.48710000  1.0 -0.1101922776
N  N5  1  0.43440000  0.96360000  0.48160000  1.0 -0.1101922776
N  N6  1  0.96360000  0.43440000  0.01840000  1.0 -0.1101922776
N  N7  1  0.56560000  0.03640000  0.51840000  1.0 -0.1101922776
N  N8  1  0.03640000  0.56560000  0.98160000  1.0 -0.1101922776
O  O1  1  0.17420000  0.65000000  0.67790000  1.0 -0.626571136
O  O2  1  0.65000000  0.17420000  0.82210000  1.0 -0.626571136
O  O3  1  0.82580000  0.35000000  0.32210000  1.0 -0.626571136
O  O4  1  0.35000000  0.82580000  0.17790000  1.0 -0.626571136
O  O5  1  0.74110000  0.05030000  0.77060000  1.0 -0.5544573241
O  O6  1  0.05030000  0.74110000  0.72940000  1.0 -0.5544573241
O  O7  1  0.25890000  0.94970000  0.22940000  1.0 -0.5544573241
O  O8  1  0.94970000  0.25890000  0.27060000  1.0 -0.5544573241
O  O9  1  0.97850000  0.40290000  0.77510000  1.0 -0.6355339461
O  O10  1  0.40290000  0.97850000  0.72490000  1.0 -0.6355339461
O  O11  1  0.02150000  0.59710000  0.22490000  1.0 -0.6355339461
O  O12  1  0.59710000  0.02150000  0.27510000  1.0 -0.6355339461
O  O13  1  0.18780000  0.52460000  0.84470000  1.0 -0.5259589129
O  O14  1  0.52460000  0.18780000  0.65530000  1.0 -0.5259589129
O  O15  1  0.81220000  0.47540000  0.15530000  1.0 -0.5259589129
O  O16  1  0.47540000  0.81220000  0.34470000  1.0 -0.5259589129
O  O17  1  0.88000000  0.42140000  0.65500000  1.0 -0.5735429698
O  O18  1  0.42140000  0.88000000  0.84500000  1.0 -0.5735429698
O  O19  1  0.12000000  0.57860000  0.34500000  1.0 -0.5735429698
O  O20  1  0.57860000  0.12000000  0.15500000  1.0 -0.5735429698
O  O21  1  0.76110000  0.44090000  0.55410000  1.0 -0.4299350404
O  O22  1  0.44090000  0.76110000  0.94590000  1.0 -0.4299350404
O  O23  1  0.23890000  0.55910000  0.44590000  1.0 -0.4299350404
O  O24  1  0.55910000  0.23890000  0.05410000  1.0 -0.4299350404
