# DDEC6 charges by PACMAN v1.1 (https://github.com/mtap-research/PACMAN-charge/)
data_HAQNIA_ASR_pacman
_symmetry_space_group_name_H-M   'P 1'
_cell_length_a   16.74100000
_cell_length_b   16.74100000
_cell_length_c   16.74100000
_cell_angle_alpha   69.47850000
_cell_angle_beta   69.47850000
_cell_angle_gamma   69.47850000
_symmetry_Int_Tables_number   1
_chemical_formula_structural   ZnH7C13O4
_chemical_formula_sum   'Zn6 H42 C78 O24'
_cell_volume   3974.21335562
_cell_formula_units_Z   6
loop_
 _symmetry_equiv_pos_site_id
 _symmetry_equiv_pos_as_xyz
  1  'x, y, z'
loop_
 _atom_site_type_symbol
 _atom_site_label
 _atom_site_symmetry_multiplicity
 _atom_site_fract_x
 _atom_site_fract_y
 _atom_site_fract_z
 _atom_site_occupancy
 _atom_site_charge
Zn  Zn1  1  0.99187000  0.41759000  0.99188000  1.0 0.9565586782
Zn  Zn2  1  0.41759000  0.99187000  0.99188000  1.0 0.9565586782
Zn  Zn3  1  0.99188000  0.99187000  0.41759000  1.0 0.9565586782
Zn  Zn4  1  0.00812000  0.00812000  0.58241000  1.0 0.9565586782
Zn  Zn5  1  0.58241000  0.00813000  0.00813000  1.0 0.9565586782
Zn  Zn6  1  0.00813000  0.58241000  0.00813000  1.0 0.9565586782
H  H1  1  0.01427000  0.50549000  0.71498000  1.0 0.1227854471
H  H2  1  0.08242000  0.43767000  0.59819000  1.0 0.0894174681
H  H3  1  0.08800000  0.35500000  0.51500000  1.0 0.101567521
H  H4  1  0.50549000  0.71498000  0.01427000  1.0 0.1227854471
H  H5  1  0.43767000  0.59819000  0.08242000  1.0 0.0894174681
H  H6  1  0.35500000  0.51500000  0.08800000  1.0 0.101567521
H  H7  1  0.71498000  0.01427000  0.50549000  1.0 0.1227854471
H  H8  1  0.59819000  0.08242000  0.43767000  1.0 0.0894174681
H  H9  1  0.51500000  0.08800000  0.35500000  1.0 0.101567521
H  H10  1  0.98573000  0.28502000  0.49451000  1.0 0.1227854471
H  H11  1  0.91758000  0.40181000  0.56233000  1.0 0.0894174681
H  H12  1  0.91200000  0.48500000  0.64500000  1.0 0.101567521
H  H13  1  0.49451000  0.98573000  0.28502000  1.0 0.1227854471
H  H14  1  0.56233000  0.91758000  0.40181000  1.0 0.0894174681
H  H15  1  0.64500000  0.91200000  0.48500000  1.0 0.101567521
H  H16  1  0.28502000  0.49451000  0.98573000  1.0 0.1227854471
H  H17  1  0.40181000  0.56233000  0.91758000  1.0 0.0894174681
H  H18  1  0.48500000  0.64500000  0.91200000  1.0 0.101567521
H  H19  1  0.98573000  0.49451000  0.28502000  1.0 0.1227854471
H  H20  1  0.91758000  0.56233000  0.40181000  1.0 0.0894174681
H  H21  1  0.91200000  0.64500000  0.48500000  1.0 0.101567521
H  H22  1  0.49451000  0.28502000  0.98573000  1.0 0.1227854471
H  H23  1  0.56233000  0.40181000  0.91758000  1.0 0.0894174681
H  H24  1  0.64500000  0.48500000  0.91200000  1.0 0.101567521
H  H25  1  0.28502000  0.98573000  0.49451000  1.0 0.1227854471
H  H26  1  0.40181000  0.91758000  0.56233000  1.0 0.0894174681
H  H27  1  0.48500000  0.91200000  0.64500000  1.0 0.101567521
H  H28  1  0.01427000  0.71498000  0.50549000  1.0 0.1227854471
H  H29  1  0.08242000  0.59819000  0.43767000  1.0 0.0894174681
H  H30  1  0.08800000  0.51500000  0.35500000  1.0 0.101567521
H  H31  1  0.50549000  0.01427000  0.71498000  1.0 0.1227854471
H  H32  1  0.43767000  0.08242000  0.59819000  1.0 0.0894174681
H  H33  1  0.35500000  0.08800000  0.51500000  1.0 0.101567521
H  H34  1  0.71498000  0.50549000  0.01427000  1.0 0.1227854471
H  H35  1  0.59819000  0.43767000  0.08242000  1.0 0.0894174681
H  H36  1  0.51500000  0.35500000  0.08800000  1.0 0.101567521
H  H37  1  0.02736000  0.73284000  0.73284000  1.0 0.1369419333
H  H38  1  0.73284000  0.73284000  0.02736000  1.0 0.1369419333
H  H39  1  0.73284000  0.02736000  0.73284000  1.0 0.1369419333
H  H40  1  0.97264000  0.26716000  0.26716000  1.0 0.1369419333
H  H41  1  0.26716000  0.97264000  0.26716000  1.0 0.1369419333
H  H42  1  0.26716000  0.26716000  0.97264000  1.0 0.1369419333
C  C1  1  0.01838000  0.57178000  0.83458000  1.0 0.6009880639
C  C2  1  0.02162000  0.61282000  0.73852000  1.0 -0.0244962558
C  C3  1  0.01623000  0.56403000  0.68893000  1.0 -0.1581019946
C  C4  1  0.04930000  0.46440000  0.55680000  1.0 -0.0728127659
C  C5  1  0.04810000  0.41330000  0.50800000  1.0 -0.1099942785
C  C6  1  0.57178000  0.83458000  0.01838000  1.0 0.6009880639
C  C7  1  0.61282000  0.73852000  0.02162000  1.0 -0.0244962558
C  C8  1  0.56403000  0.68893000  0.01623000  1.0 -0.1581019946
C  C9  1  0.46440000  0.55680000  0.04930000  1.0 -0.0728127659
C  C10  1  0.41330000  0.50800000  0.04810000  1.0 -0.1099942785
C  C11  1  0.83458000  0.01838000  0.57178000  1.0 0.6009880639
C  C12  1  0.73852000  0.02162000  0.61282000  1.0 -0.0244962558
C  C13  1  0.68893000  0.01623000  0.56403000  1.0 -0.1581019946
C  C14  1  0.55680000  0.04930000  0.46440000  1.0 -0.0728127659
C  C15  1  0.50800000  0.04810000  0.41330000  1.0 -0.1099942785
C  C16  1  0.98162000  0.16542000  0.42822000  1.0 0.6009880639
C  C17  1  0.97838000  0.26148000  0.38718000  1.0 -0.0244962558
C  C18  1  0.98377000  0.31107000  0.43597000  1.0 -0.1581019946
C  C19  1  0.95070000  0.44320000  0.53560000  1.0 -0.0647122749
C  C20  1  0.95190000  0.49200000  0.58670000  1.0 -0.1099942785
C  C21  1  0.42822000  0.98162000  0.16542000  1.0 0.6009880639
C  C22  1  0.38718000  0.97838000  0.26148000  1.0 -0.0244962558
C  C23  1  0.43597000  0.98377000  0.31107000  1.0 -0.1581019946
C  C24  1  0.53560000  0.95070000  0.44320000  1.0 -0.0647122749
C  C25  1  0.58670000  0.95190000  0.49200000  1.0 -0.1099942785
C  C26  1  0.16542000  0.42822000  0.98162000  1.0 0.6009880639
C  C27  1  0.26148000  0.38718000  0.97838000  1.0 -0.0244962558
C  C28  1  0.31107000  0.43597000  0.98377000  1.0 -0.1581019946
C  C29  1  0.44320000  0.53560000  0.95070000  1.0 -0.0728127659
C  C30  1  0.49200000  0.58670000  0.95190000  1.0 -0.1099942785
C  C31  1  0.98162000  0.42822000  0.16542000  1.0 0.6009880639
C  C32  1  0.97838000  0.38718000  0.26148000  1.0 -0.0244962558
C  C33  1  0.98377000  0.43597000  0.31107000  1.0 -0.1581019946
C  C34  1  0.95070000  0.53560000  0.44320000  1.0 -0.0762819499
C  C35  1  0.95190000  0.58670000  0.49200000  1.0 -0.1099942785
C  C36  1  0.42822000  0.16542000  0.98162000  1.0 0.6009880639
C  C37  1  0.38718000  0.26148000  0.97838000  1.0 -0.0244962558
C  C38  1  0.43597000  0.31107000  0.98377000  1.0 -0.1581019946
C  C39  1  0.53560000  0.44320000  0.95070000  1.0 -0.0728127659
C  C40  1  0.58670000  0.49200000  0.95190000  1.0 -0.1099942785
C  C41  1  0.16542000  0.98162000  0.42822000  1.0 0.6009880639
C  C42  1  0.26148000  0.97838000  0.38718000  1.0 -0.0244962558
C  C43  1  0.31107000  0.98377000  0.43597000  1.0 -0.1581019946
C  C44  1  0.44320000  0.95070000  0.53560000  1.0 -0.0762819499
C  C45  1  0.49200000  0.95190000  0.58670000  1.0 -0.0996447318
C  C46  1  0.01838000  0.83458000  0.57178000  1.0 0.6009880639
C  C47  1  0.02162000  0.73852000  0.61282000  1.0 -0.0244962558
C  C48  1  0.01623000  0.68893000  0.56403000  1.0 -0.1581019946
C  C49  1  0.04930000  0.55680000  0.46440000  1.0 -0.0728127659
C  C50  1  0.04810000  0.50800000  0.41330000  1.0 -0.1099942785
C  C51  1  0.57178000  0.01838000  0.83458000  1.0 0.6009880639
C  C52  1  0.61282000  0.02162000  0.73852000  1.0 -0.0244962558
C  C53  1  0.56403000  0.01623000  0.68893000  1.0 -0.1581019946
C  C54  1  0.46440000  0.04930000  0.55680000  1.0 -0.0728127659
C  C55  1  0.41330000  0.04810000  0.50800000  1.0 -0.1099942785
C  C56  1  0.83458000  0.57178000  0.01838000  1.0 0.6009880639
C  C57  1  0.73852000  0.61282000  0.02162000  1.0 -0.0244962558
C  C58  1  0.68893000  0.56403000  0.01623000  1.0 -0.1581019946
C  C59  1  0.55680000  0.46440000  0.04930000  1.0 -0.0728127659
C  C60  1  0.50800000  0.41330000  0.04810000  1.0 -0.1099942785
C  C61  1  0.02405000  0.69994000  0.69994000  1.0 -0.1099942785
C  C62  1  0.01361000  0.60151000  0.60151000  1.0 0.0727563624
C  C63  1  0.00672000  0.54872000  0.54872000  1.0 0.0244598617
C  C64  1  0.69994000  0.69994000  0.02405000  1.0 -0.1099942785
C  C65  1  0.60151000  0.60151000  0.01361000  1.0 0.0727563624
C  C66  1  0.54872000  0.54872000  0.00672000  1.0 0.0244598617
C  C67  1  0.69994000  0.02405000  0.69994000  1.0 -0.1099942785
C  C68  1  0.60151000  0.01361000  0.60151000  1.0 0.0727563624
C  C69  1  0.54872000  0.00672000  0.54872000  1.0 0.0244598617
C  C70  1  0.97595000  0.30006000  0.30006000  1.0 -0.1099942785
C  C71  1  0.98639000  0.39849000  0.39849000  1.0 0.0727563624
C  C72  1  0.99328000  0.45128000  0.45128000  1.0 0.0276103212
C  C73  1  0.30006000  0.97595000  0.30006000  1.0 -0.1099942785
C  C74  1  0.39849000  0.98639000  0.39849000  1.0 0.0727563624
C  C75  1  0.45128000  0.99328000  0.45128000  1.0 0.0276103212
C  C76  1  0.30006000  0.30006000  0.97595000  1.0 -0.1099942785
C  C77  1  0.39849000  0.39849000  0.98639000  1.0 0.0727563624
C  C78  1  0.45128000  0.45128000  0.99328000  1.0 0.0276103212
O  O1  1  0.01297000  0.49408000  0.86531000  1.0 -0.5461466107
O  O2  1  0.02231000  0.61949000  0.87663000  1.0 -0.5461466107
O  O3  1  0.49408000  0.86531000  0.01297000  1.0 -0.5461466107
O  O4  1  0.61949000  0.87663000  0.02231000  1.0 -0.5461466107
O  O5  1  0.86531000  0.01297000  0.49408000  1.0 -0.5461466107
O  O6  1  0.87663000  0.02231000  0.61949000  1.0 -0.5461466107
O  O7  1  0.98703000  0.13469000  0.50592000  1.0 -0.5461466107
O  O8  1  0.97769000  0.12337000  0.38051000  1.0 -0.5461466107
O  O9  1  0.50592000  0.98703000  0.13469000  1.0 -0.5461466107
O  O10  1  0.38051000  0.97769000  0.12337000  1.0 -0.5461466107
O  O11  1  0.13469000  0.50592000  0.98703000  1.0 -0.5461466107
O  O12  1  0.12337000  0.38051000  0.97769000  1.0 -0.5461466107
O  O13  1  0.98703000  0.50592000  0.13469000  1.0 -0.5461466107
O  O14  1  0.97769000  0.38051000  0.12337000  1.0 -0.5461466107
O  O15  1  0.50592000  0.13469000  0.98703000  1.0 -0.5461466107
O  O16  1  0.38051000  0.12337000  0.97769000  1.0 -0.5461466107
O  O17  1  0.13469000  0.98703000  0.50592000  1.0 -0.5461466107
O  O18  1  0.12337000  0.97769000  0.38051000  1.0 -0.5461466107
O  O19  1  0.01297000  0.86531000  0.49408000  1.0 -0.5461466107
O  O20  1  0.02231000  0.87663000  0.61949000  1.0 -0.5442652964
O  O21  1  0.49408000  0.01297000  0.86531000  1.0 -0.5461466107
O  O22  1  0.61949000  0.02231000  0.87663000  1.0 -0.5461466107
O  O23  1  0.86531000  0.49408000  0.01297000  1.0 -0.5461466107
O  O24  1  0.87663000  0.61949000  0.02231000  1.0 -0.5461466107
