# DDEC6 charges by PACMAN v1.1 (https://github.com/mtap-research/PACMAN-charge/)
data_HARBEL_FSR_pacman
_symmetry_space_group_name_H-M   'P 1'
_cell_length_a   11.10700000
_cell_length_b   14.18080000
_cell_length_c   16.25850000
_cell_angle_alpha   79.68000000
_cell_angle_beta   75.87200000
_cell_angle_gamma   75.34800000
_symmetry_Int_Tables_number   1
_chemical_formula_structural   Ni3H44(C11O3)8
_chemical_formula_sum   'Ni3 H44 C88 O24'
_cell_volume   2383.71244424
_cell_formula_units_Z   1
loop_
 _symmetry_equiv_pos_site_id
 _symmetry_equiv_pos_as_xyz
  1  'x, y, z'
loop_
 _atom_site_type_symbol
 _atom_site_label
 _atom_site_symmetry_multiplicity
 _atom_site_fract_x
 _atom_site_fract_y
 _atom_site_fract_z
 _atom_site_occupancy
 _atom_site_charge
Ni  Ni1  1  0.16859000  0.53861000  0.06414000  1.0 0.9831044781
Ni  Ni2  1  0.83141000  0.46139000  0.93586000  1.0 0.9831044781
Ni  Ni3  1  0.50000000  0.50000000  0.00000000  1.0 0.7541990984
H  H1  1  0.42534000  0.65044000  0.78618000  1.0 0.128258201
H  H2  1  0.37689000  0.73400000  0.65935000  1.0 0.120164245
H  H3  1  0.74479000  0.73368000  0.56488000  1.0 0.120164245
H  H4  1  0.79395000  0.65044000  0.69131000  1.0 0.128258201
H  H5  1  0.40362000  0.91647000  0.63875000  1.0 0.120164245
H  H6  1  0.23918000  0.04664000  0.63820000  1.0 0.120164245
H  H7  1  0.98203000  0.20404000  0.44396000  1.0 0.128258201
H  H8  1  0.27015000  0.02624000  0.23532000  1.0 0.128258201
H  H9  1  0.43153000  0.89591000  0.23692000  1.0 0.128258201
H  H10  1  0.63408000  0.69770000  0.44559000  1.0 0.128258201
H  H11  1  0.17587000  0.24150000  0.59925000  1.0 0.1137004255
H  H12  1  0.07099000  0.32077000  0.71541000  1.0 0.120164245
H  H13  1  0.76947000  0.21021000  0.72983000  1.0 0.1137004255
H  H14  1  0.87489000  0.13081000  0.61181000  1.0 0.120164245
H  H15  1  0.89129000  0.12823000  0.34229000  1.0 0.120164245
H  H16  1  0.79272000  0.20013000  0.23073000  1.0 0.1137004255
H  H17  1  0.11168000  0.28298000  0.09876000  1.0 0.128258201
H  H18  1  0.21049000  0.20846000  0.21083000  1.0 0.120164245
H  H19  1  0.44173000  0.66379000  0.32760000  1.0 0.128258201
H  H20  1  0.49452000  0.57958000  0.21166000  1.0 0.128258201
H  H21  1  0.79645000  0.69674000  0.12030000  1.0 0.1416257728
H  H22  1  0.73367000  0.79013000  0.23339000  1.0 0.120164245
H  H23  1  0.57466000  0.34956000  0.21382000  1.0 0.128258201
H  H24  1  0.62311000  0.26600000  0.34065000  1.0 0.120164245
H  H25  1  0.25521000  0.26632000  0.43512000  1.0 0.120164245
H  H26  1  0.20605000  0.34956000  0.30869000  1.0 0.128258201
H  H27  1  0.59638000  0.08353000  0.36125000  1.0 0.120164245
H  H28  1  0.76082000  0.95336000  0.36180000  1.0 0.120164245
H  H29  1  0.01797000  0.79596000  0.55604000  1.0 0.128258201
H  H30  1  0.72985000  0.97376000  0.76468000  1.0 0.128258201
H  H31  1  0.56847000  0.10409000  0.76308000  1.0 0.128258201
H  H32  1  0.36592000  0.30230000  0.55441000  1.0 0.128258201
H  H33  1  0.82413000  0.75850000  0.40075000  1.0 0.1137004255
H  H34  1  0.92901000  0.67923000  0.28459000  1.0 0.120164245
H  H35  1  0.23053000  0.78979000  0.27017000  1.0 0.1137004255
H  H36  1  0.12511000  0.86919000  0.38819000  1.0 0.120164245
H  H37  1  0.10871000  0.87177000  0.65771000  1.0 0.120164245
H  H38  1  0.20728000  0.79987000  0.76927000  1.0 0.1137004255
H  H39  1  0.88832000  0.71702000  0.90124000  1.0 0.128258201
H  H40  1  0.78951000  0.79154000  0.78917000  1.0 0.120164245
H  H41  1  0.55827000  0.33621000  0.67240000  1.0 0.128258201
H  H42  1  0.50548000  0.42042000  0.78834000  1.0 0.128258201
H  H43  1  0.20355000  0.30326000  0.87970000  1.0 0.1416257728
H  H44  1  0.26633000  0.20987000  0.76661000  1.0 0.120164245
C  C1  1  0.61530000  0.64350000  0.75310000  1.0 -0.0445576556
C  C2  1  0.48970000  0.66810000  0.74200000  1.0 -0.1002705468
C  C3  1  0.46070000  0.71840000  0.66610000  1.0 -0.1287108522
C  C4  1  0.55510000  0.74600000  0.59940000  1.0 0.0791059666
C  C5  1  0.68000000  0.71820000  0.60980000  1.0 -0.1508722553
C  C6  1  0.70960000  0.66800000  0.68560000  1.0 -0.0901607942
C  C7  1  0.52010000  0.79910000  0.51790000  1.0 0.0290025523
C  C8  1  0.42680000  0.88700000  0.51610000  1.0 0.0290025523
C  C9  1  0.37100000  0.93800000  0.58950000  1.0 -0.1287108522
C  C10  1  0.27290000  0.01590000  0.58910000  1.0 -0.1398295007
C  C11  1  0.21860000  0.05310000  0.51500000  1.0 0.0290025523
C  C12  1  0.10610000  0.12690000  0.51650000  1.0 0.0290025523
C  C13  1  0.05820000  0.15740000  0.44200000  1.0 -0.183130477
C  C14  1  0.11930000  0.12110000  0.36530000  1.0 0.0290025523
C  C15  1  0.23160000  0.04670000  0.36170000  1.0 0.0290025523
C  C16  1  0.29660000  0.00090000  0.28640000  1.0 -0.1287108522
C  C17  1  0.39320000  0.92360000  0.28720000  1.0 -0.1287108522
C  C18  1  0.44010000  0.88150000  0.36310000  1.0 0.0290025523
C  C19  1  0.53500000  0.79470000  0.36650000  1.0 0.0235090543
C  C20  1  0.57200000  0.75560000  0.44380000  1.0 -0.1920582172
C  C21  1  0.38280000  0.92780000  0.43900000  1.0 -0.0034174521
C  C22  1  0.27870000  0.01040000  0.43810000  1.0 -0.0034174521
C  C23  1  0.03910000  0.17580000  0.59380000  1.0 0.0791059666
C  C24  1  0.09390000  0.23420000  0.62570000  1.0 -0.1508722553
C  C25  1  0.03110000  0.28190000  0.69540000  1.0 -0.0901607942
C  C26  1  0.90870000  0.27300000  0.73630000  1.0 -0.0142171778
C  C27  1  0.85200000  0.21640000  0.70390000  1.0 -0.1002705468
C  C28  1  0.91540000  0.16820000  0.63300000  1.0 -0.1508722553
C  C29  1  0.06140000  0.16350000  0.28890000  1.0 0.0791059666
C  C30  1  0.93570000  0.15980000  0.29360000  1.0 -0.1508722553
C  C31  1  0.87700000  0.20240000  0.22650000  1.0 -0.1002705468
C  C32  1  0.94110000  0.24860000  0.15310000  1.0 -0.0296136918
C  C33  1  0.06700000  0.25170000  0.14760000  1.0 -0.072791819
C  C34  1  0.12560000  0.20780000  0.21540000  1.0 -0.1508722553
C  C35  1  0.58130000  0.73650000  0.29240000  1.0 0.0679277289
C  C36  1  0.51230000  0.67270000  0.28490000  1.0 -0.1287108522
C  C37  1  0.54460000  0.62140000  0.21580000  1.0 -0.111904742
C  C38  1  0.65040000  0.63110000  0.15240000  1.0 -0.0445576556
C  C39  1  0.72230000  0.69150000  0.16070000  1.0 -0.072791819
C  C40  1  0.68570000  0.74640000  0.23000000  1.0 -0.1508722553
C  C41  1  0.64370000  0.59140000  0.83720000  1.0 0.47950248
C  C42  1  0.84210000  0.32230000  0.81440000  1.0 0.5653501857
C  C43  1  0.87110000  0.29860000  0.08340000  1.0 0.5560491193
C  C44  1  0.67090000  0.58080000  0.07530000  1.0 0.47950248
C  C45  1  0.38470000  0.35650000  0.24690000  1.0 -0.0445576556
C  C46  1  0.51030000  0.33190000  0.25800000  1.0 -0.1002705468
C  C47  1  0.53930000  0.28160000  0.33390000  1.0 -0.1287108522
C  C48  1  0.44490000  0.25400000  0.40060000  1.0 0.0791059666
C  C49  1  0.32000000  0.28180000  0.39020000  1.0 -0.1508722553
C  C50  1  0.29040000  0.33200000  0.31440000  1.0 -0.0901607942
C  C51  1  0.47990000  0.20090000  0.48210000  1.0 0.0290025523
C  C52  1  0.57320000  0.11300000  0.48390000  1.0 0.0290025523
C  C53  1  0.62900000  0.06200000  0.41050000  1.0 -0.1287108522
C  C54  1  0.72710000  0.98410000  0.41090000  1.0 -0.1398295007
C  C55  1  0.78140000  0.94690000  0.48500000  1.0 0.0290025523
C  C56  1  0.89390000  0.87310000  0.48350000  1.0 0.0290025523
C  C57  1  0.94180000  0.84260000  0.55800000  1.0 -0.183130477
C  C58  1  0.88070000  0.87890000  0.63470000  1.0 0.0290025523
C  C59  1  0.76840000  0.95330000  0.63830000  1.0 0.0290025523
C  C60  1  0.70340000  0.99910000  0.71360000  1.0 -0.1287108522
C  C61  1  0.60680000  0.07640000  0.71280000  1.0 -0.1287108522
C  C62  1  0.55990000  0.11850000  0.63690000  1.0 0.0290025523
C  C63  1  0.46500000  0.20530000  0.63350000  1.0 0.0235090543
C  C64  1  0.42800000  0.24440000  0.55620000  1.0 -0.1920582172
C  C65  1  0.61720000  0.07220000  0.56100000  1.0 -0.0034174521
C  C66  1  0.72130000  0.98960000  0.56190000  1.0 -0.0034174521
C  C67  1  0.96090000  0.82420000  0.40620000  1.0 0.0791059666
C  C68  1  0.90610000  0.76580000  0.37430000  1.0 -0.1508722553
C  C69  1  0.96890000  0.71810000  0.30460000  1.0 -0.0901607942
C  C70  1  0.09130000  0.72700000  0.26370000  1.0 -0.0151417539
C  C71  1  0.14800000  0.78360000  0.29610000  1.0 -0.0901607942
C  C72  1  0.08460000  0.83180000  0.36700000  1.0 -0.1508722553
C  C73  1  0.93860000  0.83650000  0.71110000  1.0 0.0791059666
C  C74  1  0.06430000  0.84020000  0.70640000  1.0 -0.1508722553
C  C75  1  0.12300000  0.79760000  0.77350000  1.0 -0.1002705468
C  C76  1  0.05890000  0.75140000  0.84690000  1.0 -0.0296136918
C  C77  1  0.93300000  0.74830000  0.85240000  1.0 -0.072791819
C  C78  1  0.87440000  0.79220000  0.78460000  1.0 -0.1508722553
C  C79  1  0.41870000  0.26350000  0.70760000  1.0 0.0679277289
C  C80  1  0.48770000  0.32730000  0.71510000  1.0 -0.1287108522
C  C81  1  0.45540000  0.37860000  0.78420000  1.0 -0.111904742
C  C82  1  0.34960000  0.36890000  0.84760000  1.0 -0.0445576556
C  C83  1  0.27770000  0.30850000  0.83930000  1.0 -0.072791819
C  C84  1  0.31430000  0.25360000  0.77000000  1.0 -0.1508722553
C  C85  1  0.35630000  0.40860000  0.16280000  1.0 0.47950248
C  C86  1  0.15790000  0.67770000  0.18560000  1.0 0.5653501857
C  C87  1  0.12890000  0.70140000  0.91660000  1.0 0.5560491193
C  C88  1  0.32910000  0.41920000  0.92470000  1.0 0.47950248
O  O1  1  0.55770000  0.61190000  0.90740000  1.0 -0.111904742
O  O2  1  0.75420000  0.56120000  0.84461000  1.0 -0.4623211664
O  O3  1  0.90320000  0.36700000  0.84330000  1.0 -0.529547919
O  O4  1  0.73030000  0.31380000  0.84600000  1.0 -0.4908280042
O  O5  1  0.76670000  0.27790000  0.08680000  1.0 -0.4908280042
O  O6  1  0.92090000  0.35830000  0.02600000  1.0 -0.529547919
O  O7  1  0.57600000  0.60280000  0.03370000  1.0 -0.1508722553
O  O8  1  0.77770000  0.55540000  0.03146000  1.0 -0.4390960228
O  O9  1  0.32940000  0.59710000  0.02640000  1.0 -0.4194921743
O  O10  1  0.99930000  0.49210000  0.10420000  1.0 0.0290025523
O  O11  1  0.54060000  0.55320000  0.87860000  1.0 -0.0596234393
O  O12  1  0.57430000  0.53500000  0.08640000  1.0 -0.1002705468
O  O13  1  0.44230000  0.38810000  0.09260000  1.0 -0.1189449024
O  O14  1  0.24580000  0.43880000  0.15539000  1.0 -0.4623211664
O  O15  1  0.09680000  0.63300000  0.15670000  1.0 -0.529547919
O  O16  1  0.26970000  0.68620000  0.15400000  1.0 -0.4908280042
O  O17  1  0.23330000  0.72210000  0.91320000  1.0 -0.4908280042
O  O18  1  0.07910000  0.64170000  0.97400000  1.0 -0.529547919
O  O19  1  0.42400000  0.39720000  0.96630000  1.0 -0.1398295007
O  O20  1  0.22230000  0.44460000  0.96854000  1.0 -0.4390960228
O  O21  1  0.67060000  0.40290000  0.97360000  1.0 -0.4194921743
O  O22  1  0.00070000  0.50790000  0.89580000  1.0 0.0235090543
O  O23  1  0.45940000  0.44680000  0.12140000  1.0 -0.0540608768
O  O24  1  0.42570000  0.46500000  0.91360000  1.0 -0.1002705468
