# DDEC6 charges by PACMAN v1.1 (https://github.com/mtap-research/PACMAN-charge/)
data_HARHOA_ion_pacman
_symmetry_space_group_name_H-M   'P 1'
_cell_length_a   15.50030000
_cell_length_b   15.50030000
_cell_length_c   26.06590000
_cell_angle_alpha   67.26170000
_cell_angle_beta   112.73800000
_cell_angle_gamma   140.66900000
_symmetry_Int_Tables_number   1
_chemical_formula_structural   K2Zn3H72C64(NO4)7
_chemical_formula_sum   'K4 Zn6 H144 C128 N14 O56'
_cell_volume   3619.44186531
_cell_formula_units_Z   2
loop_
 _symmetry_equiv_pos_site_id
 _symmetry_equiv_pos_as_xyz
  1  'x, y, z'
loop_
 _atom_site_type_symbol
 _atom_site_label
 _atom_site_symmetry_multiplicity
 _atom_site_fract_x
 _atom_site_fract_y
 _atom_site_fract_z
 _atom_site_occupancy
 _atom_site_charge
K  K1  1  0.86262000  0.40918000  0.68644000  1.0 0.8580899731
K  K2  1  0.40918000  0.86262000  0.81356000  1.0 0.8580899731
K  K3  1  0.13738000  0.59082000  0.31356000  1.0 0.8580899731
K  K4  1  0.59082000  0.13738000  0.18644000  1.0 0.8580899731
Zn  Zn1  1  0.55312000  0.19522000  0.74679000  1.0 0.8455680505
Zn  Zn2  1  0.19522000  0.55312000  0.75321000  1.0 0.8455680505
Zn  Zn3  1  0.44688000  0.80478000  0.25321000  1.0 0.8455680505
Zn  Zn4  1  0.80478000  0.44688000  0.24679000  1.0 0.8455680505
Zn  Zn5  1  0.88595000  0.88595000  0.75000000  1.0 0.8779801027
Zn  Zn6  1  0.11405000  0.11405000  0.25000000  1.0 0.8779801027
H  H1  1  0.83330000  0.04490000  0.57690000  1.0 0.1197178034
H  H2  1  0.97250000  0.42910000  0.58790000  1.0 0.1105679012
H  H3  1  0.84430000  0.33270000  0.50620000  1.0 0.1197178034
H  H4  1  0.86720000  0.29420000  0.42720000  1.0 0.1105679012
H  H5  1  0.47670000  0.82510000  0.43200000  1.0 0.1197178034
H  H6  1  0.59560000  0.91760000  0.51470000  1.0 0.1197178034
H  H7  1  0.52590000  0.38330000  0.57420000  1.0 0.1105679012
H  H8  1  0.67390000  0.77250000  0.58400000  1.0 0.1105679012
H  H9  1  0.56480000  0.68860000  0.50030000  1.0 0.1105679012
H  H10  1  0.86600000  0.60960000  0.57330000  1.0 0.0994468824
H  H11  1  0.85840000  0.74700000  0.49200000  1.0 0.1197178034
H  H12  1  0.88380000  0.74380000  0.44040000  1.0 0.129007202
H  H13  1  0.73390000  0.65190000  0.44700000  1.0 0.129007202
H  H14  1  0.70770000  0.40190000  0.48540000  1.0 0.129007202
H  H15  1  0.67030000  0.47110000  0.43610000  1.0 0.1197178034
H  H16  1  0.81160000  0.52700000  0.44310000  1.0 0.1197178034
H  H17  1  0.04490000  0.83330000  0.92310000  1.0 0.1197178034
H  H18  1  0.42910000  0.97250000  0.91210000  1.0 0.1105679012
H  H19  1  0.33270000  0.84430000  0.99380000  1.0 0.1197178034
H  H20  1  0.29420000  0.86720000  0.07280000  1.0 0.1105679012
H  H21  1  0.82510000  0.47670000  0.06800000  1.0 0.1197178034
H  H22  1  0.91760000  0.59560000  0.98530000  1.0 0.1197178034
H  H23  1  0.38330000  0.52590000  0.92580000  1.0 0.1105679012
H  H24  1  0.77250000  0.67390000  0.91600000  1.0 0.1105679012
H  H25  1  0.68860000  0.56480000  0.99970000  1.0 0.1105679012
H  H26  1  0.60960000  0.86600000  0.92670000  1.0 0.0994468824
H  H27  1  0.74700000  0.85840000  0.00800000  1.0 0.1197178034
H  H28  1  0.74380000  0.88380000  0.05960000  1.0 0.129007202
H  H29  1  0.65190000  0.73390000  0.05300000  1.0 0.129007202
H  H30  1  0.40190000  0.70770000  0.01460000  1.0 0.129007202
H  H31  1  0.47110000  0.67030000  0.06390000  1.0 0.1197178034
H  H32  1  0.52700000  0.81160000  0.05690000  1.0 0.1197178034
H  H33  1  0.16670000  0.95510000  0.42310000  1.0 0.1197178034
H  H34  1  0.02750000  0.57090000  0.41210000  1.0 0.1105679012
H  H35  1  0.15570000  0.66730000  0.49380000  1.0 0.1197178034
H  H36  1  0.13280000  0.70580000  0.57280000  1.0 0.1105679012
H  H37  1  0.52330000  0.17490000  0.56800000  1.0 0.1197178034
H  H38  1  0.40440000  0.08240000  0.48530000  1.0 0.1197178034
H  H39  1  0.47410000  0.61670000  0.42580000  1.0 0.1105679012
H  H40  1  0.32610000  0.22750000  0.41600000  1.0 0.1105679012
H  H41  1  0.43520000  0.31140000  0.49970000  1.0 0.1105679012
H  H42  1  0.13400000  0.39040000  0.42670000  1.0 0.0994468824
H  H43  1  0.14160000  0.25300000  0.50800000  1.0 0.1197178034
H  H44  1  0.11620000  0.25620000  0.55960000  1.0 0.129007202
H  H45  1  0.26610000  0.34810000  0.55300000  1.0 0.129007202
H  H46  1  0.29230000  0.59810000  0.51460000  1.0 0.129007202
H  H47  1  0.32970000  0.52890000  0.56390000  1.0 0.1197178034
H  H48  1  0.18840000  0.47300000  0.55690000  1.0 0.1197178034
H  H49  1  0.95510000  0.16670000  0.07690000  1.0 0.1197178034
H  H50  1  0.57090000  0.02750000  0.08790000  1.0 0.1105679012
H  H51  1  0.66730000  0.15570000  0.00620000  1.0 0.1197178034
H  H52  1  0.70580000  0.13280000  0.92720000  1.0 0.1105679012
H  H53  1  0.17490000  0.52330000  0.93200000  1.0 0.1197178034
H  H54  1  0.08240000  0.40440000  0.01470000  1.0 0.1197178034
H  H55  1  0.61670000  0.47410000  0.07420000  1.0 0.1105679012
H  H56  1  0.22750000  0.32610000  0.08400000  1.0 0.1105679012
H  H57  1  0.31140000  0.43520000  0.00030000  1.0 0.1105679012
H  H58  1  0.39040000  0.13400000  0.07330000  1.0 0.0994468824
H  H59  1  0.25300000  0.14160000  0.99200000  1.0 0.1197178034
H  H60  1  0.25620000  0.11620000  0.94040000  1.0 0.129007202
H  H61  1  0.34810000  0.26610000  0.94700000  1.0 0.129007202
H  H62  1  0.59810000  0.29230000  0.98540000  1.0 0.129007202
H  H63  1  0.52890000  0.32970000  0.93610000  1.0 0.1197178034
H  H64  1  0.47300000  0.18840000  0.94310000  1.0 0.1197178034
H  H65  1  0.18340000  0.53100000  0.20270000  1.0 0.2449336545
H  H66  1  0.18050000  0.42750000  0.22540000  1.0 0.2514727944
H  H67  1  0.16120000  0.40480000  0.14560000  1.0 0.1197178034
H  H68  1  0.27730000  0.56310000  0.14740000  1.0 0.1197178034
H  H69  1  0.12900000  0.48840000  0.11590000  1.0 0.1105679012
H  H70  1  0.95160000  0.35900000  0.16410000  1.0 0.1197178034
H  H71  1  0.98180000  0.34980000  0.22970000  1.0 0.129007202
H  H72  1  0.95650000  0.25590000  0.20280000  1.0 0.1197178034
H  H73  1  0.98470000  0.83270000  0.20050000  1.0 0.234031503
H  H74  1  0.99900000  0.93180000  0.15490000  1.0 0.2514727944
H  H75  1  0.12800000  0.90820000  0.13930000  1.0 0.129007202
H  H76  1  0.16970000  0.93230000  0.20130000  1.0 0.129007202
H  H77  1  0.18390000  0.03790000  0.15100000  1.0 0.129007202
H  H78  1  0.92360000  0.79280000  0.10170000  1.0 0.1197178034
H  H79  1  0.82690000  0.77110000  0.12440000  1.0 0.1105679012
H  H80  1  0.85990000  0.68830000  0.15630000  1.0 0.1197178034
H  H81  1  0.71370000  0.76770000  0.24150000  1.0 0.2099801124
H  H82  1  0.55080000  0.60040000  0.29240000  1.0 0.1197178034
H  H83  1  0.68840000  0.65600000  0.33030000  1.0 0.1105679012
H  H84  1  0.58470000  0.52130000  0.30430000  1.0 0.1197178034
H  H85  1  0.76770000  0.71370000  0.25850000  1.0 0.2099801124
H  H86  1  0.60040000  0.55080000  0.20760000  1.0 0.1197178034
H  H87  1  0.65600000  0.68840000  0.16970000  1.0 0.1105679012
H  H88  1  0.52130000  0.58470000  0.19570000  1.0 0.1197178034
H  H89  1  0.53100000  0.18340000  0.29730000  1.0 0.2449336545
H  H90  1  0.42750000  0.18050000  0.27460000  1.0 0.2514727944
H  H91  1  0.40480000  0.16120000  0.35440000  1.0 0.1197178034
H  H92  1  0.56310000  0.27730000  0.35260000  1.0 0.1197178034
H  H93  1  0.48840000  0.12900000  0.38410000  1.0 0.1105679012
H  H94  1  0.35900000  0.95160000  0.33590000  1.0 0.1197178034
H  H95  1  0.34980000  0.98180000  0.27030000  1.0 0.129007202
H  H96  1  0.25590000  0.95650000  0.29720000  1.0 0.1197178034
H  H97  1  0.83270000  0.98470000  0.29950000  1.0 0.234031503
H  H98  1  0.93180000  0.99900000  0.34510000  1.0 0.2514727944
H  H99  1  0.90820000  0.12800000  0.36070000  1.0 0.129007202
H  H100  1  0.93230000  0.16970000  0.29870000  1.0 0.129007202
H  H101  1  0.03790000  0.18390000  0.34900000  1.0 0.129007202
H  H102  1  0.79280000  0.92360000  0.39830000  1.0 0.1197178034
H  H103  1  0.77110000  0.82690000  0.37560000  1.0 0.1105679012
H  H104  1  0.68830000  0.85990000  0.34370000  1.0 0.1197178034
H  H105  1  0.81660000  0.46900000  0.79730000  1.0 0.2449336545
H  H106  1  0.81950000  0.57250000  0.77460000  1.0 0.2514727944
H  H107  1  0.83880000  0.59520000  0.85440000  1.0 0.1197178034
H  H108  1  0.72270000  0.43690000  0.85260000  1.0 0.1197178034
H  H109  1  0.87100000  0.51160000  0.88410000  1.0 0.1105679012
H  H110  1  0.04840000  0.64100000  0.83590000  1.0 0.1197178034
H  H111  1  0.01820000  0.65020000  0.77030000  1.0 0.129007202
H  H112  1  0.04350000  0.74410000  0.79720000  1.0 0.1197178034
H  H113  1  0.01530000  0.16730000  0.79950000  1.0 0.234031503
H  H114  1  0.00100000  0.06820000  0.84510000  1.0 0.2514727944
H  H115  1  0.87200000  0.09180000  0.86070000  1.0 0.129007202
H  H116  1  0.83030000  0.06770000  0.79870000  1.0 0.129007202
H  H117  1  0.81610000  0.96210000  0.84900000  1.0 0.129007202
H  H118  1  0.07640000  0.20720000  0.89830000  1.0 0.1197178034
H  H119  1  0.17310000  0.22890000  0.87560000  1.0 0.1105679012
H  H120  1  0.14010000  0.31170000  0.84370000  1.0 0.1197178034
H  H121  1  0.28630000  0.23230000  0.75850000  1.0 0.2099801124
H  H122  1  0.44920000  0.39960000  0.70760000  1.0 0.1197178034
H  H123  1  0.31160000  0.34400000  0.66970000  1.0 0.1105679012
H  H124  1  0.41530000  0.47870000  0.69570000  1.0 0.1197178034
H  H125  1  0.23230000  0.28630000  0.74150000  1.0 0.2099801124
H  H126  1  0.39960000  0.44920000  0.79240000  1.0 0.1197178034
H  H127  1  0.34400000  0.31160000  0.83030000  1.0 0.1105679012
H  H128  1  0.47870000  0.41530000  0.80430000  1.0 0.1197178034
H  H129  1  0.46900000  0.81660000  0.70270000  1.0 0.2449336545
H  H130  1  0.57250000  0.81950000  0.72540000  1.0 0.2514727944
H  H131  1  0.59520000  0.83880000  0.64560000  1.0 0.1197178034
H  H132  1  0.43690000  0.72270000  0.64740000  1.0 0.1197178034
H  H133  1  0.51160000  0.87100000  0.61590000  1.0 0.1105679012
H  H134  1  0.64100000  0.04840000  0.66410000  1.0 0.1197178034
H  H135  1  0.65020000  0.01820000  0.72970000  1.0 0.129007202
H  H136  1  0.74410000  0.04350000  0.70280000  1.0 0.1197178034
H  H137  1  0.16730000  0.01530000  0.70050000  1.0 0.234031503
H  H138  1  0.06820000  0.00100000  0.65490000  1.0 0.2514727944
H  H139  1  0.09180000  0.87200000  0.63930000  1.0 0.129007202
H  H140  1  0.06770000  0.83030000  0.70130000  1.0 0.129007202
H  H141  1  0.96210000  0.81610000  0.65100000  1.0 0.129007202
H  H142  1  0.20720000  0.07640000  0.60170000  1.0 0.1197178034
H  H143  1  0.22890000  0.17310000  0.62440000  1.0 0.1105679012
H  H144  1  0.31170000  0.14010000  0.65630000  1.0 0.1197178034
C  C1  1  0.82600000  0.17860000  0.53270000  1.0 0.0686982096
C  C2  1  0.86240000  0.12340000  0.57890000  1.0 -0.1660922571
C  C3  1  0.94126000  0.18194000  0.62810000  1.0 -0.0397905289
C  C4  1  0.98268000  0.29832000  0.63170000  1.0 -0.1162741083
C  C5  1  0.94510000  0.35190000  0.58580000  1.0 -0.1014425641
C  C6  1  0.86790000  0.29430000  0.53650000  1.0 -0.1392735644
C  C7  1  0.97430000  0.11210000  0.67490000  1.0 0.5214839474
C  C8  1  0.07340000  0.36920000  0.68300000  1.0 0.4617244498
C  C9  1  0.74600000  0.11660000  0.48030000  1.0 0.0686982096
C  C10  1  0.78965000  0.19955000  0.42841000  1.0 -0.1832357003
C  C11  1  0.72036000  0.14444000  0.37876000  1.0 -0.0170435736
C  C12  1  0.60330000  0.00210000  0.38040000  1.0 -0.0528266346
C  C13  1  0.55650000  0.91930000  0.43120000  1.0 -0.1014425641
C  C14  1  0.62740000  0.97500000  0.48080000  1.0 -0.1543595
C  C15  1  0.77712000  0.24608000  0.32589000  1.0 0.5829691932
C  C16  1  0.52950000  0.93110000  0.32990000  1.0 0.5629737274
C  C17  1  0.53350000  0.52630000  0.52740000  1.0 0.0686982096
C  C18  1  0.55537000  0.46203000  0.57590000  1.0 -0.2034756645
C  C19  1  0.62013000  0.51147000  0.62720000  1.0 -0.0170435736
C  C20  1  0.66450000  0.62850000  0.63070000  1.0 -0.063960123
C  C21  1  0.64340000  0.69300000  0.58240000  1.0 -0.1053628727
C  C22  1  0.57850000  0.64310000  0.53180000  1.0 -0.1642497732
C  C23  1  0.64935000  0.43985000  0.67580000  1.0 0.571495165
C  C24  1  0.73210000  0.68410000  0.68490000  1.0 0.5528663294
C  C25  1  0.83050000  0.55230000  0.55000000  1.0 0.272225012
C  C26  1  0.82190000  0.68970000  0.46680000  1.0 -0.3498998983
C  C27  1  0.74380000  0.48740000  0.46280000  1.0 -0.3587206258
C  C28  1  0.17860000  0.82600000  0.96730000  1.0 0.0686982096
C  C29  1  0.12340000  0.86240000  0.92110000  1.0 -0.1660922571
C  C30  1  0.18194000  0.94126000  0.87190000  1.0 -0.0397905289
C  C31  1  0.29832000  0.98268000  0.86830000  1.0 -0.1162741083
C  C32  1  0.35190000  0.94510000  0.91420000  1.0 -0.1014425641
C  C33  1  0.29430000  0.86790000  0.96350000  1.0 -0.1392735644
C  C34  1  0.11210000  0.97430000  0.82510000  1.0 0.5214839474
C  C35  1  0.36920000  0.07340000  0.81700000  1.0 0.4617244498
C  C36  1  0.11660000  0.74600000  0.01970000  1.0 0.0686982096
C  C37  1  0.19955000  0.78965000  0.07159000  1.0 -0.1832357003
C  C38  1  0.14444000  0.72036000  0.12124000  1.0 -0.0170435736
C  C39  1  0.00210000  0.60330000  0.11960000  1.0 -0.0528266346
C  C40  1  0.91930000  0.55650000  0.06880000  1.0 -0.1014425641
C  C41  1  0.97500000  0.62740000  0.01920000  1.0 -0.1543595
C  C42  1  0.24608000  0.77712000  0.17411000  1.0 0.5829691932
C  C43  1  0.93110000  0.52950000  0.17010000  1.0 0.5629737274
C  C44  1  0.52630000  0.53350000  0.97260000  1.0 0.0686982096
C  C45  1  0.46203000  0.55537000  0.92410000  1.0 -0.2034756645
C  C46  1  0.51147000  0.62013000  0.87280000  1.0 -0.0148921754
C  C47  1  0.62850000  0.66450000  0.86930000  1.0 -0.063960123
C  C48  1  0.69300000  0.64340000  0.91760000  1.0 -0.1053628727
C  C49  1  0.64310000  0.57850000  0.96820000  1.0 -0.1642497732
C  C50  1  0.43985000  0.64935000  0.82420000  1.0 0.571495165
C  C51  1  0.68410000  0.73210000  0.81510000  1.0 0.5528663294
C  C52  1  0.55230000  0.83050000  0.95000000  1.0 0.272225012
C  C53  1  0.68970000  0.82190000  0.03320000  1.0 -0.3498998983
C  C54  1  0.48740000  0.74380000  0.03720000  1.0 -0.3587206258
C  C55  1  0.17400000  0.82140000  0.46730000  1.0 0.0686982096
C  C56  1  0.13760000  0.87660000  0.42110000  1.0 -0.1660922571
C  C57  1  0.05874000  0.81806000  0.37190000  1.0 -0.0397905289
C  C58  1  0.01732000  0.70168000  0.36830000  1.0 -0.1162741083
C  C59  1  0.05490000  0.64810000  0.41420000  1.0 -0.1014425641
C  C60  1  0.13210000  0.70570000  0.46350000  1.0 -0.1392735644
C  C61  1  0.02570000  0.88790000  0.32510000  1.0 0.5214839474
C  C62  1  0.92660000  0.63080000  0.31700000  1.0 0.4617244498
C  C63  1  0.25400000  0.88340000  0.51970000  1.0 0.0686982096
C  C64  1  0.21035000  0.80045000  0.57159000  1.0 -0.1832357003
C  C65  1  0.27964000  0.85556000  0.62124000  1.0 -0.0170435736
C  C66  1  0.39670000  0.99790000  0.61960000  1.0 -0.0528266346
C  C67  1  0.44350000  0.08070000  0.56880000  1.0 -0.1014425641
C  C68  1  0.37260000  0.02500000  0.51920000  1.0 -0.1543595
C  C69  1  0.22288000  0.75392000  0.67411000  1.0 0.5829691932
C  C70  1  0.47050000  0.06890000  0.67010000  1.0 0.5629737274
C  C71  1  0.46650000  0.47370000  0.47260000  1.0 0.0686982096
C  C72  1  0.44463000  0.53797000  0.42410000  1.0 -0.2034756645
C  C73  1  0.37987000  0.48853000  0.37280000  1.0 -0.0170435736
C  C74  1  0.33550000  0.37150000  0.36930000  1.0 -0.063960123
C  C75  1  0.35660000  0.30700000  0.41760000  1.0 -0.1053628727
C  C76  1  0.42150000  0.35690000  0.46820000  1.0 -0.1642497732
C  C77  1  0.35065000  0.56015000  0.32420000  1.0 0.571495165
C  C78  1  0.26790000  0.31590000  0.31510000  1.0 0.5528663294
C  C79  1  0.16950000  0.44770000  0.45000000  1.0 0.272225012
C  C80  1  0.17810000  0.31030000  0.53320000  1.0 -0.3498998983
C  C81  1  0.25620000  0.51260000  0.53720000  1.0 -0.3587206258
C  C82  1  0.82140000  0.17400000  0.03270000  1.0 0.0686982096
C  C83  1  0.87660000  0.13760000  0.07890000  1.0 -0.1660922571
C  C84  1  0.81806000  0.05874000  0.12810000  1.0 -0.0397905289
C  C85  1  0.70168000  0.01732000  0.13170000  1.0 -0.1162741083
C  C86  1  0.64810000  0.05490000  0.08580000  1.0 -0.1014425641
C  C87  1  0.70570000  0.13210000  0.03650000  1.0 -0.1392735644
C  C88  1  0.88790000  0.02570000  0.17490000  1.0 0.5214839474
C  C89  1  0.63080000  0.92660000  0.18300000  1.0 0.4617244498
C  C90  1  0.88340000  0.25400000  0.98030000  1.0 0.0686982096
C  C91  1  0.80045000  0.21035000  0.92841000  1.0 -0.1832357003
C  C92  1  0.85556000  0.27964000  0.87876000  1.0 -0.0170435736
C  C93  1  0.99790000  0.39670000  0.88040000  1.0 -0.0528266346
C  C94  1  0.08070000  0.44350000  0.93120000  1.0 -0.1014425641
C  C95  1  0.02500000  0.37260000  0.98080000  1.0 -0.1543595
C  C96  1  0.75392000  0.22288000  0.82589000  1.0 0.5829691932
C  C97  1  0.06890000  0.47050000  0.82990000  1.0 0.5629737274
C  C98  1  0.47370000  0.46650000  0.02740000  1.0 0.0686982096
C  C99  1  0.53797000  0.44463000  0.07590000  1.0 -0.2034756645
C  C100  1  0.48853000  0.37987000  0.12720000  1.0 -0.0170435736
C  C101  1  0.37150000  0.33550000  0.13070000  1.0 -0.063960123
C  C102  1  0.30700000  0.35660000  0.08240000  1.0 -0.1053628727
C  C103  1  0.35690000  0.42150000  0.03180000  1.0 -0.1642497732
C  C104  1  0.56015000  0.35065000  0.17580000  1.0 0.571495165
C  C105  1  0.31590000  0.26790000  0.18490000  1.0 0.5528663294
C  C106  1  0.44770000  0.16950000  0.05000000  1.0 0.272225012
C  C107  1  0.31030000  0.17810000  0.96680000  1.0 -0.3498998983
C  C108  1  0.51260000  0.25620000  0.96280000  1.0 -0.3587206258
C  C109  1  0.18070000  0.47910000  0.14770000  1.0 -0.2768980368
C  C110  1  0.99550000  0.34490000  0.19850000  1.0 -0.3220846756
C  C111  1  0.12980000  0.94240000  0.16400000  1.0 -0.2719312413
C  C112  1  0.89630000  0.77490000  0.13490000  1.0 -0.2138180985
C  C113  1  0.62310000  0.61050000  0.29810000  1.0 -0.3337994917
C  C114  1  0.61050000  0.62310000  0.20190000  1.0 -0.3337994917
C  C115  1  0.47910000  0.18070000  0.35230000  1.0 -0.2768980368
C  C116  1  0.34490000  0.99550000  0.30150000  1.0 -0.3220846756
C  C117  1  0.94240000  0.12980000  0.33600000  1.0 -0.2719312413
C  C118  1  0.77490000  0.89630000  0.36510000  1.0 -0.2138180985
C  C119  1  0.81930000  0.52090000  0.85230000  1.0 -0.2768980368
C  C120  1  0.00450000  0.65510000  0.80150000  1.0 -0.3220846756
C  C121  1  0.87020000  0.05760000  0.83600000  1.0 -0.2719312413
C  C122  1  0.10370000  0.22510000  0.86510000  1.0 -0.2138180985
C  C123  1  0.37690000  0.38950000  0.70190000  1.0 -0.3337994917
C  C124  1  0.38950000  0.37690000  0.79810000  1.0 -0.3337994917
C  C125  1  0.52090000  0.81930000  0.64770000  1.0 -0.2768980368
C  C126  1  0.65510000  0.00450000  0.69850000  1.0 -0.3220846756
C  C127  1  0.05760000  0.87020000  0.66400000  1.0 -0.2719312413
C  C128  1  0.22510000  0.10370000  0.63490000  1.0 -0.2138180985
N  N1  1  0.80600000  0.58080000  0.49830000  1.0 0.0232557477
N  N2  1  0.58080000  0.80600000  0.00170000  1.0 0.0232557477
N  N3  1  0.19400000  0.41920000  0.50170000  1.0 0.0232557477
N  N4  1  0.41920000  0.19400000  0.99830000  1.0 0.0232557477
N  N5  1  0.14430000  0.45230000  0.19670000  1.0 -0.1014425641
N  N6  1  0.99990000  0.87010000  0.16450000  1.0 -0.0823396548
N  N7  1  0.68970000  0.68970000  0.25000000  1.0 -0.1392735644
N  N8  1  0.45230000  0.14430000  0.30330000  1.0 -0.1014425641
N  N9  1  0.87010000  0.99990000  0.33550000  1.0 -0.0823396548
N  N10  1  0.85570000  0.54770000  0.80330000  1.0 -0.1014425641
N  N11  1  0.00010000  0.12990000  0.83550000  1.0 -0.0823396548
N  N12  1  0.31030000  0.31030000  0.75000000  1.0 -0.1392735644
N  N13  1  0.54770000  0.85570000  0.69670000  1.0 -0.1014425641
N  N14  1  0.12990000  0.00010000  0.66450000  1.0 -0.0823396548
O  O1  1  0.10570000  0.31890000  0.72490000  1.0 0.0132743688
O  O2  1  0.08443000  0.45537000  0.68727000  1.0 -0.589719887
O  O3  1  0.90044000  0.03396000  0.71380000  1.0 -0.5543335183
O  O4  1  0.05970000  0.12450000  0.67070000  1.0 -0.5601084783
O  O5  1  0.40690000  0.81390000  0.33000000  1.0 -0.5978381737
O  O6  1  0.59325000  0.98535000  0.29140000  1.0 -0.5601084783
O  O7  1  0.69940000  0.25680000  0.29087000  1.0 -0.589719887
O  O8  1  0.89495000  0.32045000  0.32054000  1.0 -0.5730947508
O  O9  1  0.79733000  0.80707000  0.68093000  1.0 -0.5730947508
O  O10  1  0.72073000  0.61067000  0.72993000  1.0 -0.521311055
O  O11  1  0.54525000  0.32155000  0.69733000  1.0 -0.5835308536
O  O12  1  0.76766000  0.49614000  0.68877000  1.0 -0.589719887
O  O13  1  0.81090000  0.45370000  0.57170000  1.0 -0.4894187554
O  O14  1  0.15620000  0.36300000  0.70990000  1.0 0.0021956367
O  O15  1  0.31890000  0.10570000  0.77510000  1.0 0.0132743688
O  O16  1  0.45537000  0.08443000  0.81273000  1.0 -0.589719887
O  O17  1  0.03396000  0.90044000  0.78620000  1.0 -0.5543335183
O  O18  1  0.12450000  0.05970000  0.82930000  1.0 -0.5601084783
O  O19  1  0.81390000  0.40690000  0.17000000  1.0 -0.5978381737
O  O20  1  0.98535000  0.59325000  0.20860000  1.0 -0.5601084783
O  O21  1  0.25680000  0.69940000  0.20913000  1.0 -0.589719887
O  O22  1  0.32045000  0.89495000  0.17946000  1.0 -0.5730947508
O  O23  1  0.80707000  0.79733000  0.81907000  1.0 -0.5730947508
O  O24  1  0.61067000  0.72073000  0.77007000  1.0 -0.521311055
O  O25  1  0.32155000  0.54525000  0.80267000  1.0 -0.5835308536
O  O26  1  0.49614000  0.76766000  0.81123000  1.0 -0.589719887
O  O27  1  0.45370000  0.81090000  0.92830000  1.0 -0.4894187554
O  O28  1  0.36300000  0.15620000  0.79010000  1.0 0.0021956367
O  O29  1  0.89430000  0.68110000  0.27510000  1.0 0.0132743688
O  O30  1  0.91557000  0.54463000  0.31273000  1.0 -0.589719887
O  O31  1  0.09956000  0.96604000  0.28620000  1.0 -0.5543335183
O  O32  1  0.94030000  0.87550000  0.32930000  1.0 -0.5601084783
O  O33  1  0.59310000  0.18610000  0.67000000  1.0 -0.5978381737
O  O34  1  0.40675000  0.01465000  0.70860000  1.0 -0.5601084783
O  O35  1  0.30060000  0.74320000  0.70913000  1.0 -0.589719887
O  O36  1  0.10505000  0.67955000  0.67946000  1.0 -0.5730947508
O  O37  1  0.20267000  0.19293000  0.31907000  1.0 -0.5730947508
O  O38  1  0.27927000  0.38933000  0.27007000  1.0 -0.521311055
O  O39  1  0.45475000  0.67845000  0.30267000  1.0 -0.5835308536
O  O40  1  0.23234000  0.50386000  0.31123000  1.0 -0.589719887
O  O41  1  0.18910000  0.54630000  0.42830000  1.0 -0.4894187554
O  O42  1  0.84380000  0.63700000  0.29010000  1.0 0.0021956367
O  O43  1  0.68110000  0.89430000  0.22490000  1.0 0.0132743688
O  O44  1  0.54463000  0.91557000  0.18727000  1.0 -0.589719887
O  O45  1  0.96604000  0.09956000  0.21380000  1.0 -0.5543335183
O  O46  1  0.87550000  0.94030000  0.17070000  1.0 -0.5601084783
O  O47  1  0.18610000  0.59310000  0.83000000  1.0 -0.5978381737
O  O48  1  0.01465000  0.40675000  0.79140000  1.0 -0.5601084783
O  O49  1  0.74320000  0.30060000  0.79087000  1.0 -0.589719887
O  O50  1  0.67955000  0.10505000  0.82054000  1.0 -0.5730947508
O  O51  1  0.19293000  0.20267000  0.18093000  1.0 -0.5730947508
O  O52  1  0.38933000  0.27927000  0.22993000  1.0 -0.521311055
O  O53  1  0.67845000  0.45475000  0.19733000  1.0 -0.5835308536
O  O54  1  0.50386000  0.23234000  0.18877000  1.0 -0.589719887
O  O55  1  0.54630000  0.18910000  0.07170000  1.0 -0.4894187554
O  O56  1  0.63700000  0.84380000  0.20990000  1.0 0.0021956367
