# DDEC6 charges by PACMAN v1.1 (https://github.com/mtap-research/PACMAN-charge/)
data_HARNAR_ASR_pacman
_symmetry_space_group_name_H-M   'P 1'
_cell_length_a   12.39370000
_cell_length_b   19.33000000
_cell_length_c   20.24610000
_cell_angle_alpha   90.00000000
_cell_angle_beta   121.77200000
_cell_angle_gamma   90.00000000
_symmetry_Int_Tables_number   1
_chemical_formula_structural   Ag2H12C17N3O4
_chemical_formula_sum   'Ag16 H96 C136 N24 O32'
_cell_volume   4123.53634488
_cell_formula_units_Z   8
loop_
 _symmetry_equiv_pos_site_id
 _symmetry_equiv_pos_as_xyz
  1  'x, y, z'
loop_
 _atom_site_type_symbol
 _atom_site_label
 _atom_site_symmetry_multiplicity
 _atom_site_fract_x
 _atom_site_fract_y
 _atom_site_fract_z
 _atom_site_occupancy
 _atom_site_charge
Ag  Ag1  1  0.79985000  0.69839000  0.01669000  1.0 0.2944033461
Ag  Ag2  1  0.20015000  0.19839000  0.48331000  1.0 0.2944033461
Ag  Ag3  1  0.20015000  0.30161000  0.98331000  1.0 0.2944033461
Ag  Ag4  1  0.79985000  0.80161000  0.51669000  1.0 0.2944033461
Ag  Ag5  1  0.75175000  0.54583000  0.00409000  1.0 0.3193908649
Ag  Ag6  1  0.24825000  0.04583000  0.49591000  1.0 0.3193908649
Ag  Ag7  1  0.24825000  0.45417000  0.99591000  1.0 0.3193908649
Ag  Ag8  1  0.75175000  0.95417000  0.50409000  1.0 0.3193908649
Ag  Ag9  1  0.00000000  0.50000000  0.50000000  1.0 0.3471277373
Ag  Ag10  1  0.00000000  0.00000000  0.00000000  1.0 0.3471277373
Ag  Ag11  1  0.50000000  0.50000000  0.50000000  1.0 0.362803744
Ag  Ag12  1  0.50000000  0.00000000  0.00000000  1.0 0.362803744
Ag  Ag13  1  0.75686000  0.50182000  0.50669000  1.0 0.2997332381
Ag  Ag14  1  0.24314000  0.00182000  0.99331000  1.0 0.2997332381
Ag  Ag15  1  0.24314000  0.49818000  0.49331000  1.0 0.2997332381
Ag  Ag16  1  0.75686000  0.99818000  0.00669000  1.0 0.2997332381
H  H1  1  0.53360000  0.72200000  0.98300000  1.0 0.1189133819
H  H2  1  0.46640000  0.22200000  0.51700000  1.0 0.1189133819
H  H3  1  0.46640000  0.27800000  0.01700000  1.0 0.1189133819
H  H4  1  0.53360000  0.77800000  0.48300000  1.0 0.1189133819
H  H5  1  0.33200000  0.74560000  0.88260000  1.0 0.138611093
H  H6  1  0.66800000  0.24560000  0.61740000  1.0 0.138611093
H  H7  1  0.66800000  0.25440000  0.11740000  1.0 0.138611093
H  H8  1  0.33200000  0.75440000  0.38260000  1.0 0.138611093
H  H9  1  0.43760000  0.69790000  0.73100000  1.0 0.138611093
H  H10  1  0.56240000  0.19790000  0.76900000  1.0 0.138611093
H  H11  1  0.56240000  0.30210000  0.26900000  1.0 0.138611093
H  H12  1  0.43760000  0.80210000  0.23100000  1.0 0.138611093
H  H13  1  0.63940000  0.67550000  0.83560000  1.0 0.1189133819
H  H14  1  0.36060000  0.17550000  0.66440000  1.0 0.1189133819
H  H15  1  0.36060000  0.32450000  0.16440000  1.0 0.1189133819
H  H16  1  0.63940000  0.82450000  0.33560000  1.0 0.1189133819
H  H17  1  0.47110000  0.52210000  0.10300000  1.0 0.1189133819
H  H18  1  0.52890000  0.02210000  0.39700000  1.0 0.1189133819
H  H19  1  0.52890000  0.47790000  0.89700000  1.0 0.1189133819
H  H20  1  0.47110000  0.97790000  0.60300000  1.0 0.1189133819
H  H21  1  0.58860000  0.43070000  0.19720000  1.0 0.0878689973
H  H22  1  0.41140000  0.93070000  0.30280000  1.0 0.0878689973
H  H23  1  0.41140000  0.56930000  0.80280000  1.0 0.0878689973
H  H24  1  0.58860000  0.06930000  0.69720000  1.0 0.0878689973
H  H25  1  0.45830000  0.51270000  0.21860000  1.0 0.1189133819
H  H26  1  0.54170000  0.01270000  0.28140000  1.0 0.1189133819
H  H27  1  0.54170000  0.48730000  0.78140000  1.0 0.1189133819
H  H28  1  0.45830000  0.98730000  0.71860000  1.0 0.1189133819
H  H29  1  0.52420000  0.62080000  0.24960000  1.0 0.1189133819
H  H30  1  0.47580000  0.12080000  0.25040000  1.0 0.1189133819
H  H31  1  0.47580000  0.37920000  0.75040000  1.0 0.1189133819
H  H32  1  0.52420000  0.87920000  0.74960000  1.0 0.1189133819
H  H33  1  0.72460000  0.65470000  0.26160000  1.0 0.1016471641
H  H34  1  0.27540000  0.15470000  0.23840000  1.0 0.1016471641
H  H35  1  0.27540000  0.34530000  0.73840000  1.0 0.1016471641
H  H36  1  0.72460000  0.84530000  0.76160000  1.0 0.1016471641
H  H37  1  0.53620000  0.63020000  0.13360000  1.0 0.1261557135
H  H38  1  0.46380000  0.13020000  0.36640000  1.0 0.1261557135
H  H39  1  0.46380000  0.36980000  0.86640000  1.0 0.1261557135
H  H40  1  0.53620000  0.86980000  0.63360000  1.0 0.1261557135
H  H41  1  0.81250000  0.45140000  0.27950000  1.0 0.1105760046
H  H42  1  0.18750000  0.95140000  0.22050000  1.0 0.1105760046
H  H43  1  0.18750000  0.54860000  0.72050000  1.0 0.1105760046
H  H44  1  0.81250000  0.04860000  0.77950000  1.0 0.1105760046
H  H45  1  0.87980000  0.56520000  0.31030000  1.0 0.1189133819
H  H46  1  0.12020000  0.06520000  0.18970000  1.0 0.1189133819
H  H47  1  0.12020000  0.43480000  0.68970000  1.0 0.1189133819
H  H48  1  0.87980000  0.93480000  0.81030000  1.0 0.1189133819
H  H49  1  0.94180000  0.75820000  0.68620000  1.0 0.1189133819
H  H50  1  0.05820000  0.25820000  0.81380000  1.0 0.1189133819
H  H51  1  0.05820000  0.24180000  0.31380000  1.0 0.1189133819
H  H52  1  0.94180000  0.74180000  0.18620000  1.0 0.1189133819
H  H53  1  0.13910000  0.72570000  0.78720000  1.0 0.138611093
H  H54  1  0.86090000  0.22570000  0.71280000  1.0 0.138611093
H  H55  1  0.86090000  0.27430000  0.21280000  1.0 0.138611093
H  H56  1  0.13910000  0.77430000  0.28720000  1.0 0.138611093
H  H57  1  0.27970000  0.76000000  0.64930000  1.0 0.138611093
H  H58  1  0.72030000  0.26000000  0.85070000  1.0 0.138611093
H  H59  1  0.72030000  0.24000000  0.35070000  1.0 0.138611093
H  H60  1  0.27970000  0.74000000  0.14930000  1.0 0.138611093
H  H61  1  0.07540000  0.79200000  0.55050000  1.0 0.1189133819
H  H62  1  0.92460000  0.29200000  0.94950000  1.0 0.1189133819
H  H63  1  0.92460000  0.20800000  0.44950000  1.0 0.1189133819
H  H64  1  0.07540000  0.70800000  0.05050000  1.0 0.1189133819
H  H65  1  0.04110000  0.53960000  0.90670000  1.0 0.1105760046
H  H66  1  0.95890000  0.03960000  0.59330000  1.0 0.1105760046
H  H67  1  0.95890000  0.46040000  0.09330000  1.0 0.1105760046
H  H68  1  0.04110000  0.96040000  0.40670000  1.0 0.1105760046
H  H69  1  0.92120000  0.61680000  0.79430000  1.0 0.1016471641
H  H70  1  0.07880000  0.11680000  0.70570000  1.0 0.1016471641
H  H71  1  0.07880000  0.38320000  0.20570000  1.0 0.1016471641
H  H72  1  0.92120000  0.88320000  0.29430000  1.0 0.1016471641
H  H73  1  0.05800000  0.52420000  0.79460000  1.0 0.1105760046
H  H74  1  0.94200000  0.02420000  0.70540000  1.0 0.1105760046
H  H75  1  0.94200000  0.47580000  0.20540000  1.0 0.1105760046
H  H76  1  0.05800000  0.97580000  0.29460000  1.0 0.1105760046
H  H77  1  0.99350000  0.41470000  0.78080000  1.0 0.1189133819
H  H78  1  0.00650000  0.91470000  0.71920000  1.0 0.1189133819
H  H79  1  0.00650000  0.58530000  0.21920000  1.0 0.1189133819
H  H80  1  0.99350000  0.08530000  0.28080000  1.0 0.1189133819
H  H81  1  0.79540000  0.39160000  0.77540000  1.0 0.0878689973
H  H82  1  0.20460000  0.89160000  0.72460000  1.0 0.0878689973
H  H83  1  0.20460000  0.60840000  0.22460000  1.0 0.0878689973
H  H84  1  0.79540000  0.10840000  0.27540000  1.0 0.0878689973
H  H85  1  0.97650000  0.43100000  0.89790000  1.0 0.1016471641
H  H86  1  0.02350000  0.93100000  0.60210000  1.0 0.1016471641
H  H87  1  0.02350000  0.56900000  0.10210000  1.0 0.1016471641
H  H88  1  0.97650000  0.06900000  0.39790000  1.0 0.1016471641
H  H89  1  0.69940000  0.59250000  0.71650000  1.0 0.1261557135
H  H90  1  0.30060000  0.09250000  0.78350000  1.0 0.1261557135
H  H91  1  0.30060000  0.40750000  0.28350000  1.0 0.1261557135
H  H92  1  0.69940000  0.90750000  0.21650000  1.0 0.1261557135
H  H93  1  0.63590000  0.47720000  0.70590000  1.0 0.1105760046
H  H94  1  0.36410000  0.97720000  0.79410000  1.0 0.1105760046
H  H95  1  0.36410000  0.52280000  0.29410000  1.0 0.1105760046
H  H96  1  0.63590000  0.02280000  0.20590000  1.0 0.1105760046
C  C1  1  0.51460000  0.71720000  0.93130000  1.0 0.0878689973
C  C2  1  0.48540000  0.21720000  0.56870000  1.0 0.0878689973
C  C3  1  0.48540000  0.28280000  0.06870000  1.0 0.0878689973
C  C4  1  0.51460000  0.78280000  0.43130000  1.0 0.0878689973
C  C5  1  0.39430000  0.73130000  0.87160000  1.0 -0.1513953527
C  C6  1  0.60570000  0.23130000  0.62840000  1.0 -0.1513953527
C  C7  1  0.60570000  0.26870000  0.12840000  1.0 -0.1513953527
C  C8  1  0.39430000  0.76870000  0.37160000  1.0 -0.1513953527
C  C9  1  0.36240000  0.72500000  0.79560000  1.0 0.1105760046
C  C10  1  0.63760000  0.22500000  0.70440000  1.0 0.1105760046
C  C11  1  0.63760000  0.27500000  0.20440000  1.0 0.1105760046
C  C12  1  0.36240000  0.77500000  0.29560000  1.0 0.1105760046
C  C13  1  0.45580000  0.70350000  0.78250000  1.0 -0.1791056992
C  C14  1  0.54420000  0.20350000  0.71750000  1.0 -0.1791056992
C  C15  1  0.54420000  0.29650000  0.21750000  1.0 -0.1791056992
C  C16  1  0.45580000  0.79650000  0.28250000  1.0 -0.1791056992
C  C17  1  0.57590000  0.69010000  0.84540000  1.0 0.0843509229
C  C18  1  0.42410000  0.19010000  0.65460000  1.0 0.0878689973
C  C19  1  0.42410000  0.30990000  0.15460000  1.0 0.0878689973
C  C20  1  0.57590000  0.80990000  0.34540000  1.0 0.0878689973
C  C21  1  0.62240000  0.50040000  0.08970000  1.0 0.50049684
C  C22  1  0.37760000  0.00040000  0.41030000  1.0 0.50049684
C  C23  1  0.37760000  0.49960000  0.91030000  1.0 0.50049684
C  C24  1  0.62240000  0.99960000  0.58970000  1.0 0.50049684
C  C25  1  0.56580000  0.52370000  0.13590000  1.0 -0.1687398051
C  C26  1  0.43420000  0.02370000  0.36410000  1.0 -0.1687398051
C  C27  1  0.43420000  0.47630000  0.86410000  1.0 -0.1687398051
C  C28  1  0.56580000  0.97630000  0.63590000  1.0 -0.1687398051
C  C29  1  0.61300000  0.48050000  0.20960000  1.0 0.0071247056
C  C30  1  0.38700000  0.98050000  0.29040000  1.0 0.0071247056
C  C31  1  0.38700000  0.51950000  0.79040000  1.0 0.0071247056
C  C32  1  0.61300000  0.01950000  0.70960000  1.0 0.0071247056
C  C33  1  0.55290000  0.51390000  0.25250000  1.0 -0.1687398051
C  C34  1  0.44710000  0.01390000  0.24750000  1.0 -0.1687398051
C  C35  1  0.44710000  0.48610000  0.74750000  1.0 -0.1687398051
C  C36  1  0.55290000  0.98610000  0.75250000  1.0 -0.1687398051
C  C37  1  0.59480000  0.48060000  0.32960000  1.0 0.4803151096
C  C38  1  0.40520000  0.98060000  0.17040000  1.0 0.4803151096
C  C39  1  0.40520000  0.51940000  0.67040000  1.0 0.4803151096
C  C40  1  0.59480000  0.01940000  0.82960000  1.0 0.4803151096
C  C41  1  0.66490000  0.58990000  0.36180000  1.0 0.489343481
C  C42  1  0.33510000  0.08990000  0.13820000  1.0 0.489343481
C  C43  1  0.33510000  0.41010000  0.63820000  1.0 0.489343481
C  C44  1  0.66490000  0.91010000  0.86180000  1.0 0.489343481
C  C45  1  0.59840000  0.58850000  0.27340000  1.0 -0.1513953527
C  C46  1  0.40160000  0.08850000  0.22660000  1.0 -0.1513953527
C  C47  1  0.40160000  0.41150000  0.72660000  1.0 -0.1513953527
C  C48  1  0.59840000  0.91150000  0.77340000  1.0 -0.1513953527
C  C49  1  0.68960000  0.60680000  0.24580000  1.0 0.0071247056
C  C50  1  0.31040000  0.10680000  0.25420000  1.0 0.0071247056
C  C51  1  0.31040000  0.39320000  0.75420000  1.0 0.0071247056
C  C52  1  0.68960000  0.89320000  0.74580000  1.0 0.0071247056
C  C53  1  0.61090000  0.59830000  0.15660000  1.0 -0.1513953527
C  C54  1  0.38910000  0.09830000  0.34340000  1.0 -0.1513953527
C  C55  1  0.38910000  0.40170000  0.84340000  1.0 -0.1513953527
C  C56  1  0.61090000  0.90170000  0.65660000  1.0 -0.1513953527
C  C57  1  0.68620000  0.60990000  0.11820000  1.0 0.50049684
C  C58  1  0.31380000  0.10990000  0.38180000  1.0 0.50049684
C  C59  1  0.31380000  0.39010000  0.88180000  1.0 0.50049684
C  C60  1  0.68620000  0.89010000  0.61820000  1.0 0.50049684
C  C61  1  0.75520000  0.48940000  0.26130000  1.0 -0.1317141635
C  C62  1  0.24480000  0.98940000  0.23870000  1.0 -0.1317141635
C  C63  1  0.24480000  0.51060000  0.73870000  1.0 -0.1317141635
C  C64  1  0.75520000  0.01060000  0.76130000  1.0 -0.1317141635
C  C65  1  0.79260000  0.55320000  0.27870000  1.0 -0.1199779177
C  C66  1  0.20740000  0.05320000  0.22130000  1.0 -0.1199779177
C  C67  1  0.20740000  0.44680000  0.72130000  1.0 -0.1199779177
C  C68  1  0.79260000  0.94680000  0.77870000  1.0 -0.1199779177
C  C69  1  0.01110000  0.75850000  0.67850000  1.0 0.0878689973
C  C70  1  0.98890000  0.25850000  0.82150000  1.0 0.0878689973
C  C71  1  0.98890000  0.24150000  0.32150000  1.0 0.0878689973
C  C72  1  0.01110000  0.74150000  0.17850000  1.0 0.0878689973
C  C73  1  0.12850000  0.73960000  0.73910000  1.0 -0.1687398051
C  C74  1  0.87150000  0.23960000  0.76090000  1.0 -0.1687398051
C  C75  1  0.87150000  0.26040000  0.26090000  1.0 -0.1687398051
C  C76  1  0.12850000  0.76040000  0.23910000  1.0 -0.1687398051
C  C77  1  0.23170000  0.74090000  0.73020000  1.0 0.1105760046
C  C78  1  0.76830000  0.24090000  0.76980000  1.0 0.1105760046
C  C79  1  0.76830000  0.25910000  0.26980000  1.0 0.1105760046
C  C80  1  0.23170000  0.75910000  0.23020000  1.0 0.1105760046
C  C81  1  0.21170000  0.75970000  0.65820000  1.0 -0.1687398051
C  C82  1  0.78830000  0.25970000  0.84180000  1.0 -0.1687398051
C  C83  1  0.78830000  0.24030000  0.34180000  1.0 -0.1687398051
C  C84  1  0.21170000  0.74030000  0.15820000  1.0 -0.1687398051
C  C85  1  0.08880000  0.77830000  0.59930000  1.0 0.1016471641
C  C86  1  0.91120000  0.27830000  0.90070000  1.0 0.1016471641
C  C87  1  0.91120000  0.22170000  0.40070000  1.0 0.1016471641
C  C88  1  0.08880000  0.72170000  0.09930000  1.0 0.1016471641
C  C89  1  0.88970000  0.57330000  0.91590000  1.0 0.50049684
C  C90  1  0.11030000  0.07330000  0.58410000  1.0 0.50049684
C  C91  1  0.11030000  0.42670000  0.08410000  1.0 0.50049684
C  C92  1  0.88970000  0.92670000  0.41590000  1.0 0.50049684
C  C93  1  0.94630000  0.53740000  0.87430000  1.0 -0.1595183693
C  C94  1  0.05370000  0.03740000  0.62570000  1.0 -0.1595183693
C  C95  1  0.05370000  0.46260000  0.12570000  1.0 -0.1595183693
C  C96  1  0.94630000  0.96260000  0.37430000  1.0 -0.1595183693
C  C97  1  0.89830000  0.56690000  0.79210000  1.0 0.0071247056
C  C98  1  0.10170000  0.06690000  0.70790000  1.0 0.0071247056
C  C99  1  0.10170000  0.43310000  0.20790000  1.0 0.0071247056
C  C100  1  0.89830000  0.93310000  0.29210000  1.0 0.0071247056
C  C101  1  0.96360000  0.52120000  0.76010000  1.0 -0.1595183693
C  C102  1  0.03640000  0.02120000  0.73990000  1.0 -0.1595183693
C  C103  1  0.03640000  0.47880000  0.23990000  1.0 -0.1595183693
C  C104  1  0.96360000  0.97880000  0.26010000  1.0 -0.1595183693
C  C105  1  0.92140000  0.54160000  0.67710000  1.0 0.4803151096
C  C106  1  0.07860000  0.04160000  0.82290000  1.0 0.4803151096
C  C107  1  0.07860000  0.45840000  0.32290000  1.0 0.4803151096
C  C108  1  0.92140000  0.95840000  0.17710000  1.0 0.4803151096
C  C109  1  0.84950000  0.43330000  0.66500000  1.0 0.489343481
C  C110  1  0.15050000  0.93330000  0.83500000  1.0 0.489343481
C  C111  1  0.15050000  0.56670000  0.33500000  1.0 0.489343481
C  C112  1  0.84950000  0.06670000  0.16500000  1.0 0.489343481
C  C113  1  0.91940000  0.44670000  0.75200000  1.0 -0.1595183693
C  C114  1  0.08060000  0.94670000  0.74800000  1.0 -0.1595183693
C  C115  1  0.08060000  0.55330000  0.24800000  1.0 -0.1595183693
C  C116  1  0.91940000  0.05330000  0.25200000  1.0 -0.1595183693
C  C117  1  0.82840000  0.43990000  0.78170000  1.0 0.0047677996
C  C118  1  0.17160000  0.93990000  0.71830000  1.0 0.0047677996
C  C119  1  0.17160000  0.56010000  0.21830000  1.0 0.0047677996
C  C120  1  0.82840000  0.06010000  0.28170000  1.0 0.0047677996
C  C121  1  0.90180000  0.46210000  0.86710000  1.0 -0.1687398051
C  C122  1  0.09820000  0.96210000  0.63290000  1.0 -0.1687398051
C  C123  1  0.09820000  0.53790000  0.13290000  1.0 -0.1687398051
C  C124  1  0.90180000  0.03790000  0.36710000  1.0 -0.1687398051
C  C125  1  0.82160000  0.46360000  0.90280000  1.0 0.50049684
C  C126  1  0.17840000  0.96360000  0.59720000  1.0 0.50049684
C  C127  1  0.17840000  0.53640000  0.09720000  1.0 0.50049684
C  C128  1  0.82160000  0.03640000  0.40280000  1.0 0.50049684
C  C129  1  0.75790000  0.55570000  0.74210000  1.0 -0.1199779177
C  C130  1  0.24210000  0.05570000  0.75790000  1.0 -0.1199779177
C  C131  1  0.24210000  0.44430000  0.25790000  1.0 -0.1199779177
C  C132  1  0.75790000  0.94430000  0.24210000  1.0 -0.1199779177
C  C133  1  0.72230000  0.49100000  0.73640000  1.0 -0.1411008966
C  C134  1  0.27770000  0.99100000  0.76360000  1.0 -0.1411008966
C  C135  1  0.27770000  0.50900000  0.26360000  1.0 -0.1411008966
C  C136  1  0.72230000  0.00900000  0.23640000  1.0 -0.1411008966
N  N1  1  0.60780000  0.69660000  0.91980000  1.0 -0.1791056992
N  N2  1  0.39220000  0.19660000  0.58020000  1.0 -0.1791056992
N  N3  1  0.39220000  0.30340000  0.08020000  1.0 -0.1791056992
N  N4  1  0.60780000  0.80340000  0.41980000  1.0 -0.1791056992
N  N5  1  0.68780000  0.55260000  0.08030000  1.0 -0.473977009
N  N6  1  0.31220000  0.05260000  0.41970000  1.0 -0.473977009
N  N7  1  0.31220000  0.44740000  0.91970000  1.0 -0.473977009
N  N8  1  0.68780000  0.94740000  0.58030000  1.0 -0.473977009
N  N9  1  0.66040000  0.52700000  0.38970000  1.0 -0.4799521727
N  N10  1  0.33960000  0.02700000  0.11030000  1.0 -0.4799521727
N  N11  1  0.33960000  0.47300000  0.61030000  1.0 -0.4799521727
N  N12  1  0.66040000  0.97300000  0.88970000  1.0 -0.4799521727
N  N13  1  0.98940000  0.77760000  0.60830000  1.0 -0.1687398051
N  N14  1  0.01060000  0.27760000  0.89170000  1.0 -0.1687398051
N  N15  1  0.01060000  0.22240000  0.39170000  1.0 -0.1687398051
N  N16  1  0.98940000  0.72240000  0.10830000  1.0 -0.1687398051
N  N17  1  0.82380000  0.52730000  0.93300000  1.0 -0.4799521727
N  N18  1  0.17620000  0.02730000  0.56700000  1.0 -0.4799521727
N  N19  1  0.17620000  0.47270000  0.06700000  1.0 -0.4799521727
N  N20  1  0.82380000  0.97270000  0.43300000  1.0 -0.4799521727
N  N21  1  0.85750000  0.48920000  0.62700000  1.0 -0.4799521727
N  N22  1  0.14250000  0.98920000  0.87300000  1.0 -0.4799521727
N  N23  1  0.14250000  0.51080000  0.37300000  1.0 -0.4799521727
N  N24  1  0.85750000  0.01080000  0.12700000  1.0 -0.4799521727
O  O1  1  0.72050000  0.64100000  0.40160000  1.0 -0.4887718504
O  O2  1  0.27950000  0.14100000  0.09840000  1.0 -0.4887718504
O  O3  1  0.27950000  0.35900000  0.59840000  1.0 -0.4887718504
O  O4  1  0.72050000  0.85900000  0.90160000  1.0 -0.4887718504
O  O5  1  0.57350000  0.42140000  0.33890000  1.0 -0.473977009
O  O6  1  0.42650000  0.92140000  0.16110000  1.0 -0.473977009
O  O7  1  0.42650000  0.57860000  0.66110000  1.0 -0.473977009
O  O8  1  0.57350000  0.07860000  0.83890000  1.0 -0.473977009
O  O9  1  0.60920000  0.44250000  0.06200000  1.0 -0.4799521727
O  O10  1  0.39080000  0.94250000  0.43800000  1.0 -0.4799521727
O  O11  1  0.39080000  0.55750000  0.93800000  1.0 -0.4799521727
O  O12  1  0.60920000  0.05750000  0.56200000  1.0 -0.4799521727
O  O13  1  0.73840000  0.66470000  0.12130000  1.0 -0.5024614615
O  O14  1  0.26160000  0.16470000  0.37870000  1.0 -0.5024614615
O  O15  1  0.26160000  0.33530000  0.87870000  1.0 -0.5024614615
O  O16  1  0.73840000  0.83530000  0.62130000  1.0 -0.5024614615
O  O17  1  0.76190000  0.41420000  0.90480000  1.0 -0.4799521727
O  O18  1  0.23810000  0.91420000  0.59520000  1.0 -0.4799521727
O  O19  1  0.23810000  0.58580000  0.09520000  1.0 -0.4799521727
O  O20  1  0.76190000  0.08580000  0.40480000  1.0 -0.4799521727
O  O21  1  0.90250000  0.63450000  0.93390000  1.0 -0.4887718504
O  O22  1  0.09750000  0.13450000  0.56610000  1.0 -0.4887718504
O  O23  1  0.09750000  0.36550000  0.06610000  1.0 -0.4887718504
O  O24  1  0.90250000  0.86550000  0.43390000  1.0 -0.4887718504
O  O25  1  0.94010000  0.59840000  0.65810000  1.0 -0.4887718504
O  O26  1  0.05990000  0.09840000  0.84190000  1.0 -0.4887718504
O  O27  1  0.05990000  0.40160000  0.34190000  1.0 -0.4887718504
O  O28  1  0.94010000  0.90160000  0.15810000  1.0 -0.4887718504
O  O29  1  0.79370000  0.37940000  0.63450000  1.0 -0.4887718504
O  O30  1  0.20630000  0.87940000  0.86550000  1.0 -0.4887718504
O  O31  1  0.20630000  0.62060000  0.36550000  1.0 -0.4887718504
O  O32  1  0.79370000  0.12060000  0.13450000  1.0 -0.4887718504
