# DDEC6 charges by PACMAN v1.1 (https://github.com/mtap-research/PACMAN-charge/)
data_HAVVUX_FSR_pacman
_symmetry_space_group_name_H-M   'P 1'
_cell_length_a   14.84900000
_cell_length_b   14.84900000
_cell_length_c   21.80600000
_cell_angle_alpha   90.00000000
_cell_angle_beta   90.00000000
_cell_angle_gamma   120.00000000
_symmetry_Int_Tables_number   1
_chemical_formula_structural   Cu7H12C18I4N15O
_chemical_formula_sum   'Cu28 H48 C72 I16 N60 O4'
_cell_volume   4163.90731519
_cell_formula_units_Z   4
loop_
 _symmetry_equiv_pos_site_id
 _symmetry_equiv_pos_as_xyz
  1  'x, y, z'
loop_
 _atom_site_type_symbol
 _atom_site_label
 _atom_site_symmetry_multiplicity
 _atom_site_fract_x
 _atom_site_fract_y
 _atom_site_fract_z
 _atom_site_occupancy
 _atom_site_charge
Cu  Cu1  1  0.86343000  0.37898000  0.25162000  1.0 0.1855018795
Cu  Cu2  1  0.62102000  0.48445000  0.25162000  1.0 0.1855018795
Cu  Cu3  1  0.51555000  0.13657000  0.25162000  1.0 0.1855018795
Cu  Cu4  1  0.37898000  0.86343000  0.24838000  1.0 0.1855018795
Cu  Cu5  1  0.48445000  0.62102000  0.24838000  1.0 0.1855018795
Cu  Cu6  1  0.13657000  0.51555000  0.24838000  1.0 0.1855018795
Cu  Cu7  1  0.13657000  0.62102000  0.74838000  1.0 0.184112068
Cu  Cu8  1  0.37898000  0.51555000  0.74838000  1.0 0.184112068
Cu  Cu9  1  0.48445000  0.86343000  0.74838000  1.0 0.184112068
Cu  Cu10  1  0.62102000  0.13657000  0.75162000  1.0 0.184112068
Cu  Cu11  1  0.51555000  0.37898000  0.75162000  1.0 0.184112068
Cu  Cu12  1  0.86343000  0.48445000  0.75162000  1.0 0.184112068
Cu  Cu13  1  0.76036000  0.23465000  0.11806000  1.0 0.2494554887
Cu  Cu14  1  0.76535000  0.52571000  0.11806000  1.0 0.2494554887
Cu  Cu15  1  0.47429000  0.23964000  0.11806000  1.0 0.2494554887
Cu  Cu16  1  0.23465000  0.76036000  0.38194000  1.0 0.2494554887
Cu  Cu17  1  0.52571000  0.76535000  0.38194000  1.0 0.2494554887
Cu  Cu18  1  0.23964000  0.47429000  0.38194000  1.0 0.2494554887
Cu  Cu19  1  0.23964000  0.76535000  0.88194000  1.0 0.2494554887
Cu  Cu20  1  0.23465000  0.47429000  0.88194000  1.0 0.2494554887
Cu  Cu21  1  0.52571000  0.76036000  0.88194000  1.0 0.2494554887
Cu  Cu22  1  0.76535000  0.23964000  0.61806000  1.0 0.2494554887
Cu  Cu23  1  0.47429000  0.23465000  0.61806000  1.0 0.2494554887
Cu  Cu24  1  0.76036000  0.52571000  0.61806000  1.0 0.2494554887
Cu  Cu25  1  0.66666667  0.33333333  0.28341000  1.0 0.2494554887
Cu  Cu26  1  0.33333333  0.66666667  0.21659000  1.0 0.2494554887
Cu  Cu27  1  0.33333333  0.66666667  0.71659000  1.0 0.2494554887
Cu  Cu28  1  0.66666667  0.33333333  0.78341000  1.0 0.2494554887
H  H1  1  0.14560000  0.47240000  0.00160000  1.0 0.1098074631
H  H2  1  0.52760000  0.67320000  0.00160000  1.0 0.1098074631
H  H3  1  0.32680000  0.85440000  0.00160000  1.0 0.1098074631
H  H4  1  0.47240000  0.14560000  0.49840000  1.0 0.1098074631
H  H5  1  0.67320000  0.52760000  0.49840000  1.0 0.1098074631
H  H6  1  0.85440000  0.32680000  0.49840000  1.0 0.1098074631
H  H7  1  0.85440000  0.52760000  0.99840000  1.0 0.1098074631
H  H8  1  0.47240000  0.32680000  0.99840000  1.0 0.1098074631
H  H9  1  0.67320000  0.14560000  0.99840000  1.0 0.1098074631
H  H10  1  0.52760000  0.85440000  0.50160000  1.0 0.1098074631
H  H11  1  0.32680000  0.47240000  0.50160000  1.0 0.1098074631
H  H12  1  0.14560000  0.67320000  0.50160000  1.0 0.1098074631
H  H13  1  0.00460000  0.32660000  0.85040000  1.0 0.1098074631
H  H14  1  0.67340000  0.67800000  0.85040000  1.0 0.1098074631
H  H15  1  0.32200000  0.99540000  0.85040000  1.0 0.1098074631
H  H16  1  0.32660000  0.00460000  0.64960000  1.0 0.1098074631
H  H17  1  0.67800000  0.67340000  0.64960000  1.0 0.1098074631
H  H18  1  0.99540000  0.32200000  0.64960000  1.0 0.1098074631
H  H19  1  0.99540000  0.67340000  0.14960000  1.0 0.1098074631
H  H20  1  0.32660000  0.32200000  0.14960000  1.0 0.1098074631
H  H21  1  0.67800000  0.00460000  0.14960000  1.0 0.1098074631
H  H22  1  0.67340000  0.99540000  0.35040000  1.0 0.1098074631
H  H23  1  0.32200000  0.32660000  0.35040000  1.0 0.1098074631
H  H24  1  0.00460000  0.67800000  0.35040000  1.0 0.1098074631
H  H25  1  0.84300000  0.25830000  0.89800000  1.0 0.1369266446
H  H26  1  0.74170000  0.58470000  0.89800000  1.0 0.1369266446
H  H27  1  0.41530000  0.15700000  0.89800000  1.0 0.1369266446
H  H28  1  0.25830000  0.84300000  0.60200000  1.0 0.1369266446
H  H29  1  0.58470000  0.74170000  0.60200000  1.0 0.1369266446
H  H30  1  0.15700000  0.41530000  0.60200000  1.0 0.1369266446
H  H31  1  0.15700000  0.74170000  0.10200000  1.0 0.1369266446
H  H32  1  0.25830000  0.41530000  0.10200000  1.0 0.1369266446
H  H33  1  0.58470000  0.84300000  0.10200000  1.0 0.1369266446
H  H34  1  0.74170000  0.15700000  0.39800000  1.0 0.1369266446
H  H35  1  0.41530000  0.25830000  0.39800000  1.0 0.1369266446
H  H36  1  0.84300000  0.58470000  0.39800000  1.0 0.1369266446
H  H37  1  0.83530000  0.27990000  0.00340000  1.0 0.1098074631
H  H38  1  0.72010000  0.55540000  0.00340000  1.0 0.1098074631
H  H39  1  0.44460000  0.16470000  0.00340000  1.0 0.1098074631
H  H40  1  0.27990000  0.83530000  0.49660000  1.0 0.1098074631
H  H41  1  0.55540000  0.72010000  0.49660000  1.0 0.1098074631
H  H42  1  0.16470000  0.44460000  0.49660000  1.0 0.1098074631
H  H43  1  0.16470000  0.72010000  0.99660000  1.0 0.1098074631
H  H44  1  0.27990000  0.44460000  0.99660000  1.0 0.1098074631
H  H45  1  0.55540000  0.83530000  0.99660000  1.0 0.1098074631
H  H46  1  0.72010000  0.16470000  0.50340000  1.0 0.1098074631
H  H47  1  0.44460000  0.27990000  0.50340000  1.0 0.1098074631
H  H48  1  0.83530000  0.55540000  0.50340000  1.0 0.1098074631
C  C1  1  0.08510000  0.42430000  0.98160000  1.0 0.035857376
C  C2  1  0.57570000  0.66080000  0.98160000  1.0 0.035857376
C  C3  1  0.33920000  0.91490000  0.98160000  1.0 0.035857376
C  C4  1  0.42430000  0.08510000  0.51840000  1.0 0.035857376
C  C5  1  0.66080000  0.57570000  0.51840000  1.0 0.035857376
C  C6  1  0.91490000  0.33920000  0.51840000  1.0 0.035857376
C  C7  1  0.91490000  0.57570000  0.01840000  1.0 0.035857376
C  C8  1  0.42430000  0.33920000  0.01840000  1.0 0.035857376
C  C9  1  0.66080000  0.08510000  0.01840000  1.0 0.035857376
C  C10  1  0.57570000  0.91490000  0.48160000  1.0 0.035857376
C  C11  1  0.33920000  0.42430000  0.48160000  1.0 0.035857376
C  C12  1  0.08510000  0.66080000  0.48160000  1.0 0.035857376
C  C13  1  0.99450000  0.39370000  0.08240000  1.0 0.2417156185
C  C14  1  0.60630000  0.60080000  0.08240000  1.0 0.2417156185
C  C15  1  0.39920000  0.00550000  0.08240000  1.0 0.2417156185
C  C16  1  0.39370000  0.99450000  0.41760000  1.0 0.2417156185
C  C17  1  0.60080000  0.60630000  0.41760000  1.0 0.2417156185
C  C18  1  0.00550000  0.39920000  0.41760000  1.0 0.2417156185
C  C19  1  0.00550000  0.60630000  0.91760000  1.0 0.2417156185
C  C20  1  0.39370000  0.39920000  0.91760000  1.0 0.2417156185
C  C21  1  0.60080000  0.99450000  0.91760000  1.0 0.2417156185
C  C22  1  0.60630000  0.00550000  0.58240000  1.0 0.2417156185
C  C23  1  0.39920000  0.39370000  0.58240000  1.0 0.2417156185
C  C24  1  0.99450000  0.60080000  0.58240000  1.0 0.2417156185
C  C25  1  0.99130000  0.37400000  0.01550000  1.0 0.0093983866
C  C26  1  0.62600000  0.61730000  0.01550000  1.0 0.0151202468
C  C27  1  0.38270000  0.00870000  0.01550000  1.0 0.0093983866
C  C28  1  0.37400000  0.99130000  0.48450000  1.0 0.0151202468
C  C29  1  0.61730000  0.62600000  0.48450000  1.0 0.0093983866
C  C30  1  0.00870000  0.38270000  0.48450000  1.0 0.0093983866
C  C31  1  0.00870000  0.62600000  0.98450000  1.0 0.0093983866
C  C32  1  0.37400000  0.38270000  0.98450000  1.0 0.0093983866
C  C33  1  0.61730000  0.99130000  0.98450000  1.0 0.0093983866
C  C34  1  0.62600000  0.00870000  0.51550000  1.0 0.0093983866
C  C35  1  0.38270000  0.37400000  0.51550000  1.0 0.0093983866
C  C36  1  0.99130000  0.61730000  0.51550000  1.0 0.0151202468
C  C37  1  0.00130000  0.34150000  0.89140000  1.0 0.077580381
C  C38  1  0.65850000  0.65980000  0.89140000  1.0 0.077580381
C  C39  1  0.34020000  0.99870000  0.89140000  1.0 0.077580381
C  C40  1  0.34150000  0.00130000  0.60860000  1.0 0.077580381
C  C41  1  0.65980000  0.65850000  0.60860000  1.0 0.077580381
C  C42  1  0.99870000  0.34020000  0.60860000  1.0 0.077580381
C  C43  1  0.99870000  0.65850000  0.10860000  1.0 0.077580381
C  C44  1  0.34150000  0.34020000  0.10860000  1.0 0.077580381
C  C45  1  0.65980000  0.00130000  0.10860000  1.0 0.077580381
C  C46  1  0.65850000  0.99870000  0.39140000  1.0 0.077580381
C  C47  1  0.34020000  0.34150000  0.39140000  1.0 0.077580381
C  C48  1  0.00130000  0.65980000  0.39140000  1.0 0.077580381
C  C49  1  0.90370000  0.29700000  0.92050000  1.0 -0.1029527717
C  C50  1  0.70300000  0.60670000  0.92050000  1.0 -0.1029527717
C  C51  1  0.39330000  0.09630000  0.92050000  1.0 -0.1029527717
C  C52  1  0.29700000  0.90370000  0.57950000  1.0 -0.1029527717
C  C53  1  0.60670000  0.70300000  0.57950000  1.0 -0.1029527717
C  C54  1  0.09630000  0.39330000  0.57950000  1.0 -0.1029527717
C  C55  1  0.09630000  0.70300000  0.07950000  1.0 -0.1029527717
C  C56  1  0.29700000  0.39330000  0.07950000  1.0 -0.1029527717
C  C57  1  0.60670000  0.90370000  0.07950000  1.0 -0.1029527717
C  C58  1  0.70300000  0.09630000  0.42050000  1.0 -0.1029527717
C  C59  1  0.39330000  0.29700000  0.42050000  1.0 -0.1029527717
C  C60  1  0.90370000  0.60670000  0.42050000  1.0 -0.1029527717
C  C61  1  0.89900000  0.31140000  0.98320000  1.0 -0.0869902611
C  C62  1  0.68860000  0.58760000  0.98320000  1.0 -0.0869902611
C  C63  1  0.41240000  0.10100000  0.98320000  1.0 -0.0869902611
C  C64  1  0.31140000  0.89900000  0.51680000  1.0 -0.0869902611
C  C65  1  0.58760000  0.68860000  0.51680000  1.0 -0.0869902611
C  C66  1  0.10100000  0.41240000  0.51680000  1.0 -0.0869902611
C  C67  1  0.10100000  0.68860000  0.01680000  1.0 -0.0869902611
C  C68  1  0.31140000  0.41240000  0.01680000  1.0 -0.0869902611
C  C69  1  0.58760000  0.89900000  0.01680000  1.0 -0.0869902611
C  C70  1  0.68860000  0.10100000  0.48320000  1.0 -0.0869902611
C  C71  1  0.41240000  0.31140000  0.48320000  1.0 -0.0869902611
C  C72  1  0.89900000  0.58760000  0.48320000  1.0 -0.0869902611
I  I1  1  0.71129000  0.18518000  0.24093000  1.0 -0.3180795525
I  I2  1  0.81482000  0.52611000  0.24093000  1.0 -0.3180795525
I  I3  1  0.47389000  0.28871000  0.24093000  1.0 -0.3180795525
I  I4  1  0.18518000  0.71129000  0.25907000  1.0 -0.3180795525
I  I5  1  0.52611000  0.81482000  0.25907000  1.0 -0.3180795525
I  I6  1  0.28871000  0.47389000  0.25907000  1.0 -0.3180795525
I  I7  1  0.28871000  0.81482000  0.75907000  1.0 -0.3180795525
I  I8  1  0.18518000  0.47389000  0.75907000  1.0 -0.3180795525
I  I9  1  0.52611000  0.71129000  0.75907000  1.0 -0.3180795525
I  I10  1  0.81482000  0.28871000  0.74093000  1.0 -0.3180795525
I  I11  1  0.47389000  0.18518000  0.74093000  1.0 -0.3180795525
I  I12  1  0.71129000  0.52611000  0.74093000  1.0 -0.3180795525
I  I13  1  0.66666667  0.33333333  0.06988000  1.0 -0.3869403988
I  I14  1  0.33333333  0.66666667  0.43012000  1.0 -0.3869403988
I  I15  1  0.33333333  0.66666667  0.93012000  1.0 -0.3869403988
I  I16  1  0.66666667  0.33333333  0.56988000  1.0 -0.3869403988
N  N1  1  0.95060000  0.39030000  0.17580000  1.0 0.0093983866
N  N2  1  0.60970000  0.56030000  0.17580000  1.0 0.0093983866
N  N3  1  0.43970000  0.04940000  0.17580000  1.0 0.0093983866
N  N4  1  0.39030000  0.95060000  0.32420000  1.0 0.0046038669
N  N5  1  0.56030000  0.60970000  0.32420000  1.0 0.0093983866
N  N6  1  0.04940000  0.43970000  0.32420000  1.0 0.0093983866
N  N7  1  0.04940000  0.60970000  0.82420000  1.0 0.0093983866
N  N8  1  0.39030000  0.43970000  0.82420000  1.0 0.0093983866
N  N9  1  0.56030000  0.95060000  0.82420000  1.0 0.0093983866
N  N10  1  0.60970000  0.04940000  0.67580000  1.0 0.0093983866
N  N11  1  0.43970000  0.39030000  0.67580000  1.0 0.0093983866
N  N12  1  0.95060000  0.56030000  0.67580000  1.0 0.0093983866
N  N13  1  0.05250000  0.45690000  0.17120000  1.0 0.0093983866
N  N14  1  0.54310000  0.59560000  0.17120000  1.0 0.0093983866
N  N15  1  0.40440000  0.94750000  0.17120000  1.0 0.0093983866
N  N16  1  0.45690000  0.05250000  0.32880000  1.0 0.0093983866
N  N17  1  0.59560000  0.54310000  0.32880000  1.0 0.0093983866
N  N18  1  0.94750000  0.40440000  0.32880000  1.0 0.0093983866
N  N19  1  0.94750000  0.54310000  0.82880000  1.0 0.0093983866
N  N20  1  0.45690000  0.40440000  0.82880000  1.0 0.0093983866
N  N21  1  0.59560000  0.05250000  0.82880000  1.0 0.0093983866
N  N22  1  0.54310000  0.94750000  0.67120000  1.0 0.0093983866
N  N23  1  0.40440000  0.45690000  0.67120000  1.0 0.0093983866
N  N24  1  0.05250000  0.59560000  0.67120000  1.0 0.0093983866
N  N25  1  0.08240000  0.46060000  0.11230000  1.0 -0.2583066314
N  N26  1  0.53940000  0.62180000  0.11230000  1.0 -0.2583066314
N  N27  1  0.37820000  0.91760000  0.11230000  1.0 -0.2583066314
N  N28  1  0.46060000  0.08240000  0.38770000  1.0 -0.2583066314
N  N29  1  0.62180000  0.53940000  0.38770000  1.0 -0.2583066314
N  N30  1  0.91760000  0.37820000  0.38770000  1.0 -0.2583066314
N  N31  1  0.91760000  0.53940000  0.88770000  1.0 -0.2583066314
N  N32  1  0.46060000  0.37820000  0.88770000  1.0 -0.2583066314
N  N33  1  0.62180000  0.08240000  0.88770000  1.0 -0.2583066314
N  N34  1  0.53940000  0.91760000  0.61230000  1.0 -0.2583066314
N  N35  1  0.37820000  0.46060000  0.61230000  1.0 -0.2583066314
N  N36  1  0.08240000  0.62180000  0.61230000  1.0 -0.2583066314
N  N37  1  0.91240000  0.34820000  0.12070000  1.0 -0.2172027171
N  N38  1  0.65180000  0.56420000  0.12070000  1.0 -0.2172027171
N  N39  1  0.43580000  0.08760000  0.12070000  1.0 -0.2172027171
N  N40  1  0.34820000  0.91240000  0.37930000  1.0 -0.2172027171
N  N41  1  0.56420000  0.65180000  0.37930000  1.0 -0.2172027171
N  N42  1  0.08760000  0.43580000  0.37930000  1.0 -0.2172027171
N  N43  1  0.08760000  0.65180000  0.87930000  1.0 -0.2172027171
N  N44  1  0.34820000  0.43580000  0.87930000  1.0 -0.2172027171
N  N45  1  0.56420000  0.91240000  0.87930000  1.0 -0.2172027171
N  N46  1  0.65180000  0.08760000  0.62070000  1.0 -0.2172027171
N  N47  1  0.43580000  0.34820000  0.62070000  1.0 -0.2172027171
N  N48  1  0.91240000  0.56420000  0.62070000  1.0 -0.2172027171
N  N49  1  0.09070000  0.40560000  0.92170000  1.0 -0.1778305995
N  N50  1  0.59440000  0.68510000  0.92170000  1.0 -0.1778305995
N  N51  1  0.31490000  0.90930000  0.92170000  1.0 -0.1778305995
N  N52  1  0.40560000  0.09070000  0.57830000  1.0 -0.1778305995
N  N53  1  0.68510000  0.59440000  0.57830000  1.0 -0.1778305995
N  N54  1  0.90930000  0.31490000  0.57830000  1.0 -0.1778305995
N  N55  1  0.90930000  0.59440000  0.07830000  1.0 -0.1778305995
N  N56  1  0.40560000  0.31490000  0.07830000  1.0 -0.1778305995
N  N57  1  0.68510000  0.09070000  0.07830000  1.0 -0.1778305995
N  N58  1  0.59440000  0.90930000  0.42170000  1.0 -0.1778305995
N  N59  1  0.31490000  0.40560000  0.42170000  1.0 -0.1778305995
N  N60  1  0.09070000  0.68510000  0.42170000  1.0 -0.1778305995
O  O1  1  0.66666667  0.33333333  0.37850000  1.0 -0.2321266423
O  O2  1  0.33333333  0.66666667  0.12150000  1.0 -0.2372214734
O  O3  1  0.33333333  0.66666667  0.62150000  1.0 -0.2321266423
O  O4  1  0.66666667  0.33333333  0.87850000  1.0 -0.2321266423
