# DDEC6 charges by PACMAN v1.1 (https://github.com/mtap-research/PACMAN-charge/)
data_HAWGIY_FSR_pacman
_symmetry_space_group_name_H-M   'P 1'
_cell_length_a   11.66500000
_cell_length_b   13.91500000
_cell_length_c   17.34300000
_cell_angle_alpha   95.51400000
_cell_angle_beta   99.79200000
_cell_angle_gamma   101.31300000
_symmetry_Int_Tables_number   1
_chemical_formula_structural   Ce3H48C124(N2O7)4
_chemical_formula_sum   'Ce3 H48 C124 N8 O28'
_cell_volume   2695.65746178
_cell_formula_units_Z   1
loop_
 _symmetry_equiv_pos_site_id
 _symmetry_equiv_pos_as_xyz
  1  'x, y, z'
loop_
 _atom_site_type_symbol
 _atom_site_label
 _atom_site_symmetry_multiplicity
 _atom_site_fract_x
 _atom_site_fract_y
 _atom_site_fract_z
 _atom_site_occupancy
 _atom_site_charge
Ce  Ce1  1  0.84883000  0.06065000  0.00409000  1.0 1.9836430833
Ce  Ce2  1  0.15117000  0.93935000  0.99591000  1.0 1.9836430833
Ce  Ce3  1  0.50000000  0.00000000  0.00000000  1.0 1.4489501998
H  H1  1  0.22490000  0.87210000  0.20230000  1.0 0.1290294519
H  H2  1  0.54040000  0.81840000  0.72710000  1.0 0.1213162628
H  H3  1  0.98410000  0.27060000  0.84030000  1.0 0.1290294519
H  H4  1  0.99690000  0.19540000  0.31980000  1.0 0.1213162628
H  H5  1  0.70000000  0.90390000  0.82540000  1.0 0.1213162628
H  H6  1  0.37050000  0.42620000  0.79610000  1.0 0.1290294519
H  H7  1  0.99690000  0.43920000  0.23800000  1.0 0.137795268
H  H8  1  0.19220000  0.77750000  0.30390000  1.0 0.1213162628
H  H9  1  0.52770000  0.56920000  0.78790000  1.0 0.1290294519
H  H10  1  0.15710000  0.58250000  0.22970000  1.0 0.1290294519
H  H11  1  0.85850000  0.09590000  0.21320000  1.0 0.1213162628
H  H12  1  0.53210000  0.78600000  0.19830000  1.0 0.1213162628
H  H13  1  0.52910000  0.80510000  0.43320000  1.0 0.1213162628
H  H14  1  0.87940000  0.69240000  0.78660000  1.0 0.1290294519
H  H15  1  0.27790000  0.20790000  0.70660000  1.0 0.1213162628
H  H16  1  0.72190000  0.60450000  0.68850000  1.0 0.1290294519
H  H17  1  0.49650000  0.68550000  0.29640000  1.0 0.1290294519
H  H18  1  0.98230000  0.22140000  0.59930000  1.0 0.1213162628
H  H19  1  0.62350000  0.79780000  0.56980000  1.0 0.1290294519
H  H20  1  0.21980000  0.10800000  0.79990000  1.0 0.1290294519
H  H21  1  0.65110000  0.29310000  0.21850000  1.0 0.1213162628
H  H22  1  0.79770000  0.40230000  0.31560000  1.0 0.1290294519
H  H23  1  0.04540000  0.37250000  0.74960000  1.0 0.1290294519
H  H24  1  0.88570000  0.22510000  0.46250000  1.0 0.1290294519
H  H25  1  0.77510000  0.12790000  0.79770000  1.0 0.1290294519
H  H26  1  0.45960000  0.18160000  0.27290000  1.0 0.1213162628
H  H27  1  0.01590000  0.72940000  0.15970000  1.0 0.1290294519
H  H28  1  0.00310000  0.80460000  0.68020000  1.0 0.1213162628
H  H29  1  0.30000000  0.09610000  0.17460000  1.0 0.1213162628
H  H30  1  0.62950000  0.57380000  0.20390000  1.0 0.1290294519
H  H31  1  0.00310000  0.56080000  0.76200000  1.0 0.137795268
H  H32  1  0.80780000  0.22250000  0.69610000  1.0 0.1213162628
H  H33  1  0.47230000  0.43080000  0.21210000  1.0 0.1290294519
H  H34  1  0.84290000  0.41750000  0.77030000  1.0 0.1290294519
H  H35  1  0.14150000  0.90410000  0.78680000  1.0 0.1213162628
H  H36  1  0.46790000  0.21400000  0.80170000  1.0 0.1213162628
H  H37  1  0.47090000  0.19490000  0.56680000  1.0 0.1213162628
H  H38  1  0.12060000  0.30760000  0.21340000  1.0 0.1290294519
H  H39  1  0.72210000  0.79210000  0.29340000  1.0 0.1213162628
H  H40  1  0.27810000  0.39550000  0.31150000  1.0 0.1290294519
H  H41  1  0.50350000  0.31450000  0.70360000  1.0 0.1290294519
H  H42  1  0.01770000  0.77860000  0.40070000  1.0 0.1213162628
H  H43  1  0.37650000  0.20220000  0.43020000  1.0 0.1290294519
H  H44  1  0.78020000  0.89200000  0.20010000  1.0 0.1290294519
H  H45  1  0.34890000  0.70690000  0.78150000  1.0 0.1213162628
H  H46  1  0.20230000  0.59770000  0.68440000  1.0 0.1290294519
H  H47  1  0.95460000  0.62750000  0.25040000  1.0 0.1290294519
H  H48  1  0.11430000  0.77490000  0.53750000  1.0 0.1290294519
C  C1  1  0.09790000  0.18110000  0.82910000  1.0 -0.0233974229
C  C2  1  0.61310000  0.70070000  0.70010000  1.0 0.0815283567
C  C3  1  0.90190000  0.85600000  0.88180000  1.0 0.6278196857
C  C4  1  0.38230000  0.83920000  0.19130000  1.0 -0.0493715844
C  C5  1  0.21790000  0.58080000  0.35420000  1.0 0.1829260275
C  C6  1  0.80490000  0.80340000  0.81570000  1.0 -0.0283173803
C  C7  1  0.16590000  0.29920000  0.71940000  1.0 0.0815283567
C  C8  1  0.07960000  0.45380000  0.36100000  1.0 0.1985125751
C  C9  1  0.28160000  0.83550000  0.22200000  1.0 -0.075989598
C  C10  1  0.05560000  0.11520000  0.88650000  1.0 0.640407233
C  C11  1  0.60890000  0.79140000  0.73990000  1.0 -0.1489174306
C  C12  1  0.04540000  0.25800000  0.81360000  1.0 -0.0887559732
C  C13  1  0.29960000  0.43550000  0.67340000  1.0 0.1829260275
C  C14  1  0.92820000  0.21750000  0.29730000  1.0 -0.1291383184
C  C15  1  0.70380000  0.84250000  0.79790000  1.0 -0.0887559732
C  C16  1  0.37850000  0.45930000  0.75120000  1.0 -0.1904937565
C  C17  1  0.34190000  0.72220000  0.31000000  1.0 0.0880911336
C  C18  1  0.05910000  0.47410000  0.27980000  1.0 -0.1904937565
C  C19  1  0.50690000  0.64140000  0.64150000  1.0 -0.0593834434
C  C20  1  0.40760000  0.90020000  0.12850000  1.0 0.5072669968
C  C21  1  0.00950000  0.37460000  0.38630000  1.0 -0.0593834434
C  C22  1  0.26160000  0.77820000  0.28200000  1.0 -0.136685995
C  C23  1  0.46340000  0.53640000  0.74670000  1.0 -0.1978709042
C  C24  1  0.11500000  0.34050000  0.58520000  1.0 0.191563493
C  C25  1  0.14560000  0.55220000  0.27540000  1.0 -0.1904937565
C  C26  1  0.19720000  0.36260000  0.65670000  1.0 -0.0593834434
C  C27  1  0.84520000  0.15730000  0.23460000  1.0 -0.07097513
C  C28  1  0.44010000  0.56080000  0.66810000  1.0 0.191563493
C  C29  1  0.46180000  0.78380000  0.21940000  1.0 -0.1160303034
C  C30  1  0.50120000  0.75830000  0.46590000  1.0 -0.1794237137
C  C31  1  0.91160000  0.30760000  0.32630000  1.0 0.0880911336
C  C32  1  0.74540000  0.18870000  0.20530000  1.0 -0.0493715844
C  C33  1  0.80940000  0.71780000  0.77510000  1.0 -0.075989598
C  C34  1  0.31640000  0.65860000  0.37260000  1.0 -0.07097513
C  C35  1  0.21800000  0.22130000  0.73430000  1.0 -0.1489174306
C  C36  1  0.71560000  0.66470000  0.71670000  1.0 -0.136685995
C  C37  1  0.44130000  0.72430000  0.27840000  1.0 -0.1291383184
C  C38  1  0.01070000  0.26620000  0.56530000  1.0 -0.1794237137
C  C39  1  0.39640000  0.68020000  0.44350000  1.0 0.1985125751
C  C40  1  0.48480000  0.67350000  0.56760000  1.0 0.1985125751
C  C41  1  0.02800000  0.34760000  0.46150000  1.0 0.1985125751
C  C42  1  0.55320000  0.75420000  0.54050000  1.0 -0.1723955288
C  C43  1  0.18350000  0.16200000  0.78960000  1.0 -0.0985009859
C  C44  1  0.72460000  0.27550000  0.23700000  1.0 -0.0985009859
C  C45  1  0.80960000  0.33940000  0.29650000  1.0 -0.1131572291
C  C46  1  0.08090000  0.31780000  0.75920000  1.0 -0.1291383184
C  C47  1  0.95710000  0.26820000  0.49060000  1.0 -0.1639339864
C  C48  1  0.66380000  0.12980000  0.13480000  1.0 0.5072669968
C  C49  1  0.59500000  0.81800000  0.99050000  1.0 0.4867162988
C  C50  1  0.73840000  0.71090000  0.96440000  1.0 -0.1160303034
C  C51  1  0.76100000  0.61900000  0.94180000  1.0 0.0815283567
C  C52  1  0.67410000  0.53370000  0.93790000  1.0 0.0880911336
C  C53  1  0.56440000  0.54030000  0.95670000  1.0 -0.075989598
C  C54  1  0.54180000  0.63230000  0.97930000  1.0 -0.0985009859
C  C55  1  0.62880000  0.71760000  0.98320000  1.0 -0.0373302489
C  C56  1  0.85570000  0.31860000  0.03550000  1.0 0.6212936923
C  C57  1  0.82190000  0.49330000  0.05760000  1.0 -0.0493715844
C  C58  1  0.80770000  0.40500000  0.00850000  1.0 -0.0887559732
C  C59  1  0.75120000  0.39530000  0.92990000  1.0 -0.0887559732
C  C60  1  0.70900000  0.47390000  0.90050000  1.0 -0.0233974229
C  C61  1  0.77970000  0.57180000  0.02810000  1.0 0.0509879053
C  C62  1  0.72300000  0.56210000  0.94960000  1.0 0.1007042289
C  C63  1  0.90210000  0.81890000  0.17090000  1.0 -0.0233974229
C  C64  1  0.38690000  0.29930000  0.29990000  1.0 0.0815283567
C  C65  1  0.09810000  0.14400000  0.11820000  1.0 0.6278196857
C  C66  1  0.61770000  0.16080000  0.80870000  1.0 -0.0493715844
C  C67  1  0.78210000  0.41920000  0.64580000  1.0 0.1829260275
C  C68  1  0.19510000  0.19660000  0.18430000  1.0 -0.0283173803
C  C69  1  0.83410000  0.70080000  0.28060000  1.0 0.0815283567
C  C70  1  0.92040000  0.54620000  0.63900000  1.0 0.1985125751
C  C71  1  0.71840000  0.16450000  0.77800000  1.0 -0.075989598
C  C72  1  0.94440000  0.88480000  0.11350000  1.0 0.640407233
C  C73  1  0.39110000  0.20860000  0.26010000  1.0 -0.1489174306
C  C74  1  0.95460000  0.74200000  0.18640000  1.0 -0.0887559732
C  C75  1  0.70040000  0.56450000  0.32660000  1.0 0.1829260275
C  C76  1  0.07180000  0.78250000  0.70270000  1.0 -0.1291383184
C  C77  1  0.29620000  0.15750000  0.20210000  1.0 -0.0887559732
C  C78  1  0.62150000  0.54070000  0.24880000  1.0 -0.1904937565
C  C79  1  0.65810000  0.27780000  0.69000000  1.0 0.0880911336
C  C80  1  0.94090000  0.52590000  0.72020000  1.0 -0.1904937565
C  C81  1  0.49310000  0.35860000  0.35850000  1.0 -0.0593834434
C  C82  1  0.59240000  0.09980000  0.87150000  1.0 0.5072669968
C  C83  1  0.99050000  0.62540000  0.61370000  1.0 -0.0593834434
C  C84  1  0.73840000  0.22180000  0.71800000  1.0 -0.136685995
C  C85  1  0.53660000  0.46360000  0.25330000  1.0 -0.1978709042
C  C86  1  0.88500000  0.65950000  0.41480000  1.0 0.191563493
C  C87  1  0.85440000  0.44780000  0.72460000  1.0 -0.1904937565
C  C88  1  0.80280000  0.63740000  0.34330000  1.0 -0.0593834434
C  C89  1  0.15480000  0.84270000  0.76540000  1.0 -0.07097513
C  C90  1  0.55990000  0.43920000  0.33190000  1.0 0.191563493
C  C91  1  0.53820000  0.21620000  0.78060000  1.0 -0.1160303034
C  C92  1  0.49880000  0.24170000  0.53410000  1.0 -0.1794237137
C  C93  1  0.08840000  0.69240000  0.67370000  1.0 0.0880911336
C  C94  1  0.25460000  0.81130000  0.79470000  1.0 -0.0493715844
C  C95  1  0.19060000  0.28220000  0.22490000  1.0 -0.075989598
C  C96  1  0.68360000  0.34140000  0.62740000  1.0 -0.07097513
C  C97  1  0.78200000  0.77870000  0.26570000  1.0 -0.1489174306
C  C98  1  0.28440000  0.33530000  0.28330000  1.0 -0.136685995
C  C99  1  0.55870000  0.27570000  0.72160000  1.0 -0.1291383184
C  C100  1  0.98930000  0.73380000  0.43470000  1.0 -0.1794237137
C  C101  1  0.60360000  0.31980000  0.55650000  1.0 0.1985125751
C  C102  1  0.51520000  0.32650000  0.43240000  1.0 0.1985125751
C  C103  1  0.97200000  0.65240000  0.53850000  1.0 0.1985125751
C  C104  1  0.44680000  0.24580000  0.45950000  1.0 -0.1723955288
C  C105  1  0.81650000  0.83800000  0.21040000  1.0 -0.0985009859
C  C106  1  0.27540000  0.72450000  0.76300000  1.0 -0.0985009859
C  C107  1  0.19040000  0.66060000  0.70350000  1.0 -0.1131572291
C  C108  1  0.91910000  0.68220000  0.24080000  1.0 -0.1291383184
C  C109  1  0.04290000  0.73180000  0.50940000  1.0 -0.1639339864
C  C110  1  0.33620000  0.87020000  0.86520000  1.0 0.5072669968
C  C111  1  0.40500000  0.18200000  0.00950000  1.0 0.4867162988
C  C112  1  0.26160000  0.28910000  0.03560000  1.0 -0.1160303034
C  C113  1  0.23900000  0.38100000  0.05820000  1.0 0.0815283567
C  C114  1  0.32590000  0.46630000  0.06210000  1.0 0.0880911336
C  C115  1  0.43560000  0.45970000  0.04330000  1.0 -0.075989598
C  C116  1  0.45820000  0.36770000  0.02070000  1.0 -0.0985009859
C  C117  1  0.37120000  0.28240000  0.01680000  1.0 -0.0373302489
C  C118  1  0.14430000  0.68140000  0.96450000  1.0 0.6212936923
C  C119  1  0.17810000  0.50670000  0.94240000  1.0 -0.0493715844
C  C120  1  0.19230000  0.59500000  0.99150000  1.0 -0.0887559732
C  C121  1  0.24880000  0.60470000  0.07010000  1.0 -0.0887559732
C  C122  1  0.29100000  0.52610000  0.09950000  1.0 -0.0233974229
C  C123  1  0.22030000  0.42820000  0.97190000  1.0 0.0509879053
C  C124  1  0.27700000  0.43790000  0.05040000  1.0 0.1007042289
N  N1  1  0.12340000  0.39110000  0.52160000  1.0 -0.3184283837
N  N2  1  0.17580000  0.51810000  0.40450000  1.0 -0.2858899399
N  N3  1  0.34020000  0.49910000  0.62430000  1.0 -0.2994238004
N  N4  1  0.39030000  0.63000000  0.50800000  1.0 -0.3184283837
N  N5  1  0.87660000  0.60890000  0.47840000  1.0 -0.3184283837
N  N6  1  0.82420000  0.48190000  0.59550000  1.0 -0.2858899399
N  N7  1  0.65980000  0.50090000  0.37570000  1.0 -0.2994238004
N  N8  1  0.60970000  0.37000000  0.49200000  1.0 -0.3184283837
O  O1  1  0.70350000  0.07890000  0.08640000  1.0 -0.6130333855
O  O2  1  0.33160000  0.93820000  0.09120000  1.0 -0.5899637257
O  O3  1  0.97570000  0.13320000  0.92010000  1.0 -0.6001951411
O  O4  1  0.66530000  0.90150000  0.99360000  1.0 -0.5899637257
O  O5  1  0.89220000  0.92850000  0.92500000  1.0 -0.6487657144
O  O6  1  0.10840000  0.04620000  0.89830000  1.0 -0.6243835404
O  O7  1  0.99820000  0.82330000  0.89140000  1.0 -0.5899637257
O  O8  1  0.55150000  0.10150000  0.14200000  1.0 -0.1291383184
O  O9  1  0.48600000  0.80960000  0.00120000  1.0 -0.2994238004
O  O10  1  0.52360000  0.94570000  0.13970000  1.0 -0.1978709042
O  O11  1  0.81930000  0.23820000  0.00240000  1.0 -0.5350026801
O  O12  1  0.93140000  0.34420000  0.10180000  1.0 -0.4960206017
O  O13  1  0.56150000  0.15070000  0.10520000  1.0 -0.0493715844
O  O14  1  0.48780000  0.87740000  0.08700000  1.0 0.0815283567
O  O15  1  0.29650000  0.92110000  0.91360000  1.0 -0.6130333855
O  O16  1  0.66840000  0.06180000  0.90880000  1.0 -0.5899637257
O  O17  1  0.02430000  0.86680000  0.07990000  1.0 -0.6001951411
O  O18  1  0.33470000  0.09850000  0.00640000  1.0 -0.5899637257
O  O19  1  0.10780000  0.07150000  0.07500000  1.0 -0.6487657144
O  O20  1  0.89160000  0.95380000  0.10170000  1.0 -0.6243835404
O  O21  1  0.00180000  0.17670000  0.10860000  1.0 -0.5899637257
O  O22  1  0.44850000  0.89850000  0.85800000  1.0 -0.1291383184
O  O23  1  0.51400000  0.19040000  0.99880000  1.0 -0.2994238004
O  O24  1  0.47640000  0.05430000  0.86030000  1.0 -0.1978709042
O  O25  1  0.18070000  0.76180000  0.99760000  1.0 -0.5340998485
O  O26  1  0.06860000  0.65580000  0.89820000  1.0 -0.4960206017
O  O27  1  0.43850000  0.84930000  0.89480000  1.0 -0.0493715844
O  O28  1  0.51220000  0.12260000  0.91300000  1.0 0.0815283567
