# DDEC6 charges by PACMAN v1.1 (https://github.com/mtap-research/PACMAN-charge/)
data_HAWGIX_ASR_pacman
_symmetry_space_group_name_H-M   'P 1'
_cell_length_a   10.27000000
_cell_length_b   28.68300000
_cell_length_c   16.59400000
_cell_angle_alpha   90.00000000
_cell_angle_beta   104.96400000
_cell_angle_gamma   90.00000000
_symmetry_Int_Tables_number   1
_chemical_formula_structural   CdH12(C9O4)2
_chemical_formula_sum   'Cd8 H96 C144 O64'
_cell_volume   4722.40146788
_cell_formula_units_Z   8
loop_
 _symmetry_equiv_pos_site_id
 _symmetry_equiv_pos_as_xyz
  1  'x, y, z'
loop_
 _atom_site_type_symbol
 _atom_site_label
 _atom_site_symmetry_multiplicity
 _atom_site_fract_x
 _atom_site_fract_y
 _atom_site_fract_z
 _atom_site_occupancy
 _atom_site_charge
Cd  Cd1  1  0.96057000  0.34741000  0.66812000  1.0 0.9738612147
Cd  Cd2  1  0.03943000  0.84741000  0.83188000  1.0 0.9738612147
Cd  Cd3  1  0.03943000  0.65259000  0.33188000  1.0 0.9738612147
Cd  Cd4  1  0.96057000  0.15259000  0.16812000  1.0 0.9738612147
Cd  Cd5  1  0.60200000  0.30825000  0.60010000  1.0 1.0033664973
Cd  Cd6  1  0.39800000  0.80825000  0.89990000  1.0 1.0033664973
Cd  Cd7  1  0.39800000  0.69175000  0.39990000  1.0 1.0033664973
Cd  Cd8  1  0.60200000  0.19175000  0.10010000  1.0 1.0033664973
H  H1  1  0.73530000  0.24680000  0.88830000  1.0 0.1403557166
H  H2  1  0.26470000  0.74680000  0.61170000  1.0 0.1403557166
H  H3  1  0.26470000  0.75320000  0.11170000  1.0 0.1403557166
H  H4  1  0.73530000  0.25320000  0.38830000  1.0 0.1403557166
H  H5  1  0.02470000  0.30030000  0.07540000  1.0 0.1493308702
H  H6  1  0.97530000  0.80030000  0.42460000  1.0 0.1493308702
H  H7  1  0.97530000  0.69970000  0.92460000  1.0 0.1493308702
H  H8  1  0.02470000  0.19970000  0.57540000  1.0 0.1493308702
H  H9  1  0.92290000  0.36660000  0.85560000  1.0 0.131420386
H  H10  1  0.07710000  0.86660000  0.64440000  1.0 0.131420386
H  H11  1  0.07710000  0.63340000  0.14440000  1.0 0.131420386
H  H12  1  0.92290000  0.13340000  0.35560000  1.0 0.131420386
H  H13  1  0.10050000  0.42370000  0.93460000  1.0 0.1009879058
H  H14  1  0.89950000  0.92370000  0.56540000  1.0 0.1009879058
H  H15  1  0.89950000  0.57630000  0.06540000  1.0 0.1009879058
H  H16  1  0.10050000  0.07630000  0.43460000  1.0 0.1009879058
H  H17  1  0.96000000  0.42470000  0.95620000  1.0 0.1009879058
H  H18  1  0.04000000  0.92470000  0.54380000  1.0 0.1009879058
H  H19  1  0.04000000  0.57530000  0.04380000  1.0 0.1009879058
H  H20  1  0.96000000  0.07530000  0.45620000  1.0 0.1009879058
H  H21  1  0.87930000  0.43680000  0.15150000  1.0 0.131420386
H  H22  1  0.12070000  0.93680000  0.34850000  1.0 0.131420386
H  H23  1  0.12070000  0.56320000  0.84850000  1.0 0.131420386
H  H24  1  0.87930000  0.06320000  0.65150000  1.0 0.131420386
H  H25  1  0.83960000  0.44380000  0.05450000  1.0 0.1403557166
H  H26  1  0.16040000  0.94380000  0.44550000  1.0 0.1403557166
H  H27  1  0.16040000  0.55620000  0.94550000  1.0 0.1403557166
H  H28  1  0.83960000  0.05620000  0.55450000  1.0 0.1403557166
H  H29  1  0.92510000  0.40040000  0.09410000  1.0 0.1403557166
H  H30  1  0.07490000  0.90040000  0.40590000  1.0 0.1403557166
H  H31  1  0.07490000  0.59960000  0.90590000  1.0 0.1403557166
H  H32  1  0.92510000  0.09960000  0.59410000  1.0 0.1403557166
H  H33  1  0.20750000  0.54350000  0.29610000  1.0 0.1403557166
H  H34  1  0.79250000  0.04350000  0.20390000  1.0 0.1403557166
H  H35  1  0.79250000  0.45650000  0.70390000  1.0 0.1403557166
H  H36  1  0.20750000  0.95650000  0.79610000  1.0 0.1403557166
H  H37  1  0.35190000  0.54090000  0.28110000  1.0 0.131420386
H  H38  1  0.64810000  0.04090000  0.21890000  1.0 0.131420386
H  H39  1  0.64810000  0.45910000  0.71890000  1.0 0.131420386
H  H40  1  0.35190000  0.95910000  0.78110000  1.0 0.131420386
H  H41  1  0.24980000  0.57920000  0.23600000  1.0 0.1493308702
H  H42  1  0.75020000  0.07920000  0.26400000  1.0 0.1493308702
H  H43  1  0.75020000  0.42080000  0.76400000  1.0 0.1493308702
H  H44  1  0.24980000  0.92080000  0.73600000  1.0 0.1493308702
H  H45  1  0.26920000  0.44740000  0.95280000  1.0 0.131420386
H  H46  1  0.73080000  0.94740000  0.54720000  1.0 0.131420386
H  H47  1  0.73080000  0.55260000  0.04720000  1.0 0.131420386
H  H48  1  0.26920000  0.05260000  0.45280000  1.0 0.131420386
H  H49  1  0.34360000  0.49510000  0.97760000  1.0 0.1403557166
H  H50  1  0.65640000  0.99510000  0.52240000  1.0 0.1403557166
H  H51  1  0.65640000  0.50490000  0.02240000  1.0 0.1403557166
H  H52  1  0.34360000  0.00490000  0.47760000  1.0 0.1403557166
H  H53  1  0.40030000  0.44950000  0.02640000  1.0 0.1403557166
H  H54  1  0.59970000  0.94950000  0.47360000  1.0 0.1403557166
H  H55  1  0.59970000  0.55050000  0.97360000  1.0 0.1403557166
H  H56  1  0.40030000  0.05050000  0.52640000  1.0 0.1403557166
H  H57  1  0.74230000  0.47980000  0.50870000  1.0 0.123924342
H  H58  1  0.25770000  0.97980000  0.99130000  1.0 0.123924342
H  H59  1  0.25770000  0.52020000  0.49130000  1.0 0.123924342
H  H60  1  0.74230000  0.02020000  0.00870000  1.0 0.123924342
H  H61  1  0.82320000  0.53310000  0.30330000  1.0 0.1403557166
H  H62  1  0.17680000  0.03310000  0.19670000  1.0 0.1403557166
H  H63  1  0.17680000  0.46690000  0.69670000  1.0 0.1403557166
H  H64  1  0.82320000  0.96690000  0.80330000  1.0 0.1403557166
H  H65  1  0.03380000  0.42440000  0.42020000  1.0 0.1493308702
H  H66  1  0.96620000  0.92440000  0.07980000  1.0 0.1493308702
H  H67  1  0.96620000  0.57560000  0.57980000  1.0 0.1493308702
H  H68  1  0.03380000  0.07560000  0.92020000  1.0 0.1493308702
H  H69  1  0.89550000  0.50420000  0.19740000  1.0 0.1075361268
H  H70  1  0.10450000  0.00420000  0.30260000  1.0 0.1075361268
H  H71  1  0.10450000  0.49580000  0.80260000  1.0 0.1075361268
H  H72  1  0.89550000  0.99580000  0.69740000  1.0 0.1075361268
H  H73  1  0.00930000  0.53730000  0.24900000  1.0 0.1075361268
H  H74  1  0.99070000  0.03730000  0.25100000  1.0 0.1075361268
H  H75  1  0.99070000  0.46270000  0.75100000  1.0 0.1075361268
H  H76  1  0.00930000  0.96270000  0.74900000  1.0 0.1075361268
H  H77  1  0.34070000  0.64590000  0.99770000  1.0 0.1493308702
H  H78  1  0.65930000  0.14590000  0.50230000  1.0 0.1493308702
H  H79  1  0.65930000  0.35410000  0.00230000  1.0 0.1493308702
H  H80  1  0.34070000  0.85410000  0.49770000  1.0 0.1493308702
H  H81  1  0.62360000  0.58260000  0.17610000  1.0 0.1403557166
H  H82  1  0.37640000  0.08260000  0.32390000  1.0 0.1403557166
H  H83  1  0.37640000  0.41740000  0.82390000  1.0 0.1403557166
H  H84  1  0.62360000  0.91740000  0.67610000  1.0 0.1403557166
H  H85  1  0.69630000  0.70860000  0.09500000  1.0 0.1403557166
H  H86  1  0.30370000  0.20860000  0.40500000  1.0 0.1403557166
H  H87  1  0.30370000  0.29140000  0.90500000  1.0 0.1403557166
H  H88  1  0.69630000  0.79140000  0.59500000  1.0 0.1403557166
H  H89  1  0.47430000  0.51480000  0.11290000  1.0 0.1009879058
H  H90  1  0.52570000  0.01480000  0.38710000  1.0 0.1009879058
H  H91  1  0.52570000  0.48520000  0.88710000  1.0 0.1009879058
H  H92  1  0.47430000  0.98520000  0.61290000  1.0 0.1009879058
H  H93  1  0.44820000  0.54220000  0.18950000  1.0 0.1009879058
H  H94  1  0.55180000  0.04220000  0.31050000  1.0 0.1009879058
H  H95  1  0.55180000  0.45780000  0.81050000  1.0 0.1009879058
H  H96  1  0.44820000  0.95780000  0.68950000  1.0 0.1009879058
C  C1  1  0.74050000  0.30660000  0.76740000  1.0 0.5675163241
C  C2  1  0.25950000  0.80660000  0.73260000  1.0 0.5675163241
C  C3  1  0.25950000  0.69340000  0.23260000  1.0 0.5675163241
C  C4  1  0.74050000  0.19340000  0.26740000  1.0 0.5675163241
C  C5  1  0.81720000  0.30610000  0.85720000  1.0 0.0076970812
C  C6  1  0.18280000  0.80610000  0.64280000  1.0 0.0076970812
C  C7  1  0.18280000  0.69390000  0.14280000  1.0 0.0076970812
C  C8  1  0.81720000  0.19390000  0.35720000  1.0 0.0076970812
C  C9  1  0.79970000  0.26960000  0.90870000  1.0 -0.1185109113
C  C10  1  0.20030000  0.76960000  0.59130000  1.0 -0.1185109113
C  C11  1  0.20030000  0.73040000  0.09130000  1.0 -0.1185109113
C  C12  1  0.79970000  0.23040000  0.40870000  1.0 -0.1185109113
C  C13  1  0.87770000  0.26710000  0.99000000  1.0 0.0185277167
C  C14  1  0.12230000  0.76710000  0.51000000  1.0 0.0185277167
C  C15  1  0.12230000  0.73290000  0.01000000  1.0 0.0185277167
C  C16  1  0.87770000  0.23290000  0.49000000  1.0 0.0185277167
C  C17  1  0.97120000  0.30210000  0.02100000  1.0 -0.1991357894
C  C18  1  0.02880000  0.80210000  0.47900000  1.0 -0.1991357894
C  C19  1  0.02880000  0.69790000  0.97900000  1.0 -0.1991357894
C  C20  1  0.97120000  0.19790000  0.52100000  1.0 -0.1991357894
C  C21  1  0.98520000  0.33970000  0.97130000  1.0 0.2501212554
C  C22  1  0.01480000  0.83970000  0.52870000  1.0 0.2501212554
C  C23  1  0.01480000  0.66030000  0.02870000  1.0 0.2501212554
C  C24  1  0.98520000  0.16030000  0.47130000  1.0 0.2501212554
C  C25  1  0.91130000  0.34190000  0.88940000  1.0 -0.2374852253
C  C26  1  0.08870000  0.84190000  0.61060000  1.0 -0.2374852253
C  C27  1  0.08870000  0.65810000  0.11060000  1.0 -0.2374852253
C  C28  1  0.91130000  0.15810000  0.38940000  1.0 -0.2374852253
C  C29  1  0.86450000  0.22600000  0.04600000  1.0 0.5795823308
C  C30  1  0.13550000  0.72600000  0.45400000  1.0 0.5795823308
C  C31  1  0.13550000  0.77400000  0.95400000  1.0 0.5795823308
C  C32  1  0.86450000  0.27400000  0.54600000  1.0 0.5795823308
C  C33  1  0.05560000  0.41900000  0.97880000  1.0 -0.0505400426
C  C34  1  0.94440000  0.91900000  0.52120000  1.0 -0.0505400426
C  C35  1  0.94440000  0.58100000  0.02120000  1.0 -0.0505400426
C  C36  1  0.05560000  0.08100000  0.47880000  1.0 -0.0505400426
C  C37  1  0.11220000  0.45210000  0.05000000  1.0 -0.038583708
C  C38  1  0.88780000  0.95210000  0.45000000  1.0 -0.038583708
C  C39  1  0.88780000  0.54790000  0.95000000  1.0 -0.038583708
C  C40  1  0.11220000  0.04790000  0.55000000  1.0 -0.038583708
C  C41  1  0.03550000  0.46000000  0.10810000  1.0 0.0854084016
C  C42  1  0.96450000  0.96000000  0.39190000  1.0 0.0854084016
C  C43  1  0.96450000  0.54000000  0.89190000  1.0 0.0854084016
C  C44  1  0.03550000  0.04000000  0.60810000  1.0 0.0854084016
C  C45  1  0.08050000  0.49230000  0.17180000  1.0 -0.038583708
C  C46  1  0.91950000  0.99230000  0.32820000  1.0 -0.038583708
C  C47  1  0.91950000  0.50770000  0.82820000  1.0 -0.038583708
C  C48  1  0.08050000  0.00770000  0.67180000  1.0 -0.038583708
C  C49  1  0.20590000  0.51440000  0.18250000  1.0 0.1009879058
C  C50  1  0.79410000  0.01440000  0.31750000  1.0 0.1009879058
C  C51  1  0.79410000  0.48560000  0.81750000  1.0 0.1009879058
C  C52  1  0.20590000  0.98560000  0.68250000  1.0 0.1009879058
C  C53  1  0.28110000  0.50620000  0.12420000  1.0 -0.038583708
C  C54  1  0.71890000  0.00620000  0.37580000  1.0 -0.038583708
C  C55  1  0.71890000  0.49380000  0.87580000  1.0 -0.038583708
C  C56  1  0.28110000  0.99380000  0.62420000  1.0 -0.038583708
C  C57  1  0.23560000  0.47490000  0.05890000  1.0 0.0801465334
C  C58  1  0.76440000  0.97490000  0.44110000  1.0 0.0801465334
C  C59  1  0.76440000  0.52510000  0.94110000  1.0 0.0801465334
C  C60  1  0.23560000  0.02510000  0.55890000  1.0 0.0801465334
C  C61  1  0.90840000  0.43280000  0.10140000  1.0 -0.4570402755
C  C62  1  0.09160000  0.93280000  0.39860000  1.0 -0.4570402755
C  C63  1  0.09160000  0.56720000  0.89860000  1.0 -0.4570402755
C  C64  1  0.90840000  0.06720000  0.60140000  1.0 -0.4570402755
C  C65  1  0.25870000  0.54760000  0.25570000  1.0 -0.4692702446
C  C66  1  0.74130000  0.04760000  0.24430000  1.0 -0.4692702446
C  C67  1  0.74130000  0.45240000  0.74430000  1.0 -0.4692702446
C  C68  1  0.25870000  0.95240000  0.75570000  1.0 -0.4692702446
C  C69  1  0.31980000  0.46590000  0.99840000  1.0 -0.4570402755
C  C70  1  0.68020000  0.96590000  0.50160000  1.0 -0.4570402755
C  C71  1  0.68020000  0.53410000  0.00160000  1.0 -0.4570402755
C  C72  1  0.31980000  0.03410000  0.49840000  1.0 -0.4570402755
C  C73  1  0.92020000  0.41100000  0.54380000  1.0 0.5568921761
C  C74  1  0.07980000  0.91100000  0.95620000  1.0 0.5568921761
C  C75  1  0.07980000  0.58900000  0.45620000  1.0 0.5568921761
C  C76  1  0.92020000  0.08900000  0.04380000  1.0 0.5568921761
C  C77  1  0.89160000  0.44640000  0.47530000  1.0 0.0076970812
C  C78  1  0.10840000  0.94640000  0.02470000  1.0 0.0076970812
C  C79  1  0.10840000  0.55360000  0.52470000  1.0 0.0076970812
C  C80  1  0.89160000  0.05360000  0.97530000  1.0 0.0076970812
C  C81  1  0.79290000  0.47940000  0.46960000  1.0 -0.1706638166
C  C82  1  0.20710000  0.97940000  0.03040000  1.0 -0.1706638166
C  C83  1  0.20710000  0.52060000  0.53040000  1.0 -0.1706638166
C  C84  1  0.79290000  0.02060000  0.96960000  1.0 -0.1706638166
C  C85  1  0.76780000  0.51220000  0.40630000  1.0 -0.0036685589
C  C86  1  0.23220000  0.01220000  0.09370000  1.0 -0.0036685589
C  C87  1  0.23220000  0.48780000  0.59370000  1.0 -0.0036685589
C  C88  1  0.76780000  0.98780000  0.90630000  1.0 -0.0036685589
C  C89  1  0.84050000  0.51140000  0.34640000  1.0 -0.2078146218
C  C90  1  0.15950000  0.01140000  0.15360000  1.0 -0.2078146218
C  C91  1  0.15950000  0.48860000  0.65360000  1.0 -0.2078146218
C  C92  1  0.84050000  0.98860000  0.84640000  1.0 -0.2078146218
C  C93  1  0.93840000  0.47800000  0.35170000  1.0 0.2438853206
C  C94  1  0.06160000  0.97800000  0.14830000  1.0 0.2438853206
C  C95  1  0.06160000  0.52200000  0.64830000  1.0 0.2438853206
C  C96  1  0.93840000  0.02200000  0.85170000  1.0 0.2438853206
C  C97  1  0.96540000  0.44620000  0.41630000  1.0 -0.1991357894
C  C98  1  0.03460000  0.94620000  0.08370000  1.0 -0.1991357894
C  C99  1  0.03460000  0.55380000  0.58370000  1.0 -0.1991357894
C  C100  1  0.96540000  0.05380000  0.91630000  1.0 -0.1991357894
C  C101  1  0.66040000  0.54980000  0.39980000  1.0 0.4260077299
C  C102  1  0.33960000  0.04980000  0.10020000  1.0 0.4260077299
C  C103  1  0.33960000  0.45020000  0.60020000  1.0 0.4260077299
C  C104  1  0.66040000  0.95020000  0.89980000  1.0 0.4260077299
C  C105  1  0.98960000  0.50580000  0.22820000  1.0 -0.0505400426
C  C106  1  0.01040000  0.00580000  0.27180000  1.0 -0.0505400426
C  C107  1  0.01040000  0.49420000  0.77180000  1.0 -0.0505400426
C  C108  1  0.98960000  0.99420000  0.72820000  1.0 -0.0505400426
C  C109  1  0.46650000  0.72500000  0.98130000  1.0 0.5568921761
C  C110  1  0.53350000  0.22500000  0.51870000  1.0 0.5568921761
C  C111  1  0.53350000  0.27500000  0.01870000  1.0 0.5568921761
C  C112  1  0.46650000  0.77500000  0.48130000  1.0 0.5568921761
C  C113  1  0.51010000  0.68380000  0.03630000  1.0 0.0076970812
C  C114  1  0.48990000  0.18380000  0.46370000  1.0 0.0076970812
C  C115  1  0.48990000  0.31620000  0.96370000  1.0 0.0076970812
C  C116  1  0.51010000  0.81620000  0.53630000  1.0 0.0076970812
C  C117  1  0.42600000  0.64600000  0.03460000  1.0 -0.1991357894
C  C118  1  0.57400000  0.14600000  0.46540000  1.0 -0.1991357894
C  C119  1  0.57400000  0.35400000  0.96540000  1.0 -0.1991357894
C  C120  1  0.42600000  0.85400000  0.53460000  1.0 -0.1991357894
C  C121  1  0.46720000  0.60820000  0.08720000  1.0 0.2501212554
C  C122  1  0.53280000  0.10820000  0.41280000  1.0 0.2501212554
C  C123  1  0.53280000  0.39180000  0.91280000  1.0 0.2501212554
C  C124  1  0.46720000  0.89180000  0.58720000  1.0 0.2501212554
C  C125  1  0.59500000  0.60810000  0.14140000  1.0 -0.2204391985
C  C126  1  0.40500000  0.10810000  0.35860000  1.0 -0.2204391985
C  C127  1  0.40500000  0.39190000  0.85860000  1.0 -0.2204391985
C  C128  1  0.59500000  0.89190000  0.64140000  1.0 -0.2204391985
C  C129  1  0.68000000  0.64570000  0.14430000  1.0 0.0076970812
C  C130  1  0.32000000  0.14570000  0.35570000  1.0 0.0076970812
C  C131  1  0.32000000  0.35430000  0.85570000  1.0 0.0076970812
C  C132  1  0.68000000  0.85430000  0.64430000  1.0 0.0076970812
C  C133  1  0.63880000  0.68330000  0.09270000  1.0 -0.1185109113
C  C134  1  0.36120000  0.18330000  0.40730000  1.0 -0.1185109113
C  C135  1  0.36120000  0.31670000  0.90730000  1.0 -0.1185109113
C  C136  1  0.63880000  0.81670000  0.59270000  1.0 -0.1185109113
C  C137  1  0.81550000  0.64650000  0.20480000  1.0 0.5338097336
C  C138  1  0.18450000  0.14650000  0.29520000  1.0 0.5338097336
C  C139  1  0.18450000  0.35350000  0.79520000  1.0 0.5338097336
C  C140  1  0.81550000  0.85350000  0.70480000  1.0 0.5338097336
C  C141  1  0.40910000  0.53340000  0.13190000  1.0 -0.0574340476
C  C142  1  0.59090000  0.03340000  0.36810000  1.0 -0.0574340476
C  C143  1  0.59090000  0.46660000  0.86810000  1.0 -0.0574340476
C  C144  1  0.40910000  0.96660000  0.63190000  1.0 -0.0574340476
O  O1  1  0.77380000  0.33379000  0.71620000  1.0 -0.5825019507
O  O2  1  0.22620000  0.83379000  0.78380000  1.0 -0.5825019507
O  O3  1  0.22620000  0.66621000  0.28380000  1.0 -0.5825019507
O  O4  1  0.77380000  0.16621000  0.21620000  1.0 -0.5825019507
O  O5  1  0.64190000  0.28037000  0.74450000  1.0 -0.4692702446
O  O6  1  0.35810000  0.78037000  0.75550000  1.0 -0.4692702446
O  O7  1  0.35810000  0.71963000  0.25550000  1.0 -0.4692702446
O  O8  1  0.64190000  0.21963000  0.24450000  1.0 -0.4692702446
O  O9  1  0.76940000  0.19820000  0.02390000  1.0 -0.5478930203
O  O10  1  0.23060000  0.69820000  0.47610000  1.0 -0.5478930203
O  O11  1  0.23060000  0.80180000  0.97610000  1.0 -0.5478930203
O  O12  1  0.76940000  0.30180000  0.52390000  1.0 -0.5478930203
O  O13  1  0.95440000  0.22343000  0.11300000  1.0 -0.5089089899
O  O14  1  0.04560000  0.72343000  0.38700000  1.0 -0.5089089899
O  O15  1  0.04560000  0.77657000  0.88700000  1.0 -0.5089089899
O  O16  1  0.95440000  0.27657000  0.61300000  1.0 -0.5089089899
O  O17  1  0.07710000  0.37283000  0.00990000  1.0 -0.1570686577
O  O18  1  0.92290000  0.87283000  0.49010000  1.0 -0.1570686577
O  O19  1  0.92290000  0.62717000  0.99010000  1.0 -0.1570686577
O  O20  1  0.07710000  0.12717000  0.50990000  1.0 -0.1570686577
O  O21  1  0.84990000  0.40989000  0.59510000  1.0 -0.5176138459
O  O22  1  0.15010000  0.90989000  0.90490000  1.0 -0.5176138459
O  O23  1  0.15010000  0.59011000  0.40490000  1.0 -0.5176138459
O  O24  1  0.84990000  0.09011000  0.09510000  1.0 -0.5176138459
O  O25  1  0.01720000  0.38226000  0.54930000  1.0 -0.5317430524
O  O26  1  0.98280000  0.88226000  0.95070000  1.0 -0.5317430524
O  O27  1  0.98280000  0.61774000  0.45070000  1.0 -0.5317430524
O  O28  1  0.01720000  0.11774000  0.04930000  1.0 -0.5317430524
O  O29  1  0.58920000  0.54900000  0.45210000  1.0 0.0275158081
O  O30  1  0.41080000  0.04900000  0.04790000  1.0 0.0185277167
O  O31  1  0.41080000  0.45100000  0.54790000  1.0 0.0275158081
O  O32  1  0.58920000  0.95100000  0.95210000  1.0 0.0185277167
O  O33  1  0.63480000  0.57630000  0.33940000  1.0 -0.4692702446
O  O34  1  0.36520000  0.07630000  0.16060000  1.0 -0.4692702446
O  O35  1  0.36520000  0.42370000  0.66060000  1.0 -0.4692702446
O  O36  1  0.63480000  0.92370000  0.83940000  1.0 -0.4692702446
O  O37  1  0.01620000  0.47350000  0.29550000  1.0 -0.1706638166
O  O38  1  0.98380000  0.97350000  0.20450000  1.0 -0.1706638166
O  O39  1  0.98380000  0.52650000  0.70450000  1.0 -0.1706638166
O  O40  1  0.01620000  0.02650000  0.79550000  1.0 -0.1706638166
O  O41  1  0.37520000  0.72160000  0.91580000  1.0 -0.5018994464
O  O42  1  0.62480000  0.22160000  0.58420000  1.0 -0.5018994464
O  O43  1  0.62480000  0.27840000  0.08420000  1.0 -0.5018994464
O  O44  1  0.37520000  0.77840000  0.41580000  1.0 -0.5018994464
O  O45  1  0.52410000  0.76360000  0.00350000  1.0 -0.5317430524
O  O46  1  0.47590000  0.26360000  0.49650000  1.0 -0.5317430524
O  O47  1  0.47590000  0.23640000  0.99650000  1.0 -0.5317430524
O  O48  1  0.52410000  0.73640000  0.50350000  1.0 -0.5317430524
O  O49  1  0.86840000  0.68544000  0.22750000  1.0 -0.4762684284
O  O50  1  0.13160000  0.18544000  0.27250000  1.0 -0.4762684284
O  O51  1  0.13160000  0.31456000  0.77250000  1.0 -0.4762684284
O  O52  1  0.86840000  0.81456000  0.72750000  1.0 -0.4762684284
O  O53  1  0.87390000  0.61062000  0.23200000  1.0 -0.5018994464
O  O54  1  0.12610000  0.11062000  0.26800000  1.0 -0.5018994464
O  O55  1  0.12610000  0.38938000  0.76800000  1.0 -0.5018994464
O  O56  1  0.87390000  0.88938000  0.73200000  1.0 -0.5018994464
O  O57  1  0.37440000  0.57373000  0.08150000  1.0 -0.1706638166
O  O58  1  0.62560000  0.07373000  0.41850000  1.0 -0.1706638166
O  O59  1  0.62560000  0.42627000  0.91850000  1.0 -0.1706638166
O  O60  1  0.37440000  0.92627000  0.58150000  1.0 -0.1706638166
O  O61  1  0.63500000  0.56120000  0.46900000  1.0 0.0594333252
O  O62  1  0.36500000  0.06120000  0.03100000  1.0 0.0594333252
O  O63  1  0.36500000  0.43880000  0.53100000  1.0 0.0594333252
O  O64  1  0.63500000  0.93880000  0.96900000  1.0 0.0594333252
