# DDEC6 charges by PACMAN v1.1 (https://github.com/mtap-research/PACMAN-charge/)
data_HAWLIE_ASR_pacman
_symmetry_space_group_name_H-M   'P 1'
_cell_length_a   22.52710000
_cell_length_b   22.52710000
_cell_length_c   22.52710000
_cell_angle_alpha   117.34700000
_cell_angle_beta   117.34700000
_cell_angle_gamma   117.34700000
_symmetry_Int_Tables_number   1
_chemical_formula_structural   Sm7H42(C5O2)18
_chemical_formula_sum   'Sm14 H84 C180 O72'
_cell_volume   4755.29652406
_cell_formula_units_Z   2
loop_
 _symmetry_equiv_pos_site_id
 _symmetry_equiv_pos_as_xyz
  1  'x, y, z'
loop_
 _atom_site_type_symbol
 _atom_site_label
 _atom_site_symmetry_multiplicity
 _atom_site_fract_x
 _atom_site_fract_y
 _atom_site_fract_z
 _atom_site_occupancy
 _atom_site_charge
Sm  Sm1  1  0.61356000  0.14458000  0.56037000  1.0 2.0476878013
Sm  Sm2  1  0.00033000  0.88649000  0.93628000  1.0 0.0809195561
Sm  Sm3  1  0.14458000  0.56037000  0.61356000  1.0 2.0476878013
Sm  Sm4  1  0.88649000  0.93628000  0.00033000  1.0 0.08624753
Sm  Sm5  1  0.56037000  0.61356000  0.14458000  1.0 2.0476878013
Sm  Sm6  1  0.93628000  0.00033000  0.88649000  1.0 0.0809195561
Sm  Sm7  1  0.38644000  0.85542000  0.43963000  1.0 2.0476878013
Sm  Sm8  1  0.99967000  0.11351000  0.06372000  1.0 0.0809195561
Sm  Sm9  1  0.85542000  0.43963000  0.38644000  1.0 2.0476878013
Sm  Sm10  1  0.11351000  0.06372000  0.99967000  1.0 0.0809195561
Sm  Sm11  1  0.43963000  0.38644000  0.85542000  1.0 2.0476878013
Sm  Sm12  1  0.06372000  0.99967000  0.11351000  1.0 0.0809195561
Sm  Sm13  1  0.84553000  0.84553000  0.84553000  1.0 -0.0804698492
Sm  Sm14  1  0.15447000  0.15447000  0.15447000  1.0 -0.0804698492
H  H1  1  0.05239000  0.59381000  0.03052000  1.0 0.1412417194
H  H2  1  0.18932000  0.75290000  0.97789000  1.0 0.1198799741
H  H3  1  0.32975000  0.88165000  0.17894000  1.0 0.1412417194
H  H4  1  0.81092000  0.44945000  0.69029000  1.0 0.1198799741
H  H5  1  0.76276000  0.35491000  0.45534000  1.0 0.1198799741
H  H6  1  0.07553000  0.56699000  0.78451000  1.0 0.1310795782
H  H7  1  0.36638000  0.09514000  0.30750000  1.0 0.0980707904
H  H8  1  0.46639000  0.26378000  0.27567000  1.0 0.08624753
H  H9  1  0.66522000  0.38388000  0.42951000  1.0 0.1310795782
H  H10  1  0.17279000  0.97190000  0.10929000  1.0 0.177538154
H  H11  1  0.40149000  0.15209000  0.36120000  1.0 0.1122870942
H  H12  1  0.52170000  0.34532000  0.35652000  1.0 0.08624753
H  H13  1  0.68992000  0.41391000  0.45919000  1.0 0.1198799741
H  H14  1  0.29022000  0.19560000  0.19647000  1.0 0.2621796554
H  H15  1  0.59381000  0.03052000  0.05239000  1.0 0.1412417194
H  H16  1  0.75290000  0.97789000  0.18932000  1.0 0.1198799741
H  H17  1  0.88165000  0.17894000  0.32975000  1.0 0.1412417194
H  H18  1  0.44945000  0.69029000  0.81092000  1.0 0.1198799741
H  H19  1  0.35491000  0.45534000  0.76276000  1.0 0.1198799741
H  H20  1  0.56699000  0.78451000  0.07553000  1.0 0.1310795782
H  H21  1  0.09514000  0.30750000  0.36638000  1.0 0.0980707904
H  H22  1  0.26378000  0.27567000  0.46639000  1.0 0.08624753
H  H23  1  0.38388000  0.42951000  0.66522000  1.0 0.1310795782
H  H24  1  0.97190000  0.10929000  0.17279000  1.0 0.177538154
H  H25  1  0.15209000  0.36120000  0.40149000  1.0 0.1122870942
H  H26  1  0.34532000  0.35652000  0.52170000  1.0 0.08624753
H  H27  1  0.41391000  0.45919000  0.68992000  1.0 0.1198799741
H  H28  1  0.19560000  0.19647000  0.29022000  1.0 0.2621796554
H  H29  1  0.03052000  0.05239000  0.59381000  1.0 0.1412417194
H  H30  1  0.97789000  0.18932000  0.75290000  1.0 0.1198799741
H  H31  1  0.17894000  0.32975000  0.88165000  1.0 0.1412417194
H  H32  1  0.69029000  0.81092000  0.44945000  1.0 0.1198799741
H  H33  1  0.45534000  0.76276000  0.35491000  1.0 0.1198799741
H  H34  1  0.78451000  0.07553000  0.56699000  1.0 0.1310795782
H  H35  1  0.30750000  0.36638000  0.09514000  1.0 0.0980707904
H  H36  1  0.27567000  0.46639000  0.26378000  1.0 0.08624753
H  H37  1  0.42951000  0.66522000  0.38388000  1.0 0.1310795782
H  H38  1  0.10929000  0.17279000  0.97190000  1.0 0.177538154
H  H39  1  0.36120000  0.40149000  0.15209000  1.0 0.1122870942
H  H40  1  0.35652000  0.52170000  0.34532000  1.0 0.08624753
H  H41  1  0.45919000  0.68992000  0.41391000  1.0 0.1198799741
H  H42  1  0.19647000  0.29022000  0.19560000  1.0 0.2621796554
H  H43  1  0.94761000  0.40619000  0.96948000  1.0 0.1412417194
H  H44  1  0.81068000  0.24710000  0.02211000  1.0 0.1198799741
H  H45  1  0.67025000  0.11835000  0.82106000  1.0 0.1412417194
H  H46  1  0.18908000  0.55055000  0.30971000  1.0 0.1198799741
H  H47  1  0.23724000  0.64509000  0.54466000  1.0 0.1198799741
H  H48  1  0.92447000  0.43301000  0.21549000  1.0 0.1310795782
H  H49  1  0.63362000  0.90486000  0.69250000  1.0 0.0980707904
H  H50  1  0.53361000  0.73622000  0.72433000  1.0 0.08624753
H  H51  1  0.33478000  0.61612000  0.57049000  1.0 0.1310795782
H  H52  1  0.82721000  0.02810000  0.89071000  1.0 0.177538154
H  H53  1  0.59851000  0.84791000  0.63880000  1.0 0.1122870942
H  H54  1  0.47830000  0.65468000  0.64348000  1.0 0.08624753
H  H55  1  0.31008000  0.58609000  0.54081000  1.0 0.1198799741
H  H56  1  0.70978000  0.80440000  0.80353000  1.0 0.2621796554
H  H57  1  0.40619000  0.96948000  0.94761000  1.0 0.1412417194
H  H58  1  0.24710000  0.02211000  0.81068000  1.0 0.1198799741
H  H59  1  0.11835000  0.82106000  0.67025000  1.0 0.1412417194
H  H60  1  0.55055000  0.30971000  0.18908000  1.0 0.1198799741
H  H61  1  0.64509000  0.54466000  0.23724000  1.0 0.1198799741
H  H62  1  0.43301000  0.21549000  0.92447000  1.0 0.1310795782
H  H63  1  0.90486000  0.69250000  0.63362000  1.0 0.0980707904
H  H64  1  0.73622000  0.72433000  0.53361000  1.0 0.08624753
H  H65  1  0.61612000  0.57049000  0.33478000  1.0 0.1310795782
H  H66  1  0.02810000  0.89071000  0.82721000  1.0 0.177538154
H  H67  1  0.84791000  0.63880000  0.59851000  1.0 0.1122870942
H  H68  1  0.65468000  0.64348000  0.47830000  1.0 0.08624753
H  H69  1  0.58609000  0.54081000  0.31008000  1.0 0.1198799741
H  H70  1  0.80440000  0.80353000  0.70978000  1.0 0.2621796554
H  H71  1  0.96948000  0.94761000  0.40619000  1.0 0.1412417194
H  H72  1  0.02211000  0.81068000  0.24710000  1.0 0.1198799741
H  H73  1  0.82106000  0.67025000  0.11835000  1.0 0.1412417194
H  H74  1  0.30971000  0.18908000  0.55055000  1.0 0.1198799741
H  H75  1  0.54466000  0.23724000  0.64509000  1.0 0.1198799741
H  H76  1  0.21549000  0.92447000  0.43301000  1.0 0.1310795782
H  H77  1  0.69250000  0.63362000  0.90486000  1.0 0.0980707904
H  H78  1  0.72433000  0.53361000  0.73622000  1.0 0.08624753
H  H79  1  0.57049000  0.33478000  0.61612000  1.0 0.1310795782
H  H80  1  0.89071000  0.82721000  0.02810000  1.0 0.177538154
H  H81  1  0.63880000  0.59851000  0.84791000  1.0 0.1122870942
H  H82  1  0.64348000  0.47830000  0.65468000  1.0 0.08624753
H  H83  1  0.54081000  0.31008000  0.58609000  1.0 0.1198799741
H  H84  1  0.80353000  0.70978000  0.80440000  1.0 0.2621796554
C  C1  1  0.29750000  0.83910000  0.25860000  1.0 0.648252599
C  C2  1  0.08000000  0.62640000  0.01980000  1.0 -0.0968984539
C  C3  1  0.99710000  0.54870000  0.89960000  1.0 -0.0430158506
C  C4  1  0.03930000  0.59580000  0.88290000  1.0 0.0595626583
C  C5  1  0.16160000  0.72000000  0.98830000  1.0 -0.1441671575
C  C6  1  0.24580000  0.79870000  0.10950000  1.0 -0.0941768245
C  C7  1  0.86700000  0.41190000  0.78850000  1.0 0.5800361758
C  C8  1  0.95560000  0.52000000  0.75710000  1.0 0.0809195561
C  C9  1  0.83960000  0.45210000  0.67070000  1.0 -0.1737660268
C  C10  1  0.76370000  0.38770000  0.55690000  1.0 0.0809195561
C  C11  1  0.81000000  0.39420000  0.52990000  1.0 -0.1276800806
C  C12  1  0.92510000  0.45860000  0.61380000  1.0 -0.0198062615
C  C13  1  0.99730000  0.52200000  0.72720000  1.0 -0.1187883143
C  C14  1  0.97550000  0.46950000  0.58790000  1.0 0.6351302391
C  C15  1  0.63490000  0.31150000  0.46070000  1.0 0.0513450824
C  C16  1  0.54540000  0.22490000  0.42410000  1.0 -0.0273339909
C  C17  1  0.42630000  0.15300000  0.33190000  1.0 -0.0273339909
C  C18  1  0.39670000  0.16760000  0.27640000  1.0 0.0135293119
C  C19  1  0.48620000  0.25400000  0.31290000  1.0 -0.0004159227
C  C20  1  0.60530000  0.32600000  0.40500000  1.0 -0.0968984539
C  C21  1  0.26570000  0.08950000  0.17680000  1.0 0.267659021
C  C22  1  0.56700000  0.19680000  0.46990000  1.0 0.4491277164
C  C23  1  0.20450000  0.75320000  0.12640000  1.0 -0.0198062615
C  C24  1  0.56010000  0.24560000  0.44240000  1.0 -0.0273339909
C  C25  1  0.45930000  0.20460000  0.38080000  1.0 -0.0273339909
C  C26  1  0.44490000  0.24190000  0.34860000  1.0 0.0244547676
C  C27  1  0.53140000  0.32030000  0.37810000  1.0 -0.0613145294
C  C28  1  0.63210000  0.36150000  0.43960000  1.0 -0.0941768245
C  C29  1  0.64650000  0.32400000  0.47170000  1.0 0.0513450824
C  C30  1  0.33930000  0.20650000  0.28320000  1.0 0.2440866183
C  C31  1  0.83910000  0.25860000  0.29750000  1.0 0.648252599
C  C32  1  0.62640000  0.01980000  0.08000000  1.0 -0.0968984539
C  C33  1  0.54870000  0.89960000  0.99710000  1.0 -0.0430158506
C  C34  1  0.59580000  0.88290000  0.03930000  1.0 0.0595626583
C  C35  1  0.72000000  0.98830000  0.16160000  1.0 -0.1441671575
C  C36  1  0.79870000  0.10950000  0.24580000  1.0 -0.0941768245
C  C37  1  0.41190000  0.78850000  0.86700000  1.0 0.5800361758
C  C38  1  0.52000000  0.75710000  0.95560000  1.0 0.0809195561
C  C39  1  0.45210000  0.67070000  0.83960000  1.0 -0.1737660268
C  C40  1  0.38770000  0.55690000  0.76370000  1.0 0.0809195561
C  C41  1  0.39420000  0.52990000  0.81000000  1.0 -0.1276800806
C  C42  1  0.45860000  0.61380000  0.92510000  1.0 -0.0198062615
C  C43  1  0.52200000  0.72720000  0.99730000  1.0 -0.1187883143
C  C44  1  0.46950000  0.58790000  0.97550000  1.0 0.6351302391
C  C45  1  0.31150000  0.46070000  0.63490000  1.0 0.0513450824
C  C46  1  0.22490000  0.42410000  0.54540000  1.0 -0.0273339909
C  C47  1  0.15300000  0.33190000  0.42630000  1.0 -0.0273339909
C  C48  1  0.16760000  0.27640000  0.39670000  1.0 0.0135293119
C  C49  1  0.25400000  0.31290000  0.48620000  1.0 -0.0004159227
C  C50  1  0.32600000  0.40500000  0.60530000  1.0 -0.0968984539
C  C51  1  0.08950000  0.17680000  0.26570000  1.0 0.267659021
C  C52  1  0.19680000  0.46990000  0.56700000  1.0 0.4491277164
C  C53  1  0.75320000  0.12640000  0.20450000  1.0 -0.0198062615
C  C54  1  0.24560000  0.44240000  0.56010000  1.0 -0.0273339909
C  C55  1  0.20460000  0.38080000  0.45930000  1.0 -0.0273339909
C  C56  1  0.24190000  0.34860000  0.44490000  1.0 0.0244547676
C  C57  1  0.32030000  0.37810000  0.53140000  1.0 -0.0613145294
C  C58  1  0.36150000  0.43960000  0.63210000  1.0 -0.0941768245
C  C59  1  0.32400000  0.47170000  0.64650000  1.0 0.0513450824
C  C60  1  0.20650000  0.28320000  0.33930000  1.0 0.2440866183
C  C61  1  0.25860000  0.29750000  0.83910000  1.0 0.648252599
C  C62  1  0.01980000  0.08000000  0.62640000  1.0 -0.0968984539
C  C63  1  0.89960000  0.99710000  0.54870000  1.0 -0.0430158506
C  C64  1  0.88290000  0.03930000  0.59580000  1.0 0.0595626583
C  C65  1  0.98830000  0.16160000  0.72000000  1.0 -0.1441671575
C  C66  1  0.10950000  0.24580000  0.79870000  1.0 -0.0941768245
C  C67  1  0.78850000  0.86700000  0.41190000  1.0 0.5800361758
C  C68  1  0.75710000  0.95560000  0.52000000  1.0 0.0809195561
C  C69  1  0.67070000  0.83960000  0.45210000  1.0 -0.1737660268
C  C70  1  0.55690000  0.76370000  0.38770000  1.0 0.0809195561
C  C71  1  0.52990000  0.81000000  0.39420000  1.0 -0.1276800806
C  C72  1  0.61380000  0.92510000  0.45860000  1.0 -0.0198062615
C  C73  1  0.72720000  0.99730000  0.52200000  1.0 -0.1187883143
C  C74  1  0.58790000  0.97550000  0.46950000  1.0 0.6351302391
C  C75  1  0.46070000  0.63490000  0.31150000  1.0 0.0513450824
C  C76  1  0.42410000  0.54540000  0.22490000  1.0 -0.0273339909
C  C77  1  0.33190000  0.42630000  0.15300000  1.0 -0.0273339909
C  C78  1  0.27640000  0.39670000  0.16760000  1.0 0.0135293119
C  C79  1  0.31290000  0.48620000  0.25400000  1.0 -0.0004159227
C  C80  1  0.40500000  0.60530000  0.32600000  1.0 -0.0968984539
C  C81  1  0.17680000  0.26570000  0.08950000  1.0 0.267659021
C  C82  1  0.46990000  0.56700000  0.19680000  1.0 0.4491277164
C  C83  1  0.12640000  0.20450000  0.75320000  1.0 -0.0198062615
C  C84  1  0.44240000  0.56010000  0.24560000  1.0 -0.0273339909
C  C85  1  0.38080000  0.45930000  0.20460000  1.0 -0.0273339909
C  C86  1  0.34860000  0.44490000  0.24190000  1.0 0.0244547676
C  C87  1  0.37810000  0.53140000  0.32030000  1.0 -0.0613145294
C  C88  1  0.43960000  0.63210000  0.36150000  1.0 -0.0941768245
C  C89  1  0.47170000  0.64650000  0.32400000  1.0 0.0513450824
C  C90  1  0.28320000  0.33930000  0.20650000  1.0 0.2440866183
C  C91  1  0.70250000  0.16090000  0.74140000  1.0 0.648252599
C  C92  1  0.92000000  0.37360000  0.98020000  1.0 -0.0968984539
C  C93  1  0.00290000  0.45130000  0.10040000  1.0 -0.0430158506
C  C94  1  0.96070000  0.40420000  0.11710000  1.0 0.0595626583
C  C95  1  0.83840000  0.28000000  0.01170000  1.0 -0.1441671575
C  C96  1  0.75420000  0.20130000  0.89050000  1.0 -0.0941768245
C  C97  1  0.13300000  0.58810000  0.21150000  1.0 0.5800361758
C  C98  1  0.04440000  0.48000000  0.24290000  1.0 0.0809195561
C  C99  1  0.16040000  0.54790000  0.32930000  1.0 -0.1737660268
C  C100  1  0.23630000  0.61230000  0.44310000  1.0 0.0809195561
C  C101  1  0.19000000  0.60580000  0.47010000  1.0 -0.1276800806
C  C102  1  0.07490000  0.54140000  0.38620000  1.0 -0.0198062615
C  C103  1  0.00270000  0.47800000  0.27280000  1.0 -0.1187883143
C  C104  1  0.02450000  0.53050000  0.41210000  1.0 0.6351302391
C  C105  1  0.36510000  0.68850000  0.53930000  1.0 0.0513450824
C  C106  1  0.45460000  0.77510000  0.57590000  1.0 -0.0273339909
C  C107  1  0.57370000  0.84700000  0.66810000  1.0 -0.0198062615
C  C108  1  0.60330000  0.83240000  0.72360000  1.0 0.0135293119
C  C109  1  0.51380000  0.74600000  0.68710000  1.0 -0.0004159227
C  C110  1  0.39470000  0.67400000  0.59500000  1.0 -0.0968984539
C  C111  1  0.73430000  0.91050000  0.82320000  1.0 0.267659021
C  C112  1  0.43300000  0.80320000  0.53010000  1.0 0.4491277164
C  C113  1  0.79550000  0.24680000  0.87360000  1.0 -0.0198062615
C  C114  1  0.43990000  0.75440000  0.55760000  1.0 -0.0273339909
C  C115  1  0.54070000  0.79540000  0.61920000  1.0 -0.0273339909
C  C116  1  0.55510000  0.75810000  0.65140000  1.0 0.0244547676
C  C117  1  0.46860000  0.67970000  0.62190000  1.0 -0.0613145294
C  C118  1  0.36790000  0.63850000  0.56040000  1.0 -0.0941768245
C  C119  1  0.35350000  0.67600000  0.52830000  1.0 0.0513450824
C  C120  1  0.66070000  0.79350000  0.71680000  1.0 0.2440866183
C  C121  1  0.16090000  0.74140000  0.70250000  1.0 0.648252599
C  C122  1  0.37360000  0.98020000  0.92000000  1.0 -0.0968984539
C  C123  1  0.45130000  0.10040000  0.00290000  1.0 -0.0430158506
C  C124  1  0.40420000  0.11710000  0.96070000  1.0 0.0595626583
C  C125  1  0.28000000  0.01170000  0.83840000  1.0 -0.1441671575
C  C126  1  0.20130000  0.89050000  0.75420000  1.0 -0.0941768245
C  C127  1  0.58810000  0.21150000  0.13300000  1.0 0.5800361758
C  C128  1  0.48000000  0.24290000  0.04440000  1.0 0.0809195561
C  C129  1  0.54790000  0.32930000  0.16040000  1.0 -0.1737660268
C  C130  1  0.61230000  0.44310000  0.23630000  1.0 0.0809195561
C  C131  1  0.60580000  0.47010000  0.19000000  1.0 -0.1276800806
C  C132  1  0.54140000  0.38620000  0.07490000  1.0 -0.0198062615
C  C133  1  0.47800000  0.27280000  0.00270000  1.0 -0.1187883143
C  C134  1  0.53050000  0.41210000  0.02450000  1.0 0.6351302391
C  C135  1  0.68850000  0.53930000  0.36510000  1.0 0.0513450824
C  C136  1  0.77510000  0.57590000  0.45460000  1.0 -0.0273339909
C  C137  1  0.84700000  0.66810000  0.57370000  1.0 -0.0198062615
C  C138  1  0.83240000  0.72360000  0.60330000  1.0 0.0135293119
C  C139  1  0.74600000  0.68710000  0.51380000  1.0 -0.0004159227
C  C140  1  0.67400000  0.59500000  0.39470000  1.0 -0.0968984539
C  C141  1  0.91050000  0.82320000  0.73430000  1.0 0.267659021
C  C142  1  0.80320000  0.53010000  0.43300000  1.0 0.4491277164
C  C143  1  0.24680000  0.87360000  0.79550000  1.0 -0.0198062615
C  C144  1  0.75440000  0.55760000  0.43990000  1.0 -0.0273339909
C  C145  1  0.79540000  0.61920000  0.54070000  1.0 -0.0273339909
C  C146  1  0.75810000  0.65140000  0.55510000  1.0 0.0244547676
C  C147  1  0.67970000  0.62190000  0.46860000  1.0 -0.0613145294
C  C148  1  0.63850000  0.56040000  0.36790000  1.0 -0.0941768245
C  C149  1  0.67600000  0.52830000  0.35350000  1.0 0.0513450824
C  C150  1  0.79350000  0.71680000  0.66070000  1.0 0.2440866183
C  C151  1  0.74140000  0.70250000  0.16090000  1.0 0.648252599
C  C152  1  0.98020000  0.92000000  0.37360000  1.0 -0.0968984539
C  C153  1  0.10040000  0.00290000  0.45130000  1.0 -0.0430158506
C  C154  1  0.11710000  0.96070000  0.40420000  1.0 0.0595626583
C  C155  1  0.01170000  0.83840000  0.28000000  1.0 -0.1441671575
C  C156  1  0.89050000  0.75420000  0.20130000  1.0 -0.0941768245
C  C157  1  0.21150000  0.13300000  0.58810000  1.0 0.5800361758
C  C158  1  0.24290000  0.04440000  0.48000000  1.0 0.0809195561
C  C159  1  0.32930000  0.16040000  0.54790000  1.0 -0.1737660268
C  C160  1  0.44310000  0.23630000  0.61230000  1.0 0.0809195561
C  C161  1  0.47010000  0.19000000  0.60580000  1.0 -0.1276800806
C  C162  1  0.38620000  0.07490000  0.54140000  1.0 -0.0198062615
C  C163  1  0.27280000  0.00270000  0.47800000  1.0 -0.1187883143
C  C164  1  0.41210000  0.02450000  0.53050000  1.0 0.6351302391
C  C165  1  0.53930000  0.36510000  0.68850000  1.0 0.0513450824
C  C166  1  0.57590000  0.45460000  0.77510000  1.0 -0.0273339909
C  C167  1  0.66810000  0.57370000  0.84700000  1.0 -0.0273339909
C  C168  1  0.72360000  0.60330000  0.83240000  1.0 0.0135293119
C  C169  1  0.68710000  0.51380000  0.74600000  1.0 -0.0004159227
C  C170  1  0.59500000  0.39470000  0.67400000  1.0 -0.0968984539
C  C171  1  0.82320000  0.73430000  0.91050000  1.0 0.267659021
C  C172  1  0.53010000  0.43300000  0.80320000  1.0 0.4491277164
C  C173  1  0.87360000  0.79550000  0.24680000  1.0 -0.0198062615
C  C174  1  0.55760000  0.43990000  0.75440000  1.0 -0.0273339909
C  C175  1  0.61920000  0.54070000  0.79540000  1.0 -0.0273339909
C  C176  1  0.65140000  0.55510000  0.75810000  1.0 0.0244547676
C  C177  1  0.62190000  0.46860000  0.67970000  1.0 -0.0613145294
C  C178  1  0.56040000  0.36790000  0.63850000  1.0 -0.0941768245
C  C179  1  0.52830000  0.35350000  0.67600000  1.0 0.0513450824
C  C180  1  0.71680000  0.66070000  0.79350000  1.0 0.2440866183
O  O1  1  0.26400000  0.79540000  0.27400000  1.0 -0.60617243
O  O2  1  0.40580000  0.95076000  0.34434000  1.0 -0.6612650628
O  O3  1  0.79020000  0.37970000  0.76940000  1.0 -0.6042838909
O  O4  1  0.83500000  0.33005000  0.71155000  1.0 -0.5862696443
O  O5  1  0.06320000  0.50279000  0.64871000  1.0 -0.5773559485
O  O6  1  0.93060000  0.44716000  0.50754000  1.0 -0.709993946
O  O7  1  0.60870000  0.17634000  0.46726000  1.0 -0.5047538513
O  O8  1  0.53810000  0.18900000  0.50510000  1.0 -0.5738032932
O  O9  1  0.20270000  0.03780000  0.17000000  1.0 -0.2317754204
O  O10  1  0.23750000  0.08890000  0.11200000  1.0 -0.4704781497
O  O11  1  0.26680000  0.14000000  0.24910000  1.0 -0.0613145294
O  O12  1  0.34310000  0.25890000  0.27650000  1.0 -0.3507463509
O  O13  1  0.79540000  0.27400000  0.26400000  1.0 -0.60617243
O  O14  1  0.95076000  0.34434000  0.40580000  1.0 -0.6612650628
O  O15  1  0.37970000  0.76940000  0.79020000  1.0 -0.6042838909
O  O16  1  0.33005000  0.71155000  0.83500000  1.0 -0.5862696443
O  O17  1  0.50279000  0.64871000  0.06320000  1.0 -0.5773559485
O  O18  1  0.44716000  0.50754000  0.93060000  1.0 -0.709993946
O  O19  1  0.17634000  0.46726000  0.60870000  1.0 -0.5047538513
O  O20  1  0.18900000  0.50510000  0.53810000  1.0 -0.5738032932
O  O21  1  0.03780000  0.17000000  0.20270000  1.0 -0.2317754204
O  O22  1  0.08890000  0.11200000  0.23750000  1.0 -0.4704781497
O  O23  1  0.14000000  0.24910000  0.26680000  1.0 -0.0613145294
O  O24  1  0.25890000  0.27650000  0.34310000  1.0 -0.3507463509
O  O25  1  0.27400000  0.26400000  0.79540000  1.0 -0.60617243
O  O26  1  0.34434000  0.40580000  0.95076000  1.0 -0.6612650628
O  O27  1  0.76940000  0.79020000  0.37970000  1.0 -0.6042838909
O  O28  1  0.71155000  0.83500000  0.33005000  1.0 -0.5862696443
O  O29  1  0.64871000  0.06320000  0.50279000  1.0 -0.5773559485
O  O30  1  0.50754000  0.93060000  0.44716000  1.0 -0.709993946
O  O31  1  0.46726000  0.60870000  0.17634000  1.0 -0.5047538513
O  O32  1  0.50510000  0.53810000  0.18900000  1.0 -0.5738032932
O  O33  1  0.17000000  0.20270000  0.03780000  1.0 -0.2317754204
O  O34  1  0.11200000  0.23750000  0.08890000  1.0 -0.4704781497
O  O35  1  0.24910000  0.26680000  0.14000000  1.0 -0.0613145294
O  O36  1  0.27650000  0.34310000  0.25890000  1.0 -0.3507463509
O  O37  1  0.73600000  0.20460000  0.72600000  1.0 -0.6042838909
O  O38  1  0.59420000  0.04924000  0.65566000  1.0 -0.6612650628
O  O39  1  0.20980000  0.62030000  0.23060000  1.0 -0.6042838909
O  O40  1  0.16500000  0.66995000  0.28845000  1.0 -0.5862696443
O  O41  1  0.93680000  0.49721000  0.35129000  1.0 -0.5773559485
O  O42  1  0.06940000  0.55284000  0.49246000  1.0 -0.709993946
O  O43  1  0.39130000  0.82366000  0.53274000  1.0 -0.5047538513
O  O44  1  0.46190000  0.81100000  0.49490000  1.0 -0.5738032932
O  O45  1  0.79730000  0.96220000  0.83000000  1.0 -0.2317754204
O  O46  1  0.76250000  0.91110000  0.88800000  1.0 -0.4704781497
O  O47  1  0.73320000  0.86000000  0.75090000  1.0 -0.0613145294
O  O48  1  0.65690000  0.74110000  0.72350000  1.0 -0.3507463509
O  O49  1  0.20460000  0.72600000  0.73600000  1.0 -0.60617243
O  O50  1  0.04924000  0.65566000  0.59420000  1.0 -0.6612650628
O  O51  1  0.62030000  0.23060000  0.20980000  1.0 -0.6042838909
O  O52  1  0.66995000  0.28845000  0.16500000  1.0 -0.5862696443
O  O53  1  0.49721000  0.35129000  0.93680000  1.0 -0.5773559485
O  O54  1  0.55284000  0.49246000  0.06940000  1.0 -0.709993946
O  O55  1  0.82366000  0.53274000  0.39130000  1.0 -0.505583393
O  O56  1  0.81100000  0.49490000  0.46190000  1.0 -0.5738032932
O  O57  1  0.96220000  0.83000000  0.79730000  1.0 -0.2317754204
O  O58  1  0.91110000  0.88800000  0.76250000  1.0 -0.4704781497
O  O59  1  0.86000000  0.75090000  0.73320000  1.0 -0.0613145294
O  O60  1  0.74110000  0.72350000  0.65690000  1.0 -0.3507463509
O  O61  1  0.72600000  0.73600000  0.20460000  1.0 -0.60617243
O  O62  1  0.65566000  0.59420000  0.04924000  1.0 -0.6612650628
O  O63  1  0.23060000  0.20980000  0.62030000  1.0 -0.6042838909
O  O64  1  0.28845000  0.16500000  0.66995000  1.0 -0.5862696443
O  O65  1  0.35129000  0.93680000  0.49721000  1.0 -0.5773559485
O  O66  1  0.49246000  0.06940000  0.55284000  1.0 -0.709993946
O  O67  1  0.53274000  0.39130000  0.82366000  1.0 -0.5047538513
O  O68  1  0.49490000  0.46190000  0.81100000  1.0 -0.5738032932
O  O69  1  0.83000000  0.79730000  0.96220000  1.0 -0.2317754204
O  O70  1  0.88800000  0.76250000  0.91110000  1.0 -0.4704781497
O  O71  1  0.75090000  0.73320000  0.86000000  1.0 -0.0613145294
O  O72  1  0.72350000  0.65690000  0.74110000  1.0 -0.3507463509
