# DDEC6 charges by PACMAN v1.1 (https://github.com/mtap-research/PACMAN-charge/)
data_HEBPUB_FSR_pacman
_symmetry_space_group_name_H-M   'P 1'
_cell_length_a   19.67470000
_cell_length_b   19.67470000
_cell_length_c   19.67470000
_cell_angle_alpha   115.17100000
_cell_angle_beta   115.17100000
_cell_angle_gamma   115.17100000
_symmetry_Int_Tables_number   1
_chemical_formula_structural   Zn3P4(HO3)4
_chemical_formula_sum   'Zn18 P24 H24 O72'
_cell_volume   4195.18001473
_cell_formula_units_Z   6
loop_
 _symmetry_equiv_pos_site_id
 _symmetry_equiv_pos_as_xyz
  1  'x, y, z'
loop_
 _atom_site_type_symbol
 _atom_site_label
 _atom_site_symmetry_multiplicity
 _atom_site_fract_x
 _atom_site_fract_y
 _atom_site_fract_z
 _atom_site_occupancy
 _atom_site_charge
Zn  Zn1  1  0.33786000  0.83283000  0.83178000  1.0 1.1237620986
Zn  Zn2  1  0.83283000  0.83178000  0.33786000  1.0 1.1237620986
Zn  Zn3  1  0.83178000  0.33786000  0.83283000  1.0 1.1237620986
Zn  Zn4  1  0.66214000  0.16717000  0.16822000  1.0 1.1237620986
Zn  Zn5  1  0.16717000  0.16822000  0.66214000  1.0 1.1334747845
Zn  Zn6  1  0.16822000  0.66214000  0.16717000  1.0 1.1237620986
Zn  Zn7  1  0.61639000  0.20450000  0.89608000  1.0 1.096948824
Zn  Zn8  1  0.20450000  0.89608000  0.61639000  1.0 1.0940104938
Zn  Zn9  1  0.89608000  0.61639000  0.20450000  1.0 1.0940104938
Zn  Zn10  1  0.38361000  0.79550000  0.10392000  1.0 1.0940104938
Zn  Zn11  1  0.79550000  0.10392000  0.38361000  1.0 1.096948824
Zn  Zn12  1  0.10392000  0.38361000  0.79550000  1.0 1.096948824
Zn  Zn13  1  0.98320000  0.41849000  0.53698000  1.0 1.0940104938
Zn  Zn14  1  0.41849000  0.53698000  0.98320000  1.0 1.0940104938
Zn  Zn15  1  0.53698000  0.98320000  0.41849000  1.0 1.0940104938
Zn  Zn16  1  0.01680000  0.58151000  0.46302000  1.0 1.0940104938
Zn  Zn17  1  0.58151000  0.46302000  0.01680000  1.0 1.0940104938
Zn  Zn18  1  0.46302000  0.01680000  0.58151000  1.0 1.096948824
P  P1  1  0.18896000  0.59875000  0.61116000  1.0 1.1334747845
P  P2  1  0.59875000  0.61116000  0.18896000  1.0 1.1334747845
P  P3  1  0.61116000  0.18896000  0.59875000  1.0 1.1334747845
P  P4  1  0.81104000  0.40125000  0.38884000  1.0 1.1334747845
P  P5  1  0.40125000  0.38884000  0.81104000  1.0 1.1334747845
P  P6  1  0.38884000  0.81104000  0.40125000  1.0 1.1334747845
P  P7  1  0.14600000  0.80107000  0.69462000  1.0 1.166753403
P  P8  1  0.80107000  0.69462000  0.14600000  1.0 1.166753403
P  P9  1  0.69462000  0.14600000  0.80107000  1.0 1.166753403
P  P10  1  0.85400000  0.19893000  0.30538000  1.0 1.166753403
P  P11  1  0.19893000  0.30538000  0.85400000  1.0 1.166753403
P  P12  1  0.30538000  0.85400000  0.19893000  1.0 1.166753403
P  P13  1  0.52220000  0.07519000  0.93911000  1.0 1.3130304333
P  P14  1  0.07519000  0.93911000  0.52220000  1.0 1.3130304333
P  P15  1  0.93911000  0.52220000  0.07519000  1.0 1.3130304333
P  P16  1  0.47780000  0.92481000  0.06089000  1.0 1.3130304333
P  P17  1  0.92481000  0.06089000  0.47780000  1.0 1.3130304333
P  P18  1  0.06089000  0.47780000  0.92481000  1.0 1.3130304333
P  P19  1  0.68458000  0.39607000  0.09164000  1.0 1.3381389297
P  P20  1  0.39607000  0.09164000  0.68458000  1.0 1.3381389297
P  P21  1  0.09164000  0.68458000  0.39607000  1.0 1.3381389297
P  P22  1  0.31542000  0.60393000  0.90836000  1.0 1.3381389297
P  P23  1  0.60393000  0.90836000  0.31542000  1.0 1.3381389297
P  P24  1  0.90836000  0.31542000  0.60393000  1.0 1.3381389297
H  H1  1  0.21180000  0.55210000  0.58400000  1.0 -0.168760144
H  H2  1  0.55210000  0.58400000  0.21180000  1.0 -0.168760144
H  H3  1  0.58400000  0.21180000  0.55210000  1.0 -0.168760144
H  H4  1  0.78820000  0.44790000  0.41600000  1.0 -0.168760144
H  H5  1  0.44790000  0.41600000  0.78820000  1.0 -0.168760144
H  H6  1  0.41600000  0.78820000  0.44790000  1.0 -0.168760144
H  H7  1  0.10000000  0.81500000  0.71760000  1.0 -0.185494081
H  H8  1  0.81500000  0.71760000  0.10000000  1.0 -0.185494081
H  H9  1  0.71760000  0.10000000  0.81500000  1.0 -0.185494081
H  H10  1  0.90000000  0.18500000  0.28240000  1.0 -0.185494081
H  H11  1  0.18500000  0.28240000  0.90000000  1.0 -0.185494081
H  H12  1  0.28240000  0.90000000  0.18500000  1.0 -0.185494081
H  H13  1  0.44990000  0.08450000  0.92530000  1.0 -0.0951945883
H  H14  1  0.08450000  0.92530000  0.44990000  1.0 -0.0943865114
H  H15  1  0.92530000  0.44990000  0.08450000  1.0 -0.0951945883
H  H16  1  0.55010000  0.91550000  0.07470000  1.0 -0.0943865114
H  H17  1  0.91550000  0.07470000  0.55010000  1.0 -0.0951945883
H  H18  1  0.07470000  0.55010000  0.91550000  1.0 -0.0951945883
H  H19  1  0.66160000  0.36270000  0.14010000  1.0 -0.0732783758
H  H20  1  0.36270000  0.14010000  0.66160000  1.0 -0.0732783758
H  H21  1  0.14010000  0.66160000  0.36270000  1.0 -0.0732783758
H  H22  1  0.33840000  0.63730000  0.85990000  1.0 -0.0732783758
H  H23  1  0.63730000  0.85990000  0.33840000  1.0 -0.0732783758
H  H24  1  0.85990000  0.33840000  0.63730000  1.0 -0.0732783758
O  O1  1  0.62957000  0.16809000  0.06188000  1.0 -0.6589460456
O  O2  1  0.16809000  0.06188000  0.62957000  1.0 -0.6589460456
O  O3  1  0.06188000  0.62957000  0.16809000  1.0 -0.6589460456
O  O4  1  0.37043000  0.83191000  0.93812000  1.0 -0.6589460456
O  O5  1  0.83191000  0.93812000  0.37043000  1.0 -0.6589460456
O  O6  1  0.93812000  0.37043000  0.83191000  1.0 -0.6589460456
O  O7  1  0.30092000  0.71960000  0.71168000  1.0 -0.5906741702
O  O8  1  0.71960000  0.71168000  0.30092000  1.0 -0.5906741702
O  O9  1  0.71168000  0.30092000  0.71960000  1.0 -0.5906741702
O  O10  1  0.69908000  0.28040000  0.28832000  1.0 -0.5906741702
O  O11  1  0.28040000  0.28832000  0.69908000  1.0 -0.5906741702
O  O12  1  0.28832000  0.69908000  0.28040000  1.0 -0.5906741702
O  O13  1  0.20180000  0.78972000  0.76258000  1.0 -0.6298271351
O  O14  1  0.78972000  0.76258000  0.20180000  1.0 -0.6298271351
O  O15  1  0.76258000  0.20180000  0.78972000  1.0 -0.6298271351
O  O16  1  0.79820000  0.21028000  0.23742000  1.0 -0.6298271351
O  O17  1  0.21028000  0.23742000  0.79820000  1.0 -0.6298271351
O  O18  1  0.23742000  0.79820000  0.21028000  1.0 -0.6298271351
O  O19  1  0.46076000  0.96223000  0.88941000  1.0 -0.6774747454
O  O20  1  0.96223000  0.88941000  0.46076000  1.0 -0.6774747454
O  O21  1  0.88941000  0.46076000  0.96223000  1.0 -0.6774747454
O  O22  1  0.53924000  0.03777000  0.11059000  1.0 -0.6774747454
O  O23  1  0.03777000  0.11059000  0.53924000  1.0 -0.6774747454
O  O24  1  0.11059000  0.53924000  0.03777000  1.0 -0.6744332396
O  O25  1  0.54131000  0.08265000  0.87474000  1.0 -0.6493771556
O  O26  1  0.08265000  0.87474000  0.54131000  1.0 -0.6493771556
O  O27  1  0.87474000  0.54131000  0.08265000  1.0 -0.6493771556
O  O28  1  0.45869000  0.91735000  0.12526000  1.0 -0.6493771556
O  O29  1  0.91735000  0.12526000  0.45869000  1.0 -0.6493771556
O  O30  1  0.12526000  0.45869000  0.91735000  1.0 -0.6493771556
O  O31  1  0.22744000  0.89721000  0.72245000  1.0 -0.6298271351
O  O32  1  0.89721000  0.72245000  0.22744000  1.0 -0.6298271351
O  O33  1  0.72245000  0.22744000  0.89721000  1.0 -0.6298271351
O  O34  1  0.77256000  0.10279000  0.27755000  1.0 -0.6298271351
O  O35  1  0.10279000  0.27755000  0.77256000  1.0 -0.6298271351
O  O36  1  0.27755000  0.77256000  0.10279000  1.0 -0.6298271351
O  O37  1  0.70812000  0.33954000  0.04435000  1.0 -0.6589460456
O  O38  1  0.33954000  0.04435000  0.70812000  1.0 -0.6589460456
O  O39  1  0.04435000  0.70812000  0.33954000  1.0 -0.6589460456
O  O40  1  0.29188000  0.66046000  0.95565000  1.0 -0.6589460456
O  O41  1  0.66046000  0.95565000  0.29188000  1.0 -0.6589460456
O  O42  1  0.95565000  0.29188000  0.66046000  1.0 -0.6589460456
O  O43  1  0.78547000  0.52171000  0.18782000  1.0 -0.6774747454
O  O44  1  0.52171000  0.18782000  0.78547000  1.0 -0.6774747454
O  O45  1  0.18782000  0.78547000  0.52171000  1.0 -0.6774747454
O  O46  1  0.21453000  0.47829000  0.81218000  1.0 -0.6774747454
O  O47  1  0.47829000  0.81218000  0.21453000  1.0 -0.6774747454
O  O48  1  0.81218000  0.21453000  0.47829000  1.0 -0.6774747454
O  O49  1  0.58317000  0.35978000  0.00485000  1.0 -0.6493771556
O  O50  1  0.35978000  0.00485000  0.58317000  1.0 -0.6493771556
O  O51  1  0.00485000  0.58317000  0.35978000  1.0 -0.6493771556
O  O52  1  0.41683000  0.64022000  0.99515000  1.0 -0.6493771556
O  O53  1  0.64022000  0.99515000  0.41683000  1.0 -0.6493771556
O  O54  1  0.99515000  0.41683000  0.64022000  1.0 -0.6493771556
O  O55  1  0.13439000  0.55900000  0.63981000  1.0 -0.6190834724
O  O56  1  0.55900000  0.63981000  0.13439000  1.0 -0.6190834724
O  O57  1  0.63981000  0.13439000  0.55900000  1.0 -0.6190834724
O  O58  1  0.86561000  0.44100000  0.36019000  1.0 -0.6190834724
O  O59  1  0.44100000  0.36019000  0.86561000  1.0 -0.6190834724
O  O60  1  0.36019000  0.86561000  0.44100000  1.0 -0.6190834724
O  O61  1  0.11611000  0.57263000  0.51306000  1.0 -0.6448535406
O  O62  1  0.57263000  0.51306000  0.11611000  1.0 -0.6448535406
O  O63  1  0.51306000  0.11611000  0.57263000  1.0 -0.6448535406
O  O64  1  0.88389000  0.42737000  0.48694000  1.0 -0.6448535406
O  O65  1  0.42737000  0.48694000  0.88389000  1.0 -0.6448535406
O  O66  1  0.48694000  0.88389000  0.42737000  1.0 -0.6448535406
O  O67  1  0.04695000  0.69468000  0.57147000  1.0 -0.6589460456
O  O68  1  0.69468000  0.57147000  0.04695000  1.0 -0.6589460456
O  O69  1  0.57147000  0.04695000  0.69468000  1.0 -0.6589460456
O  O70  1  0.95305000  0.30532000  0.42853000  1.0 -0.6589460456
O  O71  1  0.30532000  0.42853000  0.95305000  1.0 -0.6589460456
O  O72  1  0.42853000  0.95305000  0.30532000  1.0 -0.6589460456
