# DDEC6 charges by PACMAN v1.1 (https://github.com/mtap-research/PACMAN-charge/)
data_HECKAF_ASR_pacman
_symmetry_space_group_name_H-M   'P 1'
_cell_length_a   27.68630000
_cell_length_b   27.68630000
_cell_length_c   27.68630000
_cell_angle_alpha   93.42700000
_cell_angle_beta   93.42700000
_cell_angle_gamma   151.69600000
_symmetry_Int_Tables_number   1
_chemical_formula_structural   Al2Mo12H40C73(NO3)8
_chemical_formula_sum   'Al4 Mo24 H80 C146 N16 O48'
_cell_volume   9757.21692824
_cell_formula_units_Z   2
loop_
 _symmetry_equiv_pos_site_id
 _symmetry_equiv_pos_as_xyz
  1  'x, y, z'
loop_
 _atom_site_type_symbol
 _atom_site_label
 _atom_site_symmetry_multiplicity
 _atom_site_fract_x
 _atom_site_fract_y
 _atom_site_fract_z
 _atom_site_occupancy
 _atom_site_charge
Al  Al1  1  0.62500000  0.37500000  0.75000000  1.0 1.3844665947
Al  Al2  1  0.62500000  0.87500000  0.25000000  1.0 1.3844665947
Al  Al3  1  0.12500000  0.37500000  0.75000000  1.0 1.3859040203
Al  Al4  1  0.62500000  0.37500000  0.25000000  1.0 1.3859040203
Mo  Mo1  1  0.53783000  0.37531000  0.66268000  1.0 1.6084855658
Mo  Mo2  1  0.39721000  0.22836000  0.74399000  1.0 1.5292670987
Mo  Mo3  1  0.76547000  0.52157000  0.66884000  1.0 1.5501022252
Mo  Mo4  1  0.71263000  0.87515000  0.33732000  1.0 1.6084855658
Mo  Mo5  1  0.48437000  0.65322000  0.25601000  1.0 1.5292670987
Mo  Mo6  1  0.85273000  0.09663000  0.33116000  1.0 1.5501022252
Mo  Mo7  1  0.12515000  0.28783000  0.66252000  1.0 1.6084855658
Mo  Mo8  1  0.90322000  0.14721000  0.66885000  1.0 1.5361716213
Mo  Mo9  1  0.34663000  0.51547000  0.74390000  1.0 1.5501022252
Mo  Mo10  1  0.62531000  0.46263000  0.33748000  1.0 1.6084855658
Mo  Mo11  1  0.47836000  0.23437000  0.33115000  1.0 1.5292670987
Mo  Mo12  1  0.77157000  0.60273000  0.25610000  1.0 1.5501022252
Mo  Mo13  1  0.71217000  0.37469000  0.83732000  1.0 1.6084855658
Mo  Mo14  1  0.85279000  0.52164000  0.75601000  1.0 1.5292670987
Mo  Mo15  1  0.48453000  0.22843000  0.83116000  1.0 1.5501022252
Mo  Mo16  1  0.53737000  0.87485000  0.16268000  1.0 1.6084855658
Mo  Mo17  1  0.76563000  0.09678000  0.24399000  1.0 1.5292670987
Mo  Mo18  1  0.39727000  0.65337000  0.16884000  1.0 1.5501022252
Mo  Mo19  1  0.12485000  0.46217000  0.83748000  1.0 1.6026164951
Mo  Mo20  1  0.34678000  0.60279000  0.83115000  1.0 1.5292670987
Mo  Mo21  1  0.90337000  0.23453000  0.75610000  1.0 1.5501022252
Mo  Mo22  1  0.62469000  0.28737000  0.16252000  1.0 1.616897768
Mo  Mo23  1  0.77164000  0.51563000  0.16885000  1.0 1.5361716213
Mo  Mo24  1  0.47843000  0.14727000  0.24390000  1.0 1.5501022252
H  H1  1  0.41762000  0.10508000  0.61100000  1.0 0.0721087626
H  H2  1  0.44800000  0.01053000  0.65087000  1.0 0.0780532626
H  H3  1  0.33947000  0.98729000  0.52630000  1.0 0.0780532626
H  H4  1  0.38353000  0.88101000  0.60688000  1.0 0.0780532626
H  H5  1  0.27501000  0.85776000  0.48231000  1.0 0.0399207078
H  H6  1  0.20987000  0.76848000  0.56737000  1.0 0.0325096013
H  H7  1  0.44885000  0.96337000  0.49832000  1.0 0.0721087626
H  H8  1  0.53831000  0.10717000  0.54842000  1.0 0.0780532626
H  H9  1  0.29933000  0.91229000  0.61748000  1.0 0.0721087626
H  H10  1  0.58516000  0.20097000  0.62793000  1.0 0.0721087626
H  H11  1  0.49408000  0.80662000  0.38900000  1.0 0.0780532626
H  H12  1  0.35966000  0.79713000  0.34913000  1.0 0.0780532626
H  H13  1  0.46099000  0.81317000  0.47370000  1.0 0.0780532626
H  H14  1  0.27413000  0.77665000  0.39312000  1.0 0.0780532626
H  H15  1  0.37545000  0.79270000  0.51769000  1.0 0.0399207078
H  H16  1  0.20111000  0.64250000  0.43263000  1.0 0.0325096013
H  H17  1  0.46505000  0.95053000  0.50168000  1.0 0.0721087626
H  H18  1  0.55875000  0.98989000  0.45158000  1.0 0.0780532626
H  H19  1  0.29481000  0.68185000  0.38252000  1.0 0.0721087626
H  H20  1  0.57304000  0.95723000  0.37207000  1.0 0.0721087626
H  H21  1  0.05662000  0.16762000  0.81254000  1.0 0.0721087626
H  H22  1  0.04713000  0.19800000  0.93747000  1.0 0.0780532626
H  H23  1  0.06317000  0.08947000  0.85218000  1.0 0.0780532626
H  H24  1  0.02665000  0.13353000  0.00252000  1.0 0.0780532626
H  H25  1  0.04270000  0.02501000  0.91725000  1.0 0.0399207078
H  H26  1  0.89250000  0.95987000  0.94139000  1.0 0.0325096013
H  H27  1  0.20053000  0.19885000  0.98548000  1.0 0.0721087626
H  H28  1  0.23989000  0.28831000  0.93114000  1.0 0.0780532626
H  H29  1  0.93185000  0.04933000  0.88704000  1.0 0.0721087626
H  H30  1  0.20723000  0.33516000  0.88419000  1.0 0.0721087626
H  H31  1  0.35508000  0.24408000  0.18746000  1.0 0.0721087626
H  H32  1  0.26053000  0.10966000  0.06253000  1.0 0.0780532626
H  H33  1  0.23729000  0.21099000  0.14782000  1.0 0.0780532626
H  H34  1  0.13101000  0.02413000  0.99748000  1.0 0.0780532626
H  H35  1  0.10776000  0.12545000  0.08275000  1.0 0.0399207078
H  H36  1  0.01848000  0.95111000  0.05861000  1.0 0.0325096013
H  H37  1  0.21337000  0.21505000  0.01452000  1.0 0.0721087626
H  H38  1  0.35717000  0.30875000  0.06886000  1.0 0.0780532626
H  H39  1  0.16229000  0.04481000  0.11296000  1.0 0.0721087626
H  H40  1  0.45097000  0.32304000  0.11581000  1.0 0.0721087626
H  H41  1  0.83238000  0.64492000  0.88900000  1.0 0.0780532626
H  H42  1  0.80200000  0.73947000  0.84913000  1.0 0.0780532626
H  H43  1  0.91053000  0.76271000  0.97370000  1.0 0.0780532626
H  H44  1  0.86647000  0.86899000  0.89312000  1.0 0.0780532626
H  H45  1  0.97499000  0.89224000  0.01769000  1.0 0.0399207078
H  H46  1  0.04013000  0.98152000  0.93263000  1.0 0.0325096013
H  H47  1  0.80115000  0.78663000  0.00168000  1.0 0.0721087626
H  H48  1  0.71169000  0.64283000  0.95158000  1.0 0.0780532626
H  H49  1  0.95067000  0.83771000  0.88252000  1.0 0.0721087626
H  H50  1  0.66484000  0.54903000  0.87207000  1.0 0.0721087626
H  H51  1  0.75592000  0.94338000  0.11100000  1.0 0.0780532626
H  H52  1  0.89034000  0.95287000  0.15087000  1.0 0.0780532626
H  H53  1  0.78901000  0.93683000  0.02630000  1.0 0.0780532626
H  H54  1  0.97587000  0.97335000  0.10688000  1.0 0.0780532626
H  H55  1  0.87455000  0.95730000  0.98231000  1.0 0.0399207078
H  H56  1  0.04889000  0.10750000  0.06737000  1.0 0.0325096013
H  H57  1  0.78495000  0.79947000  0.99832000  1.0 0.0721087626
H  H58  1  0.69125000  0.76011000  0.04842000  1.0 0.0780532626
H  H59  1  0.95519000  0.06815000  0.11748000  1.0 0.0721087626
H  H60  1  0.67696000  0.79277000  0.12793000  1.0 0.0721087626
H  H61  1  0.19338000  0.58238000  0.68746000  1.0 0.0780532626
H  H62  1  0.20287000  0.55200000  0.56253000  1.0 0.0780532626
H  H63  1  0.18683000  0.66053000  0.64782000  1.0 0.0780532626
H  H64  1  0.22335000  0.61647000  0.49748000  1.0 0.0780532626
H  H65  1  0.20730000  0.72499000  0.58275000  1.0 0.0399207078
H  H66  1  0.35750000  0.79013000  0.55861000  1.0 0.0325096013
H  H67  1  0.04947000  0.55115000  0.51452000  1.0 0.0721087626
H  H68  1  0.01011000  0.46169000  0.56886000  1.0 0.0780532626
H  H69  1  0.31815000  0.70067000  0.61296000  1.0 0.0721087626
H  H70  1  0.04277000  0.41484000  0.61581000  1.0 0.0721087626
H  H71  1  0.89492000  0.50592000  0.31254000  1.0 0.0721087626
H  H72  1  0.98947000  0.64034000  0.43747000  1.0 0.0780532626
H  H73  1  0.01271000  0.53901000  0.35218000  1.0 0.0780532626
H  H74  1  0.11899000  0.72587000  0.50252000  1.0 0.0780532626
H  H75  1  0.14224000  0.62455000  0.41725000  1.0 0.0399207078
H  H76  1  0.23152000  0.79889000  0.44139000  1.0 0.0325096013
H  H77  1  0.03663000  0.53495000  0.48548000  1.0 0.0721087626
H  H78  1  0.89283000  0.44125000  0.43114000  1.0 0.0780532626
H  H79  1  0.08771000  0.70519000  0.38704000  1.0 0.0721087626
H  H80  1  0.79903000  0.42696000  0.38419000  1.0 0.0721087626
C  C1  1  0.45580000  0.19290000  0.67110000  1.0 0.1391918125
C  C2  1  0.51350000  0.19790000  0.68640000  1.0 0.1196448417
C  C3  1  0.62310000  0.29600000  0.67330000  1.0 0.1485167226
C  C4  1  0.52450000  0.19570000  0.73820000  1.0 0.0535332313
C  C5  1  0.42900000  0.08330000  0.62230000  1.0 -0.0967561938
C  C6  1  0.39970000  0.01100000  0.59270000  1.0 0.0399207078
C  C7  1  0.41300000  0.97960000  0.61660000  1.0 -0.165814021
C  C8  1  0.34870000  0.96600000  0.54270000  1.0 -0.1526649196
C  C9  1  0.37430000  0.90230000  0.59060000  1.0 -0.1065042655
C  C10  1  0.30990000  0.88860000  0.51650000  1.0 -0.0722534295
C  C11  1  0.32320000  0.85720000  0.54040000  1.0 -0.0082352081
C  C12  1  0.27650000  0.83720000  0.56350000  1.0 -0.0603899675
C  C13  1  0.32130000  0.85280000  0.52810000  1.0 -0.015816385
C  C14  1  0.41800000  0.95250000  0.52250000  1.0 -0.1526649196
C  C15  1  0.47160000  0.03840000  0.55220000  1.0 -0.2011529499
C  C16  1  0.42680000  0.02280000  0.58760000  1.0 0.0399207078
C  C17  1  0.33020000  0.92310000  0.59330000  1.0 -0.0722534295
C  C18  1  0.51130000  0.13340000  0.62470000  1.0 -0.0824733528
C  C19  1  0.52180000  0.78470000  0.32890000  1.0 0.1336002089
C  C20  1  0.51150000  0.82710000  0.31360000  1.0 0.1196448417
C  C21  1  0.62270000  0.94980000  0.32670000  1.0 0.1485167226
C  C22  1  0.45750000  0.78630000  0.26180000  1.0 0.0557148593
C  C23  1  0.46100000  0.80670000  0.37770000  1.0 -0.0967561938
C  C24  1  0.41830000  0.80700000  0.40730000  1.0 0.0399207078
C  C25  1  0.36300000  0.79640000  0.38340000  1.0 -0.165814021
C  C26  1  0.42330000  0.80600000  0.45730000  1.0 -0.1526649196
C  C27  1  0.31170000  0.78370000  0.40940000  1.0 -0.1065042655
C  C28  1  0.37210000  0.79340000  0.48350000  1.0 -0.0722534295
C  C29  1  0.31680000  0.78280000  0.45960000  1.0 -0.0082352081
C  C30  1  0.27370000  0.71300000  0.43650000  1.0 -0.0603899675
C  C31  1  0.32470000  0.79320000  0.47190000  1.0 -0.015816385
C  C32  1  0.43000000  0.89550000  0.47750000  1.0 -0.1526649196
C  C33  1  0.48620000  0.91940000  0.44780000  1.0 -0.2011529499
C  C34  1  0.43520000  0.83920000  0.41240000  1.0 0.0399207078
C  C35  1  0.32980000  0.73690000  0.40670000  1.0 -0.0722534295
C  C36  1  0.50870000  0.88660000  0.37530000  1.0 -0.0824733528
C  C37  1  0.03470000  0.20580000  0.76290000  1.0 0.1336002089
C  C38  1  0.07710000  0.26350000  0.81560000  1.0 0.1196448417
C  C39  1  0.19980000  0.37310000  0.82710000  1.0 0.1485167226
C  C40  1  0.03630000  0.27450000  0.82880000  1.0 0.0535332313
C  C41  1  0.05670000  0.17900000  0.84570000  1.0 -0.0967561938
C  C42  1  0.05700000  0.14970000  0.88870000  1.0 0.0399207078
C  C43  1  0.04640000  0.16300000  0.93340000  1.0 -0.165814021
C  C44  1  0.05600000  0.09870000  0.88270000  1.0 -0.1526649196
C  C45  1  0.03370000  0.12430000  0.97200000  1.0 -0.1065042655
C  C46  1  0.04340000  0.05990000  0.92130000  1.0 -0.0722534295
C  C47  1  0.03280000  0.07320000  0.96600000  1.0 -0.0082352081
C  C48  1  0.96300000  0.02650000  0.93930000  1.0 -0.0603899675
C  C49  1  0.04320000  0.07130000  0.96850000  1.0 -0.015816385
C  C50  1  0.14550000  0.16800000  0.96550000  1.0 -0.1526649196
C  C51  1  0.16940000  0.22160000  0.93320000  1.0 -0.2011529499
C  C52  1  0.08920000  0.17680000  0.90400000  1.0 0.0399207078
C  C53  1  0.98690000  0.08020000  0.90710000  1.0 -0.0722534295
C  C54  1  0.13660000  0.26130000  0.87790000  1.0 -0.0824733528
C  C55  1  0.44290000  0.27180000  0.23710000  1.0 0.1391918125
C  C56  1  0.44790000  0.26150000  0.18440000  1.0 0.1196448417
C  C57  1  0.54600000  0.37270000  0.17290000  1.0 0.1485167226
C  C58  1  0.44570000  0.20750000  0.17120000  1.0 0.0535332313
C  C59  1  0.33333333  0.21100000  0.15430000  1.0 -0.0967561938
C  C60  1  0.26100000  0.16830000  0.11130000  1.0 0.0399207078
C  C61  1  0.22960000  0.11300000  0.06660000  1.0 -0.165814021
C  C62  1  0.21600000  0.17330000  0.11730000  1.0 -0.1526649196
C  C63  1  0.15230000  0.06170000  0.02800000  1.0 -0.1065042655
C  C64  1  0.13860000  0.12210000  0.07870000  1.0 -0.0722534295
C  C65  1  0.10720000  0.06680000  0.03400000  1.0 -0.0082352081
C  C66  1  0.08720000  0.02370000  0.06070000  1.0 -0.0603899675
C  C67  1  0.10280000  0.07470000  0.03150000  1.0 -0.015816385
C  C68  1  0.20250000  0.18000000  0.03450000  1.0 -0.1526649196
C  C69  1  0.28840000  0.23620000  0.06680000  1.0 -0.2011529499
C  C70  1  0.27280000  0.18520000  0.09600000  1.0 0.0399207078
C  C71  1  0.17310000  0.07980000  0.09290000  1.0 -0.0722534295
C  C72  1  0.38340000  0.25870000  0.12210000  1.0 -0.0824733528
C  C73  1  0.79420000  0.55710000  0.82890000  1.0 0.1336002089
C  C74  1  0.73650000  0.55210000  0.81360000  1.0 0.1196448417
C  C75  1  0.62690000  0.45400000  0.82670000  1.0 0.1485167226
C  C76  1  0.72550000  0.55430000  0.76180000  1.0 0.0535332313
C  C77  1  0.82100000  0.66666667  0.87770000  1.0 -0.0920316217
C  C78  1  0.85030000  0.73900000  0.90730000  1.0 0.0399207078
C  C79  1  0.83700000  0.77040000  0.88340000  1.0 -0.165814021
C  C80  1  0.90130000  0.78400000  0.95730000  1.0 -0.1526649196
C  C81  1  0.87570000  0.84770000  0.90940000  1.0 -0.1065042655
C  C82  1  0.94010000  0.86140000  0.98350000  1.0 -0.0722534295
C  C83  1  0.92680000  0.89280000  0.95960000  1.0 -0.0082352081
C  C84  1  0.97350000  0.91280000  0.93650000  1.0 -0.0603899675
C  C85  1  0.92870000  0.89720000  0.97190000  1.0 -0.015816385
C  C86  1  0.83200000  0.79750000  0.97750000  1.0 -0.1526649196
C  C87  1  0.77840000  0.71160000  0.94780000  1.0 -0.2011529499
C  C88  1  0.82320000  0.72720000  0.91240000  1.0 0.0399207078
C  C89  1  0.91980000  0.82690000  0.90670000  1.0 -0.0722534295
C  C90  1  0.73870000  0.61660000  0.87530000  1.0 -0.0824733528
C  C91  1  0.72820000  0.96530000  0.17110000  1.0 0.1336002089
C  C92  1  0.73850000  0.92290000  0.18640000  1.0 0.1196448417
C  C93  1  0.62730000  0.80020000  0.17330000  1.0 0.1485167226
C  C94  1  0.79250000  0.96370000  0.23820000  1.0 0.0535332313
C  C95  1  0.78900000  0.94330000  0.12230000  1.0 -0.0920316217
C  C96  1  0.83170000  0.94300000  0.09270000  1.0 0.0399207078
C  C97  1  0.88700000  0.95360000  0.11660000  1.0 -0.165814021
C  C98  1  0.82670000  0.94400000  0.04270000  1.0 -0.1526649196
C  C99  1  0.93830000  0.96630000  0.09060000  1.0 -0.1065042655
C  C100  1  0.87790000  0.95660000  0.01650000  1.0 -0.0722534295
C  C101  1  0.93320000  0.96720000  0.04040000  1.0 -0.0082352081
C  C102  1  0.97630000  0.03700000  0.06350000  1.0 -0.0603899675
C  C103  1  0.92530000  0.95680000  0.02810000  1.0 -0.0082352081
C  C104  1  0.82000000  0.85450000  0.02250000  1.0 -0.1526649196
C  C105  1  0.76380000  0.83060000  0.05220000  1.0 -0.2011529499
C  C106  1  0.81480000  0.91080000  0.08760000  1.0 0.0399207078
C  C107  1  0.92020000  0.01310000  0.09330000  1.0 -0.0722534295
C  C108  1  0.74130000  0.86340000  0.12470000  1.0 -0.0824733528
C  C109  1  0.21530000  0.54420000  0.73710000  1.0 0.1336002089
C  C110  1  0.17290000  0.48650000  0.68440000  1.0 0.1196448417
C  C111  1  0.05020000  0.37690000  0.67290000  1.0 0.1485167226
C  C112  1  0.21370000  0.47550000  0.67120000  1.0 0.0535332313
C  C113  1  0.19330000  0.57100000  0.65430000  1.0 -0.0967561938
C  C114  1  0.19300000  0.60030000  0.61130000  1.0 0.0399207078
C  C115  1  0.20360000  0.58700000  0.56660000  1.0 -0.165814021
C  C116  1  0.19400000  0.65130000  0.61730000  1.0 -0.1526649196
C  C117  1  0.21630000  0.62570000  0.52800000  1.0 -0.1065042655
C  C118  1  0.20660000  0.69010000  0.57870000  1.0 -0.0722534295
C  C119  1  0.21720000  0.67680000  0.53400000  1.0 -0.0082352081
C  C120  1  0.28700000  0.72350000  0.56070000  1.0 -0.0603899675
C  C121  1  0.20680000  0.67870000  0.53150000  1.0 -0.015816385
C  C122  1  0.10450000  0.58200000  0.53450000  1.0 -0.1526649196
C  C123  1  0.08060000  0.52840000  0.56680000  1.0 -0.2011529499
C  C124  1  0.16080000  0.57320000  0.59600000  1.0 0.0399207078
C  C125  1  0.26310000  0.66980000  0.59290000  1.0 -0.0722534295
C  C126  1  0.11340000  0.48870000  0.62210000  1.0 -0.0920316217
C  C127  1  0.80710000  0.47820000  0.26290000  1.0 0.1336002089
C  C128  1  0.80210000  0.48850000  0.31560000  1.0 0.1196448417
C  C129  1  0.70400000  0.37730000  0.32710000  1.0 0.1485167226
C  C130  1  0.80430000  0.54250000  0.32880000  1.0 0.0535332313
C  C131  1  0.91670000  0.53900000  0.34570000  1.0 -0.0967561938
C  C132  1  0.98900000  0.58170000  0.38870000  1.0 0.0399207078
C  C133  1  0.02040000  0.63700000  0.43340000  1.0 -0.165814021
C  C134  1  0.03400000  0.57670000  0.38270000  1.0 -0.1553936241
C  C135  1  0.09770000  0.68830000  0.47200000  1.0 -0.1065042655
C  C136  1  0.11140000  0.62790000  0.42130000  1.0 -0.0722534295
C  C137  1  0.14280000  0.68320000  0.46600000  1.0 -0.0082352081
C  C138  1  0.16280000  0.72630000  0.43930000  1.0 -0.0603899675
C  C139  1  0.14720000  0.67530000  0.46850000  1.0 -0.015816385
C  C140  1  0.04750000  0.57000000  0.46550000  1.0 -0.1526649196
C  C141  1  0.96160000  0.51380000  0.43320000  1.0 -0.2011529499
C  C142  1  0.97720000  0.56480000  0.40400000  1.0 0.0399207078
C  C143  1  0.07690000  0.67020000  0.40710000  1.0 -0.0722534295
C  C144  1  0.86660000  0.49130000  0.37790000  1.0 -0.0824733528
C  C145  1  0.25000000  0.75000000  0.50000000  1.0 -0.0003534047
C  C146  1  0.00000000  0.00000000  0.00000000  1.0 0.00046924
N  N1  1  0.46960000  0.10800000  0.66360000  1.0 -0.1526649196
N  N2  1  0.45680000  0.10890000  0.64750000  1.0 -0.1337369675
N  N3  1  0.44440000  0.80600000  0.33640000  1.0 -0.1526649196
N  N4  1  0.46140000  0.80930000  0.35250000  1.0 -0.1378944287
N  N5  1  0.05600000  0.21960000  0.86160000  1.0 -0.1526649196
N  N6  1  0.05930000  0.20680000  0.84790000  1.0 -0.1378944287
N  N7  1  0.35800000  0.19440000  0.13840000  1.0 -0.1526649196
N  N8  1  0.35890000  0.21140000  0.15210000  1.0 -0.1337369675
N  N9  1  0.78040000  0.64200000  0.83640000  1.0 -0.1526649196
N  N10  1  0.79320000  0.64110000  0.85250000  1.0 -0.1378944287
N  N11  1  0.80560000  0.94400000  0.16360000  1.0 -0.1526649196
N  N12  1  0.78860000  0.94070000  0.14750000  1.0 -0.1378944287
N  N13  1  0.19400000  0.53040000  0.63840000  1.0 -0.1526649196
N  N14  1  0.19070000  0.54320000  0.65210000  1.0 -0.1337369675
N  N15  1  0.89200000  0.55560000  0.36160000  1.0 -0.1526649196
N  N16  1  0.89110000  0.53860000  0.34790000  1.0 -0.1337369675
O  O1  1  0.49907000  0.27310000  0.70057000  1.0 -0.7965165315
O  O2  1  0.48620000  0.35170000  0.71930000  1.0 -0.938363333
O  O3  1  0.61980000  0.40100000  0.63420000  1.0 -0.9329752198
O  O4  1  0.67500000  0.47410000  0.72530000  1.0 -0.7694605676
O  O5  1  0.38730000  0.15820000  0.77050000  1.0 -0.8999854637
O  O6  1  0.55779000  0.35250000  0.79529000  1.0 -0.7849330244
O  O7  1  0.57253000  0.79850000  0.29943000  1.0 -0.7900156863
O  O8  1  0.63240000  0.76690000  0.28070000  1.0 -0.938363333
O  O9  1  0.76680000  0.98560000  0.36580000  1.0 -0.9329752198
O  O10  1  0.74880000  0.94970000  0.27470000  1.0 -0.7694605676
O  O11  1  0.38770000  0.61680000  0.22950000  1.0 -0.8999854637
O  O12  1  0.55721000  0.76250000  0.20471000  1.0 -0.7900156863
O  O13  1  0.04850000  0.24907000  0.72597000  1.0 -0.7900156863
O  O14  1  0.01690000  0.23620000  0.63450000  1.0 -0.938363333
O  O15  1  0.23560000  0.36980000  0.71880000  1.0 -0.9329752198
O  O16  1  0.19970000  0.42500000  0.70090000  1.0 -0.7694605676
O  O17  1  0.86680000  0.13730000  0.72910000  1.0 -0.8999854637
O  O18  1  0.01250000  0.30779000  0.70529000  1.0 -0.7900156863
O  O19  1  0.52310000  0.32253000  0.27403000  1.0 -0.7900156863
O  O20  1  0.60170000  0.38240000  0.36550000  1.0 -0.938363333
O  O21  1  0.65100000  0.51680000  0.28120000  1.0 -0.9329752198
O  O22  1  0.72410000  0.49880000  0.29910000  1.0 -0.7694605676
O  O23  1  0.40820000  0.13770000  0.27090000  1.0 -0.8999854637
O  O24  1  0.60250000  0.30721000  0.29471000  1.0 -0.7900156863
O  O25  1  0.75093000  0.47690000  0.79943000  1.0 -0.7900156863
O  O26  1  0.76380000  0.39830000  0.78070000  1.0 -0.9329752198
O  O27  1  0.63020000  0.34900000  0.86580000  1.0 -0.9329752198
O  O28  1  0.57500000  0.27590000  0.77470000  1.0 -0.7694605676
O  O29  1  0.86270000  0.59180000  0.72950000  1.0 -0.8999854637
O  O30  1  0.69221000  0.39750000  0.70471000  1.0 -0.7900156863
O  O31  1  0.67747000  0.95150000  0.20057000  1.0 -0.7900156863
O  O32  1  0.61760000  0.98310000  0.21930000  1.0 -0.938363333
O  O33  1  0.48320000  0.76440000  0.13420000  1.0 -0.9329752198
O  O34  1  0.50120000  0.80030000  0.22530000  1.0 -0.7694605676
O  O35  1  0.86230000  0.13320000  0.27050000  1.0 -0.8999854637
O  O36  1  0.69279000  0.98750000  0.29529000  1.0 -0.7900156863
O  O37  1  0.20150000  0.50093000  0.77403000  1.0 -0.7965165315
O  O38  1  0.23310000  0.51380000  0.86550000  1.0 -0.9329752198
O  O39  1  0.01440000  0.38020000  0.78120000  1.0 -0.9329752198
O  O40  1  0.05030000  0.32500000  0.79910000  1.0 -0.7694605676
O  O41  1  0.38320000  0.61270000  0.77090000  1.0 -0.8999854637
O  O42  1  0.23750000  0.44221000  0.79471000  1.0 -0.7849330244
O  O43  1  0.72690000  0.42747000  0.22597000  1.0 -0.7900156863
O  O44  1  0.64830000  0.36760000  0.13450000  1.0 -0.938363333
O  O45  1  0.59900000  0.23320000  0.21880000  1.0 -0.938363333
O  O46  1  0.52590000  0.25120000  0.20090000  1.0 -0.7694605676
O  O47  1  0.84180000  0.61230000  0.22910000  1.0 -0.8999854637
O  O48  1  0.64750000  0.44279000  0.20529000  1.0 -0.7900156863
