# DDEC6 charges by PACMAN v1.1 (https://github.com/mtap-research/PACMAN-charge/)
data_HEDBID_ASR_pacman
_symmetry_space_group_name_H-M   'P 1'
_cell_length_a   10.89810000
_cell_length_b   11.54520000
_cell_length_c   13.40860000
_cell_angle_alpha   69.39900000
_cell_angle_beta   79.95900000
_cell_angle_gamma   62.24200000
_symmetry_Int_Tables_number   1
_chemical_formula_structural   Nd2U3H6(C5O4)6
_chemical_formula_sum   'Nd2 U3 H6 C30 O24'
_cell_volume   1397.35529842
_cell_formula_units_Z   1
loop_
 _symmetry_equiv_pos_site_id
 _symmetry_equiv_pos_as_xyz
  1  'x, y, z'
loop_
 _atom_site_type_symbol
 _atom_site_label
 _atom_site_symmetry_multiplicity
 _atom_site_fract_x
 _atom_site_fract_y
 _atom_site_fract_z
 _atom_site_occupancy
 _atom_site_charge
Nd  Nd1  1  0.37968000  0.78368000  0.22409000  1.0 1.7342283441
Nd  Nd2  1  0.62032000  0.21632000  0.77591000  1.0 1.7342283441
U  U1  1  0.00000000  0.50000000  0.50000000  1.0 1.9365052892
U  U2  1  0.63077000  0.70401000  0.83251000  1.0 2.0027324869
U  U3  1  0.36923000  0.29599000  0.16749000  1.0 1.9912469102
H  H1  1  0.81559000  0.90381000  0.26739000  1.0 0.1093053413
H  H2  1  0.18441000  0.09619000  0.73261000  1.0 0.1093053413
H  H3  1  0.29277000  0.00102000  0.58313000  1.0 0.1045237793
H  H4  1  0.70723000  0.99898000  0.41687000  1.0 0.1093053413
H  H5  1  0.90336000  0.63653000  0.04665000  1.0 0.1093053413
H  H6  1  0.09664000  0.36347000  0.95335000  1.0 0.1093053413
C  C1  1  0.58090000  0.97100000  0.18960000  1.0 0.6091462089
C  C2  1  0.41910000  0.02900000  0.81040000  1.0 0.6091462089
C  C3  1  0.08070000  0.72260000  0.28300000  1.0 0.6354417516
C  C4  1  0.91930000  0.27740000  0.71700000  1.0 0.6354417516
C  C5  1  0.96680000  0.74200000  0.21930000  1.0 -0.073761479
C  C6  1  0.03320000  0.25800000  0.78070000  1.0 -0.073761479
C  C7  1  0.72200000  0.86430000  0.17100000  1.0 -0.0588956816
C  C8  1  0.27800000  0.13570000  0.82900000  1.0 -0.0588956816
C  C9  1  0.99150000  0.66220000  0.15410000  1.0 -0.073761479
C  C10  1  0.00850000  0.33780000  0.84590000  1.0 -0.080725255
C  C11  1  0.74990000  0.78440000  0.10390000  1.0 -0.1093216954
C  C12  1  0.25010000  0.21560000  0.89610000  1.0 -0.1093216954
C  C13  1  0.83230000  0.84540000  0.22540000  1.0 -0.1570628868
C  C14  1  0.16770000  0.15460000  0.77460000  1.0 -0.1570628868
C  C15  1  0.74250000  0.74440000  0.50330000  1.0 0.5390405072
C  C16  1  0.25750000  0.25560000  0.49670000  1.0 0.5390405072
C  C17  1  0.47450000  0.74740000  0.61410000  1.0 0.5900986208
C  C18  1  0.52550000  0.25260000  0.38590000  1.0 0.5900986208
C  C19  1  0.12680000  0.54300000  0.15210000  1.0 0.5390405072
C  C20  1  0.87320000  0.45700000  0.84790000  1.0 0.5390405072
C  C21  1  0.64510000  0.79920000  0.03670000  1.0 0.6211722209
C  C22  1  0.35490000  0.20080000  0.96330000  1.0 0.6211722209
C  C23  1  0.37810000  0.00050000  0.54910000  1.0 -0.1497767927
C  C24  1  0.62190000  0.99950000  0.45090000  1.0 -0.1497767927
C  C25  1  0.61540000  0.87540000  0.50240000  1.0 -0.073761479
C  C26  1  0.38460000  0.12460000  0.49760000  1.0 -0.073761479
C  C27  1  0.49120000  0.87560000  0.55270000  1.0 -0.080725255
C  C28  1  0.50880000  0.12440000  0.44730000  1.0 -0.080725255
C  C29  1  0.88400000  0.68770000  0.09510000  1.0 -0.1093216954
C  C30  1  0.11600000  0.31230000  0.90490000  1.0 -0.1093216954
O  O1  1  0.09950000  0.64320000  0.37750000  1.0 -0.6294261204
O  O2  1  0.90050000  0.35680000  0.62250000  1.0 -0.6294261204
O  O3  1  0.50530000  0.69300000  0.71250000  1.0 -0.6813017415
O  O4  1  0.49470000  0.30700000  0.28750000  1.0 -0.6813017415
O  O5  1  0.68930000  0.78500000  0.94550000  1.0 -0.6515902963
O  O6  1  0.31070000  0.21500000  0.05450000  1.0 -0.6553747939
O  O7  1  0.57280000  0.09020000  0.17230000  1.0 -0.6515902963
O  O8  1  0.42720000  0.90980000  0.82770000  1.0 -0.6515902963
O  O9  1  0.22620000  0.51360000  0.20630000  1.0 -0.621298282
O  O10  1  0.77380000  0.48640000  0.79370000  1.0 -0.621298282
O  O11  1  0.73500000  0.63220000  0.52970000  1.0 -0.5874510692
O  O12  1  0.26500000  0.36780000  0.47030000  1.0 -0.5874510692
O  O13  1  0.14630000  0.79150000  0.23880000  1.0 -0.6880994724
O  O14  1  0.85370000  0.20850000  0.76120000  1.0 -0.6880994724
O  O15  1  0.85650000  0.74970000  0.47520000  1.0 -0.6294261204
O  O16  1  0.14350000  0.25030000  0.52480000  1.0 -0.6294261204
O  O17  1  0.48300000  0.94020000  0.22130000  1.0 -0.6880994724
O  O18  1  0.51700000  0.05980000  0.77870000  1.0 -0.6813017415
O  O19  1  0.14340000  0.46960000  0.09600000  1.0 -0.6088359343
O  O20  1  0.85660000  0.53040000  0.90400000  1.0 -0.6088359343
O  O21  1  0.52520000  0.82090000  0.06820000  1.0 -0.706930487
O  O22  1  0.47480000  0.17910000  0.93180000  1.0 -0.706930487
O  O23  1  0.42300000  0.70280000  0.57040000  1.0 -0.5265227394
O  O24  1  0.57700000  0.29720000  0.42960000  1.0 -0.5265227394
