# DDEC6 charges by PACMAN v1.1 (https://github.com/mtap-research/PACMAN-charge/)
data_HEDBEZ_FSR_pacman
_symmetry_space_group_name_H-M   'P 1'
_cell_length_a   10.92290000
_cell_length_b   11.53710000
_cell_length_c   13.45160000
_cell_angle_alpha   69.50200000
_cell_angle_beta   80.04900000
_cell_angle_gamma   62.25300000
_symmetry_Int_Tables_number   1
_chemical_formula_structural   Ce4U3H6(C5O7)6
_chemical_formula_sum   'Ce4 U3 H6 C30 O42'
_cell_volume   1405.14395892
_cell_formula_units_Z   1
loop_
 _symmetry_equiv_pos_site_id
 _symmetry_equiv_pos_as_xyz
  1  'x, y, z'
loop_
 _atom_site_type_symbol
 _atom_site_label
 _atom_site_symmetry_multiplicity
 _atom_site_fract_x
 _atom_site_fract_y
 _atom_site_fract_z
 _atom_site_occupancy
 _atom_site_charge
Ce  Ce1  1  0.37791000  0.78523000  0.22467000  1.0 0.6432866559
Ce  Ce2  1  0.62209000  0.21477000  0.77533000  1.0 0.6496558294
Ce  Ce3  1  0.34550000  0.83970000  0.21000000  1.0 0.8361998305
Ce  Ce4  1  0.65450000  0.16030000  0.79000000  1.0 0.8257785544
U  U1  1  0.00000000  0.50000000  0.50000000  1.0 2.3741988048
U  U2  1  0.36798000  0.29810000  0.16675000  1.0 2.3741988048
U  U3  1  0.63202000  0.70190000  0.83325000  1.0 2.3741988048
H  H1  1  0.81331000  0.90264000  0.26961000  1.0 0.1391707862
H  H2  1  0.18669000  0.09736000  0.73039000  1.0 0.1391707862
H  H3  1  0.70699000  0.99925000  0.41955000  1.0 0.125284712
H  H4  1  0.29301000  0.00075000  0.58045000  1.0 0.125284712
H  H5  1  0.90062000  0.63732000  0.04807000  1.0 0.1456190303
H  H6  1  0.09938000  0.36268000  0.95193000  1.0 0.1456190303
C  C1  1  0.58060000  0.97240000  0.19050000  1.0 0.5914336547
C  C2  1  0.41940000  0.02760000  0.80950000  1.0 0.5914336547
C  C3  1  0.07910000  0.72340000  0.28320000  1.0 0.6693379983
C  C4  1  0.92090000  0.27660000  0.71680000  1.0 0.6693379983
C  C5  1  0.96500000  0.74260000  0.22050000  1.0 -0.0377233576
C  C6  1  0.03500000  0.25740000  0.77950000  1.0 -0.0377233576
C  C7  1  0.72190000  0.86570000  0.17160000  1.0 -0.0105049793
C  C8  1  0.27810000  0.13430000  0.82840000  1.0 -0.0105049793
C  C9  1  0.99010000  0.66270000  0.15490000  1.0 -0.0535468504
C  C10  1  0.00990000  0.33730000  0.84510000  1.0 -0.0535468504
C  C11  1  0.74860000  0.78620000  0.10420000  1.0 -0.068438676
C  C12  1  0.25140000  0.21380000  0.89580000  1.0 -0.068438676
C  C13  1  0.83050000  0.84540000  0.22660000  1.0 -0.1227370694
C  C14  1  0.16950000  0.15460000  0.77340000  1.0 -0.1227370694
C  C15  1  0.25560000  0.25450000  0.49600000  1.0 0.556067656
C  C16  1  0.74440000  0.74550000  0.50400000  1.0 0.556067656
C  C17  1  0.52520000  0.25360000  0.38510000  1.0 0.6017951176
C  C18  1  0.47480000  0.74640000  0.61490000  1.0 0.6017951176
C  C19  1  0.12640000  0.54500000  0.15050000  1.0 0.556067656
C  C20  1  0.87360000  0.45500000  0.84950000  1.0 0.556067656
C  C21  1  0.64310000  0.80190000  0.03760000  1.0 0.6173454032
C  C22  1  0.35690000  0.19810000  0.96240000  1.0 0.6173454032
C  C23  1  0.62140000  0.99980000  0.45220000  1.0 -0.0944044933
C  C24  1  0.37860000  0.00020000  0.54780000  1.0 -0.0944044933
C  C25  1  0.38450000  0.12460000  0.49660000  1.0 -0.0105049793
C  C26  1  0.61550000  0.87540000  0.50340000  1.0 -0.0105049793
C  C27  1  0.50750000  0.12560000  0.44630000  1.0 -0.0377233576
C  C28  1  0.49250000  0.87440000  0.55370000  1.0 -0.0377233576
C  C29  1  0.88180000  0.68890000  0.09600000  1.0 -0.0610361162
C  C30  1  0.11820000  0.31110000  0.90400000  1.0 -0.0610361162
O  O1  1  0.09950000  0.64330000  0.37740000  1.0 -0.5720703199
O  O2  1  0.90050000  0.35670000  0.62260000  1.0 -0.5720703199
O  O3  1  0.49350000  0.30790000  0.28670000  1.0 -0.6162300005
O  O4  1  0.50650000  0.69210000  0.71330000  1.0 -0.6162300005
O  O5  1  0.68960000  0.78330000  0.94630000  1.0 -0.5883006349
O  O6  1  0.31040000  0.21670000  0.05370000  1.0 -0.5883006349
O  O7  1  0.57200000  0.09120000  0.17290000  1.0 -0.5804551586
O  O8  1  0.42800000  0.90880000  0.82710000  1.0 -0.5804551586
O  O9  1  0.22600000  0.51730000  0.20420000  1.0 -0.5553195372
O  O10  1  0.77400000  0.48270000  0.79580000  1.0 -0.5549740091
O  O11  1  0.45030000  0.38190000  0.06110000  1.0 -0.5804551586
O  O12  1  0.54970000  0.61810000  0.93890000  1.0 -0.5804551586
O  O13  1  0.93980000  0.49770000  0.38750000  1.0 -0.5883006349
O  O14  1  0.06020000  0.50230000  0.61250000  1.0 -0.5959139958
O  O15  1  0.28540000  0.21630000  0.27050000  1.0 -0.5883006349
O  O16  1  0.71460000  0.78370000  0.72950000  1.0 -0.5883006349
O  O17  1  0.26110000  0.36830000  0.46860000  1.0 -0.508838658
O  O18  1  0.73890000  0.63170000  0.53140000  1.0 -0.508838658
O  O19  1  0.14290000  0.79380000  0.23990000  1.0 -0.5303381444
O  O20  1  0.85710000  0.20620000  0.76010000  1.0 -0.5303381444
O  O21  1  0.14300000  0.24960000  0.52240000  1.0 -0.508838658
O  O22  1  0.85700000  0.75040000  0.47760000  1.0 -0.508838658
O  O23  1  0.48330000  0.94000000  0.22600000  1.0 -0.5303381444
O  O24  1  0.51670000  0.06000000  0.77400000  1.0 -0.5238722458
O  O25  1  0.14170000  0.47190000  0.09450000  1.0 -0.5303381444
O  O26  1  0.85830000  0.52810000  0.90550000  1.0 -0.5303381444
O  O27  1  0.37300000  0.58720000  0.38200000  1.0 0.2998062924
O  O28  1  0.62700000  0.41280000  0.61800000  1.0 0.2998062924
O  O29  1  0.20040000  0.03080000  0.16310000  1.0 -0.5303381444
O  O30  1  0.79960000  0.96920000  0.83690000  1.0 -0.5303381444
O  O31  1  0.50260000  0.56460000  0.17230000  1.0 0.1456190303
O  O32  1  0.49740000  0.43540000  0.82770000  1.0 0.1391707862
O  O33  1  0.61050000  0.63870000  0.32280000  1.0 0.0117101551
O  O34  1  0.38950000  0.36130000  0.67720000  1.0 0.0117101551
O  O35  1  0.28660000  0.82780000  0.04050000  1.0 0.0221241286
O  O36  1  0.71340000  0.17220000  0.95950000  1.0 0.0221241286
O  O37  1  0.57620000  0.29680000  0.43000000  1.0 -0.4184116914
O  O38  1  0.42380000  0.70320000  0.57000000  1.0 -0.4184116914
O  O39  1  0.52380000  0.82720000  0.06730000  1.0 -0.5303381444
O  O40  1  0.47620000  0.17280000  0.93270000  1.0 -0.5303381444
O  O41  1  0.28800000  0.86590000  0.38480000  1.0 -0.2581622198
O  O42  1  0.71200000  0.13410000  0.61520000  1.0 -0.2672047511
