# DDEC6 charges by PACMAN v1.1 (https://github.com/mtap-research/PACMAN-charge/)
data_HEFDON_ASR_pacman
_symmetry_space_group_name_H-M   'P 1'
_cell_length_a   9.94450000
_cell_length_b   18.53910000
_cell_length_c   20.28890000
_cell_angle_alpha   88.90400000
_cell_angle_beta   83.64800000
_cell_angle_gamma   86.71300000
_symmetry_Int_Tables_number   1
_chemical_formula_structural   BaCd3H32C52N4ClO12
_chemical_formula_sum   'Ba2 Cd6 H64 C104 N8 Cl2 O24'
_cell_volume   3711.11670959
_cell_formula_units_Z   2
loop_
 _symmetry_equiv_pos_site_id
 _symmetry_equiv_pos_as_xyz
  1  'x, y, z'
loop_
 _atom_site_type_symbol
 _atom_site_label
 _atom_site_symmetry_multiplicity
 _atom_site_fract_x
 _atom_site_fract_y
 _atom_site_fract_z
 _atom_site_occupancy
 _atom_site_charge
Ba  Ba1  1  0.04270000  0.24190000  0.57638000  1.0 1.1469515747
Ba  Ba2  1  0.95730000  0.75810000  0.42362000  1.0 1.1689557022
Cd  Cd1  1  0.61289000  0.45305000  0.03887000  1.0 0.9905500299
Cd  Cd2  1  0.38711000  0.54695000  0.96113000  1.0 0.9905500299
Cd  Cd3  1  0.89934000  0.95876000  0.45562000  1.0 0.9501602834
Cd  Cd4  1  0.10066000  0.04124000  0.54438000  1.0 0.9501602834
Cd  Cd5  1  0.41284000  0.97102000  0.01904000  1.0 0.6383539027
Cd  Cd6  1  0.58716000  0.02898000  0.98096000  1.0 0.6383539027
H  H1  1  0.15630000  0.23430000  0.40200000  1.0 0.1021609603
H  H2  1  0.84370000  0.76570000  0.59800000  1.0 0.1021609603
H  H3  1  0.18460000  0.31570000  0.31360000  1.0 0.1120672253
H  H4  1  0.81540000  0.68430000  0.68640000  1.0 0.1120672253
H  H5  1  0.95360000  0.19830000  0.20920000  1.0 0.1120672253
H  H6  1  0.04640000  0.80170000  0.79080000  1.0 0.1120672253
H  H7  1  0.92020000  0.11750000  0.29800000  1.0 0.1120672253
H  H8  1  0.07980000  0.88250000  0.70200000  1.0 0.1120672253
H  H9  1  0.28370000  0.33220000  0.19700000  1.0 0.1120672253
H  H10  1  0.71630000  0.66780000  0.80300000  1.0 0.1120672253
H  H11  1  0.11660000  0.44910000  0.05290000  1.0 0.1182237647
H  H12  1  0.88340000  0.55090000  0.94710000  1.0 0.1182237647
H  H13  1  0.88500000  0.32340000  0.17860000  1.0 0.1182237647
H  H14  1  0.11500000  0.67660000  0.82140000  1.0 0.1182237647
H  H15  1  0.39200000  0.38960000  0.80220000  1.0 0.1182237647
H  H16  1  0.60800000  0.61040000  0.19780000  1.0 0.1182237647
H  H17  1  0.40150000  0.30390000  0.71770000  1.0 0.1021609603
H  H18  1  0.59850000  0.69610000  0.28230000  1.0 0.1021609603
H  H19  1  0.68020000  0.18450000  0.80760000  1.0 0.1182237647
H  H20  1  0.31980000  0.81550000  0.19240000  1.0 0.1182237647
H  H21  1  0.67240000  0.27100000  0.88930000  1.0 0.1120672253
H  H22  1  0.32760000  0.72900000  0.11070000  1.0 0.1120672253
H  H23  1  0.35020000  0.18560000  0.69160000  1.0 0.1120672253
H  H24  1  0.64980000  0.81440000  0.30840000  1.0 0.1120672253
H  H25  1  0.56980000  0.04400000  0.56590000  1.0 0.1182237647
H  H26  1  0.43020000  0.95600000  0.43410000  1.0 0.1182237647
H  H27  1  0.75830000  0.16410000  0.68940000  1.0 0.1182237647
H  H28  1  0.24170000  0.83590000  0.31060000  1.0 0.1182237647
H  H29  1  0.00740000  0.56000000  0.08040000  1.0 0.1404973143
H  H30  1  0.99260000  0.44000000  0.91960000  1.0 0.1404973143
H  H31  1  0.13600000  0.60860000  0.07650000  1.0 0.147480633
H  H32  1  0.86400000  0.39140000  0.92350000  1.0 0.147480633
H  H33  1  0.03700000  0.60370000  0.14410000  1.0 0.1404973143
H  H34  1  0.96300000  0.39630000  0.85590000  1.0 0.1404973143
H  H35  1  0.79720000  0.61300000  0.06280000  1.0 0.1295298361
H  H36  1  0.20280000  0.38700000  0.93720000  1.0 0.1295298361
H  H37  1  0.66520000  0.71290000  0.03380000  1.0 0.147480633
H  H38  1  0.33480000  0.28710000  0.96620000  1.0 0.147480633
H  H39  1  0.97210000  0.83920000  0.05520000  1.0 0.147480633
H  H40  1  0.02790000  0.16080000  0.94480000  1.0 0.147480633
H  H41  1  0.09880000  0.73860000  0.07710000  1.0 0.1295298361
H  H42  1  0.90120000  0.26140000  0.92290000  1.0 0.1295298361
H  H43  1  0.75940000  0.84420000  0.16360000  1.0 0.1182237647
H  H44  1  0.24060000  0.15580000  0.83640000  1.0 0.1182237647
H  H45  1  0.65190000  0.94420000  0.23240000  1.0 0.1120672253
H  H46  1  0.34810000  0.05580000  0.76760000  1.0 0.1120672253
H  H47  1  0.78750000  0.77520000  0.90810000  1.0 0.1182237647
H  H48  1  0.21250000  0.22480000  0.09190000  1.0 0.1182237647
H  H49  1  0.67890000  0.82110000  0.81070000  1.0 0.1120672253
H  H50  1  0.32110000  0.17890000  0.18930000  1.0 0.1120672253
H  H51  1  0.28990000  0.06730000  0.26470000  1.0 0.1404973143
H  H52  1  0.71010000  0.93270000  0.73530000  1.0 0.1404973143
H  H53  1  0.30320000  0.09670000  0.37450000  1.0 0.1120672253
H  H54  1  0.69680000  0.90330000  0.62550000  1.0 0.1120672253
H  H55  1  0.45500000  0.08050000  0.46480000  1.0 0.1404973143
H  H56  1  0.54500000  0.91950000  0.53520000  1.0 0.1404973143
H  H57  1  0.45800000  0.16480000  0.44660000  1.0 0.1295298361
H  H58  1  0.54200000  0.83520000  0.55340000  1.0 0.1295298361
H  H59  1  0.59690000  0.11700000  0.44770000  1.0 0.147480633
H  H60  1  0.40310000  0.88300000  0.55230000  1.0 0.147480633
H  H61  1  0.70080000  0.10420000  0.34230000  1.0 0.1182237647
H  H62  1  0.29920000  0.89580000  0.65770000  1.0 0.1182237647
H  H63  1  0.69750000  0.07950000  0.23250000  1.0 0.1295298361
H  H64  1  0.30250000  0.92050000  0.76750000  1.0 0.1295298361
C  C1  1  0.01560000  0.11490000  0.41570000  1.0 0.5662648862
C  C2  1  0.98440000  0.88510000  0.58430000  1.0 0.5662648862
C  C3  1  0.03530000  0.16790000  0.35880000  1.0 -0.0471585693
C  C4  1  0.96470000  0.83210000  0.64120000  1.0 -0.0471585693
C  C5  1  0.11410000  0.22720000  0.36310000  1.0 -0.1409931073
C  C6  1  0.88590000  0.77280000  0.63690000  1.0 -0.1409931073
C  C7  1  0.13040000  0.27560000  0.31050000  1.0 -0.1490148568
C  C8  1  0.86960000  0.72440000  0.68950000  1.0 -0.1490148568
C  C9  1  0.06850000  0.26640000  0.25310000  1.0 0.0768620128
C  C10  1  0.93150000  0.73360000  0.74690000  1.0 0.0768620128
C  C11  1  0.99300000  0.20620000  0.24880000  1.0 -0.1587828996
C  C12  1  0.00700000  0.79380000  0.75120000  1.0 -0.1587828996
C  C13  1  0.97430000  0.15760000  0.30120000  1.0 -0.1205909216
C  C14  1  0.02570000  0.84240000  0.69880000  1.0 -0.1205909216
C  C15  1  0.08040000  0.31880000  0.19740000  1.0 0.049059782
C  C16  1  0.91960000  0.68120000  0.80260000  1.0 0.049059782
C  C17  1  0.20660000  0.34620000  0.17500000  1.0 -0.1704703236
C  C18  1  0.79340000  0.65380000  0.82500000  1.0 -0.1704703236
C  C19  1  0.21990000  0.39360000  0.12090000  1.0 -0.0183591378
C  C20  1  0.78010000  0.60640000  0.87910000  1.0 -0.0183591378
C  C21  1  0.10840000  0.41620000  0.08930000  1.0 -0.1490148568
C  C22  1  0.89160000  0.58380000  0.91070000  1.0 -0.1490148568
C  C23  1  0.98290000  0.38920000  0.11240000  1.0 -0.0096100251
C  C24  1  0.01710000  0.61080000  0.88760000  1.0 -0.0096100251
C  C25  1  0.97110000  0.34150000  0.16460000  1.0 -0.1587828996
C  C26  1  0.02890000  0.65850000  0.83540000  1.0 -0.1587828996
C  C27  1  0.85840000  0.41500000  0.07930000  1.0 0.5217329299
C  C28  1  0.14160000  0.58500000  0.92070000  1.0 0.5217329299
C  C29  1  0.35750000  0.41610000  0.09300000  1.0 0.563159365
C  C30  1  0.64250000  0.58390000  0.90700000  1.0 0.563159365
C  C31  1  0.52830000  0.39780000  0.90430000  1.0 0.5764000303
C  C32  1  0.47170000  0.60220000  0.09570000  1.0 0.5764000303
C  C33  1  0.53470000  0.34070000  0.85160000  1.0 -0.0364830682
C  C34  1  0.46530000  0.65930000  0.14840000  1.0 -0.0364830682
C  C35  1  0.45360000  0.34850000  0.80270000  1.0 -0.1062583217
C  C36  1  0.54640000  0.65150000  0.19730000  1.0 -0.1062583217
C  C37  1  0.45820000  0.29700000  0.75230000  1.0 -0.1587828996
C  C38  1  0.54180000  0.70300000  0.24770000  1.0 -0.1587828996
C  C39  1  0.54580000  0.23610000  0.75330000  1.0 0.0632006785
C  C40  1  0.45420000  0.76390000  0.24670000  1.0 0.0632006785
C  C41  1  0.62270000  0.22690000  0.80510000  1.0 -0.1409931073
C  C42  1  0.37730000  0.77310000  0.19490000  1.0 -0.1409931073
C  C43  1  0.61790000  0.27840000  0.85380000  1.0 -0.0961718822
C  C44  1  0.38210000  0.72160000  0.14620000  1.0 -0.0961718822
C  C45  1  0.55260000  0.18330000  0.69960000  1.0 0.0768620128
C  C46  1  0.44740000  0.81670000  0.30040000  1.0 0.0768620128
C  C47  1  0.43540000  0.16350000  0.67490000  1.0 -0.1784261787
C  C48  1  0.56460000  0.83650000  0.32510000  1.0 -0.1784261787
C  C49  1  0.44200000  0.11080000  0.62530000  1.0 -0.0096100251
C  C50  1  0.55800000  0.88920000  0.37470000  1.0 -0.0096100251
C  C51  1  0.56560000  0.07950000  0.59930000  1.0 -0.1587828996
C  C52  1  0.43440000  0.92050000  0.40070000  1.0 -0.1587828996
C  C53  1  0.68420000  0.10060000  0.62260000  1.0 -0.0183591378
C  C54  1  0.31580000  0.89940000  0.37740000  1.0 -0.0183591378
C  C55  1  0.67730000  0.15120000  0.67290000  1.0 -0.1784261787
C  C56  1  0.32270000  0.84880000  0.32710000  1.0 -0.1784261787
C  C57  1  0.81910000  0.07060000  0.59010000  1.0 0.5506071037
C  C58  1  0.18090000  0.92940000  0.40990000  1.0 0.5506071037
C  C59  1  0.31550000  0.08730000  0.59840000  1.0 0.5217329299
C  C60  1  0.68450000  0.91270000  0.40160000  1.0 0.5217329299
C  C61  1  0.04170000  0.60460000  0.09550000  1.0 -0.3696058059
C  C62  1  0.95830000  0.39540000  0.90450000  1.0 -0.3696058059
C  C63  1  0.83250000  0.65960000  0.06060000  1.0 0.0440275779
C  C64  1  0.16750000  0.34040000  0.93940000  1.0 0.0440275779
C  C65  1  0.75480000  0.71920000  0.04390000  1.0 -0.217092436
C  C66  1  0.24520000  0.28080000  0.95610000  1.0 -0.217092436
C  C67  1  0.80150000  0.78800000  0.04100000  1.0 0.1295298361
C  C68  1  0.19850000  0.21200000  0.95900000  1.0 0.1295298361
C  C69  1  0.93410000  0.79330000  0.05540000  1.0 -0.1704703236
C  C70  1  0.06590000  0.20670000  0.94460000  1.0 -0.1704703236
C  C71  1  0.00710000  0.73430000  0.06950000  1.0 -0.0096100251
C  C72  1  0.99290000  0.26570000  0.93050000  1.0 -0.0042101324
C  C73  1  0.67040000  0.89880000  0.08320000  1.0 0.1809719985
C  C74  1  0.32960000  0.10120000  0.91680000  1.0 0.1809719985
C  C75  1  0.70560000  0.88420000  0.14930000  1.0 -0.1784261787
C  C76  1  0.29440000  0.11580000  0.85070000  1.0 -0.1784261787
C  C77  1  0.64710000  0.93860000  0.18630000  1.0 -0.1897160077
C  C78  1  0.35290000  0.06140000  0.81370000  1.0 -0.1897160077
C  C79  1  0.57500000  0.98750000  0.14420000  1.0 0.1578165775
C  C80  1  0.42500000  0.01250000  0.85580000  1.0 0.1578165775
C  C81  1  0.71110000  0.85280000  0.02660000  1.0 -0.0789622853
C  C82  1  0.28890000  0.14720000  0.97340000  1.0 -0.0789622853
C  C83  1  0.67950000  0.86210000  0.96170000  1.0 0.1700723952
C  C84  1  0.32050000  0.13790000  0.03830000  1.0 0.1700723952
C  C85  1  0.72630000  0.81640000  0.90690000  1.0 -0.1784261787
C  C86  1  0.27370000  0.18360000  0.09310000  1.0 -0.1784261787
C  C87  1  0.66860000  0.84180000  0.85360000  1.0 -0.1784261787
C  C88  1  0.33140000  0.15820000  0.14640000  1.0 -0.1784261787
C  C89  1  0.58730000  0.90710000  0.87410000  1.0 0.186915662
C  C90  1  0.41270000  0.09290000  0.12590000  1.0 0.186915662
C  C91  1  0.49450000  0.04980000  0.16430000  1.0 -0.0920285174
C  C92  1  0.50550000  0.95020000  0.83570000  1.0 -0.0920285174
C  C93  1  0.49550000  0.06920000  0.23490000  1.0 0.1295298361
C  C94  1  0.50450000  0.93080000  0.76510000  1.0 0.1295298361
C  C95  1  0.37520000  0.07490000  0.27950000  1.0 -0.2062369401
C  C96  1  0.62480000  0.92510000  0.72050000  1.0 -0.2062369401
C  C97  1  0.38390000  0.09150000  0.34490000  1.0 0.0275629422
C  C98  1  0.61610000  0.90850000  0.65510000  1.0 0.0275629422
C  C99  1  0.50290000  0.11710000  0.43740000  1.0 -0.3807485962
C  C100  1  0.49710000  0.88290000  0.56260000  1.0 -0.3807485962
C  C101  1  0.61700000  0.09650000  0.32590000  1.0 0.0038797965
C  C102  1  0.38300000  0.90350000  0.67410000  1.0 0.0038797965
C  C103  1  0.61480000  0.08150000  0.26100000  1.0 -0.1897160077
C  C104  1  0.38520000  0.91850000  0.73900000  1.0 -0.1897160077
N  N1  1  0.59230000  0.91560000  0.94040000  1.0 -0.3859708125
N  N2  1  0.40770000  0.08440000  0.05960000  1.0 -0.3859708125
N  N3  1  0.59700000  0.96150000  0.08020000  1.0 -0.3807485962
N  N4  1  0.40300000  0.03850000  0.91980000  1.0 -0.3807485962
N  N5  1  0.95690000  0.66840000  0.07350000  1.0 0.1404973143
N  N6  1  0.04310000  0.33160000  0.92650000  1.0 0.1404973143
N  N7  1  0.50130000  0.10050000  0.36720000  1.0 0.1404973143
N  N8  1  0.49870000  0.89950000  0.63280000  1.0 0.1404973143
Cl  Cl1  1  0.22000000  0.89910000  0.06720000  1.0 -0.6175553316
Cl  Cl2  1  0.78000000  0.10090000  0.93280000  1.0 -0.6175553316
O  O1  1  0.92970000  0.06770000  0.41040000  1.0 -0.5679515118
O  O2  1  0.07030000  0.93230000  0.58960000  1.0 -0.5679515118
O  O3  1  0.08120000  0.12300000  0.46310000  1.0 -0.5901921505
O  O4  1  0.91880000  0.87700000  0.53690000  1.0 -0.5901921505
O  O5  1  0.76300000  0.37180000  0.08250000  1.0 -0.5298794622
O  O6  1  0.23700000  0.62820000  0.91750000  1.0 -0.5298794622
O  O7  1  0.85390000  0.47410000  0.05160000  1.0 -0.5237381869
O  O8  1  0.14610000  0.52590000  0.94840000  1.0 -0.5237381869
O  O9  1  0.36480000  0.45120000  0.03890000  1.0 -0.5901921505
O  O10  1  0.63520000  0.54880000  0.96110000  1.0 -0.5901921505
O  O11  1  0.45890000  0.39600000  0.12020000  1.0 -0.5060990864
O  O12  1  0.54110000  0.60400000  0.87980000  1.0 -0.5060990864
O  O13  1  0.61120000  0.38760000  0.94780000  1.0 -0.5679515118
O  O14  1  0.38880000  0.61240000  0.05220000  1.0 -0.5679515118
O  O15  1  0.44160000  0.44780000  0.89970000  1.0 -0.5402089173
O  O16  1  0.55840000  0.55220000  0.10030000  1.0 -0.5402089173
O  O17  1  0.92320000  0.09440000  0.60620000  1.0 -0.5519128853
O  O18  1  0.07680000  0.90560000  0.39380000  1.0 -0.5519128853
O  O19  1  0.81730000  0.02250000  0.55020000  1.0 -0.5298794622
O  O20  1  0.18270000  0.97750000  0.44980000  1.0 -0.5298794622
O  O21  1  0.32060000  0.03340000  0.56710000  1.0 -0.4691043908
O  O22  1  0.67940000  0.96660000  0.43290000  1.0 -0.4691043908
O  O23  1  0.21070000  0.12560000  0.60990000  1.0 -0.5679515118
O  O24  1  0.78930000  0.87440000  0.39010000  1.0 -0.5679515118
