# DDEC6 charges by PACMAN v1.1 (https://github.com/mtap-research/PACMAN-charge/)
data_HEFFAB_ASR_pacman
_symmetry_space_group_name_H-M   'P 1'
_cell_length_a   19.83400000
_cell_length_b   20.22400000
_cell_length_c   20.28400000
_cell_angle_alpha   87.48000000
_cell_angle_beta   115.58200000
_cell_angle_gamma   97.10400000
_symmetry_Int_Tables_number   1
_chemical_formula_structural   Mn4CdH35(C25O11)3
_chemical_formula_sum   'Mn8 Cd2 H70 C150 O66'
_cell_volume   7282.01008140
_cell_formula_units_Z   2
loop_
 _symmetry_equiv_pos_site_id
 _symmetry_equiv_pos_as_xyz
  1  'x, y, z'
loop_
 _atom_site_type_symbol
 _atom_site_label
 _atom_site_symmetry_multiplicity
 _atom_site_fract_x
 _atom_site_fract_y
 _atom_site_fract_z
 _atom_site_occupancy
 _atom_site_charge
Mn  Mn1  1  0.82538000  0.95716000  0.54331000  1.0 0.857295452
Mn  Mn2  1  0.17462000  0.04284000  0.45669000  1.0 0.857295452
Mn  Mn3  1  0.28400000  0.46291000  0.95342000  1.0 0.9118638917
Mn  Mn4  1  0.71600000  0.53709000  0.04658000  1.0 0.9118638917
Mn  Mn5  1  0.67646000  0.04578000  0.46198000  1.0 0.8732271477
Mn  Mn6  1  0.32354000  0.95422000  0.53802000  1.0 0.8732271477
Mn  Mn7  1  0.89610000  0.87243000  0.71340000  1.0 0.8367465122
Mn  Mn8  1  0.10390000  0.12757000  0.28660000  1.0 0.8367465122
Cd  Cd1  1  0.78093000  0.45948000  0.94991000  1.0 0.8466026171
Cd  Cd2  1  0.21907000  0.54052000  0.05009000  1.0 0.8466026171
H  H1  1  0.05220000  0.08080000  0.83590000  1.0 0.1387475442
H  H2  1  0.94780000  0.91920000  0.16410000  1.0 0.1387475442
H  H3  1  0.06240000  0.18770000  0.88160000  1.0 0.0987711871
H  H4  1  0.93760000  0.81230000  0.11840000  1.0 0.0987711871
H  H5  1  0.87210000  0.22400000  0.70470000  1.0 0.0987711871
H  H6  1  0.12790000  0.77600000  0.29530000  1.0 0.0987711871
H  H7  1  0.86190000  0.11720000  0.65890000  1.0 0.0987711871
H  H8  1  0.13810000  0.88280000  0.34110000  1.0 0.0987711871
H  H9  1  0.08800000  0.30930000  0.86450000  1.0 0.0804580752
H  H10  1  0.91200000  0.69070000  0.13550000  1.0 0.0804580752
H  H11  1  0.98840000  0.44670000  0.91970000  1.0 0.0882010258
H  H12  1  0.01160000  0.55330000  0.08030000  1.0 0.0882010258
H  H13  1  0.86670000  0.27430000  0.81920000  1.0 0.0804580752
H  H14  1  0.13330000  0.72570000  0.18080000  1.0 0.0804580752
H  H15  1  0.78200000  0.39410000  0.23400000  1.0 0.1307565173
H  H16  1  0.21800000  0.60590000  0.76600000  1.0 0.1307565173
H  H17  1  0.81840000  0.30980000  0.32100000  1.0 0.1105765943
H  H18  1  0.18160000  0.69020000  0.67900000  1.0 0.1105765943
H  H19  1  0.88700000  0.21290000  0.19340000  1.0 0.1105765943
H  H20  1  0.11300000  0.78710000  0.80660000  1.0 0.1105765943
H  H21  1  0.84830000  0.29640000  0.10580000  1.0 0.1307565173
H  H22  1  0.15170000  0.70360000  0.89420000  1.0 0.1307565173
H  H23  1  0.78740000  0.19090000  0.34270000  1.0 0.1307565173
H  H24  1  0.21260000  0.80910000  0.65730000  1.0 0.1307565173
H  H25  1  0.93950000  0.06600000  0.46010000  1.0 0.1469169839
H  H26  1  0.06050000  0.93400000  0.53990000  1.0 0.1469169839
H  H27  1  0.98170000  0.19440000  0.32110000  1.0 0.1105765943
H  H28  1  0.01830000  0.80560000  0.67890000  1.0 0.1105765943
H  H29  1  0.64360000  0.69820000  0.89190000  1.0 0.1387475442
H  H30  1  0.35640000  0.30180000  0.10810000  1.0 0.1387475442
H  H31  1  0.59940000  0.78250000  0.80330000  1.0 0.1105765943
H  H32  1  0.40060000  0.21750000  0.19670000  1.0 0.1105765943
H  H33  1  0.68180000  0.69680000  0.68130000  1.0 0.1105765943
H  H34  1  0.31820000  0.30320000  0.31870000  1.0 0.1105765943
H  H35  1  0.71700000  0.60970000  0.76650000  1.0 0.1307565173
H  H36  1  0.28300000  0.39030000  0.23350000  1.0 0.1307565173
H  H37  1  0.51920000  0.81480000  0.68350000  1.0 0.1194707072
H  H38  1  0.48080000  0.18520000  0.31650000  1.0 0.1194707072
H  H39  1  0.56570000  0.94650000  0.55180000  1.0 0.1387475442
H  H40  1  0.43430000  0.05350000  0.44820000  1.0 0.1387475442
H  H41  1  0.71470000  0.81490000  0.66430000  1.0 0.0987711871
H  H42  1  0.28530000  0.18510000  0.33570000  1.0 0.0987711871
H  H43  1  0.52970000  0.44690000  0.94750000  1.0 0.1387475442
H  H44  1  0.47030000  0.55310000  0.05250000  1.0 0.1387475442
H  H45  1  0.34690000  0.31910000  0.81890000  1.0 0.1105765943
H  H46  1  0.65310000  0.68090000  0.18110000  1.0 0.1105765943
H  H47  1  0.55440000  0.29960000  0.83300000  1.0 0.1194707072
H  H48  1  0.44560000  0.70040000  0.16700000  1.0 0.1194707072
H  H49  1  0.32680000  0.29000000  0.69460000  1.0 0.1194707072
H  H50  1  0.67320000  0.71000000  0.30540000  1.0 0.1194707072
H  H51  1  0.26860000  0.20100000  0.60970000  1.0 0.1194707072
H  H52  1  0.73140000  0.79900000  0.39030000  1.0 0.1194707072
H  H53  1  0.43690000  0.09290000  0.73970000  1.0 0.1387475442
H  H54  1  0.56310000  0.90710000  0.26030000  1.0 0.1307565173
H  H55  1  0.49300000  0.17950000  0.81910000  1.0 0.1194707072
H  H56  1  0.50700000  0.82050000  0.18090000  1.0 0.1194707072
H  H57  1  0.06500000  0.90870000  0.25360000  1.0 0.1105765943
H  H58  1  0.93500000  0.09130000  0.74640000  1.0 0.1105765943
H  H59  1  0.00630000  0.81630000  0.17580000  1.0 0.0987711871
H  H60  1  0.99370000  0.18370000  0.82420000  1.0 0.0987711871
H  H61  1  0.17190000  0.70800000  0.30820000  1.0 0.1105765943
H  H62  1  0.82810000  0.29200000  0.69180000  1.0 0.1105765943
H  H63  1  0.23050000  0.80050000  0.38600000  1.0 0.1387475442
H  H64  1  0.76950000  0.19950000  0.61400000  1.0 0.1387475442
H  H65  1  0.94090000  0.69880000  0.16710000  1.0 0.0882010258
H  H66  1  0.05910000  0.30120000  0.83290000  1.0 0.0882010258
H  H67  1  0.96590000  0.55280000  0.05170000  1.0 0.0804580752
H  H68  1  0.03410000  0.44720000  0.94830000  1.0 0.0804580752
H  H69  1  0.14740000  0.67750000  0.18190000  1.0 0.0804580752
H  H70  1  0.85260000  0.32250000  0.81810000  1.0 0.0804580752
C  C1  1  0.84810000  0.38480000  0.87140000  1.0 0.2466471552
C  C2  1  0.15190000  0.61520000  0.12860000  1.0 0.2466471552
C  C3  1  0.12370000  0.42700000  0.93130000  1.0 0.2772981657
C  C4  1  0.87630000  0.57300000  0.06870000  1.0 0.2772981657
C  C5  1  0.95060000  0.02070000  0.71330000  1.0 0.3656417414
C  C6  1  0.04940000  0.97930000  0.28670000  1.0 0.3625592276
C  C7  1  0.95610000  0.08900000  0.74310000  1.0 -0.0905477285
C  C8  1  0.04390000  0.91100000  0.25690000  1.0 -0.0905477285
C  C9  1  0.01570000  0.10990000  0.80930000  1.0 -0.1688671664
C  C10  1  0.98430000  0.89010000  0.19070000  1.0 -0.1790057337
C  C11  1  0.02170000  0.17340000  0.83640000  1.0 -0.1590507745
C  C12  1  0.97830000  0.82660000  0.16360000  1.0 -0.1590507745
C  C13  1  0.96820000  0.21590000  0.79750000  1.0 -0.0096011699
C  C14  1  0.03180000  0.78410000  0.20250000  1.0 -0.0096011699
C  C15  1  0.90870000  0.19490000  0.73130000  1.0 -0.0096011699
C  C16  1  0.09130000  0.80510000  0.26870000  1.0 -0.0096011699
C  C17  1  0.90260000  0.13150000  0.70410000  1.0 -0.07956298
C  C18  1  0.09740000  0.86850000  0.29590000  1.0 -0.07956298
C  C19  1  0.97670000  0.28210000  0.83700000  1.0 0.0429425373
C  C20  1  0.02330000  0.71790000  0.16300000  1.0 0.0429425373
C  C21  1  0.04460000  0.32310000  0.86580000  1.0 -0.1091922662
C  C22  1  0.95540000  0.67690000  0.13420000  1.0 -0.1091922662
C  C23  1  0.04890000  0.38450000  0.89660000  1.0 -0.0669312437
C  C24  1  0.95110000  0.61550000  0.10340000  1.0 -0.0669312437
C  C25  1  0.98540000  0.40480000  0.89860000  1.0 -0.0174454116
C  C26  1  0.01460000  0.59520000  0.10140000  1.0 -0.0174454116
C  C27  1  0.91750000  0.36370000  0.86970000  1.0 0.0105880868
C  C28  1  0.08250000  0.63630000  0.13030000  1.0 0.0180043506
C  C29  1  0.91310000  0.30240000  0.83890000  1.0 -0.0484500886
C  C30  1  0.08690000  0.69760000  0.16110000  1.0 -0.0484500886
C  C31  1  0.78350000  0.40430000  0.10010000  1.0 0.5695182516
C  C32  1  0.21650000  0.59570000  0.89990000  1.0 0.5695182516
C  C33  1  0.80880000  0.35110000  0.15770000  1.0 -0.0174454116
C  C34  1  0.19120000  0.64890000  0.84230000  1.0 -0.0174454116
C  C35  1  0.80180000  0.35670000  0.22520000  1.0 -0.0905477285
C  C36  1  0.19820000  0.64330000  0.77480000  1.0 -0.0905477285
C  C37  1  0.82420000  0.30700000  0.27710000  1.0 -0.1590507745
C  C38  1  0.17580000  0.69300000  0.72290000  1.0 -0.1590507745
C  C39  1  0.85480000  0.25350000  0.26540000  1.0 0.0804580752
C  C40  1  0.14520000  0.74650000  0.73460000  1.0 0.0804580752
C  C41  1  0.86480000  0.24910000  0.20120000  1.0 -0.1688671664
C  C42  1  0.13520000  0.75090000  0.79880000  1.0 -0.1688671664
C  C43  1  0.84120000  0.29910000  0.14900000  1.0 -0.0905477285
C  C44  1  0.15880000  0.70090000  0.85100000  1.0 -0.0905477285
C  C45  1  0.87870000  0.20030000  0.32180000  1.0 0.0607865959
C  C46  1  0.12130000  0.79970000  0.67820000  1.0 0.0607865959
C  C47  1  0.83430000  0.17460000  0.35490000  1.0 -0.1590507745
C  C48  1  0.16570000  0.82540000  0.64510000  1.0 -0.1590507745
C  C49  1  0.85830000  0.12250000  0.40840000  1.0 0.0105880868
C  C50  1  0.14170000  0.87750000  0.59160000  1.0 0.0105880868
C  C51  1  0.92460000  0.10080000  0.42550000  1.0 -0.1203216511
C  C52  1  0.07540000  0.89920000  0.57450000  1.0 -0.1203216511
C  C53  1  0.97410000  0.12700000  0.39450000  1.0 -0.0411562054
C  C54  1  0.02590000  0.87300000  0.60550000  1.0 -0.0411562054
C  C55  1  0.95000000  0.17600000  0.34310000  1.0 -0.1501586784
C  C56  1  0.05000000  0.82400000  0.65690000  1.0 -0.1501586784
C  C57  1  0.04810000  0.10130000  0.42140000  1.0 0.5232427104
C  C58  1  0.95190000  0.89870000  0.57860000  1.0 0.5232427104
C  C59  1  0.80380000  0.09110000  0.43890000  1.0 0.560346274
C  C60  1  0.19620000  0.90890000  0.56110000  1.0 0.560346274
C  C61  1  0.71220000  0.59320000  0.89580000  1.0 0.5695182516
C  C62  1  0.28780000  0.40680000  0.10420000  1.0 0.5695182516
C  C63  1  0.68480000  0.64810000  0.83910000  1.0 -0.0096011699
C  C64  1  0.31520000  0.35190000  0.16090000  1.0 -0.0096011699
C  C65  1  0.65110000  0.69740000  0.84870000  1.0 -0.0905477285
C  C66  1  0.34890000  0.30260000  0.15130000  1.0 -0.0905477285
C  C67  1  0.62580000  0.74940000  0.79630000  1.0 -0.1590507745
C  C68  1  0.37420000  0.25060000  0.20370000  1.0 -0.1590507745
C  C69  1  0.64010000  0.75070000  0.73710000  1.0 0.0804580752
C  C70  1  0.35990000  0.24930000  0.26290000  1.0 0.0804580752
C  C71  1  0.67390000  0.69740000  0.72420000  1.0 -0.1590507745
C  C72  1  0.32610000  0.30260000  0.27580000  1.0 -0.1590507745
C  C73  1  0.69540000  0.64590000  0.77520000  1.0 -0.0992505874
C  C74  1  0.30460000  0.35410000  0.22480000  1.0 -0.0992505874
C  C75  1  0.62070000  0.80540000  0.68200000  1.0 0.0804580752
C  C76  1  0.37930000  0.19460000  0.31800000  1.0 0.0748045727
C  C77  1  0.55220000  0.83230000  0.66260000  1.0 -0.1590507745
C  C78  1  0.44780000  0.16770000  0.33740000  1.0 -0.1590507745
C  C79  1  0.53240000  0.88580000  0.61170000  1.0 0.0030606234
C  C80  1  0.46760000  0.11420000  0.38830000  1.0 0.0030606234
C  C81  1  0.58010000  0.91170000  0.58640000  1.0 -0.1091922662
C  C82  1  0.41990000  0.08830000  0.41360000  1.0 -0.1091922662
C  C83  1  0.65260000  0.89100000  0.60790000  1.0 -0.0992505874
C  C84  1  0.34740000  0.10900000  0.39210000  1.0 -0.0992505874
C  C85  1  0.66950000  0.83370000  0.65350000  1.0 -0.1688671664
C  C86  1  0.33050000  0.16630000  0.34650000  1.0 -0.1688671664
C  C87  1  0.70850000  0.91970000  0.58210000  1.0 0.4315710201
C  C88  1  0.29150000  0.08030000  0.41790000  1.0 0.4315710201
C  C89  1  0.45460000  0.90870000  0.58680000  1.0 0.5317393228
C  C90  1  0.54540000  0.09130000  0.41320000  1.0 0.5317393228
C  C91  1  0.63280000  0.40840000  0.91550000  1.0 0.5784870668
C  C92  1  0.36720000  0.59160000  0.08450000  1.0 0.5784870668
C  C93  1  0.55300000  0.37810000  0.89060000  1.0 -0.0096011699
C  C94  1  0.44700000  0.62190000  0.10940000  1.0 -0.0096011699
C  C95  1  0.50810000  0.41050000  0.91400000  1.0 -0.1091922662
C  C96  1  0.49190000  0.58950000  0.08600000  1.0 -0.1091922662
C  C97  1  0.43060000  0.38800000  0.88720000  1.0 -0.0484500886
C  C98  1  0.56940000  0.61200000  0.11280000  1.0 -0.0484500886
C  C99  1  0.38470000  0.41930000  0.91330000  1.0 0.5396290704
C  C100  1  0.61530000  0.58070000  0.08670000  1.0 0.5396290704
C  C101  1  0.39930000  0.33333333  0.83800000  1.0 -0.1399441569
C  C102  1  0.60070000  0.66666667  0.16200000  1.0 -0.1399441569
C  C103  1  0.44560000  0.29990000  0.81680000  1.0 0.0527948879
C  C104  1  0.55440000  0.70010000  0.18320000  1.0 0.0527948879
C  C105  1  0.52240000  0.32280000  0.84530000  1.0 -0.1399441569
C  C106  1  0.47760000  0.67720000  0.15470000  1.0 -0.1399441569
C  C107  1  0.41230000  0.24320000  0.76590000  1.0 0.0804580752
C  C108  1  0.58770000  0.75680000  0.23410000  1.0 0.0804580752
C  C109  1  0.34860000  0.24930000  0.70350000  1.0 -0.1501586784
C  C110  1  0.65140000  0.75070000  0.29650000  1.0 -0.1501586784
C  C111  1  0.31430000  0.19680000  0.65190000  1.0 -0.0992505874
C  C112  1  0.68570000  0.80320000  0.34810000  1.0 -0.0992505874
C  C113  1  0.34940000  0.13770000  0.66420000  1.0 -0.0174454116
C  C114  1  0.65060000  0.86230000  0.33580000  1.0 -0.0174454116
C  C115  1  0.41470000  0.13340000  0.72940000  1.0 -0.0905477285
C  C116  1  0.58530000  0.86660000  0.27060000  1.0 -0.0905477285
C  C117  1  0.44700000  0.18350000  0.77730000  1.0 -0.1313943469
C  C118  1  0.55300000  0.81650000  0.22270000  1.0 -0.1399441569
C  C119  1  0.31230000  0.08220000  0.60730000  1.0 0.560346274
C  C120  1  0.68770000  0.91780000  0.39270000  1.0 0.560346274
C  C121  1  0.11390000  0.57460000  0.09230000  1.0 0.2466471552
C  C122  1  0.88610000  0.42540000  0.90770000  1.0 0.2466471552
C  C123  1  0.18870000  0.92170000  0.37940000  1.0 0.0987711871
C  C124  1  0.81130000  0.07830000  0.62060000  1.0 0.0987711871
C  C125  1  0.86150000  0.59410000  0.08720000  1.0 0.2694414987
C  C126  1  0.13850000  0.40590000  0.91280000  1.0 0.2694414987
C  C127  1  0.15320000  0.86330000  0.32710000  1.0 -0.0174454116
C  C128  1  0.84680000  0.13670000  0.67290000  1.0 -0.0174454116
C  C129  1  0.08670000  0.86800000  0.26470000  1.0 -0.0620713175
C  C130  1  0.91330000  0.13200000  0.73530000  1.0 -0.0620713175
C  C131  1  0.05180000  0.81310000  0.21850000  1.0 -0.0096011699
C  C132  1  0.94820000  0.18690000  0.78150000  1.0 -0.0096011699
C  C133  1  0.08360000  0.75350000  0.23470000  1.0 -0.0484500886
C  C134  1  0.91640000  0.24650000  0.76530000  1.0 -0.0411562054
C  C135  1  0.15020000  0.74880000  0.29710000  1.0 -0.1501586784
C  C136  1  0.84980000  0.25120000  0.70290000  1.0 -0.1501586784
C  C137  1  0.18500000  0.80370000  0.34330000  1.0 -0.2079462772
C  C138  1  0.81500000  0.19630000  0.65670000  1.0 -0.2079462772
C  C139  1  0.04900000  0.69660000  0.18220000  1.0 0.0527948879
C  C140  1  0.95100000  0.30340000  0.81780000  1.0 0.0527948879
C  C141  1  0.97220000  0.67620000  0.15350000  1.0 -0.07956298
C  C142  1  0.02780000  0.32380000  0.84650000  1.0 -0.0905477285
C  C143  1  0.94120000  0.62260000  0.10490000  1.0 -0.0992505874
C  C144  1  0.05880000  0.37740000  0.89510000  1.0 -0.0992505874
C  C145  1  0.98710000  0.58940000  0.08500000  1.0 -0.07956298
C  C146  1  0.01290000  0.41060000  0.91500000  1.0 -0.07956298
C  C147  1  0.06390000  0.60990000  0.11370000  1.0 0.0180043506
C  C148  1  0.93610000  0.39010000  0.88630000  1.0 0.0180043506
C  C149  1  0.09490000  0.66350000  0.16230000  1.0 -0.0669312437
C  C150  1  0.90510000  0.33650000  0.83770000  1.0 -0.0669312437
O  O1  1  0.71050000  0.13540000  0.54420000  1.0 -0.3160481767
O  O2  1  0.28950000  0.86460000  0.45580000  1.0 -0.3146370963
O  O3  1  0.78590000  0.36250000  0.82040000  1.0 -0.3037106113
O  O4  1  0.21410000  0.63750000  0.17960000  1.0 -0.3037106113
O  O5  1  0.85760000  0.43000000  0.91530000  1.0 0.1105765943
O  O6  1  0.14240000  0.57000000  0.08470000  1.0 0.1105765943
O  O7  1  0.13400000  0.47130000  0.97770000  1.0 -0.2079462772
O  O8  1  0.86600000  0.52870000  0.02230000  1.0 -0.2032308048
O  O9  1  0.17370000  0.41900000  0.91150000  1.0 0.0987711871
O  O10  1  0.82630000  0.58100000  0.08850000  1.0 0.0987711871
O  O11  1  0.90850000  0.01450000  0.64690000  1.0 -0.1501586784
O  O12  1  0.09150000  0.98550000  0.35310000  1.0 -0.1590507745
O  O13  1  0.98730000  0.97730000  0.75590000  1.0 -0.460778089
O  O14  1  0.01270000  0.02270000  0.24410000  1.0 -0.460778089
O  O15  1  0.74040000  0.10460000  0.41450000  1.0 -0.4278135614
O  O16  1  0.25960000  0.89540000  0.58550000  1.0 -0.4278135614
O  O17  1  0.83050000  0.05350000  0.49140000  1.0 -0.5417611317
O  O18  1  0.16950000  0.94650000  0.50860000  1.0 -0.5417611317
O  O19  1  0.07010000  0.06290000  0.46730000  1.0 -0.3972251729
O  O20  1  0.92990000  0.93710000  0.53270000  1.0 -0.3972251729
O  O21  1  0.08350000  0.12500000  0.39080000  1.0 -0.460778089
O  O22  1  0.91650000  0.87500000  0.60920000  1.0 -0.460778089
O  O23  1  0.75060000  0.44840000  0.11130000  1.0 -0.5511787252
O  O24  1  0.24940000  0.55160000  0.88870000  1.0 -0.5511787252
O  O25  1  0.80330000  0.40000000  0.04830000  1.0 -0.604002984
O  O26  1  0.19670000  0.60000000  0.95170000  1.0 -0.604002984
O  O27  1  0.74050000  0.54930000  0.88270000  1.0 -0.5340738014
O  O28  1  0.25950000  0.45070000  0.11730000  1.0 -0.5340738014
O  O29  1  0.69390000  0.59920000  0.94910000  1.0 -0.587731363
O  O30  1  0.30610000  0.40080000  0.05090000  1.0 -0.587731363
O  O31  1  0.71080000  0.98270000  0.56600000  1.0 -0.1399441569
O  O32  1  0.28920000  0.01730000  0.43400000  1.0 -0.1399441569
O  O33  1  0.77510000  0.90810000  0.61140000  1.0 -0.2032308048
O  O34  1  0.22490000  0.09190000  0.38860000  1.0 -0.2032308048
O  O35  1  0.42280000  0.89780000  0.62370000  1.0 -0.4278135614
O  O36  1  0.57720000  0.10220000  0.37630000  1.0 -0.4278135614
O  O37  1  0.43570000  0.94650000  0.53450000  1.0 -0.4724993871
O  O38  1  0.56430000  0.05350000  0.46550000  1.0 -0.4724993871
O  O39  1  0.65610000  0.46100000  0.95250000  1.0 -0.5622845209
O  O40  1  0.34390000  0.53900000  0.04750000  1.0 -0.5622845209
O  O41  1  0.67430000  0.38110000  0.89250000  1.0 -0.5622845209
O  O42  1  0.32570000  0.61890000  0.10750000  1.0 -0.5622845209
O  O43  1  0.40870000  0.45210000  0.97030000  1.0 -0.4875201003
O  O44  1  0.59130000  0.54790000  0.02970000  1.0 -0.484116228
O  O45  1  0.31310000  0.41350000  0.87200000  1.0 -0.5622845209
O  O46  1  0.68690000  0.58650000  0.12800000  1.0 -0.5622845209
O  O47  1  0.24540000  0.08310000  0.56370000  1.0 -0.5511787252
O  O48  1  0.75460000  0.91690000  0.43630000  1.0 -0.5511787252
O  O49  1  0.35360000  0.03770000  0.60980000  1.0 -0.5511787252
O  O50  1  0.64640000  0.96230000  0.39020000  1.0 -0.5511787252
O  O51  1  0.08790000  0.54950000  0.02860000  1.0 -0.2446764723
O  O52  1  0.91210000  0.45050000  0.97140000  1.0 -0.2465368525
O  O53  1  0.18350000  0.57660000  0.13430000  1.0 0.0289114865
O  O54  1  0.81650000  0.42340000  0.86570000  1.0 0.0289114865
O  O55  1  0.15240000  0.96970000  0.37490000  1.0 -0.1313943469
O  O56  1  0.84760000  0.03030000  0.62510000  1.0 -0.1203216511
O  O57  1  0.25600000  0.91900000  0.42340000  1.0 -0.1203216511
O  O58  1  0.74400000  0.08100000  0.57660000  1.0 -0.1203216511
O  O59  1  0.83780000  0.54400000  0.04940000  1.0 0.1105765943
O  O60  1  0.16220000  0.45600000  0.95060000  1.0 0.0987711871
O  O61  1  0.82130000  0.62220000  0.10550000  1.0 -0.1203216511
O  O62  1  0.17870000  0.37780000  0.89450000  1.0 -0.1203216511
O  O63  1  0.75330000  0.88430000  0.57640000  1.0 -0.1790057337
O  O64  1  0.24670000  0.11570000  0.42360000  1.0 -0.1790057337
O  O65  1  0.67660000  0.95590000  0.52680000  1.0 -0.1501586784
O  O66  1  0.32340000  0.04410000  0.47320000  1.0 -0.1501586784
