# DDEC6 charges by PACMAN v1.1 (https://github.com/mtap-research/PACMAN-charge/)
data_HEFWAT_ASR_pacman
_symmetry_space_group_name_H-M   'P 1'
_cell_length_a   20.90620000
_cell_length_b   20.90620000
_cell_length_c   15.88980000
_cell_angle_alpha   90.00000000
_cell_angle_beta   90.00000000
_cell_angle_gamma   120.00000000
_symmetry_Int_Tables_number   1
_chemical_formula_structural   Ni24H72C192O89
_chemical_formula_sum   'Ni24 H72 C192 O89'
_cell_volume   6014.49632917
_cell_formula_units_Z   1
loop_
 _symmetry_equiv_pos_site_id
 _symmetry_equiv_pos_as_xyz
  1  'x, y, z'
loop_
 _atom_site_type_symbol
 _atom_site_label
 _atom_site_symmetry_multiplicity
 _atom_site_fract_x
 _atom_site_fract_y
 _atom_site_fract_z
 _atom_site_occupancy
 _atom_site_charge
Ni  Ni1  1  0.38815000  0.77630000  0.50000000  1.0 1.057553169
Ni  Ni2  1  0.38815000  0.61185000  0.50000000  1.0 1.057553169
Ni  Ni3  1  0.22370000  0.61185000  0.50000000  1.0 1.057553169
Ni  Ni4  1  0.61185000  0.22370000  0.50000000  1.0 1.057553169
Ni  Ni5  1  0.61185000  0.38815000  0.50000000  1.0 1.057553169
Ni  Ni6  1  0.77630000  0.38815000  0.50000000  1.0 1.057553169
Ni  Ni7  1  0.29000000  0.00000000  0.00000000  1.0 0.88256478
Ni  Ni8  1  0.71000000  0.71000000  0.00000000  1.0 0.88256478
Ni  Ni9  1  0.00000000  0.29000000  0.00000000  1.0 0.885536906
Ni  Ni10  1  0.71000000  0.00000000  0.00000000  1.0 0.88256478
Ni  Ni11  1  0.29000000  0.29000000  0.00000000  1.0 0.88256478
Ni  Ni12  1  0.00000000  0.71000000  0.00000000  1.0 0.88256478
Ni  Ni13  1  0.43530000  0.00000000  0.91050000  1.0 0.9569883911
Ni  Ni14  1  0.56470000  0.56470000  0.91050000  1.0 0.9569883911
Ni  Ni15  1  0.00000000  0.43530000  0.91050000  1.0 0.9569883911
Ni  Ni16  1  0.56470000  0.00000000  0.91050000  1.0 0.9569883911
Ni  Ni17  1  0.43530000  0.43530000  0.91050000  1.0 0.9569883911
Ni  Ni18  1  0.00000000  0.56470000  0.91050000  1.0 0.9569883911
Ni  Ni19  1  0.43530000  0.00000000  0.08950000  1.0 0.9569883911
Ni  Ni20  1  0.00000000  0.43530000  0.08950000  1.0 0.9569883911
Ni  Ni21  1  0.56470000  0.56470000  0.08950000  1.0 0.9569883911
Ni  Ni22  1  0.56470000  0.00000000  0.08950000  1.0 0.9569883911
Ni  Ni23  1  0.00000000  0.56470000  0.08950000  1.0 0.9569883911
Ni  Ni24  1  0.43530000  0.43530000  0.08950000  1.0 0.9569883911
H  H1  1  0.12220000  0.70720000  0.63060000  1.0 0.1294223834
H  H2  1  0.31920000  0.84390000  0.73970000  1.0 0.1294223834
H  H3  1  0.13110000  0.82230000  0.83950000  1.0 0.1187197954
H  H4  1  0.58500000  0.87780000  0.63060000  1.0 0.1294223834
H  H5  1  0.52470000  0.68080000  0.73970000  1.0 0.1294223834
H  H6  1  0.69120000  0.86890000  0.83950000  1.0 0.1187197954
H  H7  1  0.29280000  0.41500000  0.63060000  1.0 0.1294223834
H  H8  1  0.15610000  0.47530000  0.73970000  1.0 0.1294223834
H  H9  1  0.17770000  0.30880000  0.83950000  1.0 0.1187197954
H  H10  1  0.87780000  0.29280000  0.63060000  1.0 0.1294223834
H  H11  1  0.68080000  0.15610000  0.73970000  1.0 0.1294223834
H  H12  1  0.86890000  0.17770000  0.83950000  1.0 0.1187197954
H  H13  1  0.41500000  0.12220000  0.63060000  1.0 0.1294223834
H  H14  1  0.47530000  0.31920000  0.73970000  1.0 0.1294223834
H  H15  1  0.30880000  0.13110000  0.83950000  1.0 0.1187197954
H  H16  1  0.70720000  0.58500000  0.63060000  1.0 0.1294223834
H  H17  1  0.84390000  0.52470000  0.73970000  1.0 0.1294223834
H  H18  1  0.82230000  0.69120000  0.83950000  1.0 0.1187197954
H  H19  1  0.41500000  0.29280000  0.36940000  1.0 0.1294223834
H  H20  1  0.47530000  0.15610000  0.26030000  1.0 0.1294223834
H  H21  1  0.30880000  0.17770000  0.16050000  1.0 0.1187197954
H  H22  1  0.70720000  0.12220000  0.36940000  1.0 0.1294223834
H  H23  1  0.84390000  0.31920000  0.26030000  1.0 0.1294223834
H  H24  1  0.82230000  0.13110000  0.16050000  1.0 0.1187197954
H  H25  1  0.87780000  0.58500000  0.36940000  1.0 0.1294223834
H  H26  1  0.68080000  0.52470000  0.26030000  1.0 0.1294223834
H  H27  1  0.86890000  0.69120000  0.16050000  1.0 0.1187197954
H  H28  1  0.58500000  0.70720000  0.36940000  1.0 0.1294223834
H  H29  1  0.52470000  0.84390000  0.26030000  1.0 0.1294223834
H  H30  1  0.69120000  0.82230000  0.16050000  1.0 0.1187197954
H  H31  1  0.29280000  0.87780000  0.36940000  1.0 0.1294223834
H  H32  1  0.15610000  0.68080000  0.26030000  1.0 0.1294223834
H  H33  1  0.17770000  0.86890000  0.16050000  1.0 0.1187197954
H  H34  1  0.12220000  0.41500000  0.36940000  1.0 0.1294223834
H  H35  1  0.31920000  0.47530000  0.26030000  1.0 0.1294223834
H  H36  1  0.13110000  0.30880000  0.16050000  1.0 0.1187197954
H  H37  1  0.87780000  0.29280000  0.36940000  1.0 0.1294223834
H  H38  1  0.68080000  0.15610000  0.26030000  1.0 0.1294223834
H  H39  1  0.86890000  0.17770000  0.16050000  1.0 0.1187197954
H  H40  1  0.41500000  0.12220000  0.36940000  1.0 0.1294223834
H  H41  1  0.47530000  0.31920000  0.26030000  1.0 0.1294223834
H  H42  1  0.30880000  0.13110000  0.16050000  1.0 0.1187197954
H  H43  1  0.70720000  0.58500000  0.36940000  1.0 0.1294223834
H  H44  1  0.84390000  0.52470000  0.26030000  1.0 0.1294223834
H  H45  1  0.82230000  0.69120000  0.16050000  1.0 0.1187197954
H  H46  1  0.12220000  0.70720000  0.36940000  1.0 0.1294223834
H  H47  1  0.31920000  0.84390000  0.26030000  1.0 0.1294223834
H  H48  1  0.13110000  0.82230000  0.16050000  1.0 0.1187197954
H  H49  1  0.58500000  0.87780000  0.36940000  1.0 0.1294223834
H  H50  1  0.52470000  0.68080000  0.26030000  1.0 0.1294223834
H  H51  1  0.69120000  0.86890000  0.16050000  1.0 0.1187197954
H  H52  1  0.29280000  0.41500000  0.36940000  1.0 0.1294223834
H  H53  1  0.15610000  0.47530000  0.26030000  1.0 0.1294223834
H  H54  1  0.17770000  0.30880000  0.16050000  1.0 0.1187197954
H  H55  1  0.58500000  0.70720000  0.63060000  1.0 0.1294223834
H  H56  1  0.52470000  0.84390000  0.73970000  1.0 0.1294223834
H  H57  1  0.69120000  0.82230000  0.83950000  1.0 0.1187197954
H  H58  1  0.29280000  0.87780000  0.63060000  1.0 0.1294223834
H  H59  1  0.15610000  0.68080000  0.73970000  1.0 0.1294223834
H  H60  1  0.17770000  0.86890000  0.83950000  1.0 0.1187197954
H  H61  1  0.12220000  0.41500000  0.63060000  1.0 0.1294223834
H  H62  1  0.31920000  0.47530000  0.73970000  1.0 0.1294223834
H  H63  1  0.13110000  0.30880000  0.83950000  1.0 0.1187197954
H  H64  1  0.41500000  0.29280000  0.63060000  1.0 0.1294223834
H  H65  1  0.47530000  0.15610000  0.73970000  1.0 0.1294223834
H  H66  1  0.30880000  0.17770000  0.83950000  1.0 0.1187197954
H  H67  1  0.70720000  0.12220000  0.63060000  1.0 0.1294223834
H  H68  1  0.84390000  0.31920000  0.73970000  1.0 0.1294223834
H  H69  1  0.82230000  0.13110000  0.83950000  1.0 0.1187197954
H  H70  1  0.87780000  0.58500000  0.63060000  1.0 0.1294223834
H  H71  1  0.68080000  0.52470000  0.73970000  1.0 0.1294223834
H  H72  1  0.86890000  0.69120000  0.83950000  1.0 0.1187197954
C  C1  1  0.26650000  0.82180000  0.73720000  1.0 -0.0396325484
C  C2  1  0.14890000  0.74080000  0.67350000  1.0 -0.1146017617
C  C3  1  0.11360000  0.75940000  0.73470000  1.0 0.0931326468
C  C4  1  0.15520000  0.80980000  0.79730000  1.0 -0.0695823512
C  C5  1  0.23130000  0.84080000  0.79890000  1.0 0.0065574027
C  C6  1  0.27730000  0.89620000  0.86290000  1.0 0.5445585041
C  C7  1  0.03300000  0.72790000  0.73620000  1.0 -0.18925581
C  C8  1  0.55530000  0.73350000  0.73720000  1.0 -0.0396325484
C  C9  1  0.59190000  0.85110000  0.67350000  1.0 -0.1146017617
C  C10  1  0.64580000  0.88640000  0.73470000  1.0 0.0931326468
C  C11  1  0.65460000  0.84480000  0.79730000  1.0 -0.0695823512
C  C12  1  0.60950000  0.76870000  0.79890000  1.0 0.0065574027
C  C13  1  0.61890000  0.72270000  0.86290000  1.0 0.5445585041
C  C14  1  0.69490000  0.96700000  0.73620000  1.0 -0.18925581
C  C15  1  0.17820000  0.44470000  0.73720000  1.0 -0.0396325484
C  C16  1  0.25920000  0.40810000  0.67350000  1.0 -0.1146017617
C  C17  1  0.24060000  0.35420000  0.73470000  1.0 0.0931326468
C  C18  1  0.19020000  0.34540000  0.79730000  1.0 -0.0695823512
C  C19  1  0.15920000  0.39050000  0.79890000  1.0 0.0065574027
C  C20  1  0.10380000  0.38110000  0.86290000  1.0 0.5445585041
C  C21  1  0.27210000  0.30510000  0.73620000  1.0 -0.18925581
C  C22  1  0.73350000  0.17820000  0.73720000  1.0 -0.0396325484
C  C23  1  0.85110000  0.25920000  0.67350000  1.0 -0.1146017617
C  C24  1  0.88640000  0.24060000  0.73470000  1.0 0.0931326468
C  C25  1  0.84480000  0.19020000  0.79730000  1.0 -0.0695823512
C  C26  1  0.76870000  0.15920000  0.79890000  1.0 0.0065574027
C  C27  1  0.72270000  0.10380000  0.86290000  1.0 0.5452945797
C  C28  1  0.96700000  0.27210000  0.73620000  1.0 -0.18925581
C  C29  1  0.44470000  0.26650000  0.73720000  1.0 -0.0396325484
C  C30  1  0.40810000  0.14890000  0.67350000  1.0 -0.1146017617
C  C31  1  0.35420000  0.11360000  0.73470000  1.0 0.0931326468
C  C32  1  0.34540000  0.15520000  0.79730000  1.0 -0.0695823512
C  C33  1  0.39050000  0.23130000  0.79890000  1.0 0.0065574027
C  C34  1  0.38110000  0.27730000  0.86290000  1.0 0.5452945797
C  C35  1  0.30510000  0.03300000  0.73620000  1.0 -0.18925581
C  C36  1  0.82180000  0.55530000  0.73720000  1.0 -0.0396325484
C  C37  1  0.74080000  0.59190000  0.67350000  1.0 -0.1146017617
C  C38  1  0.75940000  0.64580000  0.73470000  1.0 0.0931326468
C  C39  1  0.80980000  0.65460000  0.79730000  1.0 -0.0695823512
C  C40  1  0.84080000  0.60950000  0.79890000  1.0 0.0065574027
C  C41  1  0.89620000  0.61890000  0.86290000  1.0 0.5445585041
C  C42  1  0.72790000  0.69490000  0.73620000  1.0 -0.18925581
C  C43  1  0.44470000  0.17820000  0.26280000  1.0 -0.0396325484
C  C44  1  0.40810000  0.25920000  0.32650000  1.0 -0.1146017617
C  C45  1  0.35420000  0.24060000  0.26530000  1.0 0.0931326468
C  C46  1  0.34540000  0.19020000  0.20270000  1.0 -0.0695823512
C  C47  1  0.39050000  0.15920000  0.20110000  1.0 0.0065574027
C  C48  1  0.38110000  0.10380000  0.13710000  1.0 0.5445585041
C  C49  1  0.30510000  0.27210000  0.26380000  1.0 -0.18925581
C  C50  1  0.82180000  0.26650000  0.26280000  1.0 -0.0396325484
C  C51  1  0.74080000  0.14890000  0.32650000  1.0 -0.1146017617
C  C52  1  0.75940000  0.11360000  0.26530000  1.0 0.0931326468
C  C53  1  0.80980000  0.15520000  0.20270000  1.0 -0.0695823512
C  C54  1  0.84080000  0.23130000  0.20110000  1.0 0.0065574027
C  C55  1  0.89620000  0.27730000  0.13710000  1.0 0.5445585041
C  C56  1  0.72790000  0.03300000  0.26380000  1.0 -0.18925581
C  C57  1  0.73350000  0.55530000  0.26280000  1.0 -0.0396325484
C  C58  1  0.85110000  0.59190000  0.32650000  1.0 -0.1146017617
C  C59  1  0.88640000  0.64580000  0.26530000  1.0 0.0931326468
C  C60  1  0.84480000  0.65460000  0.20270000  1.0 -0.0695823512
C  C61  1  0.76870000  0.60950000  0.20110000  1.0 0.0065574027
C  C62  1  0.72270000  0.61890000  0.13710000  1.0 0.5445585041
C  C63  1  0.96700000  0.69490000  0.26380000  1.0 -0.18925581
C  C64  1  0.55530000  0.82180000  0.26280000  1.0 -0.0396325484
C  C65  1  0.59190000  0.74080000  0.32650000  1.0 -0.1146017617
C  C66  1  0.64580000  0.75940000  0.26530000  1.0 0.0931326468
C  C67  1  0.65460000  0.80980000  0.20270000  1.0 -0.0695823512
C  C68  1  0.60950000  0.84080000  0.20110000  1.0 0.0065574027
C  C69  1  0.61890000  0.89620000  0.13710000  1.0 0.5445585041
C  C70  1  0.69490000  0.72790000  0.26380000  1.0 -0.18925581
C  C71  1  0.17820000  0.73350000  0.26280000  1.0 -0.0396325484
C  C72  1  0.25920000  0.85110000  0.32650000  1.0 -0.1146017617
C  C73  1  0.24060000  0.88640000  0.26530000  1.0 0.0931326468
C  C74  1  0.19020000  0.84480000  0.20270000  1.0 -0.0695823512
C  C75  1  0.15920000  0.76870000  0.20110000  1.0 0.0065574027
C  C76  1  0.10380000  0.72270000  0.13710000  1.0 0.5445585041
C  C77  1  0.27210000  0.96700000  0.26380000  1.0 -0.18925581
C  C78  1  0.26650000  0.44470000  0.26280000  1.0 -0.0396325484
C  C79  1  0.14890000  0.40810000  0.32650000  1.0 -0.1146017617
C  C80  1  0.11360000  0.35420000  0.26530000  1.0 0.0931326468
C  C81  1  0.15520000  0.34540000  0.20270000  1.0 -0.0695823512
C  C82  1  0.23130000  0.39050000  0.20110000  1.0 0.0065574027
C  C83  1  0.27730000  0.38110000  0.13710000  1.0 0.5445585041
C  C84  1  0.03300000  0.30510000  0.26380000  1.0 -0.18925581
C  C85  1  0.73350000  0.17820000  0.26280000  1.0 -0.0396325484
C  C86  1  0.85110000  0.25920000  0.32650000  1.0 -0.1146017617
C  C87  1  0.88640000  0.24060000  0.26530000  1.0 0.0931326468
C  C88  1  0.84480000  0.19020000  0.20270000  1.0 -0.0695823512
C  C89  1  0.76870000  0.15920000  0.20110000  1.0 0.0065574027
C  C90  1  0.72270000  0.10380000  0.13710000  1.0 0.5445585041
C  C91  1  0.96700000  0.27210000  0.26380000  1.0 -0.18925581
C  C92  1  0.44470000  0.26650000  0.26280000  1.0 -0.0396325484
C  C93  1  0.40810000  0.14890000  0.32650000  1.0 -0.1146017617
C  C94  1  0.35420000  0.11360000  0.26530000  1.0 0.0931326468
C  C95  1  0.34540000  0.15520000  0.20270000  1.0 -0.0695823512
C  C96  1  0.39050000  0.23130000  0.20110000  1.0 0.0065574027
C  C97  1  0.38110000  0.27730000  0.13710000  1.0 0.5445585041
C  C98  1  0.30510000  0.03300000  0.26380000  1.0 -0.18925581
C  C99  1  0.82180000  0.55530000  0.26280000  1.0 -0.0396325484
C  C100  1  0.74080000  0.59190000  0.32650000  1.0 -0.1146017617
C  C101  1  0.75940000  0.64580000  0.26530000  1.0 0.0931326468
C  C102  1  0.80980000  0.65460000  0.20270000  1.0 -0.0695823512
C  C103  1  0.84080000  0.60950000  0.20110000  1.0 0.0065574027
C  C104  1  0.89620000  0.61890000  0.13710000  1.0 0.5445585041
C  C105  1  0.72790000  0.69490000  0.26380000  1.0 -0.18925581
C  C106  1  0.26650000  0.82180000  0.26280000  1.0 -0.0396325484
C  C107  1  0.14890000  0.74080000  0.32650000  1.0 -0.1146017617
C  C108  1  0.11360000  0.75940000  0.26530000  1.0 0.0931326468
C  C109  1  0.15520000  0.80980000  0.20270000  1.0 -0.0695823512
C  C110  1  0.23130000  0.84080000  0.20110000  1.0 0.0065574027
C  C111  1  0.27730000  0.89620000  0.13710000  1.0 0.5445585041
C  C112  1  0.03300000  0.72790000  0.26380000  1.0 -0.18925581
C  C113  1  0.55530000  0.73350000  0.26280000  1.0 -0.0396325484
C  C114  1  0.59190000  0.85110000  0.32650000  1.0 -0.1146017617
C  C115  1  0.64580000  0.88640000  0.26530000  1.0 0.0931326468
C  C116  1  0.65460000  0.84480000  0.20270000  1.0 -0.0695823512
C  C117  1  0.60950000  0.76870000  0.20110000  1.0 0.0065574027
C  C118  1  0.61890000  0.72270000  0.13710000  1.0 0.5445585041
C  C119  1  0.69490000  0.96700000  0.26380000  1.0 -0.18925581
C  C120  1  0.17820000  0.44470000  0.26280000  1.0 -0.0396325484
C  C121  1  0.25920000  0.40810000  0.32650000  1.0 -0.1146017617
C  C122  1  0.24060000  0.35420000  0.26530000  1.0 0.0931326468
C  C123  1  0.19020000  0.34540000  0.20270000  1.0 -0.0695823512
C  C124  1  0.15920000  0.39050000  0.20110000  1.0 0.0065574027
C  C125  1  0.10380000  0.38110000  0.13710000  1.0 0.5445585041
C  C126  1  0.27210000  0.30510000  0.26380000  1.0 -0.18925581
C  C127  1  0.55530000  0.82180000  0.73720000  1.0 -0.0396325484
C  C128  1  0.59190000  0.74080000  0.67350000  1.0 -0.1146017617
C  C129  1  0.64580000  0.75940000  0.73470000  1.0 0.0931326468
C  C130  1  0.65460000  0.80980000  0.79730000  1.0 -0.0695823512
C  C131  1  0.60950000  0.84080000  0.79890000  1.0 0.0065574027
C  C132  1  0.61890000  0.89620000  0.86290000  1.0 0.5445585041
C  C133  1  0.69490000  0.72790000  0.73620000  1.0 -0.18925581
C  C134  1  0.17820000  0.73350000  0.73720000  1.0 -0.0396325484
C  C135  1  0.25920000  0.85110000  0.67350000  1.0 -0.1146017617
C  C136  1  0.24060000  0.88640000  0.73470000  1.0 0.0931326468
C  C137  1  0.19020000  0.84480000  0.79730000  1.0 -0.0695823512
C  C138  1  0.15920000  0.76870000  0.79890000  1.0 0.0065574027
C  C139  1  0.10380000  0.72270000  0.86290000  1.0 0.5445585041
C  C140  1  0.27210000  0.96700000  0.73620000  1.0 -0.18925581
C  C141  1  0.26650000  0.44470000  0.73720000  1.0 -0.0396325484
C  C142  1  0.14890000  0.40810000  0.67350000  1.0 -0.1146017617
C  C143  1  0.11360000  0.35420000  0.73470000  1.0 0.0931326468
C  C144  1  0.15520000  0.34540000  0.79730000  1.0 -0.0695823512
C  C145  1  0.23130000  0.39050000  0.79890000  1.0 0.0065574027
C  C146  1  0.27730000  0.38110000  0.86290000  1.0 0.5445585041
C  C147  1  0.03300000  0.30510000  0.73620000  1.0 -0.18925581
C  C148  1  0.44470000  0.17820000  0.73720000  1.0 -0.0396325484
C  C149  1  0.40810000  0.25920000  0.67350000  1.0 -0.1146017617
C  C150  1  0.35420000  0.24060000  0.73470000  1.0 0.0931326468
C  C151  1  0.34540000  0.19020000  0.79730000  1.0 -0.0695823512
C  C152  1  0.39050000  0.15920000  0.79890000  1.0 0.0065574027
C  C153  1  0.38110000  0.10380000  0.86290000  1.0 0.5452945797
C  C154  1  0.30510000  0.27210000  0.73620000  1.0 -0.18925581
C  C155  1  0.82180000  0.26650000  0.73720000  1.0 -0.0396325484
C  C156  1  0.74080000  0.14890000  0.67350000  1.0 -0.1146017617
C  C157  1  0.75940000  0.11360000  0.73470000  1.0 0.0931326468
C  C158  1  0.80980000  0.15520000  0.79730000  1.0 -0.0695823512
C  C159  1  0.84080000  0.23130000  0.79890000  1.0 0.0065574027
C  C160  1  0.89620000  0.27730000  0.86290000  1.0 0.5452945797
C  C161  1  0.72790000  0.03300000  0.73620000  1.0 -0.18925581
C  C162  1  0.73350000  0.55530000  0.73720000  1.0 -0.0396325484
C  C163  1  0.85110000  0.59190000  0.67350000  1.0 -0.1146017617
C  C164  1  0.88640000  0.64580000  0.73470000  1.0 0.0931326468
C  C165  1  0.84480000  0.65460000  0.79730000  1.0 -0.0695823512
C  C166  1  0.76870000  0.60950000  0.79890000  1.0 0.0065574027
C  C167  1  0.72270000  0.61890000  0.86290000  1.0 0.5445585041
C  C168  1  0.96700000  0.69490000  0.73620000  1.0 -0.18925581
C  C169  1  0.22700000  0.77300000  0.67550000  1.0 0.0065574027
C  C170  1  0.25820000  0.74180000  0.61380000  1.0 0.5767242877
C  C171  1  0.54600000  0.77300000  0.67550000  1.0 0.0065574027
C  C172  1  0.48360000  0.74180000  0.61380000  1.0 0.5767242877
C  C173  1  0.22700000  0.45400000  0.67550000  1.0 0.0065574027
C  C174  1  0.25820000  0.51640000  0.61380000  1.0 0.5767242877
C  C175  1  0.77300000  0.22700000  0.67550000  1.0 0.0065574027
C  C176  1  0.74180000  0.25820000  0.61380000  1.0 0.5767242877
C  C177  1  0.45400000  0.22700000  0.67550000  1.0 0.0065574027
C  C178  1  0.51640000  0.25820000  0.61380000  1.0 0.5767242877
C  C179  1  0.77300000  0.54600000  0.67550000  1.0 0.0065574027
C  C180  1  0.74180000  0.48360000  0.61380000  1.0 0.5767242877
C  C181  1  0.45400000  0.22700000  0.32450000  1.0 0.0065574027
C  C182  1  0.51640000  0.25820000  0.38620000  1.0 0.5767242877
C  C183  1  0.77300000  0.22700000  0.32450000  1.0 0.0065574027
C  C184  1  0.74180000  0.25820000  0.38620000  1.0 0.5767242877
C  C185  1  0.77300000  0.54600000  0.32450000  1.0 0.0065574027
C  C186  1  0.74180000  0.48360000  0.38620000  1.0 0.5767242877
C  C187  1  0.54600000  0.77300000  0.32450000  1.0 0.004872576
C  C188  1  0.48360000  0.74180000  0.38620000  1.0 0.5767242877
C  C189  1  0.22700000  0.77300000  0.32450000  1.0 0.004872576
C  C190  1  0.25820000  0.74180000  0.38620000  1.0 0.5767242877
C  C191  1  0.22700000  0.45400000  0.32450000  1.0 0.0065574027
C  C192  1  0.25820000  0.51640000  0.38620000  1.0 0.5767242877
O  O1  1  0.32370000  0.78440000  0.59110000  1.0 -0.5188438744
O  O2  1  0.34430000  0.91620000  0.86250000  1.0 -0.4277327427
O  O3  1  0.24670000  0.92070000  0.90810000  1.0 -0.4457568937
O  O4  1  0.46070000  0.67630000  0.59110000  1.0 -0.5188438744
O  O5  1  0.57190000  0.65570000  0.86250000  1.0 -0.4277327427
O  O6  1  0.67400000  0.75330000  0.90810000  1.0 -0.4457568937
O  O7  1  0.21560000  0.53930000  0.59110000  1.0 -0.5188438744
O  O8  1  0.08380000  0.42810000  0.86250000  1.0 -0.4277327427
O  O9  1  0.07930000  0.32600000  0.90810000  1.0 -0.4457568937
O  O10  1  0.67630000  0.21560000  0.59110000  1.0 -0.5188438744
O  O11  1  0.65570000  0.08380000  0.86250000  1.0 -0.4277327427
O  O12  1  0.75330000  0.07930000  0.90810000  1.0 -0.4457568937
O  O13  1  0.53930000  0.32370000  0.59110000  1.0 -0.5188438744
O  O14  1  0.42810000  0.34430000  0.86250000  1.0 -0.4277327427
O  O15  1  0.32600000  0.24670000  0.90810000  1.0 -0.4457568937
O  O16  1  0.78440000  0.46070000  0.59110000  1.0 -0.5188438744
O  O17  1  0.91620000  0.57190000  0.86250000  1.0 -0.4277327427
O  O18  1  0.92070000  0.67400000  0.90810000  1.0 -0.4447375567
O  O19  1  0.53930000  0.21560000  0.40890000  1.0 -0.5188438744
O  O20  1  0.42810000  0.08380000  0.13750000  1.0 -0.4277327427
O  O21  1  0.32600000  0.07930000  0.09190000  1.0 -0.4457568937
O  O22  1  0.78440000  0.32370000  0.40890000  1.0 -0.5188438744
O  O23  1  0.91620000  0.34430000  0.13750000  1.0 -0.4277327427
O  O24  1  0.92070000  0.24670000  0.09190000  1.0 -0.4457568937
O  O25  1  0.67630000  0.46070000  0.40890000  1.0 -0.5188438744
O  O26  1  0.65570000  0.57190000  0.13750000  1.0 -0.4277327427
O  O27  1  0.75330000  0.67400000  0.09190000  1.0 -0.4457568937
O  O28  1  0.46070000  0.78440000  0.40890000  1.0 -0.5188438744
O  O29  1  0.57190000  0.91620000  0.13750000  1.0 -0.4277327427
O  O30  1  0.67400000  0.92070000  0.09190000  1.0 -0.4457568937
O  O31  1  0.21560000  0.67630000  0.40890000  1.0 -0.5188438744
O  O32  1  0.08380000  0.65570000  0.13750000  1.0 -0.4277327427
O  O33  1  0.07930000  0.75330000  0.09190000  1.0 -0.4457568937
O  O34  1  0.32370000  0.53930000  0.40890000  1.0 -0.5188438744
O  O35  1  0.34430000  0.42810000  0.13750000  1.0 -0.4277327427
O  O36  1  0.24670000  0.32600000  0.09190000  1.0 -0.4457568937
O  O37  1  0.67630000  0.21560000  0.40890000  1.0 -0.5188438744
O  O38  1  0.65570000  0.08380000  0.13750000  1.0 -0.4277327427
O  O39  1  0.75330000  0.07930000  0.09190000  1.0 -0.4457568937
O  O40  1  0.53930000  0.32370000  0.40890000  1.0 -0.5188438744
O  O41  1  0.42810000  0.34430000  0.13750000  1.0 -0.4277327427
O  O42  1  0.32600000  0.24670000  0.09190000  1.0 -0.4457568937
O  O43  1  0.78440000  0.46070000  0.40890000  1.0 -0.5188438744
O  O44  1  0.91620000  0.57190000  0.13750000  1.0 -0.4277327427
O  O45  1  0.92070000  0.67400000  0.09190000  1.0 -0.4457568937
O  O46  1  0.32370000  0.78440000  0.40890000  1.0 -0.5188438744
O  O47  1  0.34430000  0.91620000  0.13750000  1.0 -0.4277327427
O  O48  1  0.24670000  0.92070000  0.09190000  1.0 -0.4457568937
O  O49  1  0.46070000  0.67630000  0.40890000  1.0 -0.5188438744
O  O50  1  0.57190000  0.65570000  0.13750000  1.0 -0.4277327427
O  O51  1  0.67400000  0.75330000  0.09190000  1.0 -0.4457568937
O  O52  1  0.21560000  0.53930000  0.40890000  1.0 -0.5188438744
O  O53  1  0.08380000  0.42810000  0.13750000  1.0 -0.4277327427
O  O54  1  0.07930000  0.32600000  0.09190000  1.0 -0.4457568937
O  O55  1  0.46070000  0.78440000  0.59110000  1.0 -0.5188438744
O  O56  1  0.57190000  0.91620000  0.86250000  1.0 -0.4277327427
O  O57  1  0.67400000  0.92070000  0.90810000  1.0 -0.4457568937
O  O58  1  0.21560000  0.67630000  0.59110000  1.0 -0.5188438744
O  O59  1  0.08380000  0.65570000  0.86250000  1.0 -0.4277327427
O  O60  1  0.07930000  0.75330000  0.90810000  1.0 -0.4457568937
O  O61  1  0.32370000  0.53930000  0.59110000  1.0 -0.5188438744
O  O62  1  0.34430000  0.42810000  0.86250000  1.0 -0.4277327427
O  O63  1  0.24670000  0.32600000  0.90810000  1.0 -0.4457568937
O  O64  1  0.53930000  0.21560000  0.59110000  1.0 -0.5188438744
O  O65  1  0.42810000  0.08380000  0.86250000  1.0 -0.4277327427
O  O66  1  0.32600000  0.07930000  0.90810000  1.0 -0.4457568937
O  O67  1  0.78440000  0.32370000  0.59110000  1.0 -0.5188438744
O  O68  1  0.91620000  0.34430000  0.86250000  1.0 -0.4277327427
O  O69  1  0.92070000  0.24670000  0.90810000  1.0 -0.4457568937
O  O70  1  0.67630000  0.46070000  0.59110000  1.0 -0.5188438744
O  O71  1  0.65570000  0.57190000  0.86250000  1.0 -0.4277327427
O  O72  1  0.75330000  0.67400000  0.90810000  1.0 -0.4447375567
O  O73  1  0.38870000  0.00000000  0.00000000  1.0 -0.653864506
O  O74  1  0.61130000  0.61130000  0.00000000  1.0 -0.653864506
O  O75  1  0.00000000  0.38870000  0.00000000  1.0 -0.653864506
O  O76  1  0.61130000  0.00000000  0.00000000  1.0 -0.653864506
O  O77  1  0.38870000  0.38870000  0.00000000  1.0 -0.653864506
O  O78  1  0.00000000  0.61130000  0.00000000  1.0 -0.653864506
O  O79  1  0.33333333  0.66666667  0.50000000  1.0 -0.9199750454
O  O80  1  0.66666667  0.33333333  0.50000000  1.0 -0.9199750454
O  O81  1  0.50000000  0.00000000  0.80600000  1.0 -0.5188438744
O  O82  1  0.50000000  0.50000000  0.80600000  1.0 -0.5188438744
O  O83  1  0.00000000  0.50000000  0.80600000  1.0 -0.5188438744
O  O84  1  0.50000000  0.00000000  0.19400000  1.0 -0.5188438744
O  O85  1  0.00000000  0.50000000  0.19400000  1.0 -0.5188438744
O  O86  1  0.50000000  0.50000000  0.19400000  1.0 -0.5188438744
O  O87  1  0.50000000  0.00000000  0.00000000  1.0 -0.8190602691
O  O88  1  0.50000000  0.50000000  0.00000000  1.0 -0.813522342
O  O89  1  0.00000000  0.50000000  0.00000000  1.0 -0.813522342
