# DDEC6 charges by PACMAN v1.1 (https://github.com/mtap-research/PACMAN-charge/)
data_HEGCEB_FSR_pacman
_symmetry_space_group_name_H-M   'P 1'
_cell_length_a   7.71130000
_cell_length_b   11.86800000
_cell_length_c   13.03000000
_cell_angle_alpha   91.58400000
_cell_angle_beta   105.95600000
_cell_angle_gamma   94.95100000
_symmetry_Int_Tables_number   1
_chemical_formula_structural   CdNiH12(CN)7
_chemical_formula_sum   'Cd2 Ni2 H24 C14 N14'
_cell_volume   1140.61188152
_cell_formula_units_Z   2
loop_
 _symmetry_equiv_pos_site_id
 _symmetry_equiv_pos_as_xyz
  1  'x, y, z'
loop_
 _atom_site_type_symbol
 _atom_site_label
 _atom_site_symmetry_multiplicity
 _atom_site_fract_x
 _atom_site_fract_y
 _atom_site_fract_z
 _atom_site_occupancy
 _atom_site_charge
Cd  Cd1  1  0.11275000  0.24562000  0.19412000  1.0 0.8542204689
Cd  Cd2  1  0.88725000  0.75438000  0.80588000  1.0 0.8559676599
Ni  Ni1  1  0.50000000  0.00000000  0.00000000  1.0 0.0974163156
Ni  Ni2  1  0.00000000  0.50000000  0.50000000  1.0 0.1254015606
H  H1  1  0.26347000  0.05252000  0.29329000  1.0 0.2897259708
H  H2  1  0.73653000  0.94748000  0.70671000  1.0 0.2897259708
H  H3  1  0.13330000  0.09641000  0.36291000  1.0 0.2897259708
H  H4  1  0.86670000  0.90359000  0.63709000  1.0 0.2897259708
H  H5  1  0.48070000  0.11952000  0.44306000  1.0 0.0599068202
H  H6  1  0.51930000  0.88048000  0.55694000  1.0 0.0599068202
H  H7  1  0.34335000  0.22691000  0.46635000  1.0 0.0974163156
H  H8  1  0.65665000  0.77309000  0.53365000  1.0 0.0974163156
H  H9  1  0.56896000  0.21766000  0.31684000  1.0 0.0801691566
H  H10  1  0.43104000  0.78234000  0.68316000  1.0 0.0801691566
H  H11  1  0.58903000  0.31469000  0.42870000  1.0 0.0869577717
H  H12  1  0.41097000  0.68531000  0.57130000  1.0 0.0869577717
H  H13  1  0.37135000  0.40556000  0.33503000  1.0 0.2897259708
H  H14  1  0.62865000  0.59444000  0.66497000  1.0 0.2897259708
H  H15  1  0.46224000  0.36727000  0.24178000  1.0 0.2822225731
H  H16  1  0.53776000  0.63273000  0.75822000  1.0 0.2822225731
H  H17  1  0.88809000  0.32700000  0.01191000  1.0 0.2822225731
H  H18  1  0.11191000  0.67300000  0.98809000  1.0 0.2897259708
H  H19  1  0.08902000  0.32709000  0.99327000  1.0 0.2822225731
H  H20  1  0.91098000  0.67291000  0.00673000  1.0 0.2897259708
H  H21  1  0.97410000  0.50267000  0.11132000  1.0 0.0801691566
H  H22  1  0.02590000  0.49733000  0.88868000  1.0 0.0801691566
H  H23  1  0.18623000  0.50299000  0.07918000  1.0 0.0674114566
H  H24  1  0.81377000  0.49701000  0.92082000  1.0 0.0674114566
C  C1  1  0.36140000  0.09360000  0.05570000  1.0 0.0511272367
C  C2  1  0.63860000  0.90640000  0.94430000  1.0 0.0511272367
C  C3  1  0.71150000  0.08180000  0.08090000  1.0 0.0599068202
C  C4  1  0.28850000  0.91820000  0.91910000  1.0 0.0599068202
C  C5  1  0.98850000  0.41210000  0.37660000  1.0 0.0674114566
C  C6  1  0.01150000  0.58790000  0.62340000  1.0 0.0674114566
C  C7  1  0.22980000  0.45460000  0.56280000  1.0 -0.028135812
C  C8  1  0.77020000  0.54540000  0.43720000  1.0 -0.028135812
C  C9  1  0.39060000  0.18270000  0.40530000  1.0 -0.0192629002
C  C10  1  0.60940000  0.81730000  0.59470000  1.0 -0.0192629002
C  C11  1  0.49320000  0.26400000  0.36170000  1.0 0.0004053976
C  C12  1  0.50680000  0.73600000  0.63830000  1.0 0.0004053976
C  C13  1  0.04080000  0.47400000  0.05210000  1.0 -0.028135812
C  C14  1  0.95920000  0.52600000  0.94790000  1.0 -0.028135812
N  N1  1  0.27510000  0.14840000  0.09020000  1.0 -0.3984793413
N  N2  1  0.72490000  0.85160000  0.90980000  1.0 -0.3984793413
N  N3  1  0.84310000  0.13240000  0.12710000  1.0 -0.3984793413
N  N4  1  0.15690000  0.86760000  0.87290000  1.0 -0.3984793413
N  N5  1  0.98790000  0.35890000  0.30310000  1.0 -0.3940529633
N  N6  1  0.01210000  0.64110000  0.69690000  1.0 -0.3984793413
N  N7  1  0.36570000  0.42420000  0.60070000  1.0 -0.3656230379
N  N8  1  0.63430000  0.57580000  0.39930000  1.0 -0.3656230379
N  N9  1  0.22730000  0.12060000  0.32620000  1.0 -0.5630255748
N  N10  1  0.77270000  0.87940000  0.67380000  1.0 -0.5630255748
N  N11  1  0.39270000  0.33970000  0.29210000  1.0 -0.5543637086
N  N12  1  0.60730000  0.66030000  0.70790000  1.0 -0.5543637086
N  N13  1  0.02020000  0.35030000  0.04390000  1.0 -0.5889619399
N  N14  1  0.97980000  0.64970000  0.95610000  1.0 -0.5889619399
