# DDEC6 charges by PACMAN v1.1 (https://github.com/mtap-research/PACMAN-charge/)
data_HEGNAJ_ASR_pacman
_symmetry_space_group_name_H-M   'P 1'
_cell_length_a   14.42610000
_cell_length_b   14.42610000
_cell_length_c   14.42610000
_cell_angle_alpha   110.75000000
_cell_angle_beta   110.75000000
_cell_angle_gamma   110.75000000
_symmetry_Int_Tables_number   1
_chemical_formula_structural   Ga2P2H13C4N3O8
_chemical_formula_sum   'Ga12 P12 H78 C24 N18 O48'
_cell_volume   2194.91117474
_cell_formula_units_Z   6
loop_
 _symmetry_equiv_pos_site_id
 _symmetry_equiv_pos_as_xyz
  1  'x, y, z'
loop_
 _atom_site_type_symbol
 _atom_site_label
 _atom_site_symmetry_multiplicity
 _atom_site_fract_x
 _atom_site_fract_y
 _atom_site_fract_z
 _atom_site_occupancy
 _atom_site_charge
Ga  Ga1  1  0.85262000  0.48037000  0.02695000  1.0 1.3204502277
Ga  Ga2  1  0.48037000  0.02695000  0.85262000  1.0 1.3204502277
Ga  Ga3  1  0.02695000  0.85262000  0.48037000  1.0 1.3204502277
Ga  Ga4  1  0.14738000  0.51963000  0.97305000  1.0 1.3204502277
Ga  Ga5  1  0.51963000  0.97305000  0.14738000  1.0 1.3204502277
Ga  Ga6  1  0.97305000  0.14738000  0.51963000  1.0 1.3320084028
Ga  Ga7  1  0.80838000  0.26523000  0.67265000  1.0 1.2798151188
Ga  Ga8  1  0.26523000  0.67265000  0.80838000  1.0 1.2798151188
Ga  Ga9  1  0.67265000  0.80838000  0.26523000  1.0 1.2798151188
Ga  Ga10  1  0.19162000  0.73477000  0.32735000  1.0 1.2798151188
Ga  Ga11  1  0.73477000  0.32735000  0.19162000  1.0 1.2798151188
Ga  Ga12  1  0.32735000  0.19162000  0.73477000  1.0 1.2798151188
P  P1  1  0.93692000  0.53825000  0.88330000  1.0 1.5019805444
P  P2  1  0.53825000  0.88330000  0.93692000  1.0 1.5019805444
P  P3  1  0.88330000  0.93692000  0.53825000  1.0 1.5019805444
P  P4  1  0.06308000  0.46175000  0.11670000  1.0 1.5019805444
P  P5  1  0.46175000  0.11670000  0.06308000  1.0 1.5019805444
P  P6  1  0.11670000  0.06308000  0.46175000  1.0 1.5019805444
P  P7  1  0.93727000  0.60393000  0.29016000  1.0 1.5019805444
P  P8  1  0.60393000  0.29016000  0.93727000  1.0 1.5019805444
P  P9  1  0.29016000  0.93727000  0.60393000  1.0 1.5019805444
P  P10  1  0.06273000  0.39607000  0.70984000  1.0 1.5019805444
P  P11  1  0.39607000  0.70984000  0.06273000  1.0 1.5019805444
P  P12  1  0.70984000  0.06273000  0.39607000  1.0 1.5019805444
H  H1  1  0.66960000  0.27580000  0.51520000  1.0 0.2902239375
H  H2  1  0.27580000  0.51520000  0.66960000  1.0 0.2902239375
H  H3  1  0.51520000  0.66960000  0.27580000  1.0 0.2902239375
H  H4  1  0.33040000  0.72420000  0.48480000  1.0 0.2902239375
H  H5  1  0.72420000  0.48480000  0.33040000  1.0 0.2902239375
H  H6  1  0.48480000  0.33040000  0.72420000  1.0 0.2902239375
H  H7  1  0.74080000  0.39310000  0.62790000  1.0 0.3024510257
H  H8  1  0.39310000  0.62790000  0.74080000  1.0 0.3024510257
H  H9  1  0.62790000  0.74080000  0.39310000  1.0 0.3024510257
H  H10  1  0.25920000  0.60690000  0.37210000  1.0 0.3024510257
H  H11  1  0.60690000  0.37210000  0.25920000  1.0 0.3024510257
H  H12  1  0.37210000  0.25920000  0.60690000  1.0 0.3024510257
H  H13  1  0.69190000  0.22190000  0.76790000  1.0 0.2550509684
H  H14  1  0.22190000  0.76790000  0.69190000  1.0 0.2550509684
H  H15  1  0.76790000  0.69190000  0.22190000  1.0 0.2550509684
H  H16  1  0.30810000  0.77810000  0.23210000  1.0 0.2550509684
H  H17  1  0.77810000  0.23210000  0.30810000  1.0 0.2550509684
H  H18  1  0.23210000  0.30810000  0.77810000  1.0 0.2550509684
H  H19  1  0.89100000  0.15160000  0.70600000  1.0 0.2756064149
H  H20  1  0.15160000  0.70600000  0.89100000  1.0 0.2756064149
H  H21  1  0.70600000  0.89100000  0.15160000  1.0 0.2756064149
H  H22  1  0.10900000  0.84840000  0.29400000  1.0 0.2756064149
H  H23  1  0.84840000  0.29400000  0.10900000  1.0 0.2756064149
H  H24  1  0.29400000  0.10900000  0.84840000  1.0 0.2756064149
H  H25  1  0.95010000  0.24210000  0.82310000  1.0 0.273610618
H  H26  1  0.24210000  0.82310000  0.95010000  1.0 0.273610618
H  H27  1  0.82310000  0.95010000  0.24210000  1.0 0.273610618
H  H28  1  0.04990000  0.75790000  0.17690000  1.0 0.273610618
H  H29  1  0.75790000  0.17690000  0.04990000  1.0 0.273610618
H  H30  1  0.17690000  0.04990000  0.75790000  1.0 0.273610618
H  H31  1  0.62970000  0.34200000  0.69560000  1.0 0.1202996667
H  H32  1  0.34200000  0.69560000  0.62970000  1.0 0.1202996667
H  H33  1  0.69560000  0.62970000  0.34200000  1.0 0.1202996667
H  H34  1  0.37030000  0.65800000  0.30440000  1.0 0.1202996667
H  H35  1  0.65800000  0.30440000  0.37030000  1.0 0.1202996667
H  H36  1  0.30440000  0.37030000  0.65800000  1.0 0.1202996667
H  H37  1  0.54180000  0.27180000  0.54980000  1.0 0.1202996667
H  H38  1  0.27180000  0.54980000  0.54180000  1.0 0.1202996667
H  H39  1  0.54980000  0.54180000  0.27180000  1.0 0.1202996667
H  H40  1  0.45820000  0.72820000  0.45020000  1.0 0.1202996667
H  H41  1  0.72820000  0.45020000  0.45820000  1.0 0.1202996667
H  H42  1  0.45020000  0.45820000  0.72820000  1.0 0.1202996667
H  H43  1  0.53910000  0.10200000  0.52970000  1.0 0.1202996667
H  H44  1  0.10200000  0.52970000  0.53910000  1.0 0.1202996667
H  H45  1  0.52970000  0.53910000  0.10200000  1.0 0.1202996667
H  H46  1  0.46090000  0.89800000  0.47030000  1.0 0.1202996667
H  H47  1  0.89800000  0.47030000  0.46090000  1.0 0.1202996667
H  H48  1  0.47030000  0.46090000  0.89800000  1.0 0.1202996667
H  H49  1  0.49380000  0.13600000  0.60850000  1.0 0.1278785343
H  H50  1  0.13600000  0.60850000  0.49380000  1.0 0.1278785343
H  H51  1  0.60850000  0.49380000  0.13600000  1.0 0.1278785343
H  H52  1  0.50620000  0.86400000  0.39150000  1.0 0.1278785343
H  H53  1  0.86400000  0.39150000  0.50620000  1.0 0.1278785343
H  H54  1  0.39150000  0.50620000  0.86400000  1.0 0.1278785343
H  H55  1  0.65750000  0.01890000  0.61650000  1.0 0.1113742503
H  H56  1  0.01890000  0.61650000  0.65750000  1.0 0.1113742503
H  H57  1  0.61650000  0.65750000  0.01890000  1.0 0.1113742503
H  H58  1  0.34250000  0.98110000  0.38350000  1.0 0.1113742503
H  H59  1  0.98110000  0.38350000  0.34250000  1.0 0.1113742503
H  H60  1  0.38350000  0.34250000  0.98110000  1.0 0.1113742503
H  H61  1  0.61770000  0.05370000  0.71540000  1.0 0.1278785343
H  H62  1  0.05370000  0.71540000  0.61770000  1.0 0.1278785343
H  H63  1  0.71540000  0.61770000  0.05370000  1.0 0.1278785343
H  H64  1  0.38230000  0.94630000  0.28460000  1.0 0.1278785343
H  H65  1  0.94630000  0.28460000  0.38230000  1.0 0.1278785343
H  H66  1  0.28460000  0.38230000  0.94630000  1.0 0.1278785343
H  H67  1  0.80100000  0.05450000  0.76680000  1.0 0.1278785343
H  H68  1  0.05450000  0.76680000  0.80100000  1.0 0.1278785343
H  H69  1  0.76680000  0.80100000  0.05450000  1.0 0.1278785343
H  H70  1  0.19900000  0.94550000  0.23320000  1.0 0.1278785343
H  H71  1  0.94550000  0.23320000  0.19900000  1.0 0.1278785343
H  H72  1  0.23320000  0.19900000  0.94550000  1.0 0.1278785343
H  H73  1  0.83100000  0.18980000  0.86460000  1.0 0.1278785343
H  H74  1  0.18980000  0.86460000  0.83100000  1.0 0.1278785343
H  H75  1  0.86460000  0.83100000  0.18980000  1.0 0.1278785343
H  H76  1  0.16900000  0.81020000  0.13540000  1.0 0.1278785343
H  H77  1  0.81020000  0.13540000  0.16900000  1.0 0.1278785343
H  H78  1  0.13540000  0.16900000  0.81020000  1.0 0.1278785343
C  C1  1  0.60130000  0.27770000  0.61220000  1.0 -0.052911159
C  C2  1  0.27770000  0.61220000  0.60130000  1.0 -0.052911159
C  C3  1  0.61220000  0.60130000  0.27770000  1.0 -0.052911159
C  C4  1  0.39870000  0.72230000  0.38780000  1.0 -0.052911159
C  C5  1  0.72230000  0.38780000  0.39870000  1.0 -0.052911159
C  C6  1  0.38780000  0.39870000  0.72230000  1.0 -0.052911159
C  C7  1  0.56780000  0.16480000  0.60680000  1.0 -0.1177618988
C  C8  1  0.16480000  0.60680000  0.56780000  1.0 -0.1177618988
C  C9  1  0.60680000  0.56780000  0.16480000  1.0 -0.1177618988
C  C10  1  0.43220000  0.83520000  0.39320000  1.0 -0.1177618988
C  C11  1  0.83520000  0.39320000  0.43220000  1.0 -0.1177618988
C  C12  1  0.39320000  0.43220000  0.83520000  1.0 -0.1177618988
C  C13  1  0.67440000  0.08170000  0.69460000  1.0 -0.1177618988
C  C14  1  0.08170000  0.69460000  0.67440000  1.0 -0.1177618988
C  C15  1  0.69460000  0.67440000  0.08170000  1.0 -0.1177618988
C  C16  1  0.32560000  0.91830000  0.30540000  1.0 -0.1177618988
C  C17  1  0.91830000  0.30540000  0.32560000  1.0 -0.1177618988
C  C18  1  0.30540000  0.32560000  0.91830000  1.0 -0.1177618988
C  C19  1  0.80100000  0.12740000  0.78270000  1.0 -0.052911159
C  C20  1  0.12740000  0.78270000  0.80100000  1.0 -0.052911159
C  C21  1  0.78270000  0.80100000  0.12740000  1.0 -0.052911159
C  C22  1  0.19900000  0.87260000  0.21730000  1.0 -0.052911159
C  C23  1  0.87260000  0.21730000  0.19900000  1.0 -0.052911159
C  C24  1  0.21730000  0.19900000  0.87260000  1.0 -0.052911159
N  N1  1  0.70041000  0.31370000  0.59379000  1.0 -0.5191014595
N  N2  1  0.31370000  0.59379000  0.70041000  1.0 -0.5191014595
N  N3  1  0.59379000  0.70041000  0.31370000  1.0 -0.5191014595
N  N4  1  0.29959000  0.68630000  0.40621000  1.0 -0.5191014595
N  N5  1  0.68630000  0.40621000  0.29959000  1.0 -0.5191014595
N  N6  1  0.40621000  0.29959000  0.68630000  1.0 -0.5191014595
N  N7  1  0.67506000  0.18370000  0.69454000  1.0 -0.3089132197
N  N8  1  0.18370000  0.69454000  0.67506000  1.0 -0.3089132197
N  N9  1  0.69454000  0.67506000  0.18370000  1.0 -0.3089132197
N  N10  1  0.32494000  0.81630000  0.30546000  1.0 -0.3089132197
N  N11  1  0.81630000  0.30546000  0.32494000  1.0 -0.3089132197
N  N12  1  0.30546000  0.32494000  0.81630000  1.0 -0.3089132197
N  N13  1  0.87904000  0.19212000  0.75274000  1.0 -0.512221653
N  N14  1  0.19212000  0.75274000  0.87904000  1.0 -0.512221653
N  N15  1  0.75274000  0.87904000  0.19212000  1.0 -0.512221653
N  N16  1  0.12096000  0.80788000  0.24726000  1.0 -0.512221653
N  N17  1  0.80788000  0.24726000  0.12096000  1.0 -0.512221653
N  N18  1  0.24726000  0.12096000  0.80788000  1.0 -0.512221653
O  O1  1  0.88039000  0.40459000  0.82722000  1.0 -0.8250671215
O  O2  1  0.40459000  0.82722000  0.88039000  1.0 -0.8250671215
O  O3  1  0.82722000  0.88039000  0.40459000  1.0 -0.8250671215
O  O4  1  0.11961000  0.59541000  0.17278000  1.0 -0.8250671215
O  O5  1  0.59541000  0.17278000  0.11961000  1.0 -0.8250671215
O  O6  1  0.17278000  0.11961000  0.59541000  1.0 -0.8250671215
O  O7  1  0.90984000  0.57874000  0.98062000  1.0 -0.7744824306
O  O8  1  0.57874000  0.98062000  0.90984000  1.0 -0.7744824306
O  O9  1  0.98062000  0.90984000  0.57874000  1.0 -0.7744824306
O  O10  1  0.09016000  0.42126000  0.01938000  1.0 -0.7744824306
O  O11  1  0.42126000  0.01938000  0.09016000  1.0 -0.7744824306
O  O12  1  0.01938000  0.09016000  0.42126000  1.0 -0.7744824306
O  O13  1  0.07446000  0.59800000  0.94704000  1.0 -0.7795339027
O  O14  1  0.59800000  0.94704000  0.07446000  1.0 -0.7795339027
O  O15  1  0.94704000  0.07446000  0.59800000  1.0 -0.7795339027
O  O16  1  0.92554000  0.40200000  0.05296000  1.0 -0.7744824306
O  O17  1  0.40200000  0.05296000  0.92554000  1.0 -0.7795339027
O  O18  1  0.05296000  0.92554000  0.40200000  1.0 -0.7795339027
O  O19  1  0.89485000  0.57344000  0.79961000  1.0 -0.7795339027
O  O20  1  0.57344000  0.79961000  0.89485000  1.0 -0.7795339027
O  O21  1  0.79961000  0.89485000  0.57344000  1.0 -0.7795339027
O  O22  1  0.10515000  0.42656000  0.20039000  1.0 -0.7795339027
O  O23  1  0.42656000  0.20039000  0.10515000  1.0 -0.7795339027
O  O24  1  0.20039000  0.10515000  0.42656000  1.0 -0.7795339027
O  O25  1  0.88079000  0.58691000  0.16710000  1.0 -0.7795339027
O  O26  1  0.58691000  0.16710000  0.88079000  1.0 -0.7795339027
O  O27  1  0.16710000  0.88079000  0.58691000  1.0 -0.7795339027
O  O28  1  0.11921000  0.41309000  0.83290000  1.0 -0.7795339027
O  O29  1  0.41309000  0.83290000  0.11921000  1.0 -0.7795339027
O  O30  1  0.83290000  0.11921000  0.41309000  1.0 -0.7795339027
O  O31  1  0.91658000  0.69205000  0.36637000  1.0 -0.7893304514
O  O32  1  0.69205000  0.36637000  0.91658000  1.0 -0.7893304514
O  O33  1  0.36637000  0.91658000  0.69205000  1.0 -0.7893304514
O  O34  1  0.08342000  0.30795000  0.63363000  1.0 -0.7893304514
O  O35  1  0.30795000  0.63363000  0.08342000  1.0 -0.7893304514
O  O36  1  0.63363000  0.08342000  0.30795000  1.0 -0.7893304514
O  O37  1  0.88094000  0.48882000  0.28214000  1.0 -0.7893304514
O  O38  1  0.48882000  0.28214000  0.88094000  1.0 -0.7893304514
O  O39  1  0.28214000  0.88094000  0.48882000  1.0 -0.7893304514
O  O40  1  0.11906000  0.51118000  0.71786000  1.0 -0.7893304514
O  O41  1  0.51118000  0.71786000  0.11906000  1.0 -0.7893304514
O  O42  1  0.71786000  0.11906000  0.51118000  1.0 -0.7893304514
O  O43  1  0.07033000  0.66027000  0.34940000  1.0 -0.7893304514
O  O44  1  0.66027000  0.34940000  0.07033000  1.0 -0.7893304514
O  O45  1  0.34940000  0.07033000  0.66027000  1.0 -0.7893304514
O  O46  1  0.92967000  0.33973000  0.65060000  1.0 -0.7893304514
O  O47  1  0.33973000  0.65060000  0.92967000  1.0 -0.7893304514
O  O48  1  0.65060000  0.92967000  0.33973000  1.0 -0.7893304514
