# DDEC6 charges by PACMAN v1.1 (https://github.com/mtap-research/PACMAN-charge/)
data_HEGNEN_FSR_pacman
_symmetry_space_group_name_H-M   'P 1'
_cell_length_a   14.40680000
_cell_length_b   14.40680000
_cell_length_c   14.40680000
_cell_angle_alpha   110.65300000
_cell_angle_beta   110.65300000
_cell_angle_gamma   110.65300000
_symmetry_Int_Tables_number   1
_chemical_formula_structural   Ga2P2H12C4N3O8
_chemical_formula_sum   'Ga12 P12 H72 C24 N18 O48'
_cell_volume   2195.39129277
_cell_formula_units_Z   6
loop_
 _symmetry_equiv_pos_site_id
 _symmetry_equiv_pos_as_xyz
  1  'x, y, z'
loop_
 _atom_site_type_symbol
 _atom_site_label
 _atom_site_symmetry_multiplicity
 _atom_site_fract_x
 _atom_site_fract_y
 _atom_site_fract_z
 _atom_site_occupancy
 _atom_site_charge
Ga  Ga1  1  0.85078000  0.48016000  0.02585000  1.0 1.3689111793
Ga  Ga2  1  0.48016000  0.02585000  0.85078000  1.0 1.3578186118
Ga  Ga3  1  0.02585000  0.85078000  0.48016000  1.0 1.3578186118
Ga  Ga4  1  0.14922000  0.51984000  0.97415000  1.0 1.3578186118
Ga  Ga5  1  0.51984000  0.97415000  0.14922000  1.0 1.3578186118
Ga  Ga6  1  0.97415000  0.14922000  0.51984000  1.0 1.3578186118
Ga  Ga7  1  0.81041000  0.26658000  0.67305000  1.0 1.3032432719
Ga  Ga8  1  0.26658000  0.67305000  0.81041000  1.0 1.3032432719
Ga  Ga9  1  0.67305000  0.81041000  0.26658000  1.0 1.3032432719
Ga  Ga10  1  0.18959000  0.73342000  0.32695000  1.0 1.3032432719
Ga  Ga11  1  0.73342000  0.32695000  0.18959000  1.0 1.3032432719
Ga  Ga12  1  0.32695000  0.18959000  0.73342000  1.0 1.3032432719
P  P1  1  0.93823000  0.54000000  0.88369000  1.0 1.5130701585
P  P2  1  0.54000000  0.88369000  0.93823000  1.0 1.5130701585
P  P3  1  0.88369000  0.93823000  0.54000000  1.0 1.5130701585
P  P4  1  0.06177000  0.46000000  0.11631000  1.0 1.5130701585
P  P5  1  0.46000000  0.11631000  0.06177000  1.0 1.5130701585
P  P6  1  0.11631000  0.06177000  0.46000000  1.0 1.5130701585
P  P7  1  0.93558000  0.60299000  0.28937000  1.0 1.5477483594
P  P8  1  0.60299000  0.28937000  0.93558000  1.0 1.5477483594
P  P9  1  0.28937000  0.93558000  0.60299000  1.0 1.5477483594
P  P10  1  0.06442000  0.39701000  0.71063000  1.0 1.5477483594
P  P11  1  0.39701000  0.71063000  0.06442000  1.0 1.5477483594
P  P12  1  0.71063000  0.06442000  0.39701000  1.0 1.5477483594
H  H1  1  0.73550000  0.39660000  0.62910000  1.0 0.3142639422
H  H2  1  0.39660000  0.62910000  0.73550000  1.0 0.3142639422
H  H3  1  0.62910000  0.73550000  0.39660000  1.0 0.3142639422
H  H4  1  0.26450000  0.60340000  0.37090000  1.0 0.3142639422
H  H5  1  0.60340000  0.37090000  0.26450000  1.0 0.3142639422
H  H6  1  0.37090000  0.26450000  0.60340000  1.0 0.3142639422
H  H7  1  0.67980000  0.28260000  0.51260000  1.0 0.301169815
H  H8  1  0.28260000  0.51260000  0.67980000  1.0 0.301169815
H  H9  1  0.51260000  0.67980000  0.28260000  1.0 0.301169815
H  H10  1  0.32020000  0.71740000  0.48740000  1.0 0.301169815
H  H11  1  0.71740000  0.48740000  0.32020000  1.0 0.301169815
H  H12  1  0.48740000  0.32020000  0.71740000  1.0 0.301169815
H  H13  1  0.89070000  0.13410000  0.70340000  1.0 0.3172251307
H  H14  1  0.13410000  0.70340000  0.89070000  1.0 0.3172251307
H  H15  1  0.70340000  0.89070000  0.13410000  1.0 0.3172251307
H  H16  1  0.10930000  0.86590000  0.29660000  1.0 0.3172251307
H  H17  1  0.86590000  0.29660000  0.10930000  1.0 0.3172251307
H  H18  1  0.29660000  0.10930000  0.86590000  1.0 0.3172251307
H  H19  1  0.94850000  0.26290000  0.83120000  1.0 0.3172251307
H  H20  1  0.26290000  0.83120000  0.94850000  1.0 0.3172251307
H  H21  1  0.83120000  0.94850000  0.26290000  1.0 0.3172251307
H  H22  1  0.05150000  0.73710000  0.16880000  1.0 0.3172251307
H  H23  1  0.73710000  0.16880000  0.05150000  1.0 0.3172251307
H  H24  1  0.16880000  0.05150000  0.73710000  1.0 0.3172251307
H  H25  1  0.63940000  0.34470000  0.69640000  1.0 0.1223370307
H  H26  1  0.34470000  0.69640000  0.63940000  1.0 0.1223370307
H  H27  1  0.69640000  0.63940000  0.34470000  1.0 0.1223370307
H  H28  1  0.36060000  0.65530000  0.30360000  1.0 0.1223370307
H  H29  1  0.65530000  0.30360000  0.36060000  1.0 0.1223370307
H  H30  1  0.30360000  0.36060000  0.65530000  1.0 0.1223370307
H  H31  1  0.52740000  0.27660000  0.52220000  1.0 0.0440164232
H  H32  1  0.27660000  0.52220000  0.52740000  1.0 0.0440164232
H  H33  1  0.52220000  0.52740000  0.27660000  1.0 0.0440164232
H  H34  1  0.47260000  0.72340000  0.47780000  1.0 0.0440164232
H  H35  1  0.72340000  0.47780000  0.47260000  1.0 0.0440164232
H  H36  1  0.47780000  0.47260000  0.72340000  1.0 0.0440164232
H  H37  1  0.50570000  0.15230000  0.63220000  1.0 0.1306516105
H  H38  1  0.15230000  0.63220000  0.50570000  1.0 0.1306516105
H  H39  1  0.63220000  0.50570000  0.15230000  1.0 0.1306516105
H  H40  1  0.49430000  0.84770000  0.36780000  1.0 0.1306516105
H  H41  1  0.84770000  0.36780000  0.49430000  1.0 0.1306516105
H  H42  1  0.36780000  0.49430000  0.84770000  1.0 0.1306516105
H  H43  1  0.55340000  0.10420000  0.51530000  1.0 0.0916638778
H  H44  1  0.10420000  0.51530000  0.55340000  1.0 0.0916638778
H  H45  1  0.51530000  0.55340000  0.10420000  1.0 0.0916638778
H  H46  1  0.44660000  0.89580000  0.48470000  1.0 0.0916638778
H  H47  1  0.89580000  0.48470000  0.44660000  1.0 0.0916638778
H  H48  1  0.48470000  0.44660000  0.89580000  1.0 0.0916638778
H  H49  1  0.63570000  0.01550000  0.60270000  1.0 0.0984402864
H  H50  1  0.01550000  0.60270000  0.63570000  1.0 0.0916638778
H  H51  1  0.60270000  0.63570000  0.01550000  1.0 0.0984402864
H  H52  1  0.36430000  0.98450000  0.39730000  1.0 0.0916638778
H  H53  1  0.98450000  0.39730000  0.36430000  1.0 0.0984402864
H  H54  1  0.39730000  0.36430000  0.98450000  1.0 0.0916638778
H  H55  1  0.62280000  0.03200000  0.71400000  1.0 0.1123400776
H  H56  1  0.03200000  0.71400000  0.62280000  1.0 0.1123400776
H  H57  1  0.71400000  0.62280000  0.03200000  1.0 0.1123400776
H  H58  1  0.37720000  0.96800000  0.28600000  1.0 0.1123400776
H  H59  1  0.96800000  0.28600000  0.37720000  1.0 0.1123400776
H  H60  1  0.28600000  0.37720000  0.96800000  1.0 0.1123400776
H  H61  1  0.80200000  0.05340000  0.78100000  1.0 0.0984402864
H  H62  1  0.05340000  0.78100000  0.80200000  1.0 0.0984402864
H  H63  1  0.78100000  0.80200000  0.05340000  1.0 0.0984402864
H  H64  1  0.19800000  0.94660000  0.21900000  1.0 0.0984402864
H  H65  1  0.94660000  0.21900000  0.19800000  1.0 0.0984402864
H  H66  1  0.21900000  0.19800000  0.94660000  1.0 0.0984402864
H  H67  1  0.84450000  0.19610000  0.87900000  1.0 0.0984402864
H  H68  1  0.19610000  0.87900000  0.84450000  1.0 0.0984402864
H  H69  1  0.87900000  0.84450000  0.19610000  1.0 0.0984402864
H  H70  1  0.15550000  0.80390000  0.12100000  1.0 0.0984402864
H  H71  1  0.80390000  0.12100000  0.15550000  1.0 0.0984402864
H  H72  1  0.12100000  0.15550000  0.80390000  1.0 0.0984402864
C  C1  1  0.60020000  0.27630000  0.60750000  1.0 -0.0087206877
C  C2  1  0.27630000  0.60750000  0.60020000  1.0 -0.0087206877
C  C3  1  0.60750000  0.60020000  0.27630000  1.0 -0.0087206877
C  C4  1  0.39980000  0.72370000  0.39250000  1.0 -0.0087206877
C  C5  1  0.72370000  0.39250000  0.39980000  1.0 -0.0087206877
C  C6  1  0.39250000  0.39980000  0.72370000  1.0 -0.0087206877
C  C7  1  0.56870000  0.16470000  0.60510000  1.0 -0.0820219195
C  C8  1  0.16470000  0.60510000  0.56870000  1.0 -0.0820219195
C  C9  1  0.60510000  0.56870000  0.16470000  1.0 -0.0820219195
C  C10  1  0.43130000  0.83530000  0.39490000  1.0 -0.0820219195
C  C11  1  0.83530000  0.39490000  0.43130000  1.0 -0.0820219195
C  C12  1  0.39490000  0.43130000  0.83530000  1.0 -0.0820219195
C  C13  1  0.67610000  0.08470000  0.69500000  1.0 -0.0820219195
C  C14  1  0.08470000  0.69500000  0.67610000  1.0 -0.0820219195
C  C15  1  0.69500000  0.67610000  0.08470000  1.0 -0.0820219195
C  C16  1  0.32390000  0.91530000  0.30500000  1.0 -0.0820219195
C  C17  1  0.91530000  0.30500000  0.32390000  1.0 -0.0820219195
C  C18  1  0.30500000  0.32390000  0.91530000  1.0 -0.0820219195
C  C19  1  0.80100000  0.12960000  0.78410000  1.0 0.0080541987
C  C20  1  0.12960000  0.78410000  0.80100000  1.0 0.0080541987
C  C21  1  0.78410000  0.80100000  0.12960000  1.0 0.0080541987
C  C22  1  0.19900000  0.87040000  0.21590000  1.0 0.0080541987
C  C23  1  0.87040000  0.21590000  0.19900000  1.0 0.0080541987
C  C24  1  0.21590000  0.19900000  0.87040000  1.0 0.0080541987
N  N1  1  0.70270000  0.31380000  0.59170000  1.0 -0.5544992662
N  N2  1  0.31380000  0.59170000  0.70270000  1.0 -0.5544992662
N  N3  1  0.59170000  0.70270000  0.31380000  1.0 -0.5544992662
N  N4  1  0.29730000  0.68620000  0.40830000  1.0 -0.5544992662
N  N5  1  0.68620000  0.40830000  0.29730000  1.0 -0.5544992662
N  N6  1  0.40830000  0.29730000  0.68620000  1.0 -0.5544992662
N  N7  1  0.67600000  0.18620000  0.69590000  1.0 -0.2281555559
N  N8  1  0.18620000  0.69590000  0.67600000  1.0 -0.2281555559
N  N9  1  0.69590000  0.67600000  0.18620000  1.0 -0.2281555559
N  N10  1  0.32400000  0.81380000  0.30410000  1.0 -0.2281555559
N  N11  1  0.81380000  0.30410000  0.32400000  1.0 -0.2281555559
N  N12  1  0.30410000  0.32400000  0.81380000  1.0 -0.2281555559
N  N13  1  0.88000000  0.19400000  0.75380000  1.0 -0.573180236
N  N14  1  0.19400000  0.75380000  0.88000000  1.0 -0.573180236
N  N15  1  0.75380000  0.88000000  0.19400000  1.0 -0.573180236
N  N16  1  0.12000000  0.80600000  0.24620000  1.0 -0.573180236
N  N17  1  0.80600000  0.24620000  0.12000000  1.0 -0.573180236
N  N18  1  0.24620000  0.12000000  0.80600000  1.0 -0.573180236
O  O1  1  0.88090000  0.40690000  0.82620000  1.0 -0.8082170165
O  O2  1  0.40690000  0.82620000  0.88090000  1.0 -0.8082170165
O  O3  1  0.82620000  0.88090000  0.40690000  1.0 -0.8082170165
O  O4  1  0.11910000  0.59310000  0.17380000  1.0 -0.8082170165
O  O5  1  0.59310000  0.17380000  0.11910000  1.0 -0.8082170165
O  O6  1  0.17380000  0.11910000  0.59310000  1.0 -0.8082170165
O  O7  1  0.91020000  0.58020000  0.98000000  1.0 -0.7787419435
O  O8  1  0.58020000  0.98000000  0.91020000  1.0 -0.7787419435
O  O9  1  0.98000000  0.91020000  0.58020000  1.0 -0.7787419435
O  O10  1  0.08980000  0.41980000  0.02000000  1.0 -0.7787419435
O  O11  1  0.41980000  0.02000000  0.08980000  1.0 -0.7787419435
O  O12  1  0.02000000  0.08980000  0.41980000  1.0 -0.7787419435
O  O13  1  0.07530000  0.59870000  0.94730000  1.0 -0.7787419435
O  O14  1  0.59870000  0.94730000  0.07530000  1.0 -0.7787419435
O  O15  1  0.94730000  0.07530000  0.59870000  1.0 -0.7787419435
O  O16  1  0.92470000  0.40130000  0.05270000  1.0 -0.7787419435
O  O17  1  0.40130000  0.05270000  0.92470000  1.0 -0.7787419435
O  O18  1  0.05270000  0.92470000  0.40130000  1.0 -0.7787419435
O  O19  1  0.89750000  0.57610000  0.80060000  1.0 -0.7638392624
O  O20  1  0.57610000  0.80060000  0.89750000  1.0 -0.7638392624
O  O21  1  0.80060000  0.89750000  0.57610000  1.0 -0.7638392624
O  O22  1  0.10250000  0.42390000  0.19940000  1.0 -0.7638392624
O  O23  1  0.42390000  0.19940000  0.10250000  1.0 -0.7638392624
O  O24  1  0.19940000  0.10250000  0.42390000  1.0 -0.7638392624
O  O25  1  0.88150000  0.58890000  0.16770000  1.0 -0.7787419435
O  O26  1  0.58890000  0.16770000  0.88150000  1.0 -0.7787419435
O  O27  1  0.16770000  0.88150000  0.58890000  1.0 -0.7787419435
O  O28  1  0.11850000  0.41110000  0.83230000  1.0 -0.7787419435
O  O29  1  0.41110000  0.83230000  0.11850000  1.0 -0.7787419435
O  O30  1  0.83230000  0.11850000  0.41110000  1.0 -0.7787419435
O  O31  1  0.91380000  0.68890000  0.36570000  1.0 -0.771341699
O  O32  1  0.68890000  0.36570000  0.91380000  1.0 -0.771341699
O  O33  1  0.36570000  0.91380000  0.68890000  1.0 -0.771341699
O  O34  1  0.08620000  0.31110000  0.63430000  1.0 -0.771341699
O  O35  1  0.31110000  0.63430000  0.08620000  1.0 -0.771341699
O  O36  1  0.63430000  0.08620000  0.31110000  1.0 -0.771341699
O  O37  1  0.88010000  0.48720000  0.27950000  1.0 -0.7787419435
O  O38  1  0.48720000  0.27950000  0.88010000  1.0 -0.7787419435
O  O39  1  0.27950000  0.88010000  0.48720000  1.0 -0.7787419435
O  O40  1  0.11990000  0.51280000  0.72050000  1.0 -0.7787419435
O  O41  1  0.51280000  0.72050000  0.11990000  1.0 -0.7787419435
O  O42  1  0.72050000  0.11990000  0.51280000  1.0 -0.7787419435
O  O43  1  0.06870000  0.65960000  0.34960000  1.0 -0.7876437184
O  O44  1  0.65960000  0.34960000  0.06870000  1.0 -0.7876437184
O  O45  1  0.34960000  0.06870000  0.65960000  1.0 -0.7876437184
O  O46  1  0.93130000  0.34040000  0.65040000  1.0 -0.7876437184
O  O47  1  0.34040000  0.65040000  0.93130000  1.0 -0.7876437184
O  O48  1  0.65040000  0.93130000  0.34040000  1.0 -0.7876437184
