# DDEC6 charges by PACMAN v1.1 (https://github.com/mtap-research/PACMAN-charge/)
data_HEGNUD_FSR_pacman
_symmetry_space_group_name_H-M   'P 1'
_cell_length_a   14.40740000
_cell_length_b   14.40740000
_cell_length_c   14.40740000
_cell_angle_alpha   110.78200000
_cell_angle_beta   110.78200000
_cell_angle_gamma   110.78200000
_symmetry_Int_Tables_number   1
_chemical_formula_structural   Ga2P2H13C4N3O8
_chemical_formula_sum   'Ga12 P12 H78 C24 N18 O48'
_cell_volume   2183.30673293
_cell_formula_units_Z   6
loop_
 _symmetry_equiv_pos_site_id
 _symmetry_equiv_pos_as_xyz
  1  'x, y, z'
loop_
 _atom_site_type_symbol
 _atom_site_label
 _atom_site_symmetry_multiplicity
 _atom_site_fract_x
 _atom_site_fract_y
 _atom_site_fract_z
 _atom_site_occupancy
 _atom_site_charge
Ga  Ga1  1  0.85343000  0.48063000  0.02759000  1.0 1.2871841262
Ga  Ga2  1  0.48063000  0.02759000  0.85343000  1.0 1.2777139302
Ga  Ga3  1  0.02759000  0.85343000  0.48063000  1.0 1.2738554632
Ga  Ga4  1  0.14657000  0.51937000  0.97241000  1.0 1.2738554632
Ga  Ga5  1  0.51937000  0.97241000  0.14657000  1.0 1.2777139302
Ga  Ga6  1  0.97241000  0.14657000  0.51937000  1.0 1.2777139302
Ga  Ga7  1  0.80745000  0.26477000  0.67206000  1.0 1.2871841262
Ga  Ga8  1  0.26477000  0.67206000  0.80745000  1.0 1.2871841262
Ga  Ga9  1  0.67206000  0.80745000  0.26477000  1.0 1.2871841262
Ga  Ga10  1  0.19255000  0.73523000  0.32794000  1.0 1.2871841262
Ga  Ga11  1  0.73523000  0.32794000  0.19255000  1.0 1.2871841262
Ga  Ga12  1  0.32794000  0.19255000  0.73523000  1.0 1.2871841262
P  P1  1  0.93644000  0.53793000  0.88311000  1.0 1.4951949424
P  P2  1  0.53793000  0.88311000  0.93644000  1.0 1.4951949424
P  P3  1  0.88311000  0.93644000  0.53793000  1.0 1.4951949424
P  P4  1  0.06356000  0.46207000  0.11689000  1.0 1.4945520913
P  P5  1  0.46207000  0.11689000  0.06356000  1.0 1.4951949424
P  P6  1  0.11689000  0.06356000  0.46207000  1.0 1.4951949424
P  P7  1  0.93822000  0.60460000  0.29082000  1.0 1.4951949424
P  P8  1  0.60460000  0.29082000  0.93822000  1.0 1.4951949424
P  P9  1  0.29082000  0.93822000  0.60460000  1.0 1.4945520913
P  P10  1  0.06178000  0.39540000  0.70918000  1.0 1.4945520913
P  P11  1  0.39540000  0.70918000  0.06178000  1.0 1.4945520913
P  P12  1  0.70918000  0.06178000  0.39540000  1.0 1.4951949424
H  H1  1  0.74390000  0.40220000  0.62950000  1.0 0.2978480653
H  H2  1  0.40220000  0.62950000  0.74390000  1.0 0.2978480653
H  H3  1  0.62950000  0.74390000  0.40220000  1.0 0.2978480653
H  H4  1  0.25610000  0.59780000  0.37050000  1.0 0.2978480653
H  H5  1  0.59780000  0.37050000  0.25610000  1.0 0.2978480653
H  H6  1  0.37050000  0.25610000  0.59780000  1.0 0.2978480653
H  H7  1  0.66720000  0.27820000  0.51790000  1.0 0.2978480653
H  H8  1  0.27820000  0.51790000  0.66720000  1.0 0.2978480653
H  H9  1  0.51790000  0.66720000  0.27820000  1.0 0.2978480653
H  H10  1  0.33280000  0.72180000  0.48210000  1.0 0.2978480653
H  H11  1  0.72180000  0.48210000  0.33280000  1.0 0.2978480653
H  H12  1  0.48210000  0.33280000  0.72180000  1.0 0.2978480653
H  H13  1  0.69010000  0.22710000  0.77320000  1.0 0.2572407579
H  H14  1  0.22710000  0.77320000  0.69010000  1.0 0.2572407579
H  H15  1  0.77320000  0.69010000  0.22710000  1.0 0.2572407579
H  H16  1  0.30990000  0.77290000  0.22680000  1.0 0.2572407579
H  H17  1  0.77290000  0.22680000  0.30990000  1.0 0.2572407579
H  H18  1  0.22680000  0.30990000  0.77290000  1.0 0.2572407579
H  H19  1  0.88390000  0.14050000  0.71100000  1.0 0.2944479143
H  H20  1  0.14050000  0.71100000  0.88390000  1.0 0.2978480653
H  H21  1  0.71100000  0.88390000  0.14050000  1.0 0.2978480653
H  H22  1  0.11610000  0.85950000  0.28900000  1.0 0.2944479143
H  H23  1  0.85950000  0.28900000  0.11610000  1.0 0.2978480653
H  H24  1  0.28900000  0.11610000  0.85950000  1.0 0.2978480653
H  H25  1  0.96430000  0.26470000  0.82410000  1.0 0.2978480653
H  H26  1  0.26470000  0.82410000  0.96430000  1.0 0.2978480653
H  H27  1  0.82410000  0.96430000  0.26470000  1.0 0.2978480653
H  H28  1  0.03570000  0.73530000  0.17590000  1.0 0.2978480653
H  H29  1  0.73530000  0.17590000  0.03570000  1.0 0.2978480653
H  H30  1  0.17590000  0.03570000  0.73530000  1.0 0.2978480653
H  H31  1  0.63170000  0.33820000  0.69770000  1.0 0.1271944416
H  H32  1  0.33820000  0.69770000  0.63170000  1.0 0.1271944416
H  H33  1  0.69770000  0.63170000  0.33820000  1.0 0.1271944416
H  H34  1  0.36830000  0.66180000  0.30230000  1.0 0.1271944416
H  H35  1  0.66180000  0.30230000  0.36830000  1.0 0.1271944416
H  H36  1  0.30230000  0.36830000  0.66180000  1.0 0.1271944416
H  H37  1  0.54870000  0.28670000  0.56310000  1.0 0.1192806021
H  H38  1  0.28670000  0.56310000  0.54870000  1.0 0.1192806021
H  H39  1  0.56310000  0.54870000  0.28670000  1.0 0.1192806021
H  H40  1  0.45130000  0.71330000  0.43690000  1.0 0.1192806021
H  H41  1  0.71330000  0.43690000  0.45130000  1.0 0.1192806021
H  H42  1  0.43690000  0.45130000  0.71330000  1.0 0.1192806021
H  H43  1  0.50070000  0.13380000  0.62120000  1.0 0.1358081034
H  H44  1  0.13380000  0.62120000  0.50070000  1.0 0.1358081034
H  H45  1  0.62120000  0.50070000  0.13380000  1.0 0.1358081034
H  H46  1  0.49930000  0.86620000  0.37880000  1.0 0.1358081034
H  H47  1  0.86620000  0.37880000  0.49930000  1.0 0.1358081034
H  H48  1  0.37880000  0.49930000  0.86620000  1.0 0.1358081034
H  H49  1  0.53850000  0.10880000  0.52830000  1.0 0.1192806021
H  H50  1  0.10880000  0.52830000  0.53850000  1.0 0.1192806021
H  H51  1  0.52830000  0.53850000  0.10880000  1.0 0.1192806021
H  H52  1  0.46150000  0.89120000  0.47170000  1.0 0.1192806021
H  H53  1  0.89120000  0.47170000  0.46150000  1.0 0.1192806021
H  H54  1  0.47170000  0.46150000  0.89120000  1.0 0.1192806021
H  H55  1  0.63130000  0.06020000  0.72830000  1.0 0.1271944416
H  H56  1  0.06020000  0.72830000  0.63130000  1.0 0.1271944416
H  H57  1  0.72830000  0.63130000  0.06020000  1.0 0.1271944416
H  H58  1  0.36870000  0.93980000  0.27170000  1.0 0.1271944416
H  H59  1  0.93980000  0.27170000  0.36870000  1.0 0.1271944416
H  H60  1  0.27170000  0.36870000  0.93980000  1.0 0.1271944416
H  H61  1  0.64580000  0.02100000  0.61200000  1.0 0.114657014
H  H62  1  0.02100000  0.61200000  0.64580000  1.0 0.114657014
H  H63  1  0.61200000  0.64580000  0.02100000  1.0 0.114657014
H  H64  1  0.35420000  0.97900000  0.38800000  1.0 0.114657014
H  H65  1  0.97900000  0.38800000  0.35420000  1.0 0.114657014
H  H66  1  0.38800000  0.35420000  0.97900000  1.0 0.114657014
H  H67  1  0.80330000  0.05820000  0.77250000  1.0 0.1271944416
H  H68  1  0.05820000  0.77250000  0.80330000  1.0 0.1271944416
H  H69  1  0.77250000  0.80330000  0.05820000  1.0 0.1271944416
H  H70  1  0.19670000  0.94180000  0.22750000  1.0 0.1271944416
H  H71  1  0.94180000  0.22750000  0.19670000  1.0 0.1271944416
H  H72  1  0.22750000  0.19670000  0.94180000  1.0 0.1271944416
H  H73  1  0.82540000  0.18380000  0.85280000  1.0 0.1358081034
H  H74  1  0.18380000  0.85280000  0.82540000  1.0 0.1358081034
H  H75  1  0.85280000  0.82540000  0.18380000  1.0 0.1358081034
H  H76  1  0.17460000  0.81620000  0.14720000  1.0 0.1358081034
H  H77  1  0.81620000  0.14720000  0.17460000  1.0 0.1358081034
H  H78  1  0.14720000  0.17460000  0.81620000  1.0 0.1358081034
C  C1  1  0.60080000  0.27700000  0.61190000  1.0 -0.0525934423
C  C2  1  0.27700000  0.61190000  0.60080000  1.0 -0.0525934423
C  C3  1  0.61190000  0.60080000  0.27700000  1.0 -0.0525934423
C  C4  1  0.39920000  0.72300000  0.38810000  1.0 -0.0525934423
C  C5  1  0.72300000  0.38810000  0.39920000  1.0 -0.0525934423
C  C6  1  0.38810000  0.39920000  0.72300000  1.0 -0.0525934423
C  C7  1  0.56780000  0.16530000  0.60870000  1.0 -0.1214610792
C  C8  1  0.16530000  0.60870000  0.56780000  1.0 -0.1214610792
C  C9  1  0.60870000  0.56780000  0.16530000  1.0 -0.1214610792
C  C10  1  0.43220000  0.83470000  0.39130000  1.0 -0.1214610792
C  C11  1  0.83470000  0.39130000  0.43220000  1.0 -0.1214610792
C  C12  1  0.39130000  0.43220000  0.83470000  1.0 -0.1214610792
C  C13  1  0.67400000  0.08160000  0.69420000  1.0 -0.1214610792
C  C14  1  0.08160000  0.69420000  0.67400000  1.0 -0.1214610792
C  C15  1  0.69420000  0.67400000  0.08160000  1.0 -0.1214610792
C  C16  1  0.32600000  0.91840000  0.30580000  1.0 -0.1214610792
C  C17  1  0.91840000  0.30580000  0.32600000  1.0 -0.1214610792
C  C18  1  0.30580000  0.32600000  0.91840000  1.0 -0.1214610792
C  C19  1  0.79980000  0.12670000  0.78130000  1.0 -0.0376935707
C  C20  1  0.12670000  0.78130000  0.79980000  1.0 -0.0376935707
C  C21  1  0.78130000  0.79980000  0.12670000  1.0 -0.0376935707
C  C22  1  0.20020000  0.87330000  0.21870000  1.0 -0.0376935707
C  C23  1  0.87330000  0.21870000  0.20020000  1.0 -0.0376935707
C  C24  1  0.21870000  0.20020000  0.87330000  1.0 -0.0376935707
N  N1  1  0.70010000  0.31360000  0.59390000  1.0 -0.530377899
N  N2  1  0.31360000  0.59390000  0.70010000  1.0 -0.530377899
N  N3  1  0.59390000  0.70010000  0.31360000  1.0 -0.530377899
N  N4  1  0.29990000  0.68640000  0.40610000  1.0 -0.530377899
N  N5  1  0.68640000  0.40610000  0.29990000  1.0 -0.530377899
N  N6  1  0.40610000  0.29990000  0.68640000  1.0 -0.530377899
N  N7  1  0.67550000  0.18340000  0.69380000  1.0 -0.3172369047
N  N8  1  0.18340000  0.69380000  0.67550000  1.0 -0.3172369047
N  N9  1  0.69380000  0.67550000  0.18340000  1.0 -0.3172369047
N  N10  1  0.32450000  0.81660000  0.30620000  1.0 -0.3172369047
N  N11  1  0.81660000  0.30620000  0.32450000  1.0 -0.3172369047
N  N12  1  0.30620000  0.32450000  0.81660000  1.0 -0.3172369047
N  N13  1  0.87800000  0.19180000  0.75170000  1.0 -0.523679241
N  N14  1  0.19180000  0.75170000  0.87800000  1.0 -0.523679241
N  N15  1  0.75170000  0.87800000  0.19180000  1.0 -0.523679241
N  N16  1  0.12200000  0.80820000  0.24830000  1.0 -0.523679241
N  N17  1  0.80820000  0.24830000  0.12200000  1.0 -0.523679241
N  N18  1  0.24830000  0.12200000  0.80820000  1.0 -0.523679241
O  O1  1  0.88039000  0.40409000  0.82682000  1.0 -0.8268977746
O  O2  1  0.40409000  0.82682000  0.88039000  1.0 -0.8268977746
O  O3  1  0.82682000  0.88039000  0.40409000  1.0 -0.8268977746
O  O4  1  0.11961000  0.59591000  0.17318000  1.0 -0.8268977746
O  O5  1  0.59591000  0.17318000  0.11961000  1.0 -0.8268977746
O  O6  1  0.17318000  0.11961000  0.59591000  1.0 -0.8268977746
O  O7  1  0.90978000  0.57818000  0.98124000  1.0 -0.7733582799
O  O8  1  0.57818000  0.98124000  0.90978000  1.0 -0.7733582799
O  O9  1  0.98124000  0.90978000  0.57818000  1.0 -0.7733582799
O  O10  1  0.09022000  0.42182000  0.01876000  1.0 -0.7733582799
O  O11  1  0.42182000  0.01876000  0.09022000  1.0 -0.7733582799
O  O12  1  0.01876000  0.09022000  0.42182000  1.0 -0.7733582799
O  O13  1  0.07407000  0.59720000  0.94703000  1.0 -0.7810174095
O  O14  1  0.59720000  0.94703000  0.07407000  1.0 -0.7810174095
O  O15  1  0.94703000  0.07407000  0.59720000  1.0 -0.7810174095
O  O16  1  0.92593000  0.40280000  0.05297000  1.0 -0.7810174095
O  O17  1  0.40280000  0.05297000  0.92593000  1.0 -0.7810174095
O  O18  1  0.05297000  0.92593000  0.40280000  1.0 -0.7810174095
O  O19  1  0.89519000  0.57421000  0.80120000  1.0 -0.7810174095
O  O20  1  0.57421000  0.80120000  0.89519000  1.0 -0.7810174095
O  O21  1  0.80120000  0.89519000  0.57421000  1.0 -0.7810174095
O  O22  1  0.10481000  0.42579000  0.19880000  1.0 -0.7810174095
O  O23  1  0.42579000  0.19880000  0.10481000  1.0 -0.7810174095
O  O24  1  0.19880000  0.10481000  0.42579000  1.0 -0.7810174095
O  O25  1  0.88173000  0.58717000  0.16770000  1.0 -0.7810174095
O  O26  1  0.58717000  0.16770000  0.88173000  1.0 -0.7810174095
O  O27  1  0.16770000  0.88173000  0.58717000  1.0 -0.7854818398
O  O28  1  0.11827000  0.41283000  0.83230000  1.0 -0.7854818398
O  O29  1  0.41283000  0.83230000  0.11827000  1.0 -0.7854818398
O  O30  1  0.83230000  0.11827000  0.41283000  1.0 -0.7854818398
O  O31  1  0.91785000  0.69336000  0.36709000  1.0 -0.7810174095
O  O32  1  0.69336000  0.36709000  0.91785000  1.0 -0.7810174095
O  O33  1  0.36709000  0.91785000  0.69336000  1.0 -0.7810174095
O  O34  1  0.08215000  0.30664000  0.63291000  1.0 -0.7810174095
O  O35  1  0.30664000  0.63291000  0.08215000  1.0 -0.7810174095
O  O36  1  0.63291000  0.08215000  0.30664000  1.0 -0.7810174095
O  O37  1  0.88184000  0.49006000  0.28330000  1.0 -0.7810174095
O  O38  1  0.49006000  0.28330000  0.88184000  1.0 -0.7810174095
O  O39  1  0.28330000  0.88184000  0.49006000  1.0 -0.7810174095
O  O40  1  0.11816000  0.50994000  0.71670000  1.0 -0.7810174095
O  O41  1  0.50994000  0.71670000  0.11816000  1.0 -0.7810174095
O  O42  1  0.71670000  0.11816000  0.50994000  1.0 -0.7810174095
O  O43  1  0.07152000  0.66121000  0.34997000  1.0 -0.7962463641
O  O44  1  0.66121000  0.34997000  0.07152000  1.0 -0.7962463641
O  O45  1  0.34997000  0.07152000  0.66121000  1.0 -0.7962463641
O  O46  1  0.92848000  0.33879000  0.65003000  1.0 -0.7962463641
O  O47  1  0.33879000  0.65003000  0.92848000  1.0 -0.7962463641
O  O48  1  0.65003000  0.92848000  0.33879000  1.0 -0.7962463641
