# DDEC6 charges by PACMAN v1.1 (https://github.com/mtap-research/PACMAN-charge/)
data_HEGNOX_ASR_pacman
_symmetry_space_group_name_H-M   'P 1'
_cell_length_a   14.40370000
_cell_length_b   14.40370000
_cell_length_c   14.40370000
_cell_angle_alpha   110.64300000
_cell_angle_beta   110.64300000
_cell_angle_gamma   110.64300000
_symmetry_Int_Tables_number   1
_chemical_formula_structural   Ga2P2H13C4N3O8
_chemical_formula_sum   'Ga12 P12 H78 C24 N18 O48'
_cell_volume   2194.92539910
_cell_formula_units_Z   6
loop_
 _symmetry_equiv_pos_site_id
 _symmetry_equiv_pos_as_xyz
  1  'x, y, z'
loop_
 _atom_site_type_symbol
 _atom_site_label
 _atom_site_symmetry_multiplicity
 _atom_site_fract_x
 _atom_site_fract_y
 _atom_site_fract_z
 _atom_site_occupancy
 _atom_site_charge
Ga  Ga1  1  0.85030000  0.48106000  0.02657000  1.0 1.2887668142
Ga  Ga2  1  0.48106000  0.02657000  0.85030000  1.0 1.2887668142
Ga  Ga3  1  0.02657000  0.85030000  0.48106000  1.0 1.2887668142
Ga  Ga4  1  0.14970000  0.51894000  0.97343000  1.0 1.2887668142
Ga  Ga5  1  0.51894000  0.97343000  0.14970000  1.0 1.2887668142
Ga  Ga6  1  0.97343000  0.14970000  0.51894000  1.0 1.2887668142
Ga  Ga7  1  0.81069000  0.26717000  0.67320000  1.0 1.2667120425
Ga  Ga8  1  0.26717000  0.67320000  0.81069000  1.0 1.2667120425
Ga  Ga9  1  0.67320000  0.81069000  0.26717000  1.0 1.2667120425
Ga  Ga10  1  0.18931000  0.73283000  0.32680000  1.0 1.2667120425
Ga  Ga11  1  0.73283000  0.32680000  0.18931000  1.0 1.2667120425
Ga  Ga12  1  0.32680000  0.18931000  0.73283000  1.0 1.2667120425
P  P1  1  0.93954000  0.54156000  0.88541000  1.0 1.5078665941
P  P2  1  0.54156000  0.88541000  0.93954000  1.0 1.5078665941
P  P3  1  0.88541000  0.93954000  0.54156000  1.0 1.5078665941
P  P4  1  0.06046000  0.45844000  0.11459000  1.0 1.5078665941
P  P5  1  0.45844000  0.11459000  0.06046000  1.0 1.5078665941
P  P6  1  0.11459000  0.06046000  0.45844000  1.0 1.5078665941
P  P7  1  0.93568000  0.60279000  0.29004000  1.0 1.4977764019
P  P8  1  0.60279000  0.29004000  0.93568000  1.0 1.4977764019
P  P9  1  0.29004000  0.93568000  0.60279000  1.0 1.4977764019
P  P10  1  0.06432000  0.39721000  0.70996000  1.0 1.4977764019
P  P11  1  0.39721000  0.70996000  0.06432000  1.0 1.4977764019
P  P12  1  0.70996000  0.06432000  0.39721000  1.0 1.4977764019
H  H1  1  0.74640000  0.38890000  0.63070000  1.0 0.2975505793
H  H2  1  0.38890000  0.63070000  0.74640000  1.0 0.2975505793
H  H3  1  0.63070000  0.74640000  0.38890000  1.0 0.2975505793
H  H4  1  0.25360000  0.61110000  0.36930000  1.0 0.2975505793
H  H5  1  0.61110000  0.36930000  0.25360000  1.0 0.2975505793
H  H6  1  0.36930000  0.25360000  0.61110000  1.0 0.2975505793
H  H7  1  0.67560000  0.27220000  0.51970000  1.0 0.2884528964
H  H8  1  0.27220000  0.51970000  0.67560000  1.0 0.2884528964
H  H9  1  0.51970000  0.67560000  0.27220000  1.0 0.2884528964
H  H10  1  0.32440000  0.72780000  0.48030000  1.0 0.2884528964
H  H11  1  0.72780000  0.48030000  0.32440000  1.0 0.2884528964
H  H12  1  0.48030000  0.32440000  0.72780000  1.0 0.2884528964
H  H13  1  0.69260000  0.23830000  0.76940000  1.0 0.2727852591
H  H14  1  0.23830000  0.76940000  0.69260000  1.0 0.2727852591
H  H15  1  0.76940000  0.69260000  0.23830000  1.0 0.2727852591
H  H16  1  0.30740000  0.76170000  0.23060000  1.0 0.2727852591
H  H17  1  0.76170000  0.23060000  0.30740000  1.0 0.2727852591
H  H18  1  0.23060000  0.30740000  0.76170000  1.0 0.2727852591
H  H19  1  0.88500000  0.15010000  0.70510000  1.0 0.2884528964
H  H20  1  0.15010000  0.70510000  0.88500000  1.0 0.2884528964
H  H21  1  0.70510000  0.88500000  0.15010000  1.0 0.2884528964
H  H22  1  0.11500000  0.84990000  0.29490000  1.0 0.2884528964
H  H23  1  0.84990000  0.29490000  0.11500000  1.0 0.2884528964
H  H24  1  0.29490000  0.11500000  0.84990000  1.0 0.2884528964
H  H25  1  0.95800000  0.25610000  0.81920000  1.0 0.2975505793
H  H26  1  0.25610000  0.81920000  0.95800000  1.0 0.2975505793
H  H27  1  0.81920000  0.95800000  0.25610000  1.0 0.2975505793
H  H28  1  0.04200000  0.74390000  0.18080000  1.0 0.2975505793
H  H29  1  0.74390000  0.18080000  0.04200000  1.0 0.2975505793
H  H30  1  0.18080000  0.04200000  0.74390000  1.0 0.2975505793
H  H31  1  0.62320000  0.33980000  0.68870000  1.0 0.1185320961
H  H32  1  0.33980000  0.68870000  0.62320000  1.0 0.1185320961
H  H33  1  0.68870000  0.62320000  0.33980000  1.0 0.1185320961
H  H34  1  0.37680000  0.66020000  0.31130000  1.0 0.1185320961
H  H35  1  0.66020000  0.31130000  0.37680000  1.0 0.1185320961
H  H36  1  0.31130000  0.37680000  0.66020000  1.0 0.1185320961
H  H37  1  0.54050000  0.26270000  0.56170000  1.0 0.1185320961
H  H38  1  0.26270000  0.56170000  0.54050000  1.0 0.1185320961
H  H39  1  0.56170000  0.54050000  0.26270000  1.0 0.1185320961
H  H40  1  0.45950000  0.73730000  0.43830000  1.0 0.1185320961
H  H41  1  0.73730000  0.43830000  0.45950000  1.0 0.1185320961
H  H42  1  0.43830000  0.45950000  0.73730000  1.0 0.1185320961
H  H43  1  0.49160000  0.12930000  0.61230000  1.0 0.1185320961
H  H44  1  0.12930000  0.61230000  0.49160000  1.0 0.1185320961
H  H45  1  0.61230000  0.49160000  0.12930000  1.0 0.1185320961
H  H46  1  0.50840000  0.87070000  0.38770000  1.0 0.1185320961
H  H47  1  0.87070000  0.38770000  0.50840000  1.0 0.1185320961
H  H48  1  0.38770000  0.50840000  0.87070000  1.0 0.1185320961
H  H49  1  0.54640000  0.09980000  0.53120000  1.0 0.1185320961
H  H50  1  0.09980000  0.53120000  0.54640000  1.0 0.1185320961
H  H51  1  0.53120000  0.54640000  0.09980000  1.0 0.1185320961
H  H52  1  0.45360000  0.90020000  0.46880000  1.0 0.1185320961
H  H53  1  0.90020000  0.46880000  0.45360000  1.0 0.1185320961
H  H54  1  0.46880000  0.45360000  0.90020000  1.0 0.1185320961
H  H55  1  0.63840000  0.03540000  0.72950000  1.0 0.1087032821
H  H56  1  0.03540000  0.72950000  0.63840000  1.0 0.1087032821
H  H57  1  0.72950000  0.63840000  0.03540000  1.0 0.1087032821
H  H58  1  0.36160000  0.96460000  0.27050000  1.0 0.1087032821
H  H59  1  0.96460000  0.27050000  0.36160000  1.0 0.1087032821
H  H60  1  0.27050000  0.36160000  0.96460000  1.0 0.1087032821
H  H61  1  0.64100000  0.02680000  0.60410000  1.0 0.1087032821
H  H62  1  0.02680000  0.60410000  0.64100000  1.0 0.1087032821
H  H63  1  0.60410000  0.64100000  0.02680000  1.0 0.1087032821
H  H64  1  0.35900000  0.97320000  0.39590000  1.0 0.1087032821
H  H65  1  0.97320000  0.39590000  0.35900000  1.0 0.1087032821
H  H66  1  0.39590000  0.35900000  0.97320000  1.0 0.1087032821
H  H67  1  0.78790000  0.04660000  0.76440000  1.0 0.1185320961
H  H68  1  0.04660000  0.76440000  0.78790000  1.0 0.1185320961
H  H69  1  0.76440000  0.78790000  0.04660000  1.0 0.1185320961
H  H70  1  0.21210000  0.95340000  0.23560000  1.0 0.1185320961
H  H71  1  0.95340000  0.23560000  0.21210000  1.0 0.1185320961
H  H72  1  0.23560000  0.21210000  0.95340000  1.0 0.1185320961
H  H73  1  0.83490000  0.19550000  0.87420000  1.0 0.1185320961
H  H74  1  0.19550000  0.87420000  0.83490000  1.0 0.1185320961
H  H75  1  0.87420000  0.83490000  0.19550000  1.0 0.1185320961
H  H76  1  0.16510000  0.80450000  0.12580000  1.0 0.1185320961
H  H77  1  0.80450000  0.12580000  0.16510000  1.0 0.1185320961
H  H78  1  0.12580000  0.16510000  0.80450000  1.0 0.1185320961
C  C1  1  0.60170000  0.27680000  0.60730000  1.0 -0.0362344709
C  C2  1  0.27680000  0.60730000  0.60170000  1.0 -0.0362344709
C  C3  1  0.60730000  0.60170000  0.27680000  1.0 -0.0362344709
C  C4  1  0.39830000  0.72320000  0.39270000  1.0 -0.0362344709
C  C5  1  0.72320000  0.39270000  0.39830000  1.0 -0.0362344709
C  C6  1  0.39270000  0.39830000  0.72320000  1.0 -0.0362344709
C  C7  1  0.56820000  0.16490000  0.60480000  1.0 -0.109737412
C  C8  1  0.16490000  0.60480000  0.56820000  1.0 -0.109737412
C  C9  1  0.60480000  0.56820000  0.16490000  1.0 -0.109737412
C  C10  1  0.43180000  0.83510000  0.39520000  1.0 -0.109737412
C  C11  1  0.83510000  0.39520000  0.43180000  1.0 -0.109737412
C  C12  1  0.39520000  0.43180000  0.83510000  1.0 -0.109737412
C  C13  1  0.67590000  0.08410000  0.69550000  1.0 -0.0755745964
C  C14  1  0.08410000  0.69550000  0.67590000  1.0 -0.0746008576
C  C15  1  0.69550000  0.67590000  0.08410000  1.0 -0.0755745964
C  C16  1  0.32410000  0.91590000  0.30450000  1.0 -0.0755745964
C  C17  1  0.91590000  0.30450000  0.32410000  1.0 -0.0755745964
C  C18  1  0.30450000  0.32410000  0.91590000  1.0 -0.0755745964
C  C19  1  0.80240000  0.13120000  0.78470000  1.0 -0.0303111936
C  C20  1  0.13120000  0.78470000  0.80240000  1.0 -0.0303111936
C  C21  1  0.78470000  0.80240000  0.13120000  1.0 -0.0303111936
C  C22  1  0.19760000  0.86880000  0.21530000  1.0 -0.0303111936
C  C23  1  0.86880000  0.21530000  0.19760000  1.0 -0.0303111936
C  C24  1  0.21530000  0.19760000  0.86880000  1.0 -0.0303111936
N  N1  1  0.70060000  0.31260000  0.59050000  1.0 -0.4976372244
N  N2  1  0.31260000  0.59050000  0.70060000  1.0 -0.4976372244
N  N3  1  0.59050000  0.70060000  0.31260000  1.0 -0.4976372244
N  N4  1  0.29940000  0.68740000  0.40950000  1.0 -0.4976372244
N  N5  1  0.68740000  0.40950000  0.29940000  1.0 -0.4976372244
N  N6  1  0.40950000  0.29940000  0.68740000  1.0 -0.4976372244
N  N7  1  0.67682000  0.18608000  0.69520000  1.0 -0.3270347785
N  N8  1  0.18608000  0.69520000  0.67682000  1.0 -0.3270347785
N  N9  1  0.69520000  0.67682000  0.18608000  1.0 -0.3270347785
N  N10  1  0.32318000  0.81392000  0.30480000  1.0 -0.3270347785
N  N11  1  0.81392000  0.30480000  0.32318000  1.0 -0.3270347785
N  N12  1  0.30480000  0.32318000  0.81392000  1.0 -0.3270347785
N  N13  1  0.88130000  0.19570000  0.75530000  1.0 -0.5160089256
N  N14  1  0.19570000  0.75530000  0.88130000  1.0 -0.5145734222
N  N15  1  0.75530000  0.88130000  0.19570000  1.0 -0.5160089256
N  N16  1  0.11870000  0.80430000  0.24470000  1.0 -0.5160089256
N  N17  1  0.80430000  0.24470000  0.11870000  1.0 -0.5145734222
N  N18  1  0.24470000  0.11870000  0.80430000  1.0 -0.5160089256
O  O1  1  0.87955000  0.40782000  0.82543000  1.0 -0.8277317754
O  O2  1  0.40782000  0.82543000  0.87955000  1.0 -0.8277317754
O  O3  1  0.82543000  0.87955000  0.40782000  1.0 -0.8277317754
O  O4  1  0.12045000  0.59218000  0.17457000  1.0 -0.8277317754
O  O5  1  0.59218000  0.17457000  0.12045000  1.0 -0.8277317754
O  O6  1  0.17457000  0.12045000  0.59218000  1.0 -0.8277317754
O  O7  1  0.91124000  0.58173000  0.98133000  1.0 -0.7894131036
O  O8  1  0.58173000  0.98133000  0.91124000  1.0 -0.7894131036
O  O9  1  0.98133000  0.91124000  0.58173000  1.0 -0.7894131036
O  O10  1  0.08876000  0.41827000  0.01867000  1.0 -0.7894131036
O  O11  1  0.41827000  0.01867000  0.08876000  1.0 -0.7894131036
O  O12  1  0.01867000  0.08876000  0.41827000  1.0 -0.7894131036
O  O13  1  0.07590000  0.59885000  0.94775000  1.0 -0.7894131036
O  O14  1  0.59885000  0.94775000  0.07590000  1.0 -0.7894131036
O  O15  1  0.94775000  0.07590000  0.59885000  1.0 -0.7894131036
O  O16  1  0.92410000  0.40115000  0.05225000  1.0 -0.7894131036
O  O17  1  0.40115000  0.05225000  0.92410000  1.0 -0.7894131036
O  O18  1  0.05225000  0.92410000  0.40115000  1.0 -0.7894131036
O  O19  1  0.89967000  0.58007000  0.80316000  1.0 -0.7839090498
O  O20  1  0.58007000  0.80316000  0.89967000  1.0 -0.7839090498
O  O21  1  0.80316000  0.89967000  0.58007000  1.0 -0.7839090498
O  O22  1  0.10033000  0.41993000  0.19684000  1.0 -0.7839090498
O  O23  1  0.41993000  0.19684000  0.10033000  1.0 -0.7839090498
O  O24  1  0.19684000  0.10033000  0.41993000  1.0 -0.7839090498
O  O25  1  0.88108000  0.58941000  0.16911000  1.0 -0.7894131036
O  O26  1  0.58941000  0.16911000  0.88108000  1.0 -0.7894131036
O  O27  1  0.16911000  0.88108000  0.58941000  1.0 -0.7894131036
O  O28  1  0.11892000  0.41059000  0.83089000  1.0 -0.7894131036
O  O29  1  0.41059000  0.83089000  0.11892000  1.0 -0.7894131036
O  O30  1  0.83089000  0.11892000  0.41059000  1.0 -0.7894131036
O  O31  1  0.91423000  0.68797000  0.36800000  1.0 -0.7894131036
O  O32  1  0.68797000  0.36800000  0.91423000  1.0 -0.7894131036
O  O33  1  0.36800000  0.91423000  0.68797000  1.0 -0.7894131036
O  O34  1  0.08577000  0.31203000  0.63200000  1.0 -0.7894131036
O  O35  1  0.31203000  0.63200000  0.08577000  1.0 -0.7894131036
O  O36  1  0.63200000  0.08577000  0.31203000  1.0 -0.7894131036
O  O37  1  0.88044000  0.48645000  0.27961000  1.0 -0.7839090498
O  O38  1  0.48645000  0.27961000  0.88044000  1.0 -0.7839090498
O  O39  1  0.27961000  0.88044000  0.48645000  1.0 -0.7839090498
O  O40  1  0.11956000  0.51355000  0.72039000  1.0 -0.7839090498
O  O41  1  0.51355000  0.72039000  0.11956000  1.0 -0.7839090498
O  O42  1  0.72039000  0.11956000  0.51355000  1.0 -0.7839090498
O  O43  1  0.06912000  0.65923000  0.34985000  1.0 -0.7894131036
O  O44  1  0.65923000  0.34985000  0.06912000  1.0 -0.7894131036
O  O45  1  0.34985000  0.06912000  0.65923000  1.0 -0.7894131036
O  O46  1  0.93088000  0.34077000  0.65015000  1.0 -0.7894131036
O  O47  1  0.34077000  0.65015000  0.93088000  1.0 -0.7894131036
O  O48  1  0.65015000  0.93088000  0.34077000  1.0 -0.7894131036
