# DDEC6 charges by PACMAN v1.1 (https://github.com/mtap-research/PACMAN-charge/)
data_HEGNIR_ASR_pacman
_symmetry_space_group_name_H-M   'P 1'
_cell_length_a   14.39130000
_cell_length_b   14.39130000
_cell_length_c   14.39130000
_cell_angle_alpha   110.60000000
_cell_angle_beta   110.60000000
_cell_angle_gamma   110.60000000
_symmetry_Int_Tables_number   1
_chemical_formula_structural   Ga2P2H13C4N3O8
_chemical_formula_sum   'Ga12 P12 H78 C24 N18 O48'
_cell_volume   2193.32994778
_cell_formula_units_Z   6
loop_
 _symmetry_equiv_pos_site_id
 _symmetry_equiv_pos_as_xyz
  1  'x, y, z'
loop_
 _atom_site_type_symbol
 _atom_site_label
 _atom_site_symmetry_multiplicity
 _atom_site_fract_x
 _atom_site_fract_y
 _atom_site_fract_z
 _atom_site_occupancy
 _atom_site_charge
Ga  Ga1  1  0.84973000  0.48010000  0.02492000  1.0 1.2770005084
Ga  Ga2  1  0.48010000  0.02492000  0.84973000  1.0 1.2770005084
Ga  Ga3  1  0.02492000  0.84973000  0.48010000  1.0 1.2770005084
Ga  Ga4  1  0.15027000  0.51990000  0.97508000  1.0 1.2770005084
Ga  Ga5  1  0.51990000  0.97508000  0.15027000  1.0 1.2770005084
Ga  Ga6  1  0.97508000  0.15027000  0.51990000  1.0 1.2770005084
Ga  Ga7  1  0.81191000  0.26793000  0.67422000  1.0 1.2952862995
Ga  Ga8  1  0.26793000  0.67422000  0.81191000  1.0 1.2952862995
Ga  Ga9  1  0.67422000  0.81191000  0.26793000  1.0 1.2952862995
Ga  Ga10  1  0.18809000  0.73207000  0.32578000  1.0 1.2952862995
Ga  Ga11  1  0.73207000  0.32578000  0.18809000  1.0 1.2952862995
Ga  Ga12  1  0.32578000  0.18809000  0.73207000  1.0 1.2952862995
P  P1  1  0.93960000  0.54232000  0.88417000  1.0 1.5078129785
P  P2  1  0.54232000  0.88417000  0.93960000  1.0 1.5078129785
P  P3  1  0.88417000  0.93960000  0.54232000  1.0 1.5078129785
P  P4  1  0.06040000  0.45768000  0.11583000  1.0 1.5078129785
P  P5  1  0.45768000  0.11583000  0.06040000  1.0 1.5078129785
P  P6  1  0.11583000  0.06040000  0.45768000  1.0 1.5078129785
P  P7  1  0.93398000  0.60187000  0.28867000  1.0 1.5157386479
P  P8  1  0.60187000  0.28867000  0.93398000  1.0 1.5157386479
P  P9  1  0.28867000  0.93398000  0.60187000  1.0 1.5157386479
P  P10  1  0.06602000  0.39813000  0.71133000  1.0 1.5157386479
P  P11  1  0.39813000  0.71133000  0.06602000  1.0 1.5157386479
P  P12  1  0.71133000  0.06602000  0.39813000  1.0 1.5157386479
H  H1  1  0.67580000  0.27190000  0.51740000  1.0 0.2985293584
H  H2  1  0.27190000  0.51740000  0.67580000  1.0 0.2985293584
H  H3  1  0.51740000  0.67580000  0.27190000  1.0 0.2985293584
H  H4  1  0.32420000  0.72810000  0.48260000  1.0 0.2985293584
H  H5  1  0.72810000  0.48260000  0.32420000  1.0 0.2985293584
H  H6  1  0.48260000  0.32420000  0.72810000  1.0 0.2985293584
H  H7  1  0.74860000  0.40170000  0.61810000  1.0 0.3077146577
H  H8  1  0.40170000  0.61810000  0.74860000  1.0 0.3077146577
H  H9  1  0.61810000  0.74860000  0.40170000  1.0 0.3077146577
H  H10  1  0.25140000  0.59830000  0.38190000  1.0 0.3077146577
H  H11  1  0.59830000  0.38190000  0.25140000  1.0 0.3077146577
H  H12  1  0.38190000  0.25140000  0.59830000  1.0 0.3077146577
H  H13  1  0.70350000  0.24290000  0.77640000  1.0 0.2666223066
H  H14  1  0.24290000  0.77640000  0.70350000  1.0 0.2666223066
H  H15  1  0.77640000  0.70350000  0.24290000  1.0 0.2666223066
H  H16  1  0.29650000  0.75710000  0.22360000  1.0 0.2666223066
H  H17  1  0.75710000  0.22360000  0.29650000  1.0 0.2666223066
H  H18  1  0.22360000  0.29650000  0.75710000  1.0 0.2666223066
H  H19  1  0.95350000  0.25060000  0.82800000  1.0 0.3077146577
H  H20  1  0.25060000  0.82800000  0.95350000  1.0 0.3077146577
H  H21  1  0.82800000  0.95350000  0.25060000  1.0 0.3077146577
H  H22  1  0.04650000  0.74940000  0.17200000  1.0 0.3077146577
H  H23  1  0.74940000  0.17200000  0.04650000  1.0 0.3077146577
H  H24  1  0.17200000  0.04650000  0.74940000  1.0 0.3077146577
H  H25  1  0.89690000  0.13230000  0.71400000  1.0 0.2985293584
H  H26  1  0.13230000  0.71400000  0.89690000  1.0 0.2985293584
H  H27  1  0.71400000  0.89690000  0.13230000  1.0 0.2985293584
H  H28  1  0.10310000  0.86770000  0.28600000  1.0 0.2985293584
H  H29  1  0.86770000  0.28600000  0.10310000  1.0 0.2985293584
H  H30  1  0.28600000  0.10310000  0.86770000  1.0 0.2985293584
H  H31  1  0.62330000  0.34800000  0.68340000  1.0 0.1131747755
H  H32  1  0.34800000  0.68340000  0.62330000  1.0 0.1131747755
H  H33  1  0.68340000  0.62330000  0.34800000  1.0 0.1131747755
H  H34  1  0.37670000  0.65200000  0.31660000  1.0 0.1131747755
H  H35  1  0.65200000  0.31660000  0.37670000  1.0 0.1131747755
H  H36  1  0.31660000  0.37670000  0.65200000  1.0 0.1131747755
H  H37  1  0.52360000  0.24570000  0.52630000  1.0 0.1131747755
H  H38  1  0.24570000  0.52630000  0.52360000  1.0 0.1131747755
H  H39  1  0.52630000  0.52360000  0.24570000  1.0 0.1131747755
H  H40  1  0.47640000  0.75430000  0.47370000  1.0 0.1131747755
H  H41  1  0.75430000  0.47370000  0.47640000  1.0 0.1131747755
H  H42  1  0.47370000  0.47640000  0.75430000  1.0 0.1131747755
H  H43  1  0.50090000  0.14130000  0.61500000  1.0 0.1313812501
H  H44  1  0.14130000  0.61500000  0.50090000  1.0 0.1313812501
H  H45  1  0.61500000  0.50090000  0.14130000  1.0 0.1313812501
H  H46  1  0.49910000  0.85870000  0.38500000  1.0 0.1313812501
H  H47  1  0.85870000  0.38500000  0.49910000  1.0 0.1313812501
H  H48  1  0.38500000  0.49910000  0.85870000  1.0 0.1313812501
H  H49  1  0.55010000  0.10330000  0.52640000  1.0 0.1175706701
H  H50  1  0.10330000  0.52640000  0.55010000  1.0 0.1175706701
H  H51  1  0.52640000  0.55010000  0.10330000  1.0 0.1175706701
H  H52  1  0.44990000  0.89670000  0.47360000  1.0 0.1175706701
H  H53  1  0.89670000  0.47360000  0.44990000  1.0 0.1175706701
H  H54  1  0.47360000  0.44990000  0.89670000  1.0 0.1175706701
H  H55  1  0.65080000  0.01380000  0.61270000  1.0 0.0992572548
H  H56  1  0.01380000  0.61270000  0.65080000  1.0 0.0992572548
H  H57  1  0.61270000  0.65080000  0.01380000  1.0 0.0992572548
H  H58  1  0.34920000  0.98620000  0.38730000  1.0 0.0992572548
H  H59  1  0.98620000  0.38730000  0.34920000  1.0 0.0992572548
H  H60  1  0.38730000  0.34920000  0.98620000  1.0 0.0992572548
H  H61  1  0.63070000  0.04990000  0.72180000  1.0 0.1313812501
H  H62  1  0.04990000  0.72180000  0.63070000  1.0 0.1313812501
H  H63  1  0.72180000  0.63070000  0.04990000  1.0 0.1313812501
H  H64  1  0.36930000  0.95010000  0.27820000  1.0 0.1313812501
H  H65  1  0.95010000  0.27820000  0.36930000  1.0 0.1313812501
H  H66  1  0.27820000  0.36930000  0.95010000  1.0 0.1313812501
H  H67  1  0.80720000  0.06090000  0.76890000  1.0 0.1313812501
H  H68  1  0.06090000  0.76890000  0.80720000  1.0 0.1313812501
H  H69  1  0.76890000  0.80720000  0.06090000  1.0 0.1313812501
H  H70  1  0.19280000  0.93910000  0.23110000  1.0 0.1313812501
H  H71  1  0.93910000  0.23110000  0.19280000  1.0 0.1313812501
H  H72  1  0.23110000  0.19280000  0.93910000  1.0 0.1313812501
H  H73  1  0.83120000  0.18840000  0.87450000  1.0 0.1131747755
H  H74  1  0.18840000  0.87450000  0.83120000  1.0 0.1131747755
H  H75  1  0.87450000  0.83120000  0.18840000  1.0 0.1131747755
H  H76  1  0.16880000  0.81160000  0.12550000  1.0 0.1131747755
H  H77  1  0.81160000  0.12550000  0.16880000  1.0 0.1131747755
H  H78  1  0.12550000  0.16880000  0.81160000  1.0 0.1131747755
C  C1  1  0.60170000  0.27730000  0.60590000  1.0 -0.0318304581
C  C2  1  0.27730000  0.60590000  0.60170000  1.0 -0.0318304581
C  C3  1  0.60590000  0.60170000  0.27730000  1.0 -0.0318304581
C  C4  1  0.39830000  0.72270000  0.39410000  1.0 -0.0318304581
C  C5  1  0.72270000  0.39410000  0.39830000  1.0 -0.0318304581
C  C6  1  0.39410000  0.39830000  0.72270000  1.0 -0.0318304581
C  C7  1  0.56880000  0.16550000  0.60360000  1.0 -0.1285298351
C  C8  1  0.16550000  0.60360000  0.56880000  1.0 -0.1285298351
C  C9  1  0.60360000  0.56880000  0.16550000  1.0 -0.1285298351
C  C10  1  0.43120000  0.83450000  0.39640000  1.0 -0.1285298351
C  C11  1  0.83450000  0.39640000  0.43120000  1.0 -0.1285298351
C  C12  1  0.39640000  0.43120000  0.83450000  1.0 -0.1285298351
C  C13  1  0.67540000  0.08460000  0.69430000  1.0 -0.080611786
C  C14  1  0.08460000  0.69430000  0.67540000  1.0 -0.080611786
C  C15  1  0.69430000  0.67540000  0.08460000  1.0 -0.080611786
C  C16  1  0.32460000  0.91540000  0.30570000  1.0 -0.080611786
C  C17  1  0.91540000  0.30570000  0.32460000  1.0 -0.080611786
C  C18  1  0.30570000  0.32460000  0.91540000  1.0 -0.080611786
C  C19  1  0.80100000  0.13030000  0.78430000  1.0 -0.0445220174
C  C20  1  0.13030000  0.78430000  0.80100000  1.0 -0.0445220174
C  C21  1  0.78430000  0.80100000  0.13030000  1.0 -0.0445220174
C  C22  1  0.19900000  0.86970000  0.21570000  1.0 -0.0445220174
C  C23  1  0.86970000  0.21570000  0.19900000  1.0 -0.0445220174
C  C24  1  0.21570000  0.19900000  0.86970000  1.0 -0.0445220174
N  N1  1  0.70360000  0.31450000  0.59130000  1.0 -0.5324664695
N  N2  1  0.31450000  0.59130000  0.70360000  1.0 -0.5324664695
N  N3  1  0.59130000  0.70360000  0.31450000  1.0 -0.5324664695
N  N4  1  0.29640000  0.68550000  0.40870000  1.0 -0.5324664695
N  N5  1  0.68550000  0.40870000  0.29640000  1.0 -0.5324664695
N  N6  1  0.40870000  0.29640000  0.68550000  1.0 -0.5324664695
N  N7  1  0.67702000  0.18608000  0.69500000  1.0 -0.3050993664
N  N8  1  0.18608000  0.69500000  0.67702000  1.0 -0.3050993664
N  N9  1  0.69500000  0.67702000  0.18608000  1.0 -0.3050993664
N  N10  1  0.32298000  0.81392000  0.30500000  1.0 -0.3050993664
N  N11  1  0.81392000  0.30500000  0.32298000  1.0 -0.3050993664
N  N12  1  0.30500000  0.32298000  0.81392000  1.0 -0.3050993664
N  N13  1  0.88110000  0.19550000  0.75570000  1.0 -0.5438769443
N  N14  1  0.19550000  0.75570000  0.88110000  1.0 -0.5438769443
N  N15  1  0.75570000  0.88110000  0.19550000  1.0 -0.5438769443
N  N16  1  0.11890000  0.80450000  0.24430000  1.0 -0.5438769443
N  N17  1  0.80450000  0.24430000  0.11890000  1.0 -0.5438769443
N  N18  1  0.24430000  0.11890000  0.80450000  1.0 -0.5438769443
O  O1  1  0.88077000  0.40858000  0.82645000  1.0 -0.8305914385
O  O2  1  0.40858000  0.82645000  0.88077000  1.0 -0.8305914385
O  O3  1  0.82645000  0.88077000  0.40858000  1.0 -0.8305914385
O  O4  1  0.11923000  0.59142000  0.17355000  1.0 -0.8305914385
O  O5  1  0.59142000  0.17355000  0.11923000  1.0 -0.8305914385
O  O6  1  0.17355000  0.11923000  0.59142000  1.0 -0.8305914385
O  O7  1  0.91071000  0.58199000  0.98010000  1.0 -0.7921541167
O  O8  1  0.58199000  0.98010000  0.91071000  1.0 -0.7921541167
O  O9  1  0.98010000  0.91071000  0.58199000  1.0 -0.7921541167
O  O10  1  0.08929000  0.41801000  0.01990000  1.0 -0.7921541167
O  O11  1  0.41801000  0.01990000  0.08929000  1.0 -0.7921541167
O  O12  1  0.01990000  0.08929000  0.41801000  1.0 -0.7921541167
O  O13  1  0.07590000  0.60011000  0.94799000  1.0 -0.7921541167
O  O14  1  0.60011000  0.94799000  0.07590000  1.0 -0.7921541167
O  O15  1  0.94799000  0.07590000  0.60011000  1.0 -0.7921541167
O  O16  1  0.92410000  0.39989000  0.05201000  1.0 -0.7921541167
O  O17  1  0.39989000  0.05201000  0.92410000  1.0 -0.7921541167
O  O18  1  0.05201000  0.92410000  0.39989000  1.0 -0.7921541167
O  O19  1  0.89890000  0.57860000  0.80120000  1.0 -0.7820179744
O  O20  1  0.57860000  0.80120000  0.89890000  1.0 -0.7820179744
O  O21  1  0.80120000  0.89890000  0.57860000  1.0 -0.7820179744
O  O22  1  0.10110000  0.42140000  0.19880000  1.0 -0.7820179744
O  O23  1  0.42140000  0.19880000  0.10110000  1.0 -0.7820179744
O  O24  1  0.19880000  0.10110000  0.42140000  1.0 -0.7820179744
O  O25  1  0.88003000  0.58873000  0.16784000  1.0 -0.7921541167
O  O26  1  0.58873000  0.16784000  0.88003000  1.0 -0.7921541167
O  O27  1  0.16784000  0.88003000  0.58873000  1.0 -0.7921541167
O  O28  1  0.11997000  0.41127000  0.83216000  1.0 -0.7921541167
O  O29  1  0.41127000  0.83216000  0.11997000  1.0 -0.7921541167
O  O30  1  0.83216000  0.11997000  0.41127000  1.0 -0.7921541167
O  O31  1  0.91212000  0.68653000  0.36675000  1.0 -0.7952640437
O  O32  1  0.68653000  0.36675000  0.91212000  1.0 -0.7952640437
O  O33  1  0.36675000  0.91212000  0.68653000  1.0 -0.7952640437
O  O34  1  0.08788000  0.31347000  0.63325000  1.0 -0.7952640437
O  O35  1  0.31347000  0.63325000  0.08788000  1.0 -0.7952640437
O  O36  1  0.63325000  0.08788000  0.31347000  1.0 -0.7952640437
O  O37  1  0.87941000  0.48520000  0.27769000  1.0 -0.7820179744
O  O38  1  0.48520000  0.27769000  0.87941000  1.0 -0.7820179744
O  O39  1  0.27769000  0.87941000  0.48520000  1.0 -0.7820179744
O  O40  1  0.12059000  0.51480000  0.72231000  1.0 -0.7820179744
O  O41  1  0.51480000  0.72231000  0.12059000  1.0 -0.7820179744
O  O42  1  0.72231000  0.12059000  0.51480000  1.0 -0.7820179744
O  O43  1  0.06806000  0.66020000  0.34964000  1.0 -0.7921541167
O  O44  1  0.66020000  0.34964000  0.06806000  1.0 -0.7921541167
O  O45  1  0.34964000  0.06806000  0.66020000  1.0 -0.7921541167
O  O46  1  0.93194000  0.33980000  0.65036000  1.0 -0.7921541167
O  O47  1  0.33980000  0.65036000  0.93194000  1.0 -0.7921541167
O  O48  1  0.65036000  0.93194000  0.33980000  1.0 -0.7921541167
