# DDEC6 charges by PACMAN v1.1 (https://github.com/mtap-research/PACMAN-charge/)
data_HEGPAL_FSR_pacman
_symmetry_space_group_name_H-M   'P 1'
_cell_length_a   14.42460000
_cell_length_b   14.42460000
_cell_length_c   14.42460000
_cell_angle_alpha   110.75300000
_cell_angle_beta   110.75300000
_cell_angle_gamma   110.75300000
_symmetry_Int_Tables_number   1
_chemical_formula_structural   Ga2P2H13C4N3O8
_chemical_formula_sum   'Ga12 P12 H78 C24 N18 O48'
_cell_volume   2193.93719625
_cell_formula_units_Z   6
loop_
 _symmetry_equiv_pos_site_id
 _symmetry_equiv_pos_as_xyz
  1  'x, y, z'
loop_
 _atom_site_type_symbol
 _atom_site_label
 _atom_site_symmetry_multiplicity
 _atom_site_fract_x
 _atom_site_fract_y
 _atom_site_fract_z
 _atom_site_occupancy
 _atom_site_charge
Ga  Ga1  1  0.85267000  0.48037000  0.02690000  1.0 1.3250170245
Ga  Ga2  1  0.48037000  0.02690000  0.85267000  1.0 1.3088108395
Ga  Ga3  1  0.02690000  0.85267000  0.48037000  1.0 1.3088108395
Ga  Ga4  1  0.14733000  0.51963000  0.97310000  1.0 1.3088108395
Ga  Ga5  1  0.51963000  0.97310000  0.14733000  1.0 1.3212309374
Ga  Ga6  1  0.97310000  0.14733000  0.51963000  1.0 1.3212309374
Ga  Ga7  1  0.80855000  0.26516000  0.67261000  1.0 1.2784261797
Ga  Ga8  1  0.26516000  0.67261000  0.80855000  1.0 1.2784261797
Ga  Ga9  1  0.67261000  0.80855000  0.26516000  1.0 1.2784261797
Ga  Ga10  1  0.19145000  0.73484000  0.32739000  1.0 1.2784261797
Ga  Ga11  1  0.73484000  0.32739000  0.19145000  1.0 1.2784261797
Ga  Ga12  1  0.32739000  0.19145000  0.73484000  1.0 1.2784261797
P  P1  1  0.93695000  0.53826000  0.88329000  1.0 1.4994798397
P  P2  1  0.53826000  0.88329000  0.93695000  1.0 1.4994798397
P  P3  1  0.88329000  0.93695000  0.53826000  1.0 1.4994798397
P  P4  1  0.06305000  0.46174000  0.11671000  1.0 1.4994798397
P  P5  1  0.46174000  0.11671000  0.06305000  1.0 1.4994798397
P  P6  1  0.11671000  0.06305000  0.46174000  1.0 1.4994798397
P  P7  1  0.93742000  0.60405000  0.29028000  1.0 1.4994798397
P  P8  1  0.60405000  0.29028000  0.93742000  1.0 1.4994798397
P  P9  1  0.29028000  0.93742000  0.60405000  1.0 1.4994798397
P  P10  1  0.06258000  0.39595000  0.70972000  1.0 1.4994798397
P  P11  1  0.39595000  0.70972000  0.06258000  1.0 1.4994798397
P  P12  1  0.70972000  0.06258000  0.39595000  1.0 1.4994798397
H  H1  1  0.66080000  0.26440000  0.51470000  1.0 0.2894138489
H  H2  1  0.26440000  0.51470000  0.66080000  1.0 0.2894138489
H  H3  1  0.51470000  0.66080000  0.26440000  1.0 0.2894138489
H  H4  1  0.33920000  0.73560000  0.48530000  1.0 0.2894138489
H  H5  1  0.73560000  0.48530000  0.33920000  1.0 0.2894138489
H  H6  1  0.48530000  0.33920000  0.73560000  1.0 0.2894138489
H  H7  1  0.73910000  0.39510000  0.63090000  1.0 0.3112167214
H  H8  1  0.39510000  0.63090000  0.73910000  1.0 0.3112167214
H  H9  1  0.63090000  0.73910000  0.39510000  1.0 0.3112167214
H  H10  1  0.26090000  0.60490000  0.36910000  1.0 0.3112167214
H  H11  1  0.60490000  0.36910000  0.26090000  1.0 0.3112167214
H  H12  1  0.36910000  0.26090000  0.60490000  1.0 0.3112167214
H  H13  1  0.69000000  0.22830000  0.76820000  1.0 0.2618838891
H  H14  1  0.22830000  0.76820000  0.69000000  1.0 0.2618838891
H  H15  1  0.76820000  0.69000000  0.22830000  1.0 0.2618838891
H  H16  1  0.31000000  0.77170000  0.23180000  1.0 0.2618838891
H  H17  1  0.77170000  0.23180000  0.31000000  1.0 0.2618838891
H  H18  1  0.23180000  0.31000000  0.77170000  1.0 0.2618838891
H  H19  1  0.95260000  0.25380000  0.81670000  1.0 0.3026285985
H  H20  1  0.25380000  0.81670000  0.95260000  1.0 0.3026285985
H  H21  1  0.81670000  0.95260000  0.25380000  1.0 0.3026285985
H  H22  1  0.04740000  0.74620000  0.18330000  1.0 0.3026285985
H  H23  1  0.74620000  0.18330000  0.04740000  1.0 0.3026285985
H  H24  1  0.18330000  0.04740000  0.74620000  1.0 0.3026285985
H  H25  1  0.88180000  0.13820000  0.70490000  1.0 0.3026285985
H  H26  1  0.13820000  0.70490000  0.88180000  1.0 0.3026285985
H  H27  1  0.70490000  0.88180000  0.13820000  1.0 0.3026285985
H  H28  1  0.11820000  0.86180000  0.29510000  1.0 0.3026285985
H  H29  1  0.86180000  0.29510000  0.11820000  1.0 0.3026285985
H  H30  1  0.29510000  0.11820000  0.86180000  1.0 0.3026285985
H  H31  1  0.63010000  0.34420000  0.69720000  1.0 0.1162229261
H  H32  1  0.34420000  0.69720000  0.63010000  1.0 0.1162229261
H  H33  1  0.69720000  0.63010000  0.34420000  1.0 0.1162229261
H  H34  1  0.36990000  0.65580000  0.30280000  1.0 0.1162229261
H  H35  1  0.65580000  0.30280000  0.36990000  1.0 0.1162229261
H  H36  1  0.30280000  0.36990000  0.65580000  1.0 0.1162229261
H  H37  1  0.54750000  0.25900000  0.55090000  1.0 0.1292969852
H  H38  1  0.25900000  0.55090000  0.54750000  1.0 0.1292969852
H  H39  1  0.55090000  0.54750000  0.25900000  1.0 0.1292969852
H  H40  1  0.45250000  0.74100000  0.44910000  1.0 0.1292969852
H  H41  1  0.74100000  0.44910000  0.45250000  1.0 0.1292969852
H  H42  1  0.44910000  0.45250000  0.74100000  1.0 0.1292969852
H  H43  1  0.54010000  0.10710000  0.52570000  1.0 0.1162229261
H  H44  1  0.10710000  0.52570000  0.54010000  1.0 0.1162229261
H  H45  1  0.52570000  0.54010000  0.10710000  1.0 0.1162229261
H  H46  1  0.45990000  0.89290000  0.47430000  1.0 0.1162229261
H  H47  1  0.89290000  0.47430000  0.45990000  1.0 0.1162229261
H  H48  1  0.47430000  0.45990000  0.89290000  1.0 0.1162229261
H  H49  1  0.50740000  0.13380000  0.62770000  1.0 0.1378824183
H  H50  1  0.13380000  0.62770000  0.50740000  1.0 0.1378824183
H  H51  1  0.62770000  0.50740000  0.13380000  1.0 0.1378824183
H  H52  1  0.49260000  0.86620000  0.37230000  1.0 0.1378824183
H  H53  1  0.86620000  0.37230000  0.49260000  1.0 0.1378824183
H  H54  1  0.37230000  0.49260000  0.86620000  1.0 0.1378824183
H  H55  1  0.64420000  0.01800000  0.60940000  1.0 0.1131467193
H  H56  1  0.01800000  0.60940000  0.64420000  1.0 0.1131467193
H  H57  1  0.60940000  0.64420000  0.01800000  1.0 0.1131467193
H  H58  1  0.35580000  0.98200000  0.39060000  1.0 0.1131467193
H  H59  1  0.98200000  0.39060000  0.35580000  1.0 0.1131467193
H  H60  1  0.39060000  0.35580000  0.98200000  1.0 0.1131467193
H  H61  1  0.63440000  0.05180000  0.72730000  1.0 0.1292969852
H  H62  1  0.05180000  0.72730000  0.63440000  1.0 0.1292969852
H  H63  1  0.72730000  0.63440000  0.05180000  1.0 0.1292969852
H  H64  1  0.36560000  0.94820000  0.27270000  1.0 0.1292969852
H  H65  1  0.94820000  0.27270000  0.36560000  1.0 0.1292969852
H  H66  1  0.27270000  0.36560000  0.94820000  1.0 0.1292969852
H  H67  1  0.82640000  0.18770000  0.85690000  1.0 0.1378824183
H  H68  1  0.18770000  0.85690000  0.82640000  1.0 0.1378824183
H  H69  1  0.85690000  0.82640000  0.18770000  1.0 0.1378824183
H  H70  1  0.17360000  0.81230000  0.14310000  1.0 0.1378824183
H  H71  1  0.81230000  0.14310000  0.17360000  1.0 0.1378824183
H  H72  1  0.14310000  0.17360000  0.81230000  1.0 0.1378824183
H  H73  1  0.79220000  0.04370000  0.76780000  1.0 0.1034035776
H  H74  1  0.04370000  0.76780000  0.79220000  1.0 0.1034035776
H  H75  1  0.76780000  0.79220000  0.04370000  1.0 0.1034035776
H  H76  1  0.20780000  0.95630000  0.23220000  1.0 0.1034035776
H  H77  1  0.95630000  0.23220000  0.20780000  1.0 0.1034035776
H  H78  1  0.23220000  0.20780000  0.95630000  1.0 0.1034035776
C  C1  1  0.60240000  0.27840000  0.61250000  1.0 -0.0504147987
C  C2  1  0.27840000  0.61250000  0.60240000  1.0 -0.0504147987
C  C3  1  0.61250000  0.60240000  0.27840000  1.0 -0.0504147987
C  C4  1  0.39760000  0.72160000  0.38750000  1.0 -0.0504147987
C  C5  1  0.72160000  0.38750000  0.39760000  1.0 -0.0504147987
C  C6  1  0.38750000  0.39760000  0.72160000  1.0 -0.0504147987
C  C7  1  0.56780000  0.16460000  0.60670000  1.0 -0.1370870725
C  C8  1  0.16460000  0.60670000  0.56780000  1.0 -0.1370870725
C  C9  1  0.60670000  0.56780000  0.16460000  1.0 -0.1370870725
C  C10  1  0.43220000  0.83540000  0.39330000  1.0 -0.1370870725
C  C11  1  0.83540000  0.39330000  0.43220000  1.0 -0.1370870725
C  C12  1  0.39330000  0.43220000  0.83540000  1.0 -0.1370870725
C  C13  1  0.67480000  0.08180000  0.69380000  1.0 -0.1194398012
C  C14  1  0.08180000  0.69380000  0.67480000  1.0 -0.1194398012
C  C15  1  0.69380000  0.67480000  0.08180000  1.0 -0.1194398012
C  C16  1  0.32520000  0.91820000  0.30620000  1.0 -0.1194398012
C  C17  1  0.91820000  0.30620000  0.32520000  1.0 -0.1194398012
C  C18  1  0.30620000  0.32520000  0.91820000  1.0 -0.1194398012
C  C19  1  0.80060000  0.12660000  0.78150000  1.0 -0.0264934052
C  C20  1  0.12660000  0.78150000  0.80060000  1.0 -0.0264934052
C  C21  1  0.78150000  0.80060000  0.12660000  1.0 -0.0264934052
C  C22  1  0.19940000  0.87340000  0.21850000  1.0 -0.0264934052
C  C23  1  0.87340000  0.21850000  0.19940000  1.0 -0.0264934052
C  C24  1  0.21850000  0.19940000  0.87340000  1.0 -0.0264934052
N  N1  1  0.70071000  0.31366000  0.59353000  1.0 -0.5335827575
N  N2  1  0.31366000  0.59353000  0.70071000  1.0 -0.5350896225
N  N3  1  0.59353000  0.70071000  0.31366000  1.0 -0.5350896225
N  N4  1  0.29929000  0.68634000  0.40647000  1.0 -0.5335827575
N  N5  1  0.68634000  0.40647000  0.29929000  1.0 -0.5335827575
N  N6  1  0.40647000  0.29929000  0.68634000  1.0 -0.5350896225
N  N7  1  0.67553000  0.18370000  0.69467000  1.0 -0.3094000424
N  N8  1  0.18370000  0.69467000  0.67553000  1.0 -0.3094000424
N  N9  1  0.69467000  0.67553000  0.18370000  1.0 -0.3094000424
N  N10  1  0.32447000  0.81630000  0.30533000  1.0 -0.3094000424
N  N11  1  0.81630000  0.30533000  0.32447000  1.0 -0.3094000424
N  N12  1  0.30533000  0.32447000  0.81630000  1.0 -0.3094000424
N  N13  1  0.87909000  0.19219000  0.75232000  1.0 -0.5335827575
N  N14  1  0.19219000  0.75232000  0.87909000  1.0 -0.5335827575
N  N15  1  0.75232000  0.87909000  0.19219000  1.0 -0.5335827575
N  N16  1  0.12091000  0.80781000  0.24768000  1.0 -0.5335827575
N  N17  1  0.80781000  0.24768000  0.12091000  1.0 -0.5335827575
N  N18  1  0.24768000  0.12091000  0.80781000  1.0 -0.5335827575
O  O1  1  0.88093000  0.40491000  0.82750000  1.0 -0.8292058215
O  O2  1  0.40491000  0.82750000  0.88093000  1.0 -0.8292058215
O  O3  1  0.82750000  0.88093000  0.40491000  1.0 -0.8292058215
O  O4  1  0.11907000  0.59509000  0.17250000  1.0 -0.8292058215
O  O5  1  0.59509000  0.17250000  0.11907000  1.0 -0.8292058215
O  O6  1  0.17250000  0.11907000  0.59509000  1.0 -0.8292058215
O  O7  1  0.90973000  0.57852000  0.98059000  1.0 -0.7825380106
O  O8  1  0.57852000  0.98059000  0.90973000  1.0 -0.7825380106
O  O9  1  0.98059000  0.90973000  0.57852000  1.0 -0.7825380106
O  O10  1  0.09027000  0.42148000  0.01941000  1.0 -0.7825380106
O  O11  1  0.42148000  0.01941000  0.09027000  1.0 -0.7825380106
O  O12  1  0.01941000  0.09027000  0.42148000  1.0 -0.7825380106
O  O13  1  0.07447000  0.59824000  0.94769000  1.0 -0.7825380106
O  O14  1  0.59824000  0.94769000  0.07447000  1.0 -0.7825380106
O  O15  1  0.94769000  0.07447000  0.59824000  1.0 -0.7825380106
O  O16  1  0.92553000  0.40176000  0.05231000  1.0 -0.7825380106
O  O17  1  0.40176000  0.05231000  0.92553000  1.0 -0.7825380106
O  O18  1  0.05231000  0.92553000  0.40176000  1.0 -0.7825380106
O  O19  1  0.89487000  0.57321000  0.79952000  1.0 -0.7825380106
O  O20  1  0.57321000  0.79952000  0.89487000  1.0 -0.7825380106
O  O21  1  0.79952000  0.89487000  0.57321000  1.0 -0.7825380106
O  O22  1  0.10513000  0.42679000  0.20048000  1.0 -0.7825380106
O  O23  1  0.42679000  0.20048000  0.10513000  1.0 -0.7825380106
O  O24  1  0.20048000  0.10513000  0.42679000  1.0 -0.7825380106
O  O25  1  0.88156000  0.58733000  0.16741000  1.0 -0.7891476135
O  O26  1  0.58733000  0.16741000  0.88156000  1.0 -0.7891476135
O  O27  1  0.16741000  0.88156000  0.58733000  1.0 -0.7891476135
O  O28  1  0.11844000  0.41267000  0.83259000  1.0 -0.7891476135
O  O29  1  0.41267000  0.83259000  0.11844000  1.0 -0.7891476135
O  O30  1  0.83259000  0.11844000  0.41267000  1.0 -0.7891476135
O  O31  1  0.91699000  0.69235000  0.36644000  1.0 -0.7891476135
O  O32  1  0.69235000  0.36644000  0.91699000  1.0 -0.7891476135
O  O33  1  0.36644000  0.91699000  0.69235000  1.0 -0.7891476135
O  O34  1  0.08301000  0.30765000  0.63356000  1.0 -0.7891476135
O  O35  1  0.30765000  0.63356000  0.08301000  1.0 -0.7891476135
O  O36  1  0.63356000  0.08301000  0.30765000  1.0 -0.7891476135
O  O37  1  0.88134000  0.48927000  0.28237000  1.0 -0.7891476135
O  O38  1  0.48927000  0.28237000  0.88134000  1.0 -0.7891476135
O  O39  1  0.28237000  0.88134000  0.48927000  1.0 -0.7891476135
O  O40  1  0.11866000  0.51073000  0.71763000  1.0 -0.7891476135
O  O41  1  0.51073000  0.71763000  0.11866000  1.0 -0.7891476135
O  O42  1  0.71763000  0.11866000  0.51073000  1.0 -0.7891476135
O  O43  1  0.07072000  0.66071000  0.34974000  1.0 -0.7891476135
O  O44  1  0.66071000  0.34974000  0.07072000  1.0 -0.7891476135
O  O45  1  0.34974000  0.07072000  0.66071000  1.0 -0.7891476135
O  O46  1  0.92928000  0.33929000  0.65026000  1.0 -0.7891476135
O  O47  1  0.33929000  0.65026000  0.92928000  1.0 -0.7891476135
O  O48  1  0.65026000  0.92928000  0.33929000  1.0 -0.7891476135
