# DDEC6 charges by PACMAN v1.1 (https://github.com/mtap-research/PACMAN-charge/)
data_HEHREU_ASR_pacman
_symmetry_space_group_name_H-M   'P 1'
_cell_length_a   33.22020000
_cell_length_b   33.22020000
_cell_length_c   33.22020000
_cell_angle_alpha   145.85700000
_cell_angle_beta   145.85700000
_cell_angle_gamma   49.05920000
_symmetry_Int_Tables_number   1
_chemical_formula_structural   Cu3H32C46(NO3)4
_chemical_formula_sum   'Cu12 H128 C184 N16 O48'
_cell_volume   11497.28893562
_cell_formula_units_Z   4
loop_
 _symmetry_equiv_pos_site_id
 _symmetry_equiv_pos_as_xyz
  1  'x, y, z'
loop_
 _atom_site_type_symbol
 _atom_site_label
 _atom_site_symmetry_multiplicity
 _atom_site_fract_x
 _atom_site_fract_y
 _atom_site_fract_z
 _atom_site_occupancy
 _atom_site_charge
Cu  Cu1  1  0.80486000  0.62245000  0.18241000  1.0 0.7881150277
Cu  Cu2  1  0.44004000  0.62245000  0.81759000  1.0 0.7881150277
Cu  Cu3  1  0.37245000  0.69004000  0.31759000  1.0 0.7881150277
Cu  Cu4  1  0.37245000  0.05486000  0.68241000  1.0 0.7881150277
Cu  Cu5  1  0.30996000  0.62755000  0.68241000  1.0 0.7881150277
Cu  Cu6  1  0.94514000  0.62755000  0.31759000  1.0 0.7881150277
Cu  Cu7  1  0.37755000  0.55996000  0.18241000  1.0 0.7881150277
Cu  Cu8  1  0.37755000  0.19514000  0.81759000  1.0 0.7881150277
Cu  Cu9  1  0.02183000  0.02183000  0.00000000  1.0 0.8521043987
Cu  Cu10  1  0.77183000  0.27183000  0.50000000  1.0 0.8521043987
Cu  Cu11  1  0.72817000  0.22817000  0.50000000  1.0 0.8521043987
Cu  Cu12  1  0.97817000  0.97817000  0.00000000  1.0 0.8521043987
H  H1  1  0.73410000  0.42500000  0.02310000  1.0 0.1292415572
H  H2  1  0.71690000  0.32510000  0.96800000  1.0 0.1174786131
H  H3  1  0.93180000  0.32940000  0.16600000  1.0 0.1174786131
H  H4  1  0.94910000  0.43030000  0.22280000  1.0 0.1292415572
H  H5  1  0.90140000  0.20710000  0.04490000  1.0 0.1292415572
H  H6  1  0.62120000  0.57360000  0.07520000  1.0 0.0916277145
H  H7  1  0.70390000  0.55890000  0.11800000  1.0 0.1040764622
H  H8  1  0.40190000  0.71100000  0.97690000  1.0 0.1292415572
H  H9  1  0.35710000  0.74890000  0.03200000  1.0 0.1174786131
H  H10  1  0.16340000  0.76580000  0.83400000  1.0 0.1174786131
H  H11  1  0.20750000  0.72630000  0.77720000  1.0 0.1292415572
H  H12  1  0.16220000  0.85650000  0.95510000  1.0 0.1292415572
H  H13  1  0.49840000  0.54600000  0.92480000  1.0 0.0916277145
H  H14  1  0.44090000  0.58590000  0.88200000  1.0 0.1040764622
H  H15  1  0.17500000  0.65190000  0.19090000  1.0 0.1292415572
H  H16  1  0.07510000  0.60710000  0.10820000  1.0 0.1174786131
H  H17  1  0.07940000  0.41340000  0.89760000  1.0 0.1174786131
H  H18  1  0.18030000  0.45750000  0.98120000  1.0 0.1292415572
H  H19  1  0.95710000  0.41220000  0.80570000  1.0 0.1292415572
H  H20  1  0.32360000  0.74840000  0.45240000  1.0 0.0916277145
H  H21  1  0.30890000  0.69090000  0.35500000  1.0 0.1040764622
H  H22  1  0.46100000  0.98410000  0.80910000  1.0 0.1292415572
H  H23  1  0.49890000  0.96690000  0.89180000  1.0 0.1174786131
H  H24  1  0.51580000  0.18180000  0.10240000  1.0 0.1174786131
H  H25  1  0.47630000  0.19910000  0.01880000  1.0 0.1292415572
H  H26  1  0.60650000  0.15140000  0.19430000  1.0 0.1292415572
H  H27  1  0.29600000  0.87120000  0.54760000  1.0 0.0916277145
H  H28  1  0.33590000  0.95390000  0.64500000  1.0 0.1040764622
H  H29  1  0.34810000  0.82500000  0.80910000  1.0 0.1292415572
H  H30  1  0.39290000  0.92490000  0.89180000  1.0 0.1174786131
H  H31  1  0.58660000  0.92060000  0.10240000  1.0 0.1174786131
H  H32  1  0.54250000  0.81970000  0.01880000  1.0 0.1292415572
H  H33  1  0.58780000  0.04290000  0.19430000  1.0 0.1292415572
H  H34  1  0.25160000  0.67640000  0.54760000  1.0 0.0916277145
H  H35  1  0.30910000  0.69110000  0.64500000  1.0 0.1040764622
H  H36  1  0.01590000  0.53900000  0.19090000  1.0 0.1292415572
H  H37  1  0.03310000  0.50110000  0.10820000  1.0 0.1174786131
H  H38  1  0.81820000  0.48420000  0.89760000  1.0 0.1174786131
H  H39  1  0.80090000  0.52370000  0.98120000  1.0 0.1292415572
H  H40  1  0.84860000  0.39350000  0.80570000  1.0 0.1292415572
H  H41  1  0.12880000  0.70400000  0.45240000  1.0 0.0916277145
H  H42  1  0.04610000  0.66410000  0.35500000  1.0 0.1040764622
H  H43  1  0.28900000  0.59810000  0.02310000  1.0 0.1292415572
H  H44  1  0.25110000  0.64290000  0.96800000  1.0 0.1174786131
H  H45  1  0.23420000  0.83660000  0.16600000  1.0 0.1174786131
H  H46  1  0.27370000  0.79250000  0.22280000  1.0 0.1292415572
H  H47  1  0.14350000  0.83780000  0.04490000  1.0 0.1292415572
H  H48  1  0.45400000  0.50160000  0.07520000  1.0 0.0916277145
H  H49  1  0.41410000  0.55910000  0.11800000  1.0 0.1040764622
H  H50  1  0.57500000  0.26590000  0.97690000  1.0 0.1292415572
H  H51  1  0.67490000  0.28310000  0.03200000  1.0 0.1174786131
H  H52  1  0.67060000  0.06820000  0.83400000  1.0 0.1174786131
H  H53  1  0.56970000  0.05090000  0.77720000  1.0 0.1292415572
H  H54  1  0.79290000  0.09860000  0.95510000  1.0 0.1292415572
H  H55  1  0.42640000  0.37880000  0.92480000  1.0 0.0916277145
H  H56  1  0.44110000  0.29610000  0.88200000  1.0 0.1040764622
H  H57  1  0.01590000  0.82500000  0.47690000  1.0 0.1292415572
H  H58  1  0.03310000  0.92490000  0.53200000  1.0 0.1174786131
H  H59  1  0.81820000  0.92060000  0.33400000  1.0 0.1174786131
H  H60  1  0.80090000  0.81970000  0.27720000  1.0 0.1292415572
H  H61  1  0.84860000  0.04290000  0.45510000  1.0 0.1292415572
H  H62  1  0.12880000  0.67640000  0.42480000  1.0 0.0916277145
H  H63  1  0.04610000  0.69110000  0.38200000  1.0 0.1040764622
H  H64  1  0.34810000  0.53900000  0.52310000  1.0 0.1292415572
H  H65  1  0.39290000  0.50110000  0.46800000  1.0 0.1174786131
H  H66  1  0.58660000  0.48420000  0.66600000  1.0 0.1174786131
H  H67  1  0.54250000  0.52370000  0.72280000  1.0 0.1292415572
H  H68  1  0.58780000  0.39350000  0.54490000  1.0 0.1292415572
H  H69  1  0.25160000  0.70400000  0.57520000  1.0 0.0916277145
H  H70  1  0.30910000  0.66410000  0.61800000  1.0 0.1040764622
H  H71  1  0.57500000  0.59810000  0.30910000  1.0 0.1292415572
H  H72  1  0.67490000  0.64290000  0.39180000  1.0 0.1174786131
H  H73  1  0.67060000  0.83660000  0.60240000  1.0 0.1174786131
H  H74  1  0.56970000  0.79250000  0.51880000  1.0 0.1292415572
H  H75  1  0.79290000  0.83780000  0.69430000  1.0 0.1292415572
H  H76  1  0.42640000  0.50160000  0.04760000  1.0 0.0916277145
H  H77  1  0.44110000  0.55910000  0.14500000  1.0 0.1040764622
H  H78  1  0.28900000  0.26590000  0.69090000  1.0 0.1292415572
H  H79  1  0.25110000  0.28310000  0.60820000  1.0 0.1174786131
H  H80  1  0.23420000  0.06820000  0.39760000  1.0 0.1174786131
H  H81  1  0.27370000  0.05090000  0.48120000  1.0 0.1292415572
H  H82  1  0.14350000  0.09860000  0.30570000  1.0 0.1292415572
H  H83  1  0.45400000  0.37880000  0.95240000  1.0 0.0916277145
H  H84  1  0.41410000  0.29610000  0.85500000  1.0 0.1040764622
H  H85  1  0.40190000  0.42500000  0.69090000  1.0 0.1292415572
H  H86  1  0.35710000  0.32510000  0.60820000  1.0 0.1174786131
H  H87  1  0.16340000  0.32940000  0.39760000  1.0 0.1174786131
H  H88  1  0.20750000  0.43030000  0.48120000  1.0 0.1292415572
H  H89  1  0.16220000  0.20710000  0.30570000  1.0 0.1292415572
H  H90  1  0.49840000  0.57360000  0.95240000  1.0 0.0916277145
H  H91  1  0.44090000  0.55890000  0.85500000  1.0 0.1040764622
H  H92  1  0.73410000  0.71100000  0.30910000  1.0 0.1292415572
H  H93  1  0.71690000  0.74890000  0.39180000  1.0 0.1174786131
H  H94  1  0.93180000  0.76580000  0.60240000  1.0 0.1174786131
H  H95  1  0.94910000  0.72630000  0.51880000  1.0 0.1292415572
H  H96  1  0.90140000  0.85650000  0.69430000  1.0 0.1292415572
H  H97  1  0.62120000  0.54600000  0.04760000  1.0 0.0916277145
H  H98  1  0.70390000  0.58590000  0.14500000  1.0 0.1040764622
H  H99  1  0.46100000  0.65190000  0.47690000  1.0 0.1292415572
H  H100  1  0.49890000  0.60710000  0.53200000  1.0 0.1174786131
H  H101  1  0.51580000  0.41340000  0.33400000  1.0 0.1174786131
H  H102  1  0.47630000  0.45750000  0.27720000  1.0 0.1292415572
H  H103  1  0.60650000  0.41220000  0.45510000  1.0 0.1292415572
H  H104  1  0.29600000  0.74840000  0.42480000  1.0 0.0916277145
H  H105  1  0.33590000  0.69090000  0.38200000  1.0 0.1040764622
H  H106  1  0.17500000  0.98410000  0.52310000  1.0 0.1292415572
H  H107  1  0.07510000  0.96690000  0.46800000  1.0 0.1174786131
H  H108  1  0.07940000  0.18180000  0.66600000  1.0 0.1174786131
H  H109  1  0.18030000  0.19910000  0.72280000  1.0 0.1292415572
H  H110  1  0.95710000  0.15140000  0.54490000  1.0 0.1292415572
H  H111  1  0.32360000  0.87120000  0.57520000  1.0 0.0916277145
H  H112  1  0.30890000  0.95390000  0.61800000  1.0 0.1040764622
H  H113  1  0.71070000  0.65190000  0.05880000  1.0 0.1292415572
H  H114  1  0.59310000  0.65190000  0.94120000  1.0 0.1292415572
H  H115  1  0.40190000  0.84310000  0.44120000  1.0 0.1292415572
H  H116  1  0.40190000  0.96070000  0.55880000  1.0 0.1292415572
H  H117  1  0.15690000  0.59810000  0.55880000  1.0 0.1292415572
H  H118  1  0.03930000  0.59810000  0.44120000  1.0 0.1292415572
H  H119  1  0.34810000  0.40690000  0.05880000  1.0 0.1292415572
H  H120  1  0.34810000  0.28930000  0.94120000  1.0 0.1292415572
H  H121  1  0.72000000  0.28000000  0.00000000  1.0 0.1101520307
H  H122  1  0.28000000  0.72000000  0.00000000  1.0 0.1101520307
H  H123  1  0.03000000  0.53000000  0.06000000  1.0 0.1101520307
H  H124  1  0.47000000  0.97000000  0.94000000  1.0 0.1101520307
H  H125  1  0.03000000  0.97000000  0.50000000  1.0 0.1101520307
H  H126  1  0.47000000  0.53000000  0.50000000  1.0 0.1101520307
H  H127  1  0.72000000  0.72000000  0.44000000  1.0 0.1101520307
H  H128  1  0.28000000  0.28000000  0.56000000  1.0 0.1101520307
C  C1  1  0.85476000  0.50584000  0.17092000  1.0 0.5687382848
C  C2  1  0.84357000  0.43907000  0.13130000  1.0 -0.029734343
C  C3  1  0.77424000  0.40634000  0.05330000  1.0 -0.1102166494
C  C4  1  0.76435000  0.34685000  0.02050000  1.0 -0.148334705
C  C5  1  0.82250000  0.31800000  0.06270000  1.0 0.07983864
C  C6  1  0.89142000  0.34932000  0.13770000  1.0 -0.148334705
C  C7  1  0.90167000  0.40937000  0.17150000  1.0 -0.0965484666
C  C8  1  0.81304000  0.25404000  0.02900000  1.0 0.07983864
C  C9  1  0.86215000  0.20285000  0.02730000  1.0 -0.1675858802
C  C10  1  0.33492000  0.68384000  0.82908000  1.0 0.5687382848
C  C11  1  0.30777000  0.71227000  0.86870000  1.0 -0.029734343
C  C12  1  0.35304000  0.72094000  0.94670000  1.0 -0.1102166494
C  C13  1  0.32635000  0.74385000  0.97950000  1.0 -0.148334705
C  C14  1  0.25530000  0.75980000  0.93730000  1.0 0.07983864
C  C15  1  0.21162000  0.75372000  0.86230000  1.0 -0.148334705
C  C16  1  0.23787000  0.73017000  0.82850000  1.0 -0.0965484666
C  C17  1  0.22504000  0.78404000  0.97100000  1.0 0.07983864
C  C18  1  0.17555000  0.83485000  0.97270000  1.0 -0.1675858802
C  C19  1  0.25584000  0.58492000  0.15108000  1.0 0.5687382848
C  C20  1  0.18907000  0.55777000  0.09550000  1.0 -0.029734343
C  C21  1  0.15634000  0.60304000  0.13210000  1.0 -0.1102166494
C  C22  1  0.09685000  0.57635000  0.08250000  1.0 -0.148334705
C  C23  1  0.06800000  0.50530000  0.99550000  1.0 0.07983864
C  C24  1  0.09932000  0.46162000  0.95790000  1.0 -0.148334705
C  C25  1  0.15937000  0.48787000  0.00770000  1.0 -0.0965484666
C  C26  1  0.00404000  0.47504000  0.94100000  1.0 0.07983864
C  C27  1  0.95285000  0.42555000  0.84070000  1.0 -0.1675858802
C  C28  1  0.43384000  0.10476000  0.84892000  1.0 0.5687382848
C  C29  1  0.46227000  0.09357000  0.90450000  1.0 -0.029734343
C  C30  1  0.47094000  0.02424000  0.86790000  1.0 -0.1102166494
C  C31  1  0.49385000  0.01435000  0.91750000  1.0 -0.148334705
C  C32  1  0.50980000  0.07250000  0.00450000  1.0 0.07983864
C  C33  1  0.50372000  0.14142000  0.04210000  1.0 -0.148334705
C  C34  1  0.48017000  0.15167000  0.99230000  1.0 -0.0965484666
C  C35  1  0.53404000  0.06304000  0.05900000  1.0 0.07983864
C  C36  1  0.58485000  0.11215000  0.15930000  1.0 -0.1675858802
C  C37  1  0.41508000  0.74416000  0.84892000  1.0 0.5687382848
C  C38  1  0.44223000  0.81093000  0.90450000  1.0 -0.029734343
C  C39  1  0.39696000  0.84366000  0.86790000  1.0 -0.1102166494
C  C40  1  0.42365000  0.90315000  0.91750000  1.0 -0.148334705
C  C41  1  0.49470000  0.93200000  0.00450000  1.0 0.07983864
C  C42  1  0.53838000  0.90068000  0.04210000  1.0 -0.148334705
C  C43  1  0.51213000  0.84063000  0.99230000  1.0 -0.0965484666
C  C44  1  0.52496000  0.99596000  0.05900000  1.0 0.07983864
C  C45  1  0.57445000  0.04715000  0.15930000  1.0 -0.1675858802
C  C46  1  0.89524000  0.56616000  0.15108000  1.0 0.5687382848
C  C47  1  0.90643000  0.53773000  0.09550000  1.0 -0.029734343
C  C48  1  0.97576000  0.52906000  0.13210000  1.0 -0.1102166494
C  C49  1  0.98565000  0.50615000  0.08250000  1.0 -0.148334705
C  C50  1  0.92750000  0.49020000  0.99550000  1.0 0.07983864
C  C51  1  0.85858000  0.49628000  0.95790000  1.0 -0.148334705
C  C52  1  0.84833000  0.51983000  0.00770000  1.0 -0.0965484666
C  C53  1  0.93696000  0.46596000  0.94100000  1.0 0.07983864
C  C54  1  0.88785000  0.41515000  0.84070000  1.0 -0.1675858802
C  C55  1  0.31616000  0.66508000  0.17092000  1.0 0.5687382848
C  C56  1  0.28773000  0.69223000  0.13130000  1.0 -0.029734343
C  C57  1  0.27906000  0.64696000  0.05330000  1.0 -0.1102166494
C  C58  1  0.25615000  0.67365000  0.02050000  1.0 -0.148334705
C  C59  1  0.24020000  0.74470000  0.06270000  1.0 0.07983864
C  C60  1  0.24628000  0.78838000  0.13770000  1.0 -0.148334705
C  C61  1  0.26983000  0.76213000  0.17150000  1.0 -0.0965484666
C  C62  1  0.21596000  0.77496000  0.02900000  1.0 0.07983864
C  C63  1  0.16515000  0.82445000  0.02730000  1.0 -0.1675858802
C  C64  1  0.49416000  0.14524000  0.82908000  1.0 0.5687382848
C  C65  1  0.56093000  0.15643000  0.86870000  1.0 -0.029734343
C  C66  1  0.59366000  0.22576000  0.94670000  1.0 -0.1102166494
C  C67  1  0.65315000  0.23565000  0.97950000  1.0 -0.148334705
C  C68  1  0.68200000  0.17750000  0.93730000  1.0 0.0916277145
C  C69  1  0.65068000  0.10858000  0.86230000  1.0 -0.148334705
C  C70  1  0.59063000  0.09833000  0.82850000  1.0 -0.0965484666
C  C71  1  0.74596000  0.18696000  0.97100000  1.0 0.07983864
C  C72  1  0.79715000  0.13785000  0.97270000  1.0 -0.1675858802
C  C73  1  0.89524000  0.74416000  0.32908000  1.0 0.5687382848
C  C74  1  0.90643000  0.81093000  0.36870000  1.0 -0.029734343
C  C75  1  0.97576000  0.84366000  0.44670000  1.0 -0.1102166494
C  C76  1  0.98565000  0.90315000  0.47950000  1.0 -0.148334705
C  C77  1  0.92750000  0.93200000  0.43730000  1.0 0.07983864
C  C78  1  0.85858000  0.90068000  0.36230000  1.0 -0.148334705
C  C79  1  0.84833000  0.84063000  0.32850000  1.0 -0.0965484666
C  C80  1  0.93696000  0.99596000  0.47100000  1.0 0.07983864
C  C81  1  0.88785000  0.04715000  0.47270000  1.0 -0.1675858802
C  C82  1  0.41508000  0.56616000  0.67092000  1.0 0.5687382848
C  C83  1  0.44223000  0.53773000  0.63130000  1.0 -0.029734343
C  C84  1  0.39696000  0.52906000  0.55330000  1.0 -0.1102166494
C  C85  1  0.42365000  0.50615000  0.52050000  1.0 -0.148334705
C  C86  1  0.49470000  0.49020000  0.56270000  1.0 0.07983864
C  C87  1  0.53838000  0.49628000  0.63770000  1.0 -0.148334705
C  C88  1  0.51213000  0.51983000  0.67150000  1.0 -0.0965484666
C  C89  1  0.52496000  0.46596000  0.52900000  1.0 0.07983864
C  C90  1  0.57445000  0.41515000  0.52730000  1.0 -0.1675858802
C  C91  1  0.49416000  0.66508000  0.34892000  1.0 0.5687382848
C  C92  1  0.56093000  0.69223000  0.40450000  1.0 -0.029734343
C  C93  1  0.59366000  0.64696000  0.36790000  1.0 -0.1102166494
C  C94  1  0.65315000  0.67365000  0.41750000  1.0 -0.148334705
C  C95  1  0.68200000  0.74470000  0.50450000  1.0 0.07983864
C  C96  1  0.65068000  0.78838000  0.54210000  1.0 -0.148334705
C  C97  1  0.59063000  0.76213000  0.49230000  1.0 -0.0965484666
C  C98  1  0.74596000  0.77496000  0.55900000  1.0 0.07983864
C  C99  1  0.79715000  0.82445000  0.65930000  1.0 -0.1675858802
C  C100  1  0.31616000  0.14524000  0.65108000  1.0 0.5687382848
C  C101  1  0.28773000  0.15643000  0.59550000  1.0 -0.029734343
C  C102  1  0.27906000  0.22576000  0.63210000  1.0 -0.1102166494
C  C103  1  0.25615000  0.23565000  0.58250000  1.0 -0.148334705
C  C104  1  0.24020000  0.17750000  0.49550000  1.0 0.07983864
C  C105  1  0.24628000  0.10858000  0.45790000  1.0 -0.148334705
C  C106  1  0.26983000  0.09833000  0.50770000  1.0 -0.0965484666
C  C107  1  0.21596000  0.18696000  0.44100000  1.0 0.07983864
C  C108  1  0.16515000  0.13785000  0.34070000  1.0 -0.1675858802
C  C109  1  0.33492000  0.50584000  0.65108000  1.0 0.5687382848
C  C110  1  0.30777000  0.43907000  0.59550000  1.0 -0.029734343
C  C111  1  0.35304000  0.40634000  0.63210000  1.0 -0.1102166494
C  C112  1  0.32635000  0.34685000  0.58250000  1.0 -0.148334705
C  C113  1  0.25530000  0.31800000  0.49550000  1.0 0.07983864
C  C114  1  0.21162000  0.34932000  0.45790000  1.0 -0.148334705
C  C115  1  0.23787000  0.40937000  0.50770000  1.0 -0.0965484666
C  C116  1  0.22504000  0.25404000  0.44100000  1.0 0.07983864
C  C117  1  0.17555000  0.20285000  0.34070000  1.0 -0.1675858802
C  C118  1  0.85476000  0.68384000  0.34892000  1.0 0.5687382848
C  C119  1  0.84357000  0.71227000  0.40450000  1.0 -0.029734343
C  C120  1  0.77424000  0.72094000  0.36790000  1.0 -0.1102166494
C  C121  1  0.76435000  0.74385000  0.41750000  1.0 -0.148334705
C  C122  1  0.82250000  0.75980000  0.50450000  1.0 0.07983864
C  C123  1  0.89142000  0.75372000  0.54210000  1.0 -0.148334705
C  C124  1  0.90167000  0.73017000  0.49230000  1.0 -0.0965484666
C  C125  1  0.81304000  0.78404000  0.55900000  1.0 0.07983864
C  C126  1  0.86215000  0.83485000  0.65930000  1.0 -0.1675858802
C  C127  1  0.43384000  0.58492000  0.32908000  1.0 0.5687382848
C  C128  1  0.46227000  0.55777000  0.36870000  1.0 -0.029734343
C  C129  1  0.47094000  0.60304000  0.44670000  1.0 -0.1102166494
C  C130  1  0.49385000  0.57635000  0.47950000  1.0 -0.148334705
C  C131  1  0.50980000  0.50530000  0.43730000  1.0 0.07983864
C  C132  1  0.50372000  0.46162000  0.36230000  1.0 -0.148334705
C  C133  1  0.48017000  0.48787000  0.32850000  1.0 -0.0965484666
C  C134  1  0.53404000  0.47504000  0.47100000  1.0 0.07983864
C  C135  1  0.58485000  0.42555000  0.47270000  1.0 -0.1675858802
C  C136  1  0.25584000  0.10476000  0.67092000  1.0 0.5687382848
C  C137  1  0.18907000  0.09357000  0.63130000  1.0 -0.029734343
C  C138  1  0.15634000  0.02424000  0.55330000  1.0 -0.1102166494
C  C139  1  0.09685000  0.01435000  0.52050000  1.0 -0.148334705
C  C140  1  0.06800000  0.07250000  0.56270000  1.0 0.07983864
C  C141  1  0.09932000  0.14142000  0.63770000  1.0 -0.148334705
C  C142  1  0.15937000  0.15167000  0.67150000  1.0 -0.0965484666
C  C143  1  0.00404000  0.06304000  0.52900000  1.0 0.07983864
C  C144  1  0.95285000  0.11215000  0.52730000  1.0 -0.1675858802
C  C145  1  0.67307000  0.63817000  0.03490000  1.0 0.0011053345
C  C146  1  0.63778000  0.60048000  0.03730000  1.0 0.2623051622
C  C147  1  0.60327000  0.63817000  0.96510000  1.0 0.0011053345
C  C148  1  0.56318000  0.60048000  0.96270000  1.0 0.2623051622
C  C149  1  0.38817000  0.85327000  0.46510000  1.0 0.0011053345
C  C150  1  0.35048000  0.81318000  0.46270000  1.0 0.2623051622
C  C151  1  0.38817000  0.92307000  0.53490000  1.0 0.0011053345
C  C152  1  0.35048000  0.88778000  0.53730000  1.0 0.2623051622
C  C153  1  0.14673000  0.61183000  0.53490000  1.0 0.0011053345
C  C154  1  0.18682000  0.64952000  0.53730000  1.0 0.2623051622
C  C155  1  0.07693000  0.61183000  0.46510000  1.0 0.0011053345
C  C156  1  0.11222000  0.64952000  0.46270000  1.0 0.2623051622
C  C157  1  0.36183000  0.39673000  0.03490000  1.0 0.0011053345
C  C158  1  0.39952000  0.43682000  0.03730000  1.0 0.2623051622
C  C159  1  0.36183000  0.32693000  0.96510000  1.0 0.0011053345
C  C160  1  0.39952000  0.36222000  0.96270000  1.0 0.2623051622
C  C161  1  0.75450000  0.24550000  0.00000000  1.0 -0.1909536614
C  C162  1  0.85457000  0.14543000  0.00000000  1.0 -0.0057211355
C  C163  1  0.90882000  0.09118000  0.00000000  1.0 0.5796402948
C  C164  1  0.24550000  0.75450000  0.00000000  1.0 -0.1909536614
C  C165  1  0.14543000  0.85457000  0.00000000  1.0 -0.0057211355
C  C166  1  0.09118000  0.90882000  0.00000000  1.0 0.5796402948
C  C167  1  0.99550000  0.49550000  0.99100000  1.0 -0.1909536614
C  C168  1  0.89543000  0.39543000  0.79086000  1.0 -0.0057211355
C  C169  1  0.84118000  0.34118000  0.68236000  1.0 0.5796402948
C  C170  1  0.50450000  0.00450000  0.00900000  1.0 -0.1909536614
C  C171  1  0.60457000  0.10457000  0.20914000  1.0 -0.0057211355
C  C172  1  0.65882000  0.15882000  0.31764000  1.0 0.5796402948
C  C173  1  0.99550000  0.00450000  0.50000000  1.0 -0.1909536614
C  C174  1  0.89543000  0.10457000  0.50000000  1.0 -0.0057211355
C  C175  1  0.84118000  0.15882000  0.50000000  1.0 0.5796402948
C  C176  1  0.50450000  0.49550000  0.50000000  1.0 -0.1909536614
C  C177  1  0.60457000  0.39543000  0.50000000  1.0 -0.0057211355
C  C178  1  0.65882000  0.34118000  0.50000000  1.0 0.5796402948
C  C179  1  0.75450000  0.75450000  0.50900000  1.0 -0.1909536614
C  C180  1  0.85457000  0.85457000  0.70914000  1.0 -0.0057211355
C  C181  1  0.90882000  0.90882000  0.81764000  1.0 0.5796402948
C  C182  1  0.24550000  0.24550000  0.49100000  1.0 -0.1909536614
C  C183  1  0.14543000  0.14543000  0.29086000  1.0 -0.0057211355
C  C184  1  0.09118000  0.09118000  0.18236000  1.0 0.5796402948
N  N1  1  0.68987000  0.61898000  0.07089000  1.0 -0.2853910594
N  N2  1  0.65209000  0.58049000  0.07160000  1.0 -0.4333325407
N  N3  1  0.54809000  0.61898000  0.92911000  1.0 -0.2853910594
N  N4  1  0.50889000  0.58049000  0.92840000  1.0 -0.4333325407
N  N5  1  0.36898000  0.79809000  0.42911000  1.0 -0.2847814231
N  N6  1  0.33049000  0.75889000  0.42840000  1.0 -0.4333325407
N  N7  1  0.36898000  0.93987000  0.57089000  1.0 -0.2847814231
N  N8  1  0.33049000  0.90209000  0.57160000  1.0 -0.4333325407
N  N9  1  0.20191000  0.63102000  0.57089000  1.0 -0.2847814231
N  N10  1  0.24111000  0.66951000  0.57160000  1.0 -0.4333325407
N  N11  1  0.06013000  0.63102000  0.42911000  1.0 -0.2853910594
N  N12  1  0.09791000  0.66951000  0.42840000  1.0 -0.4333325407
N  N13  1  0.38102000  0.45191000  0.07089000  1.0 -0.2853910594
N  N14  1  0.41951000  0.49111000  0.07160000  1.0 -0.4333325407
N  N15  1  0.38102000  0.31013000  0.92911000  1.0 -0.2847814231
N  N16  1  0.41951000  0.34791000  0.92840000  1.0 -0.4333325407
O  O1  1  0.91854000  0.53437000  0.24407000  1.0 -0.5103449604
O  O2  1  0.79995000  0.53024000  0.13063000  1.0 -0.5168528004
O  O3  1  0.94807000  0.08942000  0.00057000  1.0 -0.5103449604
O  O4  1  0.29030000  0.67447000  0.75593000  1.0 -0.5103449604
O  O5  1  0.39961000  0.66932000  0.86937000  1.0 -0.5168528004
O  O6  1  0.08885000  0.94750000  0.99943000  1.0 -0.5103449604
O  O7  1  0.28437000  0.54030000  0.11583000  1.0 -0.5103449604
O  O8  1  0.28024000  0.64961000  0.23029000  1.0 -0.5168528004
O  O9  1  0.83942000  0.33885000  0.64135000  1.0 -0.5103449604
O  O10  1  0.42447000  0.16854000  0.88417000  1.0 -0.5103449604
O  O11  1  0.41932000  0.04995000  0.76971000  1.0 -0.5168528004
O  O12  1  0.69750000  0.19807000  0.35865000  1.0 -0.5103449604
O  O13  1  0.45970000  0.71563000  0.88417000  1.0 -0.5103449604
O  O14  1  0.35039000  0.71976000  0.76971000  1.0 -0.5168528004
O  O15  1  0.66115000  0.16058000  0.35865000  1.0 -0.5103449604
O  O16  1  0.83146000  0.57553000  0.11583000  1.0 -0.5103449604
O  O17  1  0.95005000  0.58068000  0.23029000  1.0 -0.5168528004
O  O18  1  0.80193000  0.30250000  0.64135000  1.0 -0.5103449604
O  O19  1  0.32553000  0.70970000  0.24407000  1.0 -0.5103449604
O  O20  1  0.33068000  0.60039000  0.13063000  1.0 -0.5168528004
O  O21  1  0.05250000  0.91115000  0.00057000  1.0 -0.5103449604
O  O22  1  0.46563000  0.08146000  0.75593000  1.0 -0.5103449604
O  O23  1  0.46976000  0.20005000  0.86937000  1.0 -0.5168528004
O  O24  1  0.91058000  0.05193000  0.99943000  1.0 -0.5103449604
O  O25  1  0.83146000  0.71563000  0.25593000  1.0 -0.5103449604
O  O26  1  0.95005000  0.71976000  0.36937000  1.0 -0.5168528004
O  O27  1  0.80193000  0.16058000  0.49943000  1.0 -0.5103449604
O  O28  1  0.45970000  0.57553000  0.74407000  1.0 -0.5103449604
O  O29  1  0.35039000  0.58068000  0.63063000  1.0 -0.5168528004
O  O30  1  0.66115000  0.30250000  0.50057000  1.0 -0.5103449604
O  O31  1  0.46563000  0.70970000  0.38417000  1.0 -0.5103449604
O  O32  1  0.46976000  0.60039000  0.26971000  1.0 -0.5168528004
O  O33  1  0.91058000  0.91115000  0.85865000  1.0 -0.5103449604
O  O34  1  0.32553000  0.08146000  0.61583000  1.0 -0.5103449604
O  O35  1  0.33068000  0.20005000  0.73029000  1.0 -0.5168528004
O  O36  1  0.05250000  0.05193000  0.14135000  1.0 -0.5103449604
O  O37  1  0.29030000  0.53437000  0.61583000  1.0 -0.5103449604
O  O38  1  0.39961000  0.53024000  0.73029000  1.0 -0.5168528004
O  O39  1  0.08885000  0.08942000  0.14135000  1.0 -0.5103449604
O  O40  1  0.91854000  0.67447000  0.38417000  1.0 -0.5103449604
O  O41  1  0.79995000  0.66932000  0.26971000  1.0 -0.5168528004
O  O42  1  0.94807000  0.94750000  0.85865000  1.0 -0.5103449604
O  O43  1  0.42447000  0.54030000  0.25593000  1.0 -0.5103449604
O  O44  1  0.41932000  0.64961000  0.36937000  1.0 -0.5168528004
O  O45  1  0.69750000  0.33885000  0.49943000  1.0 -0.5103449604
O  O46  1  0.28437000  0.16854000  0.74407000  1.0 -0.5103449604
O  O47  1  0.28024000  0.04995000  0.63063000  1.0 -0.5168528004
O  O48  1  0.83942000  0.19807000  0.50057000  1.0 -0.5103449604
