# DDEC6 charges by PACMAN v1.1 (https://github.com/mtap-research/PACMAN-charge/)
data_HEHVOI_FSR_pacman
_symmetry_space_group_name_H-M   'P 1'
_cell_length_a   17.75810000
_cell_length_b   17.75810000
_cell_length_c   17.75810000
_cell_angle_alpha   121.40000000
_cell_angle_beta   121.40000000
_cell_angle_gamma   87.59130000
_symmetry_Int_Tables_number   1
_chemical_formula_structural   Zn2H6C16O9
_chemical_formula_sum   'Zn16 H48 C128 O72'
_cell_volume   3872.31636794
_cell_formula_units_Z   8
loop_
 _symmetry_equiv_pos_site_id
 _symmetry_equiv_pos_as_xyz
  1  'x, y, z'
loop_
 _atom_site_type_symbol
 _atom_site_label
 _atom_site_symmetry_multiplicity
 _atom_site_fract_x
 _atom_site_fract_y
 _atom_site_fract_z
 _atom_site_occupancy
 _atom_site_charge
Zn  Zn1  1  0.60002000  0.86458000  0.12050000  1.0 0.917428623
Zn  Zn2  1  0.62176000  0.88719000  0.96229000  1.0 0.9427606567
Zn  Zn3  1  0.74408000  0.47952000  0.87950000  1.0 0.917428623
Zn  Zn4  1  0.92490000  0.65947000  0.03771000  1.0 0.9427606567
Zn  Zn5  1  0.61458000  0.99408000  0.76456000  1.0 0.917428623
Zn  Zn6  1  0.63719000  0.17490000  0.76543000  1.0 0.9427606567
Zn  Zn7  1  0.22952000  0.85002000  0.23544000  1.0 0.917428623
Zn  Zn8  1  0.40947000  0.87176000  0.23457000  1.0 0.9427606567
Zn  Zn9  1  0.14998000  0.38542000  0.37950000  1.0 0.917428623
Zn  Zn10  1  0.12824000  0.36281000  0.53771000  1.0 0.9427606567
Zn  Zn11  1  0.00592000  0.77048000  0.62050000  1.0 0.917428623
Zn  Zn12  1  0.82510000  0.59053000  0.46229000  1.0 0.9427606567
Zn  Zn13  1  0.13542000  0.25592000  0.73544000  1.0 0.917428623
Zn  Zn14  1  0.11281000  0.07510000  0.73457000  1.0 0.9427606567
Zn  Zn15  1  0.52048000  0.39998000  0.26456000  1.0 0.917428623
Zn  Zn16  1  0.34053000  0.37824000  0.26543000  1.0 0.9427606567
H  H1  1  0.89570000  0.83740000  0.12470000  1.0 0.1340081348
H  H2  1  0.87770000  0.02630000  0.36640000  1.0 0.1340081348
H  H3  1  0.19500000  0.12000000  0.51580000  1.0 0.1236336372
H  H4  1  0.15990000  0.86750000  0.45320000  1.0 0.1236336372
H  H5  1  0.31850000  0.90400000  0.56910000  1.0 0.1236336372
H  H6  1  0.35460000  0.15480000  0.62840000  1.0 0.1236336372
H  H7  1  0.71270000  0.77100000  0.87530000  1.0 0.1340081348
H  H8  1  0.65990000  0.51130000  0.63360000  1.0 0.1340081348
H  H9  1  0.60420000  0.67920000  0.48420000  1.0 0.1236336372
H  H10  1  0.41430000  0.70670000  0.54680000  1.0 0.1236336372
H  H11  1  0.33490000  0.74940000  0.43090000  1.0 0.1236336372
H  H12  1  0.52640000  0.72620000  0.37160000  1.0 0.1236336372
H  H13  1  0.58740000  0.96270000  0.44170000  1.0 0.1340081348
H  H14  1  0.77630000  0.90990000  0.64860000  1.0 0.1340081348
H  H15  1  0.87000000  0.85420000  0.42500000  1.0 0.1236336372
H  H16  1  0.61750000  0.66430000  0.20760000  1.0 0.1236336372
H  H17  1  0.65400000  0.58490000  0.08550000  1.0 0.1236336372
H  H18  1  0.90480000  0.77640000  0.30020000  1.0 0.1236336372
H  H19  1  0.52100000  0.14570000  0.55830000  1.0 0.1340081348
H  H20  1  0.26130000  0.12770000  0.35140000  1.0 0.1340081348
H  H21  1  0.42920000  0.44500000  0.57500000  1.0 0.1236336372
H  H22  1  0.45670000  0.40990000  0.79240000  1.0 0.1236336372
H  H23  1  0.49940000  0.56850000  0.91450000  1.0 0.1236336372
H  H24  1  0.47620000  0.60460000  0.69980000  1.0 0.1236336372
H  H25  1  0.85430000  0.41260000  0.37530000  1.0 0.1340081348
H  H26  1  0.87230000  0.22370000  0.13360000  1.0 0.1340081348
H  H27  1  0.55500000  0.13000000  0.98420000  1.0 0.1236336372
H  H28  1  0.59010000  0.38250000  0.04680000  1.0 0.1236336372
H  H29  1  0.43150000  0.34600000  0.93090000  1.0 0.1236336372
H  H30  1  0.39540000  0.09520000  0.87160000  1.0 0.1236336372
H  H31  1  0.03730000  0.47900000  0.62470000  1.0 0.1340081348
H  H32  1  0.09010000  0.73870000  0.86640000  1.0 0.1340081348
H  H33  1  0.14580000  0.57080000  0.01580000  1.0 0.1236336372
H  H34  1  0.33570000  0.54330000  0.95320000  1.0 0.1236336372
H  H35  1  0.41510000  0.50060000  0.06910000  1.0 0.1236336372
H  H36  1  0.22360000  0.52380000  0.12840000  1.0 0.1236336372
H  H37  1  0.16260000  0.28730000  0.05830000  1.0 0.1340081348
H  H38  1  0.97370000  0.34010000  0.85140000  1.0 0.1340081348
H  H39  1  0.88000000  0.39580000  0.07500000  1.0 0.1236336372
H  H40  1  0.13250000  0.58570000  0.29240000  1.0 0.1236336372
H  H41  1  0.09600000  0.66510000  0.41450000  1.0 0.1236336372
H  H42  1  0.84520000  0.47360000  0.19980000  1.0 0.1236336372
H  H43  1  0.22900000  0.10430000  0.94170000  1.0 0.1340081348
H  H44  1  0.48870000  0.12230000  0.14860000  1.0 0.1340081348
H  H45  1  0.32080000  0.80500000  0.92500000  1.0 0.1236336372
H  H46  1  0.29330000  0.84010000  0.70760000  1.0 0.1236336372
H  H47  1  0.25060000  0.68150000  0.58550000  1.0 0.1236336372
H  H48  1  0.27380000  0.64540000  0.80020000  1.0 0.1236336372
C  C1  1  0.45710000  0.05249000  0.67341000  1.0 0.5953230365
C  C2  1  0.35318000  0.03191000  0.60739000  1.0 -0.0267458816
C  C3  1  0.04668000  0.07660000  0.53788000  1.0 0.5708224429
C  C4  1  0.07126000  0.84987000  0.23385000  1.0 0.5804776429
C  C5  1  0.77180000  0.91293000  0.15013000  1.0 0.5708224429
C  C6  1  0.87120000  0.92984000  0.23210000  1.0 -0.0267458816
C  C7  1  0.92296000  0.88119000  0.19843000  1.0 -0.1213082461
C  C8  1  0.01582000  0.89773000  0.27471000  1.0 -0.071126772
C  C9  1  0.05890000  0.96371000  0.38623000  1.0 0.0163077845
C  C10  1  0.00457000  0.01012000  0.41843000  1.0 -0.0642409915
C  C11  1  0.91233000  0.99414000  0.34307000  1.0 -0.1213082461
C  C12  1  0.16103000  0.98853000  0.46888000  1.0 0.0767392004
C  C13  1  0.21979000  0.07560000  0.52433000  1.0 -0.1309257102
C  C14  1  0.19886000  0.92512000  0.48754000  1.0 -0.1309257102
C  C15  1  0.29386000  0.94676000  0.55650000  1.0 -0.089066443
C  C16  1  0.31565000  0.09670000  0.59255000  1.0 -0.089066443
C  C17  1  0.37908000  0.78369000  0.32659000  1.0 0.5953230365
C  C18  1  0.42452000  0.74579000  0.39261000  1.0 -0.0267458816
C  C19  1  0.53872000  0.50880000  0.46212000  1.0 0.5708224429
C  C20  1  0.61602000  0.83741000  0.76615000  1.0 0.5804776429
C  C21  1  0.76280000  0.62167000  0.84987000  1.0 0.5708224429
C  C22  1  0.69774000  0.63910000  0.76790000  1.0 -0.0267458816
C  C23  1  0.68276000  0.72453000  0.80157000  1.0 -0.1213082461
C  C24  1  0.62302000  0.74111000  0.72529000  1.0 -0.071126772
C  C25  1  0.57748000  0.67267000  0.61377000  1.0 0.0163077845
C  C26  1  0.59169000  0.58614000  0.58157000  1.0 -0.0642409915
C  C27  1  0.65107000  0.56926000  0.65693000  1.0 -0.1213082461
C  C28  1  0.51965000  0.69215000  0.53112000  1.0 0.0767392004
C  C29  1  0.55127000  0.69546000  0.47567000  1.0 -0.1309257102
C  C30  1  0.43758000  0.71132000  0.51246000  1.0 -0.1309257102
C  C31  1  0.39026000  0.73736000  0.44350000  1.0 -0.089066443
C  C32  1  0.50415000  0.72310000  0.40745000  1.0 -0.089066443
C  C33  1  0.80249000  0.62908000  0.09539000  1.0 0.5953230365
C  C34  1  0.78191000  0.67452000  0.17873000  1.0 -0.0267458816
C  C35  1  0.82660000  0.78872000  0.52992000  1.0 0.5708224429
C  C36  1  0.59987000  0.86602000  0.27861000  1.0 0.5804776429
C  C37  1  0.66293000  0.01280000  0.64113000  1.0 0.5708224429
C  C38  1  0.67984000  0.94774000  0.55864000  1.0 -0.0267458816
C  C39  1  0.63119000  0.93276000  0.45823000  1.0 -0.1213082461
C  C40  1  0.64773000  0.87302000  0.38191000  1.0 -0.071126772
C  C41  1  0.71371000  0.82748000  0.40481000  1.0 0.0163077845
C  C42  1  0.76012000  0.84169000  0.50555000  1.0 -0.0642409915
C  C43  1  0.74414000  0.90107000  0.58181000  1.0 -0.1213082461
C  C44  1  0.73853000  0.76965000  0.32750000  1.0 0.0767392004
C  C45  1  0.82560000  0.80127000  0.35581000  1.0 -0.1309257102
C  C46  1  0.67512000  0.68758000  0.22626000  1.0 -0.1309257102
C  C47  1  0.69676000  0.64026000  0.15290000  1.0 -0.089066443
C  C48  1  0.84670000  0.75415000  0.28105000  1.0 -0.089066443
C  C49  1  0.53369000  0.70710000  0.90461000  1.0 0.5953230365
C  C50  1  0.49579000  0.60318000  0.82127000  1.0 -0.0267458816
C  C51  1  0.25880000  0.29668000  0.47008000  1.0 0.5708224429
C  C52  1  0.58741000  0.32126000  0.72139000  1.0 0.5804776429
C  C53  1  0.37167000  0.02180000  0.35887000  1.0 0.5708224429
C  C54  1  0.38910000  0.12120000  0.44136000  1.0 -0.0267458816
C  C55  1  0.47453000  0.17296000  0.54177000  1.0 -0.1213082461
C  C56  1  0.49111000  0.26582000  0.61809000  1.0 -0.071126772
C  C57  1  0.42267000  0.30890000  0.59519000  1.0 0.0163077845
C  C58  1  0.33614000  0.25457000  0.49445000  1.0 -0.0642409915
C  C59  1  0.31926000  0.16233000  0.41819000  1.0 -0.1213082461
C  C60  1  0.44215000  0.41103000  0.67250000  1.0 0.0767392004
C  C61  1  0.44546000  0.46979000  0.64419000  1.0 -0.1309257102
C  C62  1  0.46132000  0.44886000  0.77374000  1.0 -0.1309257102
C  C63  1  0.48736000  0.54386000  0.84710000  1.0 -0.089066443
C  C64  1  0.47310000  0.56565000  0.71895000  1.0 -0.089066443
C  C65  1  0.29290000  0.19751000  0.82659000  1.0 0.5953230365
C  C66  1  0.39682000  0.21809000  0.89261000  1.0 -0.0267458816
C  C67  1  0.70332000  0.17340000  0.96212000  1.0 0.5708224429
C  C68  1  0.67874000  0.40013000  0.26615000  1.0 0.5804776429
C  C69  1  0.97820000  0.33707000  0.34987000  1.0 0.5708224429
C  C70  1  0.87880000  0.32016000  0.26790000  1.0 -0.0267458816
C  C71  1  0.82704000  0.36881000  0.30157000  1.0 -0.1213082461
C  C72  1  0.73418000  0.35227000  0.22529000  1.0 -0.071126772
C  C73  1  0.69110000  0.28629000  0.11377000  1.0 0.0163077845
C  C74  1  0.74543000  0.23988000  0.08157000  1.0 -0.0642409915
C  C75  1  0.83767000  0.25586000  0.15693000  1.0 -0.1213082461
C  C76  1  0.58897000  0.26147000  0.03112000  1.0 0.0767392004
C  C77  1  0.53021000  0.17440000  0.97567000  1.0 -0.1309257102
C  C78  1  0.55114000  0.32488000  0.01246000  1.0 -0.1309257102
C  C79  1  0.45614000  0.30324000  0.94350000  1.0 -0.089066443
C  C80  1  0.43435000  0.15330000  0.90745000  1.0 -0.089066443
C  C81  1  0.37092000  0.46631000  0.17341000  1.0 0.5953230365
C  C82  1  0.32548000  0.50421000  0.10739000  1.0 -0.0267458816
C  C83  1  0.21128000  0.74120000  0.03788000  1.0 0.5708224429
C  C84  1  0.13398000  0.41259000  0.73385000  1.0 0.5804776429
C  C85  1  0.98720000  0.62833000  0.65013000  1.0 0.5708224429
C  C86  1  0.05226000  0.61090000  0.73210000  1.0 -0.0267458816
C  C87  1  0.06724000  0.52547000  0.69843000  1.0 -0.1213082461
C  C88  1  0.12698000  0.50889000  0.77471000  1.0 -0.071126772
C  C89  1  0.17252000  0.57733000  0.88623000  1.0 0.0163077845
C  C90  1  0.15831000  0.66386000  0.91843000  1.0 -0.0642409915
C  C91  1  0.09893000  0.68074000  0.84307000  1.0 -0.1213082461
C  C92  1  0.23035000  0.55785000  0.96888000  1.0 0.0767392004
C  C93  1  0.19873000  0.55454000  0.02433000  1.0 -0.1309257102
C  C94  1  0.31242000  0.53868000  0.98754000  1.0 -0.1309257102
C  C95  1  0.35974000  0.51264000  0.05650000  1.0 -0.089066443
C  C96  1  0.24585000  0.52690000  0.09255000  1.0 -0.089066443
C  C97  1  0.94751000  0.62092000  0.40461000  1.0 0.5953230365
C  C98  1  0.96809000  0.57548000  0.32127000  1.0 -0.0267458816
C  C99  1  0.92340000  0.46128000  0.97008000  1.0 0.5708224429
C  C100  1  0.15013000  0.38398000  0.22139000  1.0 0.5804776429
C  C101  1  0.08707000  0.23720000  0.85887000  1.0 0.5708224429
C  C102  1  0.07016000  0.30226000  0.94136000  1.0 -0.0267458816
C  C103  1  0.11881000  0.31724000  0.04177000  1.0 -0.1213082461
C  C104  1  0.10227000  0.37698000  0.11809000  1.0 -0.071126772
C  C105  1  0.03629000  0.42252000  0.09519000  1.0 0.0163077845
C  C106  1  0.98988000  0.40831000  0.99445000  1.0 -0.0642409915
C  C107  1  0.00586000  0.34893000  0.91819000  1.0 -0.1213082461
C  C108  1  0.01147000  0.48035000  0.17250000  1.0 0.0767392004
C  C109  1  0.92440000  0.44873000  0.14419000  1.0 -0.1309257102
C  C110  1  0.07488000  0.56242000  0.27374000  1.0 -0.1309257102
C  C111  1  0.05324000  0.60974000  0.34710000  1.0 -0.089066443
C  C112  1  0.90330000  0.49585000  0.21895000  1.0 -0.089066443
C  C113  1  0.21631000  0.54290000  0.59539000  1.0 0.5953230365
C  C114  1  0.25421000  0.64682000  0.67873000  1.0 -0.0267458816
C  C115  1  0.49120000  0.95332000  0.02992000  1.0 0.5708224429
C  C116  1  0.16259000  0.92874000  0.77861000  1.0 0.5804776429
C  C117  1  0.37833000  0.22820000  0.14113000  1.0 0.5708224429
C  C118  1  0.36090000  0.12880000  0.05864000  1.0 -0.0267458816
C  C119  1  0.27547000  0.07704000  0.95823000  1.0 -0.1213082461
C  C120  1  0.25889000  0.98418000  0.88191000  1.0 -0.071126772
C  C121  1  0.32733000  0.94110000  0.90481000  1.0 0.0163077845
C  C122  1  0.41386000  0.99543000  0.00555000  1.0 -0.0642409915
C  C123  1  0.43074000  0.08767000  0.08181000  1.0 -0.1213082461
C  C124  1  0.30785000  0.83897000  0.82750000  1.0 0.0767392004
C  C125  1  0.30454000  0.78021000  0.85581000  1.0 -0.1309257102
C  C126  1  0.28868000  0.80114000  0.72626000  1.0 -0.1309257102
C  C127  1  0.26264000  0.70614000  0.65290000  1.0 -0.089066443
C  C128  1  0.27690000  0.68435000  0.78105000  1.0 -0.089066443
O  O1  1  0.74361000  0.87374000  0.05359000  1.0 -0.5270166517
O  O2  1  0.50528000  0.12728000  0.70910000  1.0 -0.5618065418
O  O3  1  0.72142000  0.94112000  0.18294000  1.0 -0.5618065418
O  O4  1  0.06045000  0.04202000  0.58711000  1.0 -0.5352286742
O  O5  1  0.69920000  0.02810000  0.05030000  1.0 0.0882311036
O  O6  1  0.06350000  0.16214000  0.57812000  1.0 -0.5064648286
O  O7  1  0.14839000  0.89932000  0.27723000  1.0 -0.5025225216
O  O8  1  0.48784000  0.99141000  0.68587000  1.0 -0.5526351453
O  O9  1  0.03989000  0.76630000  0.15901000  1.0 -0.5025225216
O  O10  1  0.82015000  0.69002000  0.94641000  1.0 -0.5270166517
O  O11  1  0.41818000  0.79618000  0.29090000  1.0 -0.5618065418
O  O12  1  0.75818000  0.53848000  0.81706000  1.0 -0.5618065418
O  O13  1  0.45491000  0.47334000  0.41289000  1.0 -0.5352286742
O  O14  1  0.97780000  0.64890000  0.94970000  1.0 0.0882311036
O  O15  1  0.58402000  0.48538000  0.42188000  1.0 -0.5064648286
O  O16  1  0.62209000  0.87116000  0.72277000  1.0 -0.5025225216
O  O17  1  0.30554000  0.80197000  0.31413000  1.0 -0.5526351453
O  O18  1  0.60729000  0.88088000  0.84099000  1.0 -0.5025225216
O  O19  1  0.62374000  0.07015000  0.63013000  1.0 -0.5270166517
O  O20  1  0.87728000  0.66818000  0.12200000  1.0 -0.5618065418
O  O21  1  0.69112000  0.00818000  0.71970000  1.0 -0.5618065418
O  O22  1  0.79202000  0.70491000  0.48157000  1.0 -0.5352286742
O  O23  1  0.77810000  0.22780000  0.82890000  1.0 0.0882311036
O  O24  1  0.91214000  0.83402000  0.59864000  1.0 -0.5064648286
O  O25  1  0.64932000  0.87209000  0.25093000  1.0 -0.5025225216
O  O26  1  0.74141000  0.55554000  0.00357000  1.0 -0.5526351453
O  O27  1  0.51630000  0.85729000  0.22641000  1.0 -0.5025225216
O  O28  1  0.44002000  0.99361000  0.36987000  1.0 -0.5270166517
O  O29  1  0.54618000  0.75528000  0.87800000  1.0 -0.5618065418
O  O30  1  0.28848000  0.97142000  0.28030000  1.0 -0.5618065418
O  O31  1  0.22334000  0.31045000  0.51843000  1.0 -0.5352286742
O  O32  1  0.39890000  0.94920000  0.17110000  1.0 0.0882311036
O  O33  1  0.23538000  0.31350000  0.40136000  1.0 -0.5064648286
O  O34  1  0.62116000  0.39839000  0.74907000  1.0 -0.5025225216
O  O35  1  0.55197000  0.73784000  0.99643000  1.0 -0.5526351453
O  O36  1  0.63088000  0.28989000  0.77359000  1.0 -0.5025225216
O  O37  1  0.00639000  0.37626000  0.44641000  1.0 -0.5270166517
O  O38  1  0.24472000  0.12272000  0.79090000  1.0 -0.5618065418
O  O39  1  0.02858000  0.30888000  0.31706000  1.0 -0.5618065418
O  O40  1  0.68955000  0.20798000  0.91289000  1.0 -0.5352286742
O  O41  1  0.05080000  0.22190000  0.44970000  1.0 0.0882311036
O  O42  1  0.68650000  0.08786000  0.92188000  1.0 -0.5064648286
O  O43  1  0.60161000  0.35068000  0.22277000  1.0 -0.5025225216
O  O44  1  0.26216000  0.25859000  0.81413000  1.0 -0.5526351453
O  O45  1  0.71011000  0.48370000  0.34099000  1.0 -0.5025225216
O  O46  1  0.92985000  0.55998000  0.55359000  1.0 -0.5270166517
O  O47  1  0.33182000  0.45382000  0.20910000  1.0 -0.5618065418
O  O48  1  0.99182000  0.71152000  0.68294000  1.0 -0.5618065418
O  O49  1  0.29509000  0.77666000  0.08711000  1.0 -0.5352286742
O  O50  1  0.77220000  0.60110000  0.55030000  1.0 0.0882311036
O  O51  1  0.16598000  0.76462000  0.07812000  1.0 -0.5064648286
O  O52  1  0.12791000  0.37884000  0.77723000  1.0 -0.5025225216
O  O53  1  0.44446000  0.44803000  0.18587000  1.0 -0.5526351453
O  O54  1  0.14271000  0.36912000  0.65901000  1.0 -0.5025225216
O  O55  1  0.12626000  0.17985000  0.86987000  1.0 -0.5270166517
O  O56  1  0.87272000  0.58182000  0.37800000  1.0 -0.5618065418
O  O57  1  0.05888000  0.24182000  0.78030000  1.0 -0.5618065418
O  O58  1  0.95798000  0.54509000  0.01843000  1.0 -0.5352286742
O  O59  1  0.97190000  0.02220000  0.67110000  1.0 0.0882311036
O  O60  1  0.83786000  0.41598000  0.90136000  1.0 -0.5064648286
O  O61  1  0.10068000  0.37791000  0.24907000  1.0 -0.5025225216
O  O62  1  0.00859000  0.69446000  0.49643000  1.0 -0.5526351453
O  O63  1  0.23370000  0.39271000  0.27359000  1.0 -0.5025225216
O  O64  1  0.30998000  0.25639000  0.13013000  1.0 -0.5270166517
O  O65  1  0.20382000  0.49472000  0.62200000  1.0 -0.5618065418
O  O66  1  0.46152000  0.27858000  0.21970000  1.0 -0.5618065418
O  O67  1  0.52666000  0.93955000  0.98157000  1.0 -0.5352286742
O  O68  1  0.35110000  0.30080000  0.32890000  1.0 0.0882311036
O  O69  1  0.51462000  0.93650000  0.09864000  1.0 -0.5064648286
O  O70  1  0.12884000  0.85161000  0.75093000  1.0 -0.5025225216
O  O71  1  0.19803000  0.51216000  0.50357000  1.0 -0.5526351453
O  O72  1  0.11912000  0.96011000  0.72641000  1.0 -0.5025225216
