# DDEC6 charges by PACMAN v1.1 (https://github.com/mtap-research/PACMAN-charge/)
data_HEJHAH_ASR_pacman
_symmetry_space_group_name_H-M   'P 1'
_cell_length_a   10.02700000
_cell_length_b   18.42000000
_cell_length_c   20.57700000
_cell_angle_alpha   89.26900000
_cell_angle_beta   84.18000000
_cell_angle_gamma   88.40200000
_symmetry_Int_Tables_number   1
_chemical_formula_structural   Cd3H32C52(N2O7)2
_chemical_formula_sum   'Cd6 H64 C104 N8 O28'
_cell_volume   3779.26804166
_cell_formula_units_Z   2
loop_
 _symmetry_equiv_pos_site_id
 _symmetry_equiv_pos_as_xyz
  1  'x, y, z'
loop_
 _atom_site_type_symbol
 _atom_site_label
 _atom_site_symmetry_multiplicity
 _atom_site_fract_x
 _atom_site_fract_y
 _atom_site_fract_z
 _atom_site_occupancy
 _atom_site_charge
Cd  Cd1  1  0.89676000  0.95598000  0.45674000  1.0 0.9107131664
Cd  Cd2  1  0.10324000  0.04402000  0.54326000  1.0 0.9107131664
Cd  Cd3  1  0.39173000  0.54705000  0.95952000  1.0 0.9873199765
Cd  Cd4  1  0.60827000  0.45295000  0.04048000  1.0 0.9873199765
Cd  Cd5  1  0.56581000  0.02872000  0.99171000  1.0 0.6176395718
Cd  Cd6  1  0.43419000  0.97128000  0.00829000  1.0 0.6176395718
H  H1  1  0.60020000  0.61160000  0.19890000  1.0 0.1286334723
H  H2  1  0.39980000  0.38840000  0.80110000  1.0 0.1198776327
H  H3  1  0.59410000  0.69590000  0.28110000  1.0 0.1198776327
H  H4  1  0.40590000  0.30410000  0.71890000  1.0 0.1198776327
H  H5  1  0.29270000  0.80360000  0.20310000  1.0 0.1198776327
H  H6  1  0.70730000  0.19640000  0.79690000  1.0 0.1198776327
H  H7  1  0.30440000  0.72020000  0.12010000  1.0 0.1198776327
H  H8  1  0.69560000  0.27980000  0.87990000  1.0 0.1198776327
H  H9  1  0.23210000  0.82550000  0.31820000  1.0 0.1286334723
H  H10  1  0.76790000  0.17450000  0.68180000  1.0 0.1286334723
H  H11  1  0.42370000  0.94760000  0.43860000  1.0 0.1115556326
H  H12  1  0.57630000  0.05240000  0.56140000  1.0 0.1115556326
H  H13  1  0.63620000  0.81260000  0.31120000  1.0 0.1036301259
H  H14  1  0.36380000  0.18740000  0.68880000  1.0 0.1036301259
H  H15  1  0.10100000  0.44790000  0.05450000  1.0 0.1286334723
H  H16  1  0.89900000  0.55210000  0.94550000  1.0 0.1286334723
H  H17  1  0.88090000  0.32050000  0.18340000  1.0 0.1198776327
H  H18  1  0.11910000  0.67950000  0.81660000  1.0 0.1198776327
H  H19  1  0.27960000  0.32890000  0.18880000  1.0 0.1198776327
H  H20  1  0.72040000  0.67110000  0.81120000  1.0 0.1198776327
H  H21  1  0.92630000  0.20220000  0.21540000  1.0 0.1198776327
H  H22  1  0.07370000  0.79780000  0.78460000  1.0 0.1198776327
H  H23  1  0.90830000  0.11770000  0.29900000  1.0 0.1115556326
H  H24  1  0.09170000  0.88230000  0.70100000  1.0 0.1115556326
H  H25  1  0.18350000  0.22330000  0.38900000  1.0 0.1198776327
H  H26  1  0.81650000  0.77670000  0.61100000  1.0 0.1198776327
H  H27  1  0.20540000  0.30580000  0.30190000  1.0 0.1198776327
H  H28  1  0.79460000  0.69420000  0.69810000  1.0 0.1198776327
H  H29  1  0.41110000  0.09700000  0.45970000  1.0 0.1286334723
H  H30  1  0.58890000  0.90300000  0.54030000  1.0 0.1286334723
H  H31  1  0.57020000  0.08310000  0.45150000  1.0 0.1413508993
H  H32  1  0.42980000  0.91690000  0.54850000  1.0 0.1413508993
H  H33  1  0.50860000  0.16250000  0.43880000  1.0 0.1413508993
H  H34  1  0.49140000  0.83750000  0.56120000  1.0 0.1413508993
H  H35  1  0.29800000  0.07750000  0.37270000  1.0 0.1198776327
H  H36  1  0.70200000  0.92250000  0.62730000  1.0 0.1198776327
H  H37  1  0.28550000  0.04530000  0.26610000  1.0 0.1485748419
H  H38  1  0.71450000  0.95470000  0.73390000  1.0 0.1485748419
H  H39  1  0.68390000  0.06780000  0.23260000  1.0 0.1413508993
H  H40  1  0.31610000  0.93220000  0.76740000  1.0 0.1413508993
H  H41  1  0.69060000  0.09830000  0.34150000  1.0 0.1198776327
H  H42  1  0.30940000  0.90170000  0.65850000  1.0 0.1198776327
H  H43  1  0.63890000  0.93080000  0.23040000  1.0 0.1198776327
H  H44  1  0.36110000  0.06920000  0.76960000  1.0 0.1198776327
H  H45  1  0.75010000  0.83790000  0.15730000  1.0 0.1286334723
H  H46  1  0.24990000  0.16210000  0.84270000  1.0 0.1286334723
H  H47  1  0.32190000  0.16770000  0.19130000  1.0 0.1286334723
H  H48  1  0.67810000  0.83230000  0.80870000  1.0 0.1286334723
H  H49  1  0.21950000  0.22030000  0.09720000  1.0 0.1286334723
H  H50  1  0.78050000  0.77970000  0.90280000  1.0 0.1286334723
H  H51  1  0.65040000  0.71790000  0.05000000  1.0 0.1485748419
H  H52  1  0.34960000  0.28210000  0.95000000  1.0 0.1485748419
H  H53  1  0.78490000  0.62060000  0.07890000  1.0 0.1286334723
H  H54  1  0.21510000  0.37940000  0.92110000  1.0 0.1286334723
H  H55  1  0.10420000  0.72960000  0.02840000  1.0 0.1198776327
H  H56  1  0.89580000  0.27040000  0.97160000  1.0 0.1198776327
H  H57  1  0.97300000  0.83350000  0.01110000  1.0 0.1485748419
H  H58  1  0.02700000  0.16650000  0.98890000  1.0 0.1485748419
H  H59  1  0.02160000  0.60070000  0.13150000  1.0 0.1413508993
H  H60  1  0.97840000  0.39930000  0.86850000  1.0 0.1413508993
H  H61  1  0.13340000  0.61790000  0.07260000  1.0 0.1485748419
H  H62  1  0.86660000  0.38210000  0.92740000  1.0 0.1485748419
H  H63  1  0.01660000  0.56310000  0.06220000  1.0 0.1485748419
H  H64  1  0.98340000  0.43690000  0.93780000  1.0 0.1485748419
C  C1  1  0.46490000  0.60420000  0.09580000  1.0 0.5752268735
C  C2  1  0.53510000  0.39580000  0.90420000  1.0 0.5752268735
C  C3  1  0.45460000  0.65750000  0.15030000  1.0 -0.0421972532
C  C4  1  0.54540000  0.34250000  0.84970000  1.0 -0.0421972532
C  C5  1  0.53770000  0.65140000  0.19930000  1.0 -0.100040839
C  C6  1  0.46230000  0.34860000  0.80070000  1.0 -0.100040839
C  C7  1  0.53320000  0.70090000  0.24880000  1.0 -0.1516666036
C  C8  1  0.46680000  0.29910000  0.75120000  1.0 -0.1516666036
C  C9  1  0.44020000  0.75820000  0.25190000  1.0 0.0854252991
C  C10  1  0.55980000  0.24180000  0.74810000  1.0 0.0854252991
C  C11  1  0.35640000  0.76440000  0.20270000  1.0 -0.1578450224
C  C12  1  0.64360000  0.23560000  0.79730000  1.0 -0.1578450224
C  C13  1  0.36360000  0.71480000  0.15320000  1.0 -0.1090342573
C  C14  1  0.63640000  0.28520000  0.84680000  1.0 -0.1090342573
C  C15  1  0.43460000  0.81170000  0.30670000  1.0 0.0800336901
C  C16  1  0.56540000  0.18830000  0.69330000  1.0 0.0800336901
C  C17  1  0.31290000  0.84040000  0.33380000  1.0 -0.1578450224
C  C18  1  0.68710000  0.15960000  0.66620000  1.0 -0.1578450224
C  C19  1  0.30780000  0.89120000  0.38390000  1.0 -0.0121065921
C  C20  1  0.69220000  0.10880000  0.61610000  1.0 -0.0121065921
C  C21  1  0.42640000  0.91240000  0.40510000  1.0 -0.1431232836
C  C22  1  0.57360000  0.08760000  0.59490000  1.0 -0.1431232836
C  C23  1  0.55000000  0.88420000  0.37910000  1.0 -0.100040839
C  C24  1  0.45000000  0.11580000  0.62090000  1.0 -0.100040839
C  C25  1  0.55280000  0.83290000  0.32940000  1.0 -0.1683033142
C  C26  1  0.44720000  0.16710000  0.67060000  1.0 -0.1683033142
C  C27  1  0.67490000  0.90790000  0.40290000  1.0 0.3889578286
C  C28  1  0.32510000  0.09210000  0.59710000  1.0 0.3889578286
C  C29  1  0.17610000  0.92050000  0.41610000  1.0 0.5527970496
C  C30  1  0.82390000  0.07950000  0.58390000  1.0 0.5527970496
C  C31  1  0.34580000  0.41460000  0.08640000  1.0 0.559356064
C  C32  1  0.65420000  0.58540000  0.91360000  1.0 0.559356064
C  C33  1  0.20990000  0.39060000  0.11610000  1.0 -0.0121065921
C  C34  1  0.79010000  0.60940000  0.88390000  1.0 -0.0121065921
C  C35  1  0.09540000  0.41420000  0.08990000  1.0 -0.1431232836
C  C36  1  0.90460000  0.58580000  0.91010000  1.0 -0.1431232836
C  C37  1  0.97030000  0.38860000  0.11550000  1.0 -0.0121065921
C  C38  1  0.02970000  0.61140000  0.88450000  1.0 -0.0121065921
C  C39  1  0.96510000  0.33930000  0.16690000  1.0 -0.1578450224
C  C40  1  0.03490000  0.66070000  0.83310000  1.0 -0.1578450224
C  C41  1  0.07770000  0.31680000  0.19470000  1.0 0.0660795275
C  C42  1  0.92230000  0.68320000  0.80530000  1.0 0.0660795275
C  C43  1  0.20080000  0.34330000  0.16940000  1.0 -0.1578450224
C  C44  1  0.79920000  0.65670000  0.83060000  1.0 -0.1578450224
C  C45  1  0.06880000  0.26330000  0.25050000  1.0 0.0800336901
C  C46  1  0.93120000  0.73670000  0.74950000  1.0 0.0800336901
C  C47  1  0.97960000  0.20650000  0.25070000  1.0 -0.1578450224
C  C48  1  0.02040000  0.79350000  0.74930000  1.0 -0.1578450224
C  C49  1  0.96750000  0.15690000  0.30060000  1.0 -0.1090342573
C  C50  1  0.03250000  0.84310000  0.69940000  1.0 -0.1090342573
C  C51  1  0.04070000  0.16320000  0.35350000  1.0 -0.0302713212
C  C52  1  0.95930000  0.83680000  0.64650000  1.0 -0.0302713212
C  C53  1  0.13050000  0.21870000  0.35360000  1.0 -0.1090342573
C  C54  1  0.86950000  0.78130000  0.64640000  1.0 -0.1090342573
C  C55  1  0.14300000  0.26790000  0.30150000  1.0 -0.1516666036
C  C56  1  0.85700000  0.73210000  0.69850000  1.0 -0.1516666036
C  C57  1  0.84670000  0.41450000  0.08650000  1.0 0.5074861947
C  C58  1  0.15330000  0.58550000  0.91350000  1.0 0.5074861947
C  C59  1  0.02430000  0.10920000  0.40930000  1.0 0.559356064
C  C60  1  0.97570000  0.89080000  0.59070000  1.0 0.559356064
C  C61  1  0.49540000  0.11030000  0.43470000  1.0 -0.3888049345
C  C62  1  0.50460000  0.88970000  0.56530000  1.0 -0.3888049345
C  C63  1  0.37730000  0.07640000  0.34320000  1.0 0.0409894962
C  C64  1  0.62270000  0.92360000  0.65680000  1.0 0.0409894962
C  C65  1  0.36930000  0.05810000  0.27980000  1.0 -0.2069461253
C  C66  1  0.63070000  0.94190000  0.72020000  1.0 -0.2069461253
C  C67  1  0.48370000  0.05800000  0.23470000  1.0 0.1286334723
C  C68  1  0.51630000  0.94200000  0.76530000  1.0 0.1286334723
C  C69  1  0.60250000  0.07110000  0.26050000  1.0 -0.2034080621
C  C70  1  0.39750000  0.92890000  0.73950000  1.0 -0.2069461253
C  C71  1  0.60780000  0.08880000  0.32490000  1.0 -0.0121065921
C  C72  1  0.39220000  0.91120000  0.67510000  1.0 -0.0121065921
C  C73  1  0.48380000  0.03840000  0.16430000  1.0 -0.084700219
C  C74  1  0.51620000  0.96160000  0.83570000  1.0 -0.084700219
C  C75  1  0.56440000  0.97810000  0.14380000  1.0 0.1600185189
C  C76  1  0.43560000  0.02190000  0.85620000  1.0 0.1600185189
C  C77  1  0.63570000  0.92810000  0.18460000  1.0 -0.1795636635
C  C78  1  0.36430000  0.07190000  0.81540000  1.0 -0.1795636635
C  C79  1  0.69590000  0.87760000  0.14450000  1.0 -0.1795636635
C  C80  1  0.30410000  0.12240000  0.85550000  1.0 -0.1795636635
C  C81  1  0.66490000  0.89340000  0.07890000  1.0 0.1600185189
C  C82  1  0.33510000  0.10660000  0.92110000  1.0 0.1600185189
C  C83  1  0.40530000  0.08520000  0.12710000  1.0 0.1702666286
C  C84  1  0.59470000  0.91480000  0.87290000  1.0 0.1702666286
C  C85  1  0.33090000  0.14900000  0.14830000  1.0 -0.188577659
C  C86  1  0.66910000  0.85100000  0.85170000  1.0 -0.188577659
C  C87  1  0.27590000  0.17790000  0.09710000  1.0 -0.1795636635
C  C88  1  0.72410000  0.82210000  0.90290000  1.0 -0.1795636635
C  C89  1  0.31810000  0.13310000  0.04200000  1.0 0.1600185189
C  C90  1  0.68190000  0.86690000  0.95800000  1.0 0.1600185189
C  C91  1  0.70850000  0.85360000  0.02270000  1.0 -0.0692083087
C  C92  1  0.29150000  0.14640000  0.97730000  1.0 -0.0692083087
C  C93  1  0.79800000  0.78800000  0.03400000  1.0 0.1198776327
C  C94  1  0.20200000  0.21200000  0.96600000  1.0 0.1198776327
C  C95  1  0.74430000  0.72350000  0.04970000  1.0 -0.2069461253
C  C96  1  0.25570000  0.27650000  0.95030000  1.0 -0.2069461253
C  C97  1  0.82510000  0.66520000  0.06560000  1.0 0.0302033037
C  C98  1  0.17490000  0.33480000  0.93440000  1.0 0.0302033037
C  C99  1  0.00950000  0.72870000  0.03800000  1.0 -0.018964436
C  C100  1  0.99050000  0.27130000  0.96200000  1.0 -0.018964436
C  C101  1  0.93090000  0.78990000  0.02570000  1.0 -0.2034080621
C  C102  1  0.06910000  0.21010000  0.97430000  1.0 -0.2034080621
C  C103  1  0.03860000  0.60750000  0.08410000  1.0 -0.3673647937
C  C104  1  0.96140000  0.39250000  0.91590000  1.0 -0.3673647937
N  N1  1  0.39460000  0.07710000  0.06270000  1.0 -0.3888049345
N  N2  1  0.60540000  0.92290000  0.93730000  1.0 -0.3888049345
N  N3  1  0.58370000  0.95470000  0.08100000  1.0 -0.4010907706
N  N4  1  0.41630000  0.04530000  0.91900000  1.0 -0.4010907706
N  N5  1  0.49000000  0.09230000  0.36420000  1.0 0.1198776327
N  N6  1  0.51000000  0.90770000  0.63580000  1.0 0.1198776327
N  N7  1  0.95300000  0.66990000  0.06280000  1.0 0.1485748419
N  N8  1  0.04700000  0.33010000  0.93720000  1.0 0.1485748419
O  O1  1  0.07110000  0.89840000  0.39950000  1.0 -0.5003670897
O  O2  1  0.92890000  0.10160000  0.60050000  1.0 -0.5003670897
O  O3  1  0.18310000  0.96720000  0.45780000  1.0 -0.5669306215
O  O4  1  0.81690000  0.03280000  0.54220000  1.0 -0.5669306215
O  O5  1  0.39410000  0.61540000  0.04979000  1.0 -0.5514930185
O  O6  1  0.60590000  0.38460000  0.95021000  1.0 -0.5514930185
O  O7  1  0.54720000  0.55190000  0.10096000  1.0 -0.5514930185
O  O8  1  0.45280000  0.44810000  0.89904000  1.0 -0.5514930185
O  O9  1  0.34950000  0.45580000  0.03865000  1.0 -0.5573959347
O  O10  1  0.65050000  0.54420000  0.96135000  1.0 -0.5573959347
O  O11  1  0.44810000  0.39280000  0.10890000  1.0 -0.4834713336
O  O12  1  0.55190000  0.60720000  0.89110000  1.0 -0.4834713336
O  O13  1  0.84010000  0.47010000  0.05680000  1.0 -0.4834713336
O  O14  1  0.15990000  0.52990000  0.94320000  1.0 -0.4834713336
O  O15  1  0.74660000  0.37420000  0.09310000  1.0 -0.5003670897
O  O16  1  0.25340000  0.62580000  0.90690000  1.0 -0.5003670897
O  O17  1  0.94270000  0.06030000  0.40290000  1.0 -0.5573959347
O  O18  1  0.05730000  0.93970000  0.59710000  1.0 -0.5573959347
O  O19  1  0.09080000  0.11770000  0.45569000  1.0 -0.5444286164
O  O20  1  0.90920000  0.88230000  0.54431000  1.0 -0.5444286164
O  O21  1  0.78550000  0.88460000  0.37510000  1.0 -0.1202689964
O  O22  1  0.21450000  0.11540000  0.62490000  1.0 -0.1202689964
O  O23  1  0.66980000  0.95370000  0.44480000  1.0 -0.1578450224
O  O24  1  0.33020000  0.04630000  0.55520000  1.0 -0.1578450224
O  O25  1  0.31300000  0.03100000  0.57330000  1.0 -0.1683033142
O  O26  1  0.68700000  0.96900000  0.42670000  1.0 -0.1683033142
O  O27  1  0.22610000  0.13740000  0.59600000  1.0 -0.100040839
O  O28  1  0.77390000  0.86260000  0.40400000  1.0 -0.100040839
