# DDEC6 charges by PACMAN v1.1 (https://github.com/mtap-research/PACMAN-charge/)
data_HELDEJ_FSR_pacman
_symmetry_space_group_name_H-M   'P 1'
_cell_length_a   12.61800000
_cell_length_b   12.92700000
_cell_length_c   13.01200000
_cell_angle_alpha   78.30000000
_cell_angle_beta   117.78000000
_cell_angle_gamma   117.93000000
_symmetry_Int_Tables_number   1
_chemical_formula_structural   Zn3H50C48(N9O10)2
_chemical_formula_sum   'Zn3 H50 C48 N18 O20'
_cell_volume   1658.74959701
_cell_formula_units_Z   1
loop_
 _symmetry_equiv_pos_site_id
 _symmetry_equiv_pos_as_xyz
  1  'x, y, z'
loop_
 _atom_site_type_symbol
 _atom_site_label
 _atom_site_symmetry_multiplicity
 _atom_site_fract_x
 _atom_site_fract_y
 _atom_site_fract_z
 _atom_site_occupancy
 _atom_site_charge
Zn  Zn1  1  0.34177000  0.14125000  0.39387000  1.0 0.8416510332
Zn  Zn2  1  0.65823000  0.85875000  0.60613000  1.0 0.8416510332
Zn  Zn3  1  0.00000000  0.00000000  0.00000000  1.0 0.9189852286
H  H1  1  0.88770000  0.81670000  0.87900000  1.0 0.3654649365
H  H2  1  0.11230000  0.18330000  0.12100000  1.0 0.3654649365
H  H3  1  0.01500000  0.16610000  0.55440000  1.0 0.1293532147
H  H4  1  0.98500000  0.83390000  0.44560000  1.0 0.1293532147
H  H5  1  0.16900000  0.94360000  0.59830000  1.0 0.118117897
H  H6  1  0.83100000  0.05640000  0.40170000  1.0 0.118117897
H  H7  1  0.30500000  0.11710000  0.71260000  1.0 0.118117897
H  H8  1  0.69500000  0.88290000  0.28740000  1.0 0.118117897
H  H9  1  0.26580000  0.22200000  0.66980000  1.0 0.1406807917
H  H10  1  0.73420000  0.77800000  0.33020000  1.0 0.1406807917
H  H11  1  0.04680000  0.98490000  0.77780000  1.0 0.1406807917
H  H12  1  0.95320000  0.01510000  0.22220000  1.0 0.1406807917
H  H13  1  0.38320000  0.93570000  0.58610000  1.0 0.1496700603
H  H14  1  0.61680000  0.06430000  0.41390000  1.0 0.1496700603
H  H15  1  0.64280000  0.96070000  0.85830000  1.0 0.1496700603
H  H16  1  0.35720000  0.03930000  0.14170000  1.0 0.1496700603
H  H17  1  0.49320000  0.87090000  0.79680000  1.0 0.1406807917
H  H18  1  0.50680000  0.12910000  0.20320000  1.0 0.1406807917
H  H19  1  0.71420000  0.07900000  0.02030000  1.0 0.1293532147
H  H20  1  0.28580000  0.92100000  0.97970000  1.0 0.1293532147
H  H21  1  0.32820000  0.88140000  0.84200000  1.0 0.1293532147
H  H22  1  0.67180000  0.11860000  0.15800000  1.0 0.1293532147
H  H23  1  0.09450000  0.77310000  0.18310000  1.0 0.1406807917
H  H24  1  0.90550000  0.22690000  0.81690000  1.0 0.1406807917
H  H25  1  0.98930000  0.78290000  0.20800000  1.0 0.1406807917
H  H26  1  0.01070000  0.21710000  0.79200000  1.0 0.1406807917
H  H27  1  0.21370000  0.75170000  0.38080000  1.0 0.0890564132
H  H28  1  0.78630000  0.24830000  0.61920000  1.0 0.0890564132
H  H29  1  0.11610000  0.76970000  0.41000000  1.0 0.0999194212
H  H30  1  0.88390000  0.23030000  0.59000000  1.0 0.0999194212
H  H31  1  0.06570000  0.37310000  0.22100000  1.0 0.118117897
H  H32  1  0.93430000  0.62690000  0.77900000  1.0 0.118117897
H  H33  1  0.97700000  0.26590000  0.27120000  1.0 0.0999194212
H  H34  1  0.02300000  0.73410000  0.72880000  1.0 0.0999194212
H  H35  1  0.15500000  0.32480000  0.45970000  1.0 0.1293532147
H  H36  1  0.84500000  0.67520000  0.54030000  1.0 0.1293532147
H  H37  1  0.24300000  0.42070000  0.40140000  1.0 0.1496700603
H  H38  1  0.75700000  0.57930000  0.59860000  1.0 0.1496700603
H  H39  1  0.74780000  0.44960000  0.42710000  1.0 0.0999194212
H  H40  1  0.25220000  0.55040000  0.57290000  1.0 0.0999194212
H  H41  1  0.72410000  0.32270000  0.40990000  1.0 0.0999194212
H  H42  1  0.27590000  0.67730000  0.59010000  1.0 0.0999194212
H  H43  1  0.61170000  0.34890000  0.20350000  1.0 0.1293532147
H  H44  1  0.38830000  0.65110000  0.79650000  1.0 0.1293532147
H  H45  1  0.61430000  0.46000000  0.23750000  1.0 0.1293532147
H  H46  1  0.38570000  0.54000000  0.76250000  1.0 0.1293532147
H  H47  1  0.67170000  0.18860000  0.81520000  1.0 0.3106355774
H  H48  1  0.32830000  0.81140000  0.18480000  1.0 0.3106355774
H  H49  1  0.37560000  0.27980000  0.88760000  1.0 0.3012259412
H  H50  1  0.62440000  0.72020000  0.11240000  1.0 0.3012259412
C  C1  1  0.00920000  0.09870000  0.53260000  1.0 -0.1278586876
C  C2  1  0.99080000  0.90130000  0.46740000  1.0 -0.1278586876
C  C3  1  0.11380000  0.06730000  0.59470000  1.0 0.0812854962
C  C4  1  0.88620000  0.93270000  0.40530000  1.0 0.0812854962
C  C5  1  0.10060000  0.96670000  0.55870000  1.0 -0.13519593
C  C6  1  0.89940000  0.03330000  0.44130000  1.0 -0.13519593
C  C7  1  0.23560000  0.14100000  0.69330000  1.0 -0.206593309
C  C8  1  0.76440000  0.85900000  0.30670000  1.0 -0.206593309
C  C9  1  0.24980000  0.17950000  0.95900000  1.0 0.0999194212
C  C10  1  0.75020000  0.82050000  0.04100000  1.0 0.0999194212
C  C11  1  0.11670000  0.05040000  0.82360000  1.0 0.0812854962
C  C12  1  0.88330000  0.94960000  0.17640000  1.0 0.0812854962
C  C13  1  0.55240000  0.19240000  0.64460000  1.0 0.0999194212
C  C14  1  0.44760000  0.80760000  0.35540000  1.0 0.0999194212
C  C15  1  0.44340000  0.01000000  0.61930000  1.0 0.0812854962
C  C16  1  0.55660000  0.99000000  0.38070000  1.0 0.0812854962
C  C17  1  0.55210000  0.95110000  0.82510000  1.0 -0.206593309
C  C18  1  0.44790000  0.04890000  0.17490000  1.0 -0.206593309
C  C19  1  0.52530000  0.97600000  0.91670000  1.0 0.0890564132
C  C20  1  0.47470000  0.02400000  0.08330000  1.0 0.0890564132
C  C21  1  0.62730000  0.04690000  0.01180000  1.0 -0.1646744054
C  C22  1  0.37270000  0.95310000  0.98820000  1.0 -0.1646744054
C  C23  1  0.39800000  0.92940000  0.90570000  1.0 -0.151552279
C  C24  1  0.60200000  0.07060000  0.09430000  1.0 -0.151552279
C  C25  1  0.16280000  0.93280000  0.25240000  1.0 0.6303055096
C  C26  1  0.83720000  0.06720000  0.74760000  1.0 0.6303055096
C  C27  1  0.08270000  0.80130000  0.23890000  1.0 -0.3652448547
C  C28  1  0.91730000  0.19870000  0.76110000  1.0 -0.3652448547
C  C29  1  0.12200000  0.73760000  0.35260000  1.0 -0.0364941232
C  C30  1  0.87800000  0.26240000  0.64740000  1.0 -0.0364941232
C  C31  1  0.07790000  0.54080000  0.31290000  1.0 0.5327668894
C  C32  1  0.92210000  0.45920000  0.68710000  1.0 0.5327668894
C  C33  1  0.92680000  0.56850000  0.35810000  1.0 0.5227104235
C  C34  1  0.07320000  0.43150000  0.64190000  1.0 0.5227104235
C  C35  1  0.89180000  0.37130000  0.33200000  1.0 0.5327668894
C  C36  1  0.10820000  0.62870000  0.66800000  1.0 0.5327668894
C  C37  1  0.04750000  0.34490000  0.28860000  1.0 -0.028975035
C  C38  1  0.95250000  0.65510000  0.71140000  1.0 -0.028975035
C  C39  1  0.17000000  0.34330000  0.39020000  1.0 -0.3398697343
C  C40  1  0.83000000  0.65670000  0.60980000  1.0 -0.3398697343
C  C41  1  0.20800000  0.25510000  0.37360000  1.0 0.5959401536
C  C42  1  0.79200000  0.74490000  0.62640000  1.0 0.5959401536
C  C43  1  0.73580000  0.39830000  0.37370000  1.0 -0.028975035
C  C44  1  0.26420000  0.60170000  0.62630000  1.0 -0.028975035
C  C45  1  0.61220000  0.38350000  0.26340000  1.0 -0.3398697343
C  C46  1  0.38780000  0.61650000  0.73660000  1.0 -0.3398697343
C  C47  1  0.48530000  0.30710000  0.27810000  1.0 0.6108591962
C  C48  1  0.51470000  0.69290000  0.72190000  1.0 0.6108591962
N  N1  1  0.03790000  0.61060000  0.34080000  1.0 -0.2461998728
N  N2  1  0.96210000  0.38940000  0.65920000  1.0 -0.2461998728
N  N3  1  0.85550000  0.44710000  0.35400000  1.0 -0.2402682495
N  N4  1  0.14450000  0.55290000  0.64600000  1.0 -0.2402682495
N  N5  1  0.00360000  0.42120000  0.31360000  1.0 -0.2402682495
N  N6  1  0.99640000  0.57880000  0.68640000  1.0 -0.2402682495
N  N7  1  0.45370000  0.10880000  0.56390000  1.0 -0.3206297052
N  N8  1  0.54630000  0.89120000  0.43610000  1.0 -0.3206297052
N  N9  1  0.60280000  0.14820000  0.74660000  1.0 -0.1689860192
N  N10  1  0.39720000  0.85180000  0.25340000  1.0 -0.1689860192
N  N11  1  0.53070000  0.03180000  0.72820000  1.0 0.1562103141
N  N12  1  0.46930000  0.96820000  0.27180000  1.0 0.1496700603
N  N13  1  0.13640000  0.07790000  0.92610000  1.0 -0.3206297052
N  N14  1  0.86360000  0.92210000  0.07390000  1.0 -0.3206297052
N  N15  1  0.29900000  0.21360000  0.88340000  1.0 -0.1970192384
N  N16  1  0.70100000  0.78640000  0.11660000  1.0 -0.1970192384
N  N17  1  0.21420000  0.13240000  0.79790000  1.0 0.1293532147
N  N18  1  0.78580000  0.86760000  0.20210000  1.0 0.1293532147
O  O1  1  0.31850000  0.25990000  0.45100000  1.0 -0.5243786168
O  O2  1  0.68150000  0.74010000  0.54900000  1.0 -0.5243786168
O  O3  1  0.14200000  0.18440000  0.29700000  1.0 -0.4728940618
O  O4  1  0.85800000  0.81560000  0.70300000  1.0 -0.4728940618
O  O5  1  0.48620000  0.22710000  0.34770000  1.0 -0.5411601853
O  O6  1  0.51380000  0.77290000  0.65230000  1.0 -0.5411601853
O  O7  1  0.38330000  0.31850000  0.21140000  1.0 -0.5328985047
O  O8  1  0.61670000  0.68150000  0.78860000  1.0 -0.5328985047
O  O9  1  0.15110000  0.99450000  0.16510000  1.0 -0.5486964923
O  O10  1  0.84890000  0.00550000  0.83490000  1.0 -0.5486964923
O  O11  1  0.24080000  0.97320000  0.35410000  1.0 -0.5486964923
O  O12  1  0.75920000  0.02680000  0.64590000  1.0 -0.5486964923
O  O13  1  0.17580000  0.58290000  0.29450000  1.0 -0.4903279187
O  O14  1  0.82420000  0.41710000  0.70550000  1.0 -0.4903279187
O  O15  1  0.89010000  0.63200000  0.37610000  1.0 -0.4903279187
O  O16  1  0.10990000  0.36800000  0.62390000  1.0 -0.4903279187
O  O17  1  0.82780000  0.26590000  0.33130000  1.0 -0.4903279187
O  O18  1  0.17220000  0.73410000  0.66870000  1.0 -0.4903279187
O  O19  1  0.94970000  0.83220000  0.94400000  1.0 -0.7848799419
O  O20  1  0.05030000  0.16780000  0.05600000  1.0 -0.7848799419
