# DDEC6 charges by PACMAN v1.1 (https://github.com/mtap-research/PACMAN-charge/)
data_HELNIY_ASR_pacman
_symmetry_space_group_name_H-M   'P 1'
_cell_length_a   15.40290000
_cell_length_b   15.40290000
_cell_length_c   15.40290000
_cell_angle_alpha   60.00000000
_cell_angle_beta   60.00000000
_cell_angle_gamma   60.00000000
_symmetry_Int_Tables_number   1
_chemical_formula_structural   Sm3H12(C3O2)8
_chemical_formula_sum   'Sm6 H24 C48 O32'
_cell_volume   2583.99988361
_cell_formula_units_Z   2
loop_
 _symmetry_equiv_pos_site_id
 _symmetry_equiv_pos_as_xyz
  1  'x, y, z'
loop_
 _atom_site_type_symbol
 _atom_site_label
 _atom_site_symmetry_multiplicity
 _atom_site_fract_x
 _atom_site_fract_y
 _atom_site_fract_z
 _atom_site_occupancy
 _atom_site_charge
Sm  Sm1  1  0.87008000  0.87008000  0.12992000  1.0 2.2465166987
Sm  Sm2  1  0.12992000  0.12992000  0.87008000  1.0 2.2465166987
Sm  Sm3  1  0.87008000  0.12992000  0.87008000  1.0 2.2465166987
Sm  Sm4  1  0.12992000  0.87008000  0.12992000  1.0 2.2444766701
Sm  Sm5  1  0.12992000  0.87008000  0.87008000  1.0 2.2444766701
Sm  Sm6  1  0.87008000  0.12992000  0.12992000  1.0 2.2465166987
H  H1  1  0.58030000  0.86010000  0.13990000  1.0 0.1358303472
H  H2  1  0.13990000  0.41970000  0.58030000  1.0 0.1358303472
H  H3  1  0.86010000  0.58030000  0.41970000  1.0 0.1358303472
H  H4  1  0.41970000  0.13990000  0.86010000  1.0 0.1358303472
H  H5  1  0.86010000  0.13990000  0.58030000  1.0 0.1358303472
H  H6  1  0.41970000  0.58030000  0.13990000  1.0 0.1358303472
H  H7  1  0.58030000  0.41970000  0.86010000  1.0 0.1358303472
H  H8  1  0.13990000  0.86010000  0.41970000  1.0 0.1358303472
H  H9  1  0.13990000  0.58030000  0.86010000  1.0 0.1358303472
H  H10  1  0.58030000  0.13990000  0.41970000  1.0 0.1358303472
H  H11  1  0.41970000  0.86010000  0.58030000  1.0 0.1358303472
H  H12  1  0.86010000  0.41970000  0.13990000  1.0 0.1358303472
H  H13  1  0.41970000  0.58030000  0.86010000  1.0 0.1358303472
H  H14  1  0.86010000  0.13990000  0.41970000  1.0 0.1358303472
H  H15  1  0.13990000  0.86010000  0.58030000  1.0 0.1358303472
H  H16  1  0.58030000  0.41970000  0.13990000  1.0 0.1358303472
H  H17  1  0.13990000  0.58030000  0.41970000  1.0 0.1358303472
H  H18  1  0.58030000  0.13990000  0.86010000  1.0 0.1358303472
H  H19  1  0.41970000  0.86010000  0.13990000  1.0 0.1358303472
H  H20  1  0.86010000  0.41970000  0.58030000  1.0 0.1358303472
H  H21  1  0.86010000  0.58030000  0.13990000  1.0 0.1358303472
H  H22  1  0.41970000  0.13990000  0.58030000  1.0 0.1358303472
H  H23  1  0.58030000  0.86010000  0.41970000  1.0 0.1358303472
H  H24  1  0.13990000  0.41970000  0.86010000  1.0 0.1358303472
C  C1  1  0.54840000  0.91140000  0.08860000  1.0 -0.1078079234
C  C2  1  0.08860000  0.45160000  0.54840000  1.0 -0.1078079234
C  C3  1  0.91140000  0.54840000  0.45160000  1.0 -0.1078079234
C  C4  1  0.45160000  0.08860000  0.91140000  1.0 -0.1078079234
C  C5  1  0.91140000  0.08860000  0.54840000  1.0 -0.1078079234
C  C6  1  0.45160000  0.54840000  0.08860000  1.0 -0.1078079234
C  C7  1  0.54840000  0.45160000  0.91140000  1.0 -0.1078079234
C  C8  1  0.08860000  0.91140000  0.45160000  1.0 -0.1078079234
C  C9  1  0.08860000  0.54840000  0.91140000  1.0 -0.1078079234
C  C10  1  0.54840000  0.08860000  0.45160000  1.0 -0.1078079234
C  C11  1  0.45160000  0.91140000  0.54840000  1.0 -0.1078079234
C  C12  1  0.91140000  0.45160000  0.08860000  1.0 -0.1078079234
C  C13  1  0.45160000  0.54840000  0.91140000  1.0 -0.1078079234
C  C14  1  0.91140000  0.08860000  0.45160000  1.0 -0.1078079234
C  C15  1  0.08860000  0.91140000  0.54840000  1.0 -0.1078079234
C  C16  1  0.54840000  0.45160000  0.08860000  1.0 -0.1078079234
C  C17  1  0.08860000  0.54840000  0.45160000  1.0 -0.1078079234
C  C18  1  0.54840000  0.08860000  0.91140000  1.0 -0.1078079234
C  C19  1  0.45160000  0.91140000  0.08860000  1.0 -0.1078079234
C  C20  1  0.91140000  0.45160000  0.54840000  1.0 -0.1078079234
C  C21  1  0.91140000  0.54840000  0.08860000  1.0 -0.1078079234
C  C22  1  0.45160000  0.08860000  0.54840000  1.0 -0.1078079234
C  C23  1  0.54840000  0.91140000  0.45160000  1.0 -0.1078079234
C  C24  1  0.08860000  0.45160000  0.91140000  1.0 -0.1078079234
C  C25  1  0.68880000  0.00000000  0.00000000  1.0 0.6467571498
C  C26  1  0.59160000  0.00000000  0.00000000  1.0 -0.0183646295
C  C27  1  0.00000000  0.31120000  0.68880000  1.0 0.6467571498
C  C28  1  0.00000000  0.40840000  0.59160000  1.0 -0.0183646295
C  C29  1  0.00000000  0.68880000  0.31120000  1.0 0.6467571498
C  C30  1  0.00000000  0.59160000  0.40840000  1.0 -0.0183646295
C  C31  1  0.31120000  0.00000000  0.00000000  1.0 0.6467571498
C  C32  1  0.40840000  0.00000000  0.00000000  1.0 -0.0183646295
C  C33  1  0.00000000  0.00000000  0.68880000  1.0 0.6467571498
C  C34  1  0.00000000  0.00000000  0.59160000  1.0 -0.0183646295
C  C35  1  0.31120000  0.68880000  0.00000000  1.0 0.6467571498
C  C36  1  0.40840000  0.59160000  0.00000000  1.0 -0.0183646295
C  C37  1  0.68880000  0.31120000  0.00000000  1.0 0.6467571498
C  C38  1  0.59160000  0.40840000  0.00000000  1.0 -0.0183646295
C  C39  1  0.00000000  0.00000000  0.31120000  1.0 0.6467571498
C  C40  1  0.00000000  0.00000000  0.40840000  1.0 -0.0183646295
C  C41  1  0.00000000  0.68880000  0.00000000  1.0 0.6467571498
C  C42  1  0.00000000  0.59160000  0.00000000  1.0 -0.0183646295
C  C43  1  0.68880000  0.00000000  0.31120000  1.0 0.6467571498
C  C44  1  0.59160000  0.00000000  0.40840000  1.0 -0.0183646295
C  C45  1  0.31120000  0.00000000  0.68880000  1.0 0.6467571498
C  C46  1  0.40840000  0.00000000  0.59160000  1.0 -0.0183646295
C  C47  1  0.00000000  0.31120000  0.00000000  1.0 0.6467571498
C  C48  1  0.00000000  0.40840000  0.00000000  1.0 -0.0183646295
O  O1  1  0.94059000  0.94059000  0.94059000  1.0 -0.9712121173
O  O2  1  0.94059000  0.17823000  0.94059000  1.0 -0.9712121173
O  O3  1  0.94059000  0.94059000  0.17823000  1.0 -0.9712121173
O  O4  1  0.17823000  0.94059000  0.94059000  1.0 -0.9712121173
O  O5  1  0.05941000  0.82177000  0.05941000  1.0 -0.9712121173
O  O6  1  0.05941000  0.05941000  0.05941000  1.0 -0.9712121173
O  O7  1  0.05941000  0.05941000  0.82177000  1.0 -0.9712121173
O  O8  1  0.82177000  0.05941000  0.05941000  1.0 -0.9712121173
O  O9  1  0.72490000  0.92510000  0.07490000  1.0 -0.5799404838
O  O10  1  0.07490000  0.27510000  0.72490000  1.0 -0.5799404838
O  O11  1  0.92510000  0.72490000  0.27510000  1.0 -0.5799404838
O  O12  1  0.27510000  0.07490000  0.92510000  1.0 -0.5799404838
O  O13  1  0.92510000  0.07490000  0.72490000  1.0 -0.5799404838
O  O14  1  0.27510000  0.72490000  0.07490000  1.0 -0.5799404838
O  O15  1  0.72490000  0.27510000  0.92510000  1.0 -0.5799404838
O  O16  1  0.07490000  0.92510000  0.27510000  1.0 -0.5799404838
O  O17  1  0.07490000  0.72490000  0.92510000  1.0 -0.5799404838
O  O18  1  0.72490000  0.07490000  0.27510000  1.0 -0.5799404838
O  O19  1  0.27510000  0.92510000  0.72490000  1.0 -0.5799404838
O  O20  1  0.92510000  0.27510000  0.07490000  1.0 -0.5799404838
O  O21  1  0.27510000  0.72490000  0.92510000  1.0 -0.5799404838
O  O22  1  0.92510000  0.07490000  0.27510000  1.0 -0.5799404838
O  O23  1  0.07490000  0.92510000  0.72490000  1.0 -0.5799404838
O  O24  1  0.72490000  0.27510000  0.07490000  1.0 -0.5799404838
O  O25  1  0.07490000  0.72490000  0.27510000  1.0 -0.5799404838
O  O26  1  0.72490000  0.07490000  0.92510000  1.0 -0.5799404838
O  O27  1  0.27510000  0.92510000  0.07490000  1.0 -0.5799404838
O  O28  1  0.92510000  0.27510000  0.72490000  1.0 -0.5799404838
O  O29  1  0.92510000  0.72490000  0.07490000  1.0 -0.5799404838
O  O30  1  0.27510000  0.07490000  0.72490000  1.0 -0.5799404838
O  O31  1  0.72490000  0.92510000  0.27510000  1.0 -0.5799404838
O  O32  1  0.07490000  0.27510000  0.92510000  1.0 -0.5799404838
