# DDEC6 charges by PACMAN v1.1 (https://github.com/mtap-research/PACMAN-charge/)
data_HEMVIF_FSR_pacman
_symmetry_space_group_name_H-M   'P 1'
_cell_length_a   8.65308000
_cell_length_b   8.65308000
_cell_length_c   8.65308000
_cell_angle_alpha   107.74600000
_cell_angle_beta   107.74600000
_cell_angle_gamma   112.97900000
_symmetry_Int_Tables_number   1
_chemical_formula_structural   Co4P4H4O20F
_chemical_formula_sum   'Co4 P4 H4 O20 F1'
_cell_volume   497.35100891
_cell_formula_units_Z   1
loop_
 _symmetry_equiv_pos_site_id
 _symmetry_equiv_pos_as_xyz
  1  'x, y, z'
loop_
 _atom_site_type_symbol
 _atom_site_label
 _atom_site_symmetry_multiplicity
 _atom_site_fract_x
 _atom_site_fract_y
 _atom_site_fract_z
 _atom_site_occupancy
 _atom_site_charge
Co  Co1  1  0.26582000  0.99978000  0.00000000  1.0 0.9605702568
Co  Co2  1  0.99978000  0.26582000  0.00000000  1.0 0.9605702568
Co  Co3  1  0.73418000  0.73418000  0.73396000  1.0 0.9605702568
Co  Co4  1  0.00022000  0.00022000  0.26604000  1.0 0.9605702568
P  P1  1  0.97128000  0.64392000  0.00000000  1.0 1.0762179751
P  P2  1  0.64392000  0.97128000  0.00000000  1.0 1.0762179751
P  P3  1  0.02872000  0.02872000  0.67264000  1.0 1.0762179751
P  P4  1  0.35608000  0.35608000  0.32736000  1.0 1.0762179751
H  H1  1  0.06480000  0.53280000  0.00000000  1.0 0.3199796636
H  H2  1  0.53280000  0.06480000  0.00000000  1.0 0.3199796636
H  H3  1  0.93520000  0.93520000  0.46800000  1.0 0.3199796636
H  H4  1  0.46720000  0.46720000  0.53200000  1.0 0.3199796636
O  O1  1  0.16060000  0.75440000  0.00000000  1.0 -0.6471829306
O  O2  1  0.75440000  0.16060000  0.00000000  1.0 -0.6471829306
O  O3  1  0.83940000  0.83940000  0.59380000  1.0 -0.6471829306
O  O4  1  0.24560000  0.24560000  0.40620000  1.0 -0.6471829306
O  O5  1  0.41740000  0.24460000  0.22160000  1.0 -0.6393894296
O  O6  1  0.02300000  0.19580000  0.77840000  1.0 -0.6393894296
O  O7  1  0.80420000  0.58260000  0.82720000  1.0 -0.6393894296
O  O8  1  0.75540000  0.97700000  0.17280000  1.0 -0.6393894296
O  O9  1  0.58260000  0.80420000  0.82720000  1.0 -0.6393894296
O  O10  1  0.97700000  0.75540000  0.17280000  1.0 -0.6393894296
O  O11  1  0.19580000  0.02300000  0.77840000  1.0 -0.6393894296
O  O12  1  0.24460000  0.41740000  0.22160000  1.0 -0.6393894296
O  O13  1  0.48890000  0.96540000  0.05230000  1.0 -0.1549220722
O  O14  1  0.91310000  0.43660000  0.94770000  1.0 -0.1562644774
O  O15  1  0.56340000  0.51110000  0.47650000  1.0 -0.1562644774
O  O16  1  0.03460000  0.08690000  0.52350000  1.0 -0.1562644774
O  O17  1  0.51110000  0.56340000  0.47650000  1.0 -0.1562644774
O  O18  1  0.08690000  0.03460000  0.52350000  1.0 -0.1562644774
O  O19  1  0.43660000  0.91310000  0.94770000  1.0 -0.1562644774
O  O20  1  0.96540000  0.48890000  0.05230000  1.0 -0.1562644774
F  F1  1  0.00000000  0.00000000  0.00000000  1.0 -0.4744510095
