# DDEC6 charges by PACMAN v1.1 (https://github.com/mtap-research/PACMAN-charge/)
data_HENYOR_ASR_pacman
_symmetry_space_group_name_H-M   'P 1'
_cell_length_a   17.35500000
_cell_length_b   20.01600000
_cell_length_c   22.39600000
_cell_angle_alpha   90.00000000
_cell_angle_beta   90.00000000
_cell_angle_gamma   90.00000000
_symmetry_Int_Tables_number   1
_chemical_formula_structural   Ca2H12C29O8
_chemical_formula_sum   'Ca16 H96 C232 O64'
_cell_volume   7779.87052128
_cell_formula_units_Z   8
loop_
 _symmetry_equiv_pos_site_id
 _symmetry_equiv_pos_as_xyz
  1  'x, y, z'
loop_
 _atom_site_type_symbol
 _atom_site_label
 _atom_site_symmetry_multiplicity
 _atom_site_fract_x
 _atom_site_fract_y
 _atom_site_fract_z
 _atom_site_occupancy
 _atom_site_charge
Ca  Ca1  1  0.58931000  0.07508000  0.00027000  1.0 1.4032948033
Ca  Ca2  1  0.80190000  0.59597000  0.50428000  1.0 1.3490121083
Ca  Ca3  1  0.41069000  0.42492000  0.50027000  1.0 1.4032948033
Ca  Ca4  1  0.19810000  0.90403000  0.00428000  1.0 1.3490121083
Ca  Ca5  1  0.08931000  0.92492000  0.49973000  1.0 1.4032948033
Ca  Ca6  1  0.30190000  0.40403000  0.99572000  1.0 1.3490121083
Ca  Ca7  1  0.91069000  0.57508000  0.99973000  1.0 1.4032948033
Ca  Ca8  1  0.69810000  0.09597000  0.49572000  1.0 1.3490121083
Ca  Ca9  1  0.41069000  0.92492000  0.99973000  1.0 1.4032948033
Ca  Ca10  1  0.19810000  0.40403000  0.49572000  1.0 1.3490121083
Ca  Ca11  1  0.58931000  0.57508000  0.49973000  1.0 1.4032948033
Ca  Ca12  1  0.80190000  0.09597000  0.99572000  1.0 1.3490121083
Ca  Ca13  1  0.91069000  0.07508000  0.50027000  1.0 1.4032948033
Ca  Ca14  1  0.69810000  0.59597000  0.00428000  1.0 1.3490121083
Ca  Ca15  1  0.08931000  0.42492000  0.00027000  1.0 1.4032948033
Ca  Ca16  1  0.30190000  0.90403000  0.50428000  1.0 1.3490121083
H  H1  1  0.45800000  0.88730000  0.14330000  1.0 0.1141189645
H  H2  1  0.46670000  0.81150000  0.22200000  1.0 0.1208744121
H  H3  1  0.51350000  0.72120000  0.30430000  1.0 0.1208744121
H  H4  1  0.57940000  0.65560000  0.37460000  1.0 0.1141189645
H  H5  1  0.78120000  0.74630000  0.33200000  1.0 0.130869298
H  H6  1  0.68420000  0.92720000  0.15320000  1.0 0.130869298
H  H7  1  0.68600000  0.92270000  0.33880000  1.0 0.130869298
H  H8  1  0.89940000  0.99760000  0.35960000  1.0 0.1208744121
H  H9  1  0.94520000  0.93530000  0.27760000  1.0 0.1208744121
H  H10  1  0.96210000  0.85310000  0.18320000  1.0 0.1208744121
H  H11  1  0.95200000  0.77150000  0.10680000  1.0 0.1141189645
H  H12  1  0.72850000  0.73870000  0.15230000  1.0 0.130869298
H  H13  1  0.54200000  0.61270000  0.64330000  1.0 0.1141189645
H  H14  1  0.53330000  0.68850000  0.72200000  1.0 0.1208744121
H  H15  1  0.48650000  0.77880000  0.80430000  1.0 0.1208744121
H  H16  1  0.42060000  0.84440000  0.87460000  1.0 0.1141189645
H  H17  1  0.21880000  0.75370000  0.83200000  1.0 0.130869298
H  H18  1  0.31580000  0.57280000  0.65320000  1.0 0.130869298
H  H19  1  0.31400000  0.57730000  0.83880000  1.0 0.130869298
H  H20  1  0.10060000  0.50240000  0.85960000  1.0 0.1208744121
H  H21  1  0.05480000  0.56470000  0.77760000  1.0 0.1208744121
H  H22  1  0.03790000  0.64690000  0.68320000  1.0 0.1208744121
H  H23  1  0.04800000  0.72850000  0.60680000  1.0 0.1141189645
H  H24  1  0.27150000  0.76130000  0.65230000  1.0 0.130869298
H  H25  1  0.95800000  0.11270000  0.35670000  1.0 0.1141189645
H  H26  1  0.96670000  0.18850000  0.27800000  1.0 0.1208744121
H  H27  1  0.01350000  0.27880000  0.19570000  1.0 0.1208744121
H  H28  1  0.07940000  0.34440000  0.12540000  1.0 0.1141189645
H  H29  1  0.28120000  0.25370000  0.16800000  1.0 0.130869298
H  H30  1  0.18420000  0.07280000  0.34680000  1.0 0.130869298
H  H31  1  0.18600000  0.07730000  0.16120000  1.0 0.130869298
H  H32  1  0.39940000  0.00240000  0.14040000  1.0 0.1208744121
H  H33  1  0.44520000  0.06470000  0.22240000  1.0 0.1208744121
H  H34  1  0.46210000  0.14690000  0.31680000  1.0 0.1208744121
H  H35  1  0.45200000  0.22850000  0.39320000  1.0 0.1141189645
H  H36  1  0.22850000  0.26130000  0.34770000  1.0 0.130869298
H  H37  1  0.04200000  0.38730000  0.85670000  1.0 0.1141189645
H  H38  1  0.03330000  0.31150000  0.77800000  1.0 0.1208744121
H  H39  1  0.98650000  0.22120000  0.69570000  1.0 0.1208744121
H  H40  1  0.92060000  0.15560000  0.62540000  1.0 0.1141189645
H  H41  1  0.71880000  0.24630000  0.66800000  1.0 0.130869298
H  H42  1  0.81580000  0.42720000  0.84680000  1.0 0.130869298
H  H43  1  0.81400000  0.42270000  0.66120000  1.0 0.130869298
H  H44  1  0.60060000  0.49760000  0.64040000  1.0 0.1208744121
H  H45  1  0.55480000  0.43530000  0.72240000  1.0 0.1208744121
H  H46  1  0.53790000  0.35310000  0.81680000  1.0 0.1208744121
H  H47  1  0.54800000  0.27150000  0.89320000  1.0 0.1141189645
H  H48  1  0.77150000  0.23870000  0.84770000  1.0 0.130869298
H  H49  1  0.54200000  0.11270000  0.85670000  1.0 0.1141189645
H  H50  1  0.53330000  0.18850000  0.77800000  1.0 0.1208744121
H  H51  1  0.48650000  0.27880000  0.69570000  1.0 0.1208744121
H  H52  1  0.42060000  0.34440000  0.62540000  1.0 0.1141189645
H  H53  1  0.21880000  0.25370000  0.66800000  1.0 0.130869298
H  H54  1  0.31580000  0.07280000  0.84680000  1.0 0.130869298
H  H55  1  0.31400000  0.07730000  0.66120000  1.0 0.130869298
H  H56  1  0.10060000  0.00240000  0.64040000  1.0 0.1208744121
H  H57  1  0.05480000  0.06470000  0.72240000  1.0 0.1208744121
H  H58  1  0.03790000  0.14690000  0.81680000  1.0 0.1208744121
H  H59  1  0.04800000  0.22850000  0.89320000  1.0 0.1141189645
H  H60  1  0.27150000  0.26130000  0.84770000  1.0 0.130869298
H  H61  1  0.45800000  0.38730000  0.35670000  1.0 0.1141189645
H  H62  1  0.46670000  0.31150000  0.27800000  1.0 0.1208744121
H  H63  1  0.51350000  0.22120000  0.19570000  1.0 0.1208744121
H  H64  1  0.57940000  0.15560000  0.12540000  1.0 0.1141189645
H  H65  1  0.78120000  0.24630000  0.16800000  1.0 0.130869298
H  H66  1  0.68420000  0.42720000  0.34680000  1.0 0.130869298
H  H67  1  0.68600000  0.42270000  0.16120000  1.0 0.130869298
H  H68  1  0.89940000  0.49760000  0.14040000  1.0 0.1208744121
H  H69  1  0.94520000  0.43530000  0.22240000  1.0 0.1208744121
H  H70  1  0.96210000  0.35310000  0.31680000  1.0 0.1208744121
H  H71  1  0.95200000  0.27150000  0.39320000  1.0 0.1141189645
H  H72  1  0.72850000  0.23870000  0.34770000  1.0 0.130869298
H  H73  1  0.04200000  0.88730000  0.64330000  1.0 0.1141189645
H  H74  1  0.03330000  0.81150000  0.72200000  1.0 0.1208744121
H  H75  1  0.98650000  0.72120000  0.80430000  1.0 0.1208744121
H  H76  1  0.92060000  0.65560000  0.87460000  1.0 0.1141189645
H  H77  1  0.71880000  0.74630000  0.83200000  1.0 0.130869298
H  H78  1  0.81580000  0.92720000  0.65320000  1.0 0.130869298
H  H79  1  0.81400000  0.92270000  0.83880000  1.0 0.130869298
H  H80  1  0.60060000  0.99760000  0.85960000  1.0 0.1208744121
H  H81  1  0.55480000  0.93530000  0.77760000  1.0 0.1208744121
H  H82  1  0.53790000  0.85310000  0.68320000  1.0 0.1208744121
H  H83  1  0.54800000  0.77150000  0.60680000  1.0 0.1141189645
H  H84  1  0.77150000  0.73870000  0.65230000  1.0 0.130869298
H  H85  1  0.95800000  0.61270000  0.14330000  1.0 0.1141189645
H  H86  1  0.96670000  0.68850000  0.22200000  1.0 0.1208744121
H  H87  1  0.01350000  0.77880000  0.30430000  1.0 0.1208744121
H  H88  1  0.07940000  0.84440000  0.37460000  1.0 0.1141189645
H  H89  1  0.28120000  0.75370000  0.33200000  1.0 0.130869298
H  H90  1  0.18420000  0.57280000  0.15320000  1.0 0.130869298
H  H91  1  0.18600000  0.57730000  0.33880000  1.0 0.130869298
H  H92  1  0.39940000  0.50240000  0.35960000  1.0 0.1208744121
H  H93  1  0.44520000  0.56470000  0.27760000  1.0 0.1208744121
H  H94  1  0.46210000  0.64690000  0.18320000  1.0 0.1208744121
H  H95  1  0.45200000  0.72850000  0.10680000  1.0 0.1141189645
H  H96  1  0.22850000  0.76130000  0.15230000  1.0 0.130869298
C  C1  1  0.56170000  0.96110000  0.08930000  1.0 0.5898920314
C  C2  1  0.57040000  0.91490000  0.14090000  1.0 -0.0321373346
C  C3  1  0.50660000  0.87960000  0.16150000  1.0 -0.1100822752
C  C4  1  0.51130000  0.83390000  0.20750000  1.0 -0.1512697677
C  C5  1  0.58370000  0.82190000  0.23190000  1.0 0.0178957221
C  C6  1  0.60840000  0.77280000  0.27720000  1.0 0.0178957221
C  C7  1  0.56740000  0.72650000  0.31010000  1.0 -0.1512697677
C  C8  1  0.60660000  0.68800000  0.35190000  1.0 -0.1100822752
C  C9  1  0.68500000  0.69660000  0.36060000  1.0 -0.0088345779
C  C10  1  0.72560000  0.65770000  0.40860000  1.0 0.6033692823
C  C11  1  0.72720000  0.74170000  0.32690000  1.0 -0.1582530712
C  C12  1  0.68690000  0.78020000  0.28490000  1.0 0.0101625546
C  C13  1  0.64030000  0.90320000  0.16670000  1.0 -0.1390465631
C  C14  1  0.64840000  0.85710000  0.21210000  1.0 0.0178957221
C  C15  1  0.72020000  0.83330000  0.24440000  1.0 0.0398135993
C  C16  1  0.76450000  0.88600000  0.27980000  1.0 0.0101625546
C  C17  1  0.73850000  0.92460000  0.32700000  1.0 -0.1512697677
C  C18  1  0.78990000  0.96620000  0.35720000  1.0 -0.0166916189
C  C19  1  0.76170000  0.00690000  0.40900000  1.0 0.6073436455
C  C20  1  0.86480000  0.96910000  0.33870000  1.0 -0.1011758338
C  C21  1  0.89310000  0.93190000  0.29030000  1.0 -0.1582530712
C  C22  1  0.84090000  0.88970000  0.26170000  1.0 0.0178957221
C  C23  1  0.85160000  0.84260000  0.21230000  1.0 0.0101625546
C  C24  1  0.91520000  0.82970000  0.17710000  1.0 -0.1726176536
C  C25  1  0.90900000  0.78100000  0.13160000  1.0 -0.1100822752
C  C26  1  0.83930000  0.74660000  0.12310000  1.0 -0.0166916189
C  C27  1  0.83480000  0.69370000  0.07500000  1.0 0.6033692823
C  C28  1  0.77600000  0.76140000  0.15840000  1.0 -0.1512697677
C  C29  1  0.78240000  0.80940000  0.20250000  1.0 0.0101625546
C  C30  1  0.43830000  0.53890000  0.58930000  1.0 0.5898920314
C  C31  1  0.42960000  0.58510000  0.64090000  1.0 -0.0321373346
C  C32  1  0.49340000  0.62040000  0.66150000  1.0 -0.1100822752
C  C33  1  0.48870000  0.66610000  0.70750000  1.0 -0.1512697677
C  C34  1  0.41630000  0.67810000  0.73190000  1.0 0.0178957221
C  C35  1  0.39160000  0.72720000  0.77720000  1.0 0.0178957221
C  C36  1  0.43260000  0.77350000  0.81010000  1.0 -0.1512697677
C  C37  1  0.39340000  0.81200000  0.85190000  1.0 -0.1100822752
C  C38  1  0.31500000  0.80340000  0.86060000  1.0 -0.0088345779
C  C39  1  0.27440000  0.84230000  0.90860000  1.0 0.6033692823
C  C40  1  0.27280000  0.75830000  0.82690000  1.0 -0.1582530712
C  C41  1  0.31310000  0.71980000  0.78490000  1.0 0.0101625546
C  C42  1  0.35970000  0.59680000  0.66666667  1.0 -0.1390465631
C  C43  1  0.35160000  0.64290000  0.71210000  1.0 0.0178957221
C  C44  1  0.27980000  0.66666667  0.74440000  1.0 0.0398135993
C  C45  1  0.23550000  0.61400000  0.77980000  1.0 0.0101625546
C  C46  1  0.26150000  0.57540000  0.82700000  1.0 -0.1512697677
C  C47  1  0.21010000  0.53380000  0.85720000  1.0 -0.0166916189
C  C48  1  0.23830000  0.49310000  0.90900000  1.0 0.6073436455
C  C49  1  0.13520000  0.53090000  0.83870000  1.0 -0.1011758338
C  C50  1  0.10690000  0.56810000  0.79030000  1.0 -0.1582530712
C  C51  1  0.15910000  0.61030000  0.76170000  1.0 0.0178957221
C  C52  1  0.14840000  0.65740000  0.71230000  1.0 0.0101625546
C  C53  1  0.08480000  0.67030000  0.67710000  1.0 -0.1726176536
C  C54  1  0.09100000  0.71900000  0.63160000  1.0 -0.1100822752
C  C55  1  0.16070000  0.75340000  0.62310000  1.0 -0.0166916189
C  C56  1  0.16520000  0.80630000  0.57500000  1.0 0.6033692823
C  C57  1  0.22400000  0.73860000  0.65840000  1.0 -0.1512697677
C  C58  1  0.21760000  0.69060000  0.70250000  1.0 0.0101625546
C  C59  1  0.06170000  0.03890000  0.41070000  1.0 0.5898920314
C  C60  1  0.07040000  0.08510000  0.35910000  1.0 -0.0321373346
C  C61  1  0.00660000  0.12040000  0.33850000  1.0 -0.1100822752
C  C62  1  0.01130000  0.16610000  0.29250000  1.0 -0.1512697677
C  C63  1  0.08370000  0.17810000  0.26810000  1.0 0.0178957221
C  C64  1  0.10840000  0.22720000  0.22280000  1.0 0.0178957221
C  C65  1  0.06740000  0.27350000  0.18990000  1.0 -0.1512697677
C  C66  1  0.10660000  0.31200000  0.14810000  1.0 -0.1100822752
C  C67  1  0.18500000  0.30340000  0.13940000  1.0 -0.0088345779
C  C68  1  0.22560000  0.34230000  0.09140000  1.0 0.6033692823
C  C69  1  0.22720000  0.25830000  0.17310000  1.0 -0.1582530712
C  C70  1  0.18690000  0.21980000  0.21510000  1.0 0.0101625546
C  C71  1  0.14030000  0.09680000  0.33333333  1.0 -0.1390465631
C  C72  1  0.14840000  0.14290000  0.28790000  1.0 0.0178957221
C  C73  1  0.22020000  0.16670000  0.25560000  1.0 0.0398135993
C  C74  1  0.26450000  0.11400000  0.22020000  1.0 0.0101625546
C  C75  1  0.23850000  0.07540000  0.17300000  1.0 -0.1512697677
C  C76  1  0.28990000  0.03380000  0.14280000  1.0 -0.0166916189
C  C77  1  0.26170000  0.99310000  0.09100000  1.0 0.6073436455
C  C78  1  0.36480000  0.03090000  0.16130000  1.0 -0.1011758338
C  C79  1  0.39310000  0.06810000  0.20970000  1.0 -0.1582530712
C  C80  1  0.34090000  0.11030000  0.23830000  1.0 0.0178957221
C  C81  1  0.35160000  0.15740000  0.28770000  1.0 0.0101625546
C  C82  1  0.41520000  0.17030000  0.32290000  1.0 -0.1726176536
C  C83  1  0.40900000  0.21900000  0.36840000  1.0 -0.1100822752
C  C84  1  0.33930000  0.25340000  0.37690000  1.0 -0.0166916189
C  C85  1  0.33480000  0.30630000  0.42500000  1.0 0.6033692823
C  C86  1  0.27600000  0.23860000  0.34160000  1.0 -0.1512697677
C  C87  1  0.28240000  0.19060000  0.29750000  1.0 0.0101625546
C  C88  1  0.93830000  0.46110000  0.91070000  1.0 0.5898920314
C  C89  1  0.92960000  0.41490000  0.85910000  1.0 -0.0321373346
C  C90  1  0.99340000  0.37960000  0.83850000  1.0 -0.1100822752
C  C91  1  0.98870000  0.33390000  0.79250000  1.0 -0.1512697677
C  C92  1  0.91630000  0.32190000  0.76810000  1.0 0.0178957221
C  C93  1  0.89160000  0.27280000  0.72280000  1.0 0.0178957221
C  C94  1  0.93260000  0.22650000  0.68990000  1.0 -0.1512697677
C  C95  1  0.89340000  0.18800000  0.64810000  1.0 -0.1100822752
C  C96  1  0.81500000  0.19660000  0.63940000  1.0 -0.0088345779
C  C97  1  0.77440000  0.15770000  0.59140000  1.0 0.6033692823
C  C98  1  0.77280000  0.24170000  0.67310000  1.0 -0.1582530712
C  C99  1  0.81310000  0.28020000  0.71510000  1.0 0.0101625546
C  C100  1  0.85970000  0.40320000  0.83330000  1.0 -0.1390465631
C  C101  1  0.85160000  0.35710000  0.78790000  1.0 0.0178957221
C  C102  1  0.77980000  0.33333333  0.75560000  1.0 0.0398135993
C  C103  1  0.73550000  0.38600000  0.72020000  1.0 0.0101625546
C  C104  1  0.76150000  0.42460000  0.67300000  1.0 -0.1512697677
C  C105  1  0.71010000  0.46620000  0.64280000  1.0 -0.0166916189
C  C106  1  0.73830000  0.50690000  0.59100000  1.0 0.6073436455
C  C107  1  0.63520000  0.46910000  0.66130000  1.0 -0.1011758338
C  C108  1  0.60690000  0.43190000  0.70970000  1.0 -0.1582530712
C  C109  1  0.65910000  0.38970000  0.73830000  1.0 0.0178957221
C  C110  1  0.64840000  0.34260000  0.78770000  1.0 0.0101625546
C  C111  1  0.58480000  0.32970000  0.82290000  1.0 -0.1726176536
C  C112  1  0.59100000  0.28100000  0.86840000  1.0 -0.1100822752
C  C113  1  0.66070000  0.24660000  0.87690000  1.0 -0.0166916189
C  C114  1  0.66520000  0.19370000  0.92500000  1.0 0.6033692823
C  C115  1  0.72400000  0.26140000  0.84160000  1.0 -0.1512697677
C  C116  1  0.71760000  0.30940000  0.79750000  1.0 0.0101625546
C  C117  1  0.43830000  0.03890000  0.91070000  1.0 0.5898920314
C  C118  1  0.42960000  0.08510000  0.85910000  1.0 -0.0321373346
C  C119  1  0.49340000  0.12040000  0.83850000  1.0 -0.1100822752
C  C120  1  0.48870000  0.16610000  0.79250000  1.0 -0.1512697677
C  C121  1  0.41630000  0.17810000  0.76810000  1.0 0.0178957221
C  C122  1  0.39160000  0.22720000  0.72280000  1.0 0.0178957221
C  C123  1  0.43260000  0.27350000  0.68990000  1.0 -0.1512697677
C  C124  1  0.39340000  0.31200000  0.64810000  1.0 -0.1100822752
C  C125  1  0.31500000  0.30340000  0.63940000  1.0 -0.0088345779
C  C126  1  0.27440000  0.34230000  0.59140000  1.0 0.6033692823
C  C127  1  0.27280000  0.25830000  0.67310000  1.0 -0.1582530712
C  C128  1  0.31310000  0.21980000  0.71510000  1.0 0.0101625546
C  C129  1  0.35970000  0.09680000  0.83330000  1.0 -0.1390465631
C  C130  1  0.35160000  0.14290000  0.78790000  1.0 0.0178957221
C  C131  1  0.27980000  0.16670000  0.75560000  1.0 0.0398135993
C  C132  1  0.23550000  0.11400000  0.72020000  1.0 0.0101625546
C  C133  1  0.26150000  0.07540000  0.67300000  1.0 -0.1512697677
C  C134  1  0.21010000  0.03380000  0.64280000  1.0 -0.0166916189
C  C135  1  0.23830000  0.99310000  0.59100000  1.0 0.6073436455
C  C136  1  0.13520000  0.03090000  0.66130000  1.0 -0.1011758338
C  C137  1  0.10690000  0.06810000  0.70970000  1.0 -0.1582530712
C  C138  1  0.15910000  0.11030000  0.73830000  1.0 0.0178957221
C  C139  1  0.14840000  0.15740000  0.78770000  1.0 0.0101625546
C  C140  1  0.08480000  0.17030000  0.82290000  1.0 -0.1726176536
C  C141  1  0.09100000  0.21900000  0.86840000  1.0 -0.1100822752
C  C142  1  0.16070000  0.25340000  0.87690000  1.0 -0.0166916189
C  C143  1  0.16520000  0.30630000  0.92500000  1.0 0.6033692823
C  C144  1  0.22400000  0.23860000  0.84160000  1.0 -0.1512697677
C  C145  1  0.21760000  0.19060000  0.79750000  1.0 0.0101625546
C  C146  1  0.56170000  0.46110000  0.41070000  1.0 0.5898920314
C  C147  1  0.57040000  0.41490000  0.35910000  1.0 -0.0321373346
C  C148  1  0.50660000  0.37960000  0.33850000  1.0 -0.1100822752
C  C149  1  0.51130000  0.33390000  0.29250000  1.0 -0.1512697677
C  C150  1  0.58370000  0.32190000  0.26810000  1.0 0.0178957221
C  C151  1  0.60840000  0.27280000  0.22280000  1.0 0.0178957221
C  C152  1  0.56740000  0.22650000  0.18990000  1.0 -0.1512697677
C  C153  1  0.60660000  0.18800000  0.14810000  1.0 -0.1100822752
C  C154  1  0.68500000  0.19660000  0.13940000  1.0 -0.0088345779
C  C155  1  0.72560000  0.15770000  0.09140000  1.0 0.6033692823
C  C156  1  0.72720000  0.24170000  0.17310000  1.0 -0.1582530712
C  C157  1  0.68690000  0.28020000  0.21510000  1.0 0.0101625546
C  C158  1  0.64030000  0.40320000  0.33333333  1.0 -0.1390465631
C  C159  1  0.64840000  0.35710000  0.28790000  1.0 0.0178957221
C  C160  1  0.72020000  0.33333333  0.25560000  1.0 0.0398135993
C  C161  1  0.76450000  0.38600000  0.22020000  1.0 0.0101625546
C  C162  1  0.73850000  0.42460000  0.17300000  1.0 -0.1512697677
C  C163  1  0.78990000  0.46620000  0.14280000  1.0 -0.0166916189
C  C164  1  0.76170000  0.50690000  0.09100000  1.0 0.6073436455
C  C165  1  0.86480000  0.46910000  0.16130000  1.0 -0.1011758338
C  C166  1  0.89310000  0.43190000  0.20970000  1.0 -0.1582530712
C  C167  1  0.84090000  0.38970000  0.23830000  1.0 0.0178957221
C  C168  1  0.85160000  0.34260000  0.28770000  1.0 0.0101625546
C  C169  1  0.91520000  0.32970000  0.32290000  1.0 -0.1726176536
C  C170  1  0.90900000  0.28100000  0.36840000  1.0 -0.1100822752
C  C171  1  0.83930000  0.24660000  0.37690000  1.0 -0.0166916189
C  C172  1  0.83480000  0.19370000  0.42500000  1.0 0.6033692823
C  C173  1  0.77600000  0.26140000  0.34160000  1.0 -0.1512697677
C  C174  1  0.78240000  0.30940000  0.29750000  1.0 0.0101625546
C  C175  1  0.93830000  0.96110000  0.58930000  1.0 0.5898920314
C  C176  1  0.92960000  0.91490000  0.64090000  1.0 -0.0321373346
C  C177  1  0.99340000  0.87960000  0.66150000  1.0 -0.1100822752
C  C178  1  0.98870000  0.83390000  0.70750000  1.0 -0.1512697677
C  C179  1  0.91630000  0.82190000  0.73190000  1.0 0.0178957221
C  C180  1  0.89160000  0.77280000  0.77720000  1.0 0.0178957221
C  C181  1  0.93260000  0.72650000  0.81010000  1.0 -0.1512697677
C  C182  1  0.89340000  0.68800000  0.85190000  1.0 -0.1100822752
C  C183  1  0.81500000  0.69660000  0.86060000  1.0 -0.0088345779
C  C184  1  0.77440000  0.65770000  0.90860000  1.0 0.6033692823
C  C185  1  0.77280000  0.74170000  0.82690000  1.0 -0.1582530712
C  C186  1  0.81310000  0.78020000  0.78490000  1.0 0.0101625546
C  C187  1  0.85970000  0.90320000  0.66666667  1.0 -0.1390465631
C  C188  1  0.85160000  0.85710000  0.71210000  1.0 0.0178957221
C  C189  1  0.77980000  0.83330000  0.74440000  1.0 0.0398135993
C  C190  1  0.73550000  0.88600000  0.77980000  1.0 0.0101625546
C  C191  1  0.76150000  0.92460000  0.82700000  1.0 -0.1512697677
C  C192  1  0.71010000  0.96620000  0.85720000  1.0 -0.0166916189
C  C193  1  0.73830000  0.00690000  0.90900000  1.0 0.6073436455
C  C194  1  0.63520000  0.96910000  0.83870000  1.0 -0.1011758338
C  C195  1  0.60690000  0.93190000  0.79030000  1.0 -0.1582530712
C  C196  1  0.65910000  0.88970000  0.76170000  1.0 0.0178957221
C  C197  1  0.64840000  0.84260000  0.71230000  1.0 0.0101625546
C  C198  1  0.58480000  0.82970000  0.67710000  1.0 -0.1726176536
C  C199  1  0.59100000  0.78100000  0.63160000  1.0 -0.1100822752
C  C200  1  0.66070000  0.74660000  0.62310000  1.0 -0.0166916189
C  C201  1  0.66520000  0.69370000  0.57500000  1.0 0.6033692823
C  C202  1  0.72400000  0.76140000  0.65840000  1.0 -0.1512697677
C  C203  1  0.71760000  0.80940000  0.70250000  1.0 0.0101625546
C  C204  1  0.06170000  0.53890000  0.08930000  1.0 0.5898920314
C  C205  1  0.07040000  0.58510000  0.14090000  1.0 -0.0321373346
C  C206  1  0.00660000  0.62040000  0.16150000  1.0 -0.1100822752
C  C207  1  0.01130000  0.66610000  0.20750000  1.0 -0.1512697677
C  C208  1  0.08370000  0.67810000  0.23190000  1.0 0.0178957221
C  C209  1  0.10840000  0.72720000  0.27720000  1.0 0.0178957221
C  C210  1  0.06740000  0.77350000  0.31010000  1.0 -0.1512697677
C  C211  1  0.10660000  0.81200000  0.35190000  1.0 -0.1100822752
C  C212  1  0.18500000  0.80340000  0.36060000  1.0 -0.0088345779
C  C213  1  0.22560000  0.84230000  0.40860000  1.0 0.6033692823
C  C214  1  0.22720000  0.75830000  0.32690000  1.0 -0.1582530712
C  C215  1  0.18690000  0.71980000  0.28490000  1.0 0.0101625546
C  C216  1  0.14030000  0.59680000  0.16670000  1.0 -0.1390465631
C  C217  1  0.14840000  0.64290000  0.21210000  1.0 0.0178957221
C  C218  1  0.22020000  0.66666667  0.24440000  1.0 0.0398135993
C  C219  1  0.26450000  0.61400000  0.27980000  1.0 0.0101625546
C  C220  1  0.23850000  0.57540000  0.32700000  1.0 -0.1512697677
C  C221  1  0.28990000  0.53380000  0.35720000  1.0 -0.0166916189
C  C222  1  0.26170000  0.49310000  0.40900000  1.0 0.6073436455
C  C223  1  0.36480000  0.53090000  0.33870000  1.0 -0.1011758338
C  C224  1  0.39310000  0.56810000  0.29030000  1.0 -0.1582530712
C  C225  1  0.34090000  0.61030000  0.26170000  1.0 0.0178957221
C  C226  1  0.35160000  0.65740000  0.21230000  1.0 0.0101625546
C  C227  1  0.41520000  0.67030000  0.17710000  1.0 -0.1726176536
C  C228  1  0.40900000  0.71900000  0.13160000  1.0 -0.1100822752
C  C229  1  0.33930000  0.75340000  0.12310000  1.0 -0.0166916189
C  C230  1  0.33480000  0.80630000  0.07500000  1.0 0.6033692823
C  C231  1  0.27600000  0.73860000  0.15840000  1.0 -0.1512697677
C  C232  1  0.28240000  0.69060000  0.20250000  1.0 0.0101625546
O  O1  1  0.62130000  0.99080000  0.07150000  1.0 -0.5823236688
O  O2  1  0.49720000  0.97050000  0.06617000  1.0 -0.6586212351
O  O3  1  0.68570000  0.62010000  0.44128000  1.0 -0.6712955221
O  O4  1  0.79750000  0.66540000  0.41600000  1.0 -0.6092616304
O  O5  1  0.76640000  0.67290000  0.06350000  1.0 -0.6365625246
O  O6  1  0.89460000  0.67490000  0.05030000  1.0 -0.6186295732
O  O7  1  0.69110000  0.01910000  0.41390000  1.0 -0.6092616304
O  O8  1  0.81080000  0.02870000  0.44555000  1.0 -0.6535509809
O  O9  1  0.37870000  0.50920000  0.57150000  1.0 -0.5823236688
O  O10  1  0.50280000  0.52950000  0.56617000  1.0 -0.6586212351
O  O11  1  0.31430000  0.87990000  0.94128000  1.0 -0.6712955221
O  O12  1  0.20250000  0.83460000  0.91600000  1.0 -0.6092616304
O  O13  1  0.23360000  0.82710000  0.56350000  1.0 -0.6365625246
O  O14  1  0.10540000  0.82510000  0.55030000  1.0 -0.6186295732
O  O15  1  0.30890000  0.48090000  0.91390000  1.0 -0.6092616304
O  O16  1  0.18920000  0.47130000  0.94555000  1.0 -0.6535509809
O  O17  1  0.12130000  0.00920000  0.42850000  1.0 -0.5823236688
O  O18  1  0.99720000  0.02950000  0.43383000  1.0 -0.6586212351
O  O19  1  0.18570000  0.37990000  0.05872000  1.0 -0.6712955221
O  O20  1  0.29750000  0.33460000  0.08400000  1.0 -0.6092616304
O  O21  1  0.26640000  0.32710000  0.43650000  1.0 -0.6365625246
O  O22  1  0.39460000  0.32510000  0.44970000  1.0 -0.6186295732
O  O23  1  0.19110000  0.98090000  0.08610000  1.0 -0.6092616304
O  O24  1  0.31080000  0.97130000  0.05445000  1.0 -0.6535509809
O  O25  1  0.87870000  0.49080000  0.92850000  1.0 -0.5823236688
O  O26  1  0.00280000  0.47050000  0.93383000  1.0 -0.6586212351
O  O27  1  0.81430000  0.12010000  0.55872000  1.0 -0.6712955221
O  O28  1  0.70250000  0.16540000  0.58400000  1.0 -0.6092616304
O  O29  1  0.73360000  0.17290000  0.93650000  1.0 -0.6365625246
O  O30  1  0.60540000  0.17490000  0.94970000  1.0 -0.6186295732
O  O31  1  0.80890000  0.51910000  0.58610000  1.0 -0.6092616304
O  O32  1  0.68920000  0.52870000  0.55445000  1.0 -0.6535509809
O  O33  1  0.37870000  0.00920000  0.92850000  1.0 -0.5823236688
O  O34  1  0.50280000  0.02950000  0.93383000  1.0 -0.6586212351
O  O35  1  0.31430000  0.37990000  0.55872000  1.0 -0.6712955221
O  O36  1  0.20250000  0.33460000  0.58400000  1.0 -0.6092616304
O  O37  1  0.23360000  0.32710000  0.93650000  1.0 -0.6365625246
O  O38  1  0.10540000  0.32510000  0.94970000  1.0 -0.6186295732
O  O39  1  0.30890000  0.98090000  0.58610000  1.0 -0.6092616304
O  O40  1  0.18920000  0.97130000  0.55445000  1.0 -0.6535509809
O  O41  1  0.62130000  0.49080000  0.42850000  1.0 -0.5823236688
O  O42  1  0.49720000  0.47050000  0.43383000  1.0 -0.6586212351
O  O43  1  0.68570000  0.12010000  0.05872000  1.0 -0.6712955221
O  O44  1  0.79750000  0.16540000  0.08400000  1.0 -0.6092616304
O  O45  1  0.76640000  0.17290000  0.43650000  1.0 -0.6365625246
O  O46  1  0.89460000  0.17490000  0.44970000  1.0 -0.6186295732
O  O47  1  0.69110000  0.51910000  0.08610000  1.0 -0.6092616304
O  O48  1  0.81080000  0.52870000  0.05445000  1.0 -0.6535509809
O  O49  1  0.87870000  0.99080000  0.57150000  1.0 -0.5823236688
O  O50  1  0.00280000  0.97050000  0.56617000  1.0 -0.6586212351
O  O51  1  0.81430000  0.62010000  0.94128000  1.0 -0.6712955221
O  O52  1  0.70250000  0.66540000  0.91600000  1.0 -0.6092616304
O  O53  1  0.73360000  0.67290000  0.56350000  1.0 -0.6365625246
O  O54  1  0.60540000  0.67490000  0.55030000  1.0 -0.6186295732
O  O55  1  0.80890000  0.01910000  0.91390000  1.0 -0.6092616304
O  O56  1  0.68920000  0.02870000  0.94555000  1.0 -0.6535509809
O  O57  1  0.12130000  0.50920000  0.07150000  1.0 -0.5823236688
O  O58  1  0.99720000  0.52950000  0.06617000  1.0 -0.6586212351
O  O59  1  0.18570000  0.87990000  0.44128000  1.0 -0.6712955221
O  O60  1  0.29750000  0.83460000  0.41600000  1.0 -0.6092616304
O  O61  1  0.26640000  0.82710000  0.06350000  1.0 -0.6365625246
O  O62  1  0.39460000  0.82510000  0.05030000  1.0 -0.6186295732
O  O63  1  0.19110000  0.48090000  0.41390000  1.0 -0.6092616304
O  O64  1  0.31080000  0.47130000  0.44555000  1.0 -0.6535509809
