# DDEC6 charges by PACMAN v1.1 (https://github.com/mtap-research/PACMAN-charge/)
data_HEPCIR_FSR_pacman
_symmetry_space_group_name_H-M   'P 1'
_cell_length_a   10.04960000
_cell_length_b   10.04960000
_cell_length_c   29.27400000
_cell_angle_alpha   84.51440000
_cell_angle_beta   95.48560000
_cell_angle_gamma   89.07070000
_symmetry_Int_Tables_number   1
_chemical_formula_structural   Cd2H15C18N7O8
_chemical_formula_sum   'Cd8 H60 C72 N28 O32'
_cell_volume   2928.53428010
_cell_formula_units_Z   4
loop_
 _symmetry_equiv_pos_site_id
 _symmetry_equiv_pos_as_xyz
  1  'x, y, z'
loop_
 _atom_site_type_symbol
 _atom_site_label
 _atom_site_symmetry_multiplicity
 _atom_site_fract_x
 _atom_site_fract_y
 _atom_site_fract_z
 _atom_site_occupancy
 _atom_site_charge
Cd  Cd1  1  0.95074000  0.64430000  0.43442000  1.0 0.7804100618
Cd  Cd2  1  0.80902000  0.38054000  0.34281000  1.0 0.9080948935
Cd  Cd3  1  0.64430000  0.95074000  0.06558000  1.0 0.7804100618
Cd  Cd4  1  0.38054000  0.80902000  0.15719000  1.0 0.9080948935
Cd  Cd5  1  0.04926000  0.35570000  0.56558000  1.0 0.7804100618
Cd  Cd6  1  0.19098000  0.61946000  0.65719000  1.0 0.9080948935
Cd  Cd7  1  0.35570000  0.04926000  0.93442000  1.0 0.7804100618
Cd  Cd8  1  0.61946000  0.19098000  0.84281000  1.0 0.9080948935
H  H1  1  0.81440000  0.05040000  0.30680000  1.0 0.1382618644
H  H2  1  0.85600000  0.83260000  0.33690000  1.0 0.1382618644
H  H3  1  0.98340000  0.95740000  0.45620000  1.0 0.1290361673
H  H4  1  0.61460000  0.67360000  0.30630000  1.0 0.1382618644
H  H5  1  0.21430000  0.70330000  0.30940000  1.0 0.1290361673
H  H6  1  0.45580000  0.65260000  0.42880000  1.0 0.1290361673
H  H7  1  0.25690000  0.32350000  0.38870000  1.0 0.1195467815
H  H8  1  0.28100000  0.22880000  0.43610000  1.0 0.1382618644
H  H9  1  0.27590000  0.38770000  0.43680000  1.0 0.1290361673
H  H10  1  0.63930000  0.31490000  0.45430000  1.0 0.1477776511
H  H11  1  0.52780000  0.38260000  0.48080000  1.0 0.1382618644
H  H12  1  0.53700000  0.22340000  0.48100000  1.0 0.1477776511
H  H13  1  0.47110000  0.34290000  0.30820000  1.0 0.1686861024
H  H14  1  0.36170000  0.25510000  0.33250000  1.0 0.1563349769
H  H15  1  0.35550000  0.41450000  0.33160000  1.0 0.1477776511
H  H16  1  0.05040000  0.81440000  0.19320000  1.0 0.1382618644
H  H17  1  0.83260000  0.85600000  0.16310000  1.0 0.1382618644
H  H18  1  0.95740000  0.98340000  0.04380000  1.0 0.1290361673
H  H19  1  0.67360000  0.61460000  0.19370000  1.0 0.1382618644
H  H20  1  0.70330000  0.21430000  0.19060000  1.0 0.1290361673
H  H21  1  0.65260000  0.45580000  0.07120000  1.0 0.1290361673
H  H22  1  0.32350000  0.25690000  0.11130000  1.0 0.1195467815
H  H23  1  0.22880000  0.28100000  0.06390000  1.0 0.1382618644
H  H24  1  0.38770000  0.27590000  0.06320000  1.0 0.1290361673
H  H25  1  0.31490000  0.63930000  0.04570000  1.0 0.1477776511
H  H26  1  0.38260000  0.52780000  0.01920000  1.0 0.1382618644
H  H27  1  0.22340000  0.53700000  0.01900000  1.0 0.1477776511
H  H28  1  0.34290000  0.47110000  0.19180000  1.0 0.1686861024
H  H29  1  0.25510000  0.36170000  0.16750000  1.0 0.1563349769
H  H30  1  0.41450000  0.35550000  0.16840000  1.0 0.1477776511
H  H31  1  0.18560000  0.94960000  0.69320000  1.0 0.1382618644
H  H32  1  0.14400000  0.16740000  0.66310000  1.0 0.1382618644
H  H33  1  0.01660000  0.04260000  0.54380000  1.0 0.1290361673
H  H34  1  0.38540000  0.32640000  0.69370000  1.0 0.1382618644
H  H35  1  0.78570000  0.29670000  0.69060000  1.0 0.1290361673
H  H36  1  0.54420000  0.34740000  0.57120000  1.0 0.1290361673
H  H37  1  0.74310000  0.67650000  0.61130000  1.0 0.1195467815
H  H38  1  0.71900000  0.77120000  0.56390000  1.0 0.1382618644
H  H39  1  0.72410000  0.61230000  0.56320000  1.0 0.1290361673
H  H40  1  0.36070000  0.68510000  0.54570000  1.0 0.1477776511
H  H41  1  0.47220000  0.61740000  0.51920000  1.0 0.1382618644
H  H42  1  0.46300000  0.77660000  0.51900000  1.0 0.1477776511
H  H43  1  0.52890000  0.65710000  0.69180000  1.0 0.1686861024
H  H44  1  0.63830000  0.74490000  0.66750000  1.0 0.1563349769
H  H45  1  0.64450000  0.58550000  0.66840000  1.0 0.1477776511
H  H46  1  0.94960000  0.18560000  0.80680000  1.0 0.1382618644
H  H47  1  0.16740000  0.14400000  0.83690000  1.0 0.1382618644
H  H48  1  0.04260000  0.01660000  0.95620000  1.0 0.1290361673
H  H49  1  0.32640000  0.38540000  0.80630000  1.0 0.1382618644
H  H50  1  0.29670000  0.78570000  0.80940000  1.0 0.1290361673
H  H51  1  0.34740000  0.54420000  0.92880000  1.0 0.1290361673
H  H52  1  0.67650000  0.74310000  0.88870000  1.0 0.1195467815
H  H53  1  0.77120000  0.71900000  0.93610000  1.0 0.1382618644
H  H54  1  0.61230000  0.72410000  0.93680000  1.0 0.1290361673
H  H55  1  0.68510000  0.36070000  0.95430000  1.0 0.1477776511
H  H56  1  0.61740000  0.47220000  0.98080000  1.0 0.1382618644
H  H57  1  0.77660000  0.46300000  0.98100000  1.0 0.1477776511
H  H58  1  0.65710000  0.52890000  0.80820000  1.0 0.1686861024
H  H59  1  0.74490000  0.63830000  0.83250000  1.0 0.1563349769
H  H60  1  0.58550000  0.64450000  0.83160000  1.0 0.1477776511
C  C1  1  0.92260000  0.10280000  0.40660000  1.0 0.1290361673
C  C2  1  0.84860000  0.03260000  0.33830000  1.0 0.0372819894
C  C3  1  0.87340000  0.90200000  0.35630000  1.0 0.0372819894
C  C4  1  0.94700000  0.97420000  0.42500000  1.0 -0.0115792903
C  C5  1  0.94870000  0.21430000  0.43440000  1.0 0.2132614173
C  C6  1  0.55460000  0.65680000  0.37090000  1.0 -0.0195227235
C  C7  1  0.53840000  0.67540000  0.32310000  1.0 -0.1127058237
C  C8  1  0.41320000  0.69640000  0.29990000  1.0 -0.0008981791
C  C9  1  0.30160000  0.69180000  0.32510000  1.0 -0.1160815272
C  C10  1  0.31780000  0.67060000  0.37280000  1.0 -0.0115792903
C  C11  1  0.44430000  0.65890000  0.39610000  1.0 -0.1336775913
C  C12  1  0.69310000  0.63770000  0.39520000  1.0 0.5529930398
C  C13  1  0.39392000  0.72728000  0.24820000  1.0 0.5344633565
C  C14  1  0.19560000  0.66320000  0.39930000  1.0 0.5249484286
C  C15  1  0.30350000  0.31410000  0.41990000  1.0 -0.3517886742
C  C16  1  0.54730000  0.30870000  0.46270000  1.0 -0.3603854671
C  C17  1  0.50690000  0.32630000  0.38100000  1.0 0.5033593283
C  C18  1  0.41510000  0.33550000  0.33380000  1.0 -0.5485285714
C  C19  1  0.10280000  0.92260000  0.09340000  1.0 0.1290361673
C  C20  1  0.03260000  0.84860000  0.16170000  1.0 0.0372819894
C  C21  1  0.90200000  0.87340000  0.14370000  1.0 0.0372819894
C  C22  1  0.97420000  0.94700000  0.07500000  1.0 -0.0115792903
C  C23  1  0.21430000  0.94870000  0.06560000  1.0 0.2132614173
C  C24  1  0.65680000  0.55460000  0.12910000  1.0 -0.0195227235
C  C25  1  0.67540000  0.53840000  0.17690000  1.0 -0.1127058237
C  C26  1  0.69640000  0.41320000  0.20010000  1.0 -0.0008981791
C  C27  1  0.69180000  0.30160000  0.17490000  1.0 -0.1160815272
C  C28  1  0.67060000  0.31780000  0.12720000  1.0 -0.0115792903
C  C29  1  0.65890000  0.44430000  0.10390000  1.0 -0.1336775913
C  C30  1  0.63770000  0.69310000  0.10480000  1.0 0.5529930398
C  C31  1  0.72728000  0.39392000  0.25180000  1.0 0.5344633565
C  C32  1  0.66320000  0.19560000  0.10070000  1.0 0.5249484286
C  C33  1  0.31410000  0.30350000  0.08010000  1.0 -0.3517886742
C  C34  1  0.30870000  0.54730000  0.03730000  1.0 -0.3603854671
C  C35  1  0.32630000  0.50690000  0.11900000  1.0 0.5033593283
C  C36  1  0.33550000  0.41510000  0.16620000  1.0 -0.5485285714
C  C37  1  0.07740000  0.89720000  0.59340000  1.0 0.1290361673
C  C38  1  0.15140000  0.96740000  0.66170000  1.0 0.0372819894
C  C39  1  0.12660000  0.09800000  0.64370000  1.0 0.0372819894
C  C40  1  0.05300000  0.02580000  0.57500000  1.0 -0.0115792903
C  C41  1  0.05130000  0.78570000  0.56560000  1.0 0.2132614173
C  C42  1  0.44540000  0.34320000  0.62910000  1.0 -0.0195227235
C  C43  1  0.46160000  0.32460000  0.67690000  1.0 -0.1127058237
C  C44  1  0.58680000  0.30360000  0.70010000  1.0 -0.0008981791
C  C45  1  0.69840000  0.30820000  0.67490000  1.0 -0.1160815272
C  C46  1  0.68220000  0.32940000  0.62720000  1.0 -0.0115792903
C  C47  1  0.55570000  0.34110000  0.60390000  1.0 -0.1336775913
C  C48  1  0.30690000  0.36230000  0.60480000  1.0 0.5529930398
C  C49  1  0.60608000  0.27272000  0.75180000  1.0 0.5344633565
C  C50  1  0.80440000  0.33680000  0.60070000  1.0 0.5249484286
C  C51  1  0.69650000  0.68590000  0.58010000  1.0 -0.3517886742
C  C52  1  0.45270000  0.69130000  0.53730000  1.0 -0.3603854671
C  C53  1  0.49310000  0.67370000  0.61900000  1.0 0.5033593283
C  C54  1  0.58490000  0.66450000  0.66620000  1.0 -0.5485285714
C  C55  1  0.89720000  0.07740000  0.90660000  1.0 0.1290361673
C  C56  1  0.96740000  0.15140000  0.83830000  1.0 0.0372819894
C  C57  1  0.09800000  0.12660000  0.85630000  1.0 0.0372819894
C  C58  1  0.02580000  0.05300000  0.92500000  1.0 -0.0115792903
C  C59  1  0.78570000  0.05130000  0.93440000  1.0 0.2132614173
C  C60  1  0.34320000  0.44540000  0.87090000  1.0 -0.0195227235
C  C61  1  0.32460000  0.46160000  0.82310000  1.0 -0.1127058237
C  C62  1  0.30360000  0.58680000  0.79990000  1.0 -0.0008981791
C  C63  1  0.30820000  0.69840000  0.82510000  1.0 -0.1160815272
C  C64  1  0.32940000  0.68220000  0.87280000  1.0 -0.0115792903
C  C65  1  0.34110000  0.55570000  0.89610000  1.0 -0.1336775913
C  C66  1  0.36230000  0.30690000  0.89520000  1.0 0.5529930398
C  C67  1  0.27272000  0.60608000  0.74820000  1.0 0.5344633565
C  C68  1  0.33680000  0.80440000  0.89930000  1.0 0.5249484286
C  C69  1  0.68590000  0.69650000  0.91990000  1.0 -0.3517886742
C  C70  1  0.69130000  0.45270000  0.96270000  1.0 -0.3603854671
C  C71  1  0.67370000  0.49310000  0.88100000  1.0 0.5033593283
C  C72  1  0.66450000  0.58490000  0.83380000  1.0 -0.5485285714
N  N1  1  0.87130000  0.13490000  0.36360000  1.0 -0.2180192589
N  N2  1  0.92080000  0.86960000  0.40000000  1.0 -0.1571005552
N  N3  1  0.92480000  0.34040000  0.41840000  1.0 -0.2047636851
N  N4  1  0.96240000  0.41080000  0.45280000  1.0 -0.0115792903
N  N5  1  0.00820000  0.32940000  0.48850000  1.0 -0.0316125152
N  N6  1  0.00280000  0.20220000  0.47800000  1.0 -0.2454180613
N  N7  1  0.44630000  0.31750000  0.41700000  1.0 0.0091569309
N  N8  1  0.13490000  0.87130000  0.13640000  1.0 -0.2180192589
N  N9  1  0.86960000  0.92080000  0.10000000  1.0 -0.1571005552
N  N10  1  0.34040000  0.92480000  0.08160000  1.0 -0.2047636851
N  N11  1  0.41080000  0.96240000  0.04720000  1.0 -0.0115792903
N  N12  1  0.32940000  0.00820000  0.01150000  1.0 -0.0316125152
N  N13  1  0.20220000  0.00280000  0.02200000  1.0 -0.2446126386
N  N14  1  0.31750000  0.44630000  0.08300000  1.0 0.0091569309
N  N15  1  0.12870000  0.86510000  0.63640000  1.0 -0.2180192589
N  N16  1  0.07920000  0.13040000  0.60000000  1.0 -0.1571005552
N  N17  1  0.07520000  0.65960000  0.58160000  1.0 -0.2052875354
N  N18  1  0.03760000  0.58920000  0.54720000  1.0 -0.0115792903
N  N19  1  0.99180000  0.67060000  0.51150000  1.0 -0.0316125152
N  N20  1  0.99720000  0.79780000  0.52200000  1.0 -0.2454180613
N  N21  1  0.55370000  0.68250000  0.58300000  1.0 0.0091569309
N  N22  1  0.86510000  0.12870000  0.86360000  1.0 -0.2180192589
N  N23  1  0.13040000  0.07920000  0.90000000  1.0 -0.1571005552
N  N24  1  0.65960000  0.07520000  0.91840000  1.0 -0.2052875354
N  N25  1  0.58920000  0.03760000  0.95280000  1.0 -0.0115792903
N  N26  1  0.67060000  0.99180000  0.98850000  1.0 -0.0316125152
N  N27  1  0.79780000  0.99720000  0.97800000  1.0 -0.2454180613
N  N28  1  0.68250000  0.55370000  0.91700000  1.0 0.0091569309
O  O1  1  0.71510000  0.66990000  0.43540000  1.0 -0.5157992735
O  O2  1  0.02360000  0.42800000  0.32490000  1.0 -0.1783706702
O  O3  1  0.78460000  0.59360000  0.37426000  1.0 -0.5341332152
O  O4  1  0.28060000  0.74060000  0.22830000  1.0 -0.5356041327
O  O5  1  0.49630000  0.74310000  0.22750000  1.0 -0.5007674291
O  O6  1  0.20070000  0.69630000  0.43910000  1.0 -0.5356041327
O  O7  1  0.09150000  0.62290000  0.37940000  1.0 -0.4551938071
O  O8  1  0.62760000  0.32640000  0.37940000  1.0 -0.5356041327
O  O9  1  0.66990000  0.71510000  0.06460000  1.0 -0.5157992735
O  O10  1  0.42800000  0.02360000  0.17510000  1.0 -0.1783706702
O  O11  1  0.59360000  0.78460000  0.12574000  1.0 -0.5341332152
O  O12  1  0.74060000  0.28060000  0.27170000  1.0 -0.5356041327
O  O13  1  0.74310000  0.49630000  0.27250000  1.0 -0.5007674291
O  O14  1  0.69630000  0.20070000  0.06090000  1.0 -0.5341332152
O  O15  1  0.62290000  0.09150000  0.12060000  1.0 -0.4551938071
O  O16  1  0.32640000  0.62760000  0.12060000  1.0 -0.5356041327
O  O17  1  0.28490000  0.33010000  0.56460000  1.0 -0.5157992735
O  O18  1  0.97640000  0.57200000  0.67510000  1.0 -0.1783706702
O  O19  1  0.21540000  0.40640000  0.62574000  1.0 -0.5341332152
O  O20  1  0.71940000  0.25940000  0.77170000  1.0 -0.5356041327
O  O21  1  0.50370000  0.25690000  0.77250000  1.0 -0.5007674291
O  O22  1  0.79930000  0.30370000  0.56090000  1.0 -0.5341332152
O  O23  1  0.90850000  0.37710000  0.62060000  1.0 -0.4551938071
O  O24  1  0.37240000  0.67360000  0.62060000  1.0 -0.5356041327
O  O25  1  0.33010000  0.28490000  0.93540000  1.0 -0.5157992735
O  O26  1  0.57200000  0.97640000  0.82490000  1.0 -0.1783706702
O  O27  1  0.40640000  0.21540000  0.87426000  1.0 -0.5341332152
O  O28  1  0.25940000  0.71940000  0.72830000  1.0 -0.5356041327
O  O29  1  0.25690000  0.50370000  0.72750000  1.0 -0.5007674291
O  O30  1  0.30370000  0.79930000  0.93910000  1.0 -0.5356041327
O  O31  1  0.37710000  0.90850000  0.87940000  1.0 -0.4551938071
O  O32  1  0.67360000  0.37240000  0.87940000  1.0 -0.5356041327
