# DDEC6 charges by PACMAN v1.1 (https://github.com/mtap-research/PACMAN-charge/)
data_HERHAQ_FSR_pacman
_symmetry_space_group_name_H-M   'P 1'
_cell_length_a   23.61410000
_cell_length_b   20.10660000
_cell_length_c   18.77840000
_cell_angle_alpha   74.69880000
_cell_angle_beta   55.21320000
_cell_angle_gamma   50.08810000
_symmetry_Int_Tables_number   1
_chemical_formula_structural   Zr3H22(C5O2)8
_chemical_formula_sum   'Zr6 H44 C80 O32'
_cell_volume   5542.25189986
_cell_formula_units_Z   2
loop_
 _symmetry_equiv_pos_site_id
 _symmetry_equiv_pos_as_xyz
  1  'x, y, z'
loop_
 _atom_site_type_symbol
 _atom_site_label
 _atom_site_symmetry_multiplicity
 _atom_site_fract_x
 _atom_site_fract_y
 _atom_site_fract_z
 _atom_site_occupancy
 _atom_site_charge
Zr  Zr1  1  0.92998000  0.92998000  0.07002000  1.0 2.3641922843
Zr  Zr2  1  0.07002000  0.07002000  0.92998000  1.0 2.3641922843
Zr  Zr3  1  0.96755000  0.03245000  0.14433000  1.0 2.5392386686
Zr  Zr4  1  0.03245000  0.96755000  0.85567000  1.0 2.5392386686
Zr  Zr5  1  0.14433000  0.85567000  0.96755000  1.0 2.5392386686
Zr  Zr6  1  0.85567000  0.14433000  0.03245000  1.0 2.5392386686
H  H1  1  0.77920000  0.88480000  0.32980000  1.0 0.1476708986
H  H2  1  0.70960000  0.86040000  0.46180000  1.0 0.1389677527
H  H3  1  0.80450000  0.91190000  0.54670000  1.0 0.1389677527
H  H4  1  0.86060000  0.95460000  0.41480000  1.0 0.1476708986
H  H5  1  0.80970000  0.79630000  0.63210000  1.0 0.1389677527
H  H6  1  0.88480000  0.77920000  0.00620000  1.0 0.155067138
H  H7  1  0.86040000  0.70960000  0.96820000  1.0 0.1389677527
H  H8  1  0.91190000  0.80450000  0.73690000  1.0 0.1389677527
H  H9  1  0.95460000  0.86060000  0.77000000  1.0 0.1476708986
H  H10  1  0.79630000  0.80970000  0.76190000  1.0 0.1389677527
H  H11  1  0.32980000  0.00620000  0.77920000  1.0 0.155067138
H  H12  1  0.46180000  0.96820000  0.70960000  1.0 0.1389677527
H  H13  1  0.54670000  0.73690000  0.80450000  1.0 0.1389677527
H  H14  1  0.41480000  0.77000000  0.86060000  1.0 0.1476708986
H  H15  1  0.63210000  0.76190000  0.80970000  1.0 0.1389677527
H  H16  1  0.00620000  0.32980000  0.88480000  1.0 0.1476708986
H  H17  1  0.96820000  0.46180000  0.86040000  1.0 0.1389677527
H  H18  1  0.73690000  0.54670000  0.91190000  1.0 0.1389677527
H  H19  1  0.77000000  0.41480000  0.95460000  1.0 0.1476708986
H  H20  1  0.76190000  0.63210000  0.79630000  1.0 0.1389677527
H  H21  1  0.22080000  0.11520000  0.67020000  1.0 0.155067138
H  H22  1  0.29040000  0.13960000  0.53820000  1.0 0.1389677527
H  H23  1  0.19550000  0.08810000  0.45330000  1.0 0.1389677527
H  H24  1  0.13940000  0.04540000  0.58520000  1.0 0.1476708986
H  H25  1  0.19030000  0.20370000  0.36790000  1.0 0.1389677527
H  H26  1  0.11520000  0.22080000  0.99380000  1.0 0.155067138
H  H27  1  0.13960000  0.29040000  0.03180000  1.0 0.1389677527
H  H28  1  0.08810000  0.19550000  0.26310000  1.0 0.1389677527
H  H29  1  0.04540000  0.13940000  0.23000000  1.0 0.1389677527
H  H30  1  0.20370000  0.19030000  0.23810000  1.0 0.1389677527
H  H31  1  0.67020000  0.99380000  0.22080000  1.0 0.155067138
H  H32  1  0.53820000  0.03180000  0.29040000  1.0 0.1389677527
H  H33  1  0.45330000  0.26310000  0.19550000  1.0 0.1389677527
H  H34  1  0.58520000  0.23000000  0.13940000  1.0 0.1476708986
H  H35  1  0.36790000  0.23810000  0.19030000  1.0 0.1389677527
H  H36  1  0.99380000  0.67020000  0.11520000  1.0 0.155067138
H  H37  1  0.03180000  0.53820000  0.13960000  1.0 0.1389677527
H  H38  1  0.26310000  0.45330000  0.08810000  1.0 0.1389677527
H  H39  1  0.23000000  0.58520000  0.04540000  1.0 0.1476708986
H  H40  1  0.23810000  0.36790000  0.20370000  1.0 0.1389677527
H  H41  1  0.60960000  0.89040000  0.60960000  1.0 0.1333819699
H  H42  1  0.89040000  0.60960000  0.89040000  1.0 0.1333819699
H  H43  1  0.39040000  0.10960000  0.39040000  1.0 0.1333819699
H  H44  1  0.10960000  0.39040000  0.10960000  1.0 0.1333819699
C  C1  1  0.86800000  0.94580000  0.27020000  1.0 0.6451316249
C  C2  1  0.82486000  0.92686000  0.35774000  1.0 -0.01951265
C  C3  1  0.78129000  0.89369000  0.37531000  1.0 -0.0705129462
C  C4  1  0.74432000  0.87552000  0.45088000  1.0 -0.1056885382
C  C5  1  0.75350000  0.87690000  0.52250000  1.0 0.0947352048
C  C6  1  0.79753000  0.90773000  0.50347000  1.0 -0.1211352855
C  C7  1  0.83156000  0.93256000  0.42464000  1.0 -0.0567163875
C  C8  1  0.71642000  0.84822000  0.60418000  1.0 0.0961410867
C  C9  1  0.75819000  0.80439000  0.65221000  1.0 -0.1709388808
C  C10  1  0.94580000  0.86800000  0.91600000  1.0 0.6451316249
C  C11  1  0.92686000  0.82486000  0.89054000  1.0 -0.01951265
C  C12  1  0.89369000  0.78129000  0.94971000  1.0 -0.0705129462
C  C13  1  0.87552000  0.74432000  0.92928000  1.0 -0.1048414785
C  C14  1  0.87690000  0.75350000  0.84710000  1.0 0.0947352048
C  C15  1  0.90773000  0.79753000  0.79127000  1.0 -0.1211352855
C  C16  1  0.93256000  0.83156000  0.81124000  1.0 -0.0567163875
C  C17  1  0.84822000  0.71642000  0.83118000  1.0 0.0961410867
C  C18  1  0.80439000  0.75819000  0.78521000  1.0 -0.1709388808
C  C19  1  0.27020000  0.91600000  0.86800000  1.0 0.6451316249
C  C20  1  0.35774000  0.89054000  0.82486000  1.0 -0.01951265
C  C21  1  0.37531000  0.94971000  0.78129000  1.0 -0.0705129462
C  C22  1  0.45088000  0.92928000  0.74432000  1.0 -0.1056885382
C  C23  1  0.52250000  0.84710000  0.75350000  1.0 0.0947352048
C  C24  1  0.50347000  0.79127000  0.79753000  1.0 -0.1211352855
C  C25  1  0.42464000  0.81124000  0.83156000  1.0 -0.0567163875
C  C26  1  0.60418000  0.83118000  0.71642000  1.0 0.0961410867
C  C27  1  0.65221000  0.78521000  0.75819000  1.0 -0.1709388808
C  C28  1  0.91600000  0.27020000  0.94580000  1.0 0.6451316249
C  C29  1  0.89054000  0.35774000  0.92686000  1.0 -0.01951265
C  C30  1  0.94971000  0.37531000  0.89369000  1.0 -0.0705129462
C  C31  1  0.92928000  0.45088000  0.87552000  1.0 -0.1056885382
C  C32  1  0.84710000  0.52250000  0.87690000  1.0 0.0947352048
C  C33  1  0.79127000  0.50347000  0.90773000  1.0 -0.1211352855
C  C34  1  0.81124000  0.42464000  0.93256000  1.0 -0.0567163875
C  C35  1  0.83118000  0.60418000  0.84822000  1.0 0.0961410867
C  C36  1  0.78521000  0.65221000  0.80439000  1.0 -0.1709388808
C  C37  1  0.13200000  0.05420000  0.72980000  1.0 0.6447790634
C  C38  1  0.17514000  0.07314000  0.64226000  1.0 -0.01951265
C  C39  1  0.21871000  0.10631000  0.62469000  1.0 -0.0705129462
C  C40  1  0.25568000  0.12448000  0.54912000  1.0 -0.1056885382
C  C41  1  0.24650000  0.12310000  0.47750000  1.0 0.0961410867
C  C42  1  0.20247000  0.09227000  0.49653000  1.0 -0.1211352855
C  C43  1  0.16844000  0.06744000  0.57536000  1.0 -0.0567163875
C  C44  1  0.28358000  0.15178000  0.39582000  1.0 0.0961410867
C  C45  1  0.24181000  0.19561000  0.34779000  1.0 -0.1709388808
C  C46  1  0.05420000  0.13200000  0.08400000  1.0 0.6447790634
C  C47  1  0.07314000  0.17514000  0.10946000  1.0 -0.01951265
C  C48  1  0.10631000  0.21871000  0.05029000  1.0 -0.0705129462
C  C49  1  0.12448000  0.25568000  0.07072000  1.0 -0.1056885382
C  C50  1  0.12310000  0.24650000  0.15290000  1.0 0.0961410867
C  C51  1  0.09227000  0.20247000  0.20873000  1.0 -0.1211352855
C  C52  1  0.06744000  0.16844000  0.18876000  1.0 -0.0567163875
C  C53  1  0.15178000  0.28358000  0.16882000  1.0 0.0961410867
C  C54  1  0.19561000  0.24181000  0.21479000  1.0 -0.1709388808
C  C55  1  0.72980000  0.08400000  0.13200000  1.0 0.6447790634
C  C56  1  0.64226000  0.10946000  0.17514000  1.0 -0.01951265
C  C57  1  0.62469000  0.05029000  0.21871000  1.0 -0.0705129462
C  C58  1  0.54912000  0.07072000  0.25568000  1.0 -0.1056885382
C  C59  1  0.47750000  0.15290000  0.24650000  1.0 0.0961410867
C  C60  1  0.49653000  0.20873000  0.20247000  1.0 -0.1211352855
C  C61  1  0.57536000  0.18876000  0.16844000  1.0 -0.0567163875
C  C62  1  0.39582000  0.16882000  0.28358000  1.0 0.0961410867
C  C63  1  0.34779000  0.21479000  0.24181000  1.0 -0.1709388808
C  C64  1  0.08400000  0.72980000  0.05420000  1.0 0.6447790634
C  C65  1  0.10946000  0.64226000  0.07314000  1.0 -0.01951265
C  C66  1  0.05029000  0.62469000  0.10631000  1.0 -0.0705129462
C  C67  1  0.07072000  0.54912000  0.12448000  1.0 -0.1056885382
C  C68  1  0.15290000  0.47750000  0.12310000  1.0 0.0947352048
C  C69  1  0.20873000  0.49653000  0.09227000  1.0 -0.1211352855
C  C70  1  0.18876000  0.57536000  0.06744000  1.0 -0.0567163875
C  C71  1  0.16882000  0.39582000  0.15178000  1.0 0.0961410867
C  C72  1  0.21479000  0.34779000  0.19561000  1.0 -0.1709388808
C  C73  1  0.63950000  0.86050000  0.63950000  1.0 -0.1709388808
C  C74  1  0.72530000  0.77470000  0.72530000  1.0 0.1161024436
C  C75  1  0.86050000  0.63950000  0.86050000  1.0 -0.1709388808
C  C76  1  0.77470000  0.72530000  0.77470000  1.0 0.1161024436
C  C77  1  0.36050000  0.13950000  0.36050000  1.0 -0.1709388808
C  C78  1  0.27470000  0.22530000  0.27470000  1.0 0.1161024436
C  C79  1  0.13950000  0.36050000  0.13950000  1.0 -0.1709388808
C  C80  1  0.22530000  0.27470000  0.22530000  1.0 0.1161024436
O  O1  1  0.89965000  0.98459000  0.25801000  1.0 -0.5681172389
O  O2  1  0.87347000  0.92253000  0.20987000  1.0 -0.5463495482
O  O3  1  0.98459000  0.89965000  0.85775000  1.0 -0.5681172389
O  O4  1  0.92253000  0.87347000  0.99413000  1.0 -0.5463495482
O  O5  1  0.25801000  0.85775000  0.89965000  1.0 -0.5681172389
O  O6  1  0.20987000  0.99413000  0.87347000  1.0 -0.5463495482
O  O7  1  0.85775000  0.25801000  0.98459000  1.0 -0.5681172389
O  O8  1  0.99413000  0.20987000  0.92253000  1.0 -0.5463495482
O  O9  1  0.10035000  0.01541000  0.74199000  1.0 -0.5681172389
O  O10  1  0.12653000  0.07747000  0.79013000  1.0 -0.5463495482
O  O11  1  0.01541000  0.10035000  0.14225000  1.0 -0.5681172389
O  O12  1  0.07747000  0.12653000  0.00587000  1.0 -0.5463495482
O  O13  1  0.74199000  0.14225000  0.10035000  1.0 -0.5681172389
O  O14  1  0.79013000  0.00587000  0.12653000  1.0 -0.5463495482
O  O15  1  0.14225000  0.74199000  0.01541000  1.0 -0.5681172389
O  O16  1  0.00587000  0.79013000  0.07747000  1.0 -0.5463495482
O  O17  1  0.87480000  0.05700000  0.12520000  1.0 -1.1174181331
O  O18  1  0.05700000  0.87480000  0.94300000  1.0 -1.1174181331
O  O19  1  0.12520000  0.94300000  0.87480000  1.0 -1.1174181331
O  O20  1  0.94300000  0.12520000  0.05700000  1.0 -1.1174181331
O  O21  1  0.85550000  0.14450000  0.25330000  1.0 -0.6898827035
O  O22  1  0.04030000  0.95970000  0.20790000  1.0 -0.6788719374
O  O23  1  0.14450000  0.85550000  0.74670000  1.0 -0.6898827035
O  O24  1  0.95970000  0.04030000  0.79210000  1.0 -0.6788719374
O  O25  1  0.25330000  0.74670000  0.85550000  1.0 -0.6898827035
O  O26  1  0.20790000  0.79210000  0.04030000  1.0 -0.6788719374
O  O27  1  0.74670000  0.25330000  0.14450000  1.0 -0.6898827035
O  O28  1  0.79210000  0.20790000  0.95970000  1.0 -0.6788719374
O  O29  1  0.02370000  0.90890000  0.09110000  1.0 -1.1021027494
O  O30  1  0.90890000  0.02370000  0.97630000  1.0 -1.1021027494
O  O31  1  0.09110000  0.97630000  0.02370000  1.0 -1.1021027494
O  O32  1  0.97630000  0.09110000  0.90890000  1.0 -1.1021027494
