# DDEC6 charges by PACMAN v1.1 (https://github.com/mtap-research/PACMAN-charge/)
data_HERHOE_ASR_pacman
_symmetry_space_group_name_H-M   'P 1'
_cell_length_a   20.25440000
_cell_length_b   20.25440000
_cell_length_c   15.65840000
_cell_angle_alpha   90.00000000
_cell_angle_beta   90.00000000
_cell_angle_gamma   120.42700000
_symmetry_Int_Tables_number   1
_chemical_formula_structural   Zr3H20C40(NO6)2
_chemical_formula_sum   'Zr6 H40 C80 N4 O24'
_cell_volume   5539.00807935
_cell_formula_units_Z   2
loop_
 _symmetry_equiv_pos_site_id
 _symmetry_equiv_pos_as_xyz
  1  'x, y, z'
loop_
 _atom_site_type_symbol
 _atom_site_label
 _atom_site_symmetry_multiplicity
 _atom_site_fract_x
 _atom_site_fract_y
 _atom_site_fract_z
 _atom_site_occupancy
 _atom_site_charge
Zr  Zr1  1  0.93091000  0.06909000  0.50000000  1.0 2.3504600421
Zr  Zr2  1  0.06909000  0.93091000  0.50000000  1.0 2.3504600421
Zr  Zr3  1  0.91170000  0.91170000  0.38676000  1.0 2.4803856507
Zr  Zr4  1  0.08830000  0.08830000  0.38676000  1.0 2.4803856507
Zr  Zr5  1  0.91170000  0.91170000  0.61324000  1.0 2.4803856507
Zr  Zr6  1  0.08830000  0.08830000  0.61324000  1.0 2.4803856507
H  H1  1  0.10820000  0.29500000  0.75640000  1.0 0.1113055412
H  H2  1  0.01020000  0.40620000  0.93540000  1.0 0.1113055412
H  H3  1  0.91060000  0.34200000  0.70710000  1.0 0.1168557711
H  H4  1  0.10700000  0.39680000  0.82690000  1.0 0.1168557711
H  H5  1  0.91360000  0.24240000  0.63670000  1.0 0.1252954312
H  H6  1  0.89180000  0.70500000  0.75640000  1.0 0.1113055412
H  H7  1  0.98980000  0.59380000  0.93540000  1.0 0.1113055412
H  H8  1  0.08940000  0.65800000  0.70710000  1.0 0.1168557711
H  H9  1  0.89300000  0.60320000  0.82690000  1.0 0.1168557711
H  H10  1  0.08640000  0.75760000  0.63670000  1.0 0.1252954312
H  H11  1  0.29500000  0.10820000  0.24360000  1.0 0.1113055412
H  H12  1  0.40620000  0.01020000  0.06460000  1.0 0.1113055412
H  H13  1  0.34200000  0.91060000  0.29290000  1.0 0.1168557711
H  H14  1  0.39680000  0.10700000  0.17310000  1.0 0.1168557711
H  H15  1  0.24240000  0.91360000  0.36330000  1.0 0.1252954312
H  H16  1  0.70500000  0.89180000  0.24360000  1.0 0.1113055412
H  H17  1  0.59380000  0.98980000  0.06460000  1.0 0.1113055412
H  H18  1  0.65800000  0.08940000  0.29290000  1.0 0.1168557711
H  H19  1  0.60320000  0.89300000  0.17310000  1.0 0.1168557711
H  H20  1  0.75760000  0.08640000  0.36330000  1.0 0.1252954312
H  H21  1  0.89180000  0.70500000  0.24360000  1.0 0.1113055412
H  H22  1  0.98980000  0.59380000  0.06460000  1.0 0.1113055412
H  H23  1  0.08940000  0.65800000  0.29290000  1.0 0.1168557711
H  H24  1  0.89300000  0.60320000  0.17310000  1.0 0.1168557711
H  H25  1  0.08640000  0.75760000  0.36330000  1.0 0.1252954312
H  H26  1  0.10820000  0.29500000  0.24360000  1.0 0.1113055412
H  H27  1  0.01020000  0.40620000  0.06460000  1.0 0.1113055412
H  H28  1  0.91060000  0.34200000  0.29290000  1.0 0.1168557711
H  H29  1  0.10700000  0.39680000  0.17310000  1.0 0.1168557711
H  H30  1  0.91360000  0.24240000  0.36330000  1.0 0.1252954312
H  H31  1  0.70500000  0.89180000  0.75640000  1.0 0.1113055412
H  H32  1  0.59380000  0.98980000  0.93540000  1.0 0.1113055412
H  H33  1  0.65800000  0.08940000  0.70710000  1.0 0.1168557711
H  H34  1  0.60320000  0.89300000  0.82690000  1.0 0.1168557711
H  H35  1  0.75760000  0.08640000  0.63670000  1.0 0.1252954312
H  H36  1  0.29500000  0.10820000  0.75640000  1.0 0.1113055412
H  H37  1  0.40620000  0.01020000  0.93540000  1.0 0.1113055412
H  H38  1  0.34200000  0.91060000  0.70710000  1.0 0.1168557711
H  H39  1  0.39680000  0.10700000  0.82690000  1.0 0.1168557711
H  H40  1  0.24240000  0.91360000  0.63670000  1.0 0.1252954312
C  C1  1  0.01468000  0.19812000  0.64080000  1.0 0.6394408241
C  C2  1  0.00775000  0.37945000  0.77260000  1.0 0.0912352976
C  C3  1  0.00476000  0.44304000  0.81770000  1.0 0.0131809608
C  C4  1  0.01433000  0.26207000  0.68900000  1.0 -0.0333114277
C  C5  1  0.06812000  0.30528000  0.74500000  1.0 -0.0922721112
C  C6  1  0.00559000  0.44441000  0.90550000  1.0 -0.1961902484
C  C7  1  0.95191000  0.33349000  0.71720000  1.0 -0.1279069569
C  C8  1  0.06731000  0.36569000  0.78790000  1.0 -0.1414547611
C  C9  1  0.95362000  0.27438000  0.67500000  1.0 -0.0922721112
C  C10  1  0.98532000  0.80188000  0.64080000  1.0 0.6394408241
C  C11  1  0.99225000  0.62055000  0.77260000  1.0 0.0912352976
C  C12  1  0.99524000  0.55696000  0.81770000  1.0 0.0131809608
C  C13  1  0.98567000  0.73793000  0.68900000  1.0 -0.0333114277
C  C14  1  0.93188000  0.69472000  0.74500000  1.0 -0.0922721112
C  C15  1  0.99441000  0.55559000  0.90550000  1.0 -0.1961902484
C  C16  1  0.04809000  0.66651000  0.71720000  1.0 -0.1279069569
C  C17  1  0.93269000  0.63431000  0.78790000  1.0 -0.1414547611
C  C18  1  0.04638000  0.72562000  0.67500000  1.0 -0.0922721112
C  C19  1  0.19812000  0.01468000  0.35920000  1.0 0.6394408241
C  C20  1  0.37945000  0.00775000  0.22740000  1.0 0.0912352976
C  C21  1  0.44304000  0.00476000  0.18230000  1.0 0.0131809608
C  C22  1  0.26207000  0.01433000  0.31100000  1.0 -0.0333114277
C  C23  1  0.30528000  0.06812000  0.25500000  1.0 -0.0956325203
C  C24  1  0.44441000  0.00559000  0.09450000  1.0 -0.1961902484
C  C25  1  0.33349000  0.95191000  0.28280000  1.0 -0.1279069569
C  C26  1  0.36569000  0.06731000  0.21210000  1.0 -0.1414547611
C  C27  1  0.27438000  0.95362000  0.32500000  1.0 -0.0922721112
C  C28  1  0.80188000  0.98532000  0.35920000  1.0 0.6394408241
C  C29  1  0.62055000  0.99225000  0.22740000  1.0 0.0912352976
C  C30  1  0.55696000  0.99524000  0.18230000  1.0 0.0131809608
C  C31  1  0.73793000  0.98567000  0.31100000  1.0 -0.0333114277
C  C32  1  0.69472000  0.93188000  0.25500000  1.0 -0.0956325203
C  C33  1  0.55559000  0.99441000  0.09450000  1.0 -0.1961902484
C  C34  1  0.66651000  0.04809000  0.28280000  1.0 -0.1279069569
C  C35  1  0.63431000  0.93269000  0.21210000  1.0 -0.1414547611
C  C36  1  0.72562000  0.04638000  0.32500000  1.0 -0.0922721112
C  C37  1  0.98532000  0.80188000  0.35920000  1.0 0.6394408241
C  C38  1  0.99225000  0.62055000  0.22740000  1.0 0.0912352976
C  C39  1  0.99524000  0.55696000  0.18230000  1.0 0.0131809608
C  C40  1  0.98567000  0.73793000  0.31100000  1.0 -0.0333114277
C  C41  1  0.93188000  0.69472000  0.25500000  1.0 -0.0956325203
C  C42  1  0.99441000  0.55559000  0.09450000  1.0 -0.1961902484
C  C43  1  0.04809000  0.66651000  0.28280000  1.0 -0.1279069569
C  C44  1  0.93269000  0.63431000  0.21210000  1.0 -0.1414547611
C  C45  1  0.04638000  0.72562000  0.32500000  1.0 -0.0922721112
C  C46  1  0.01468000  0.19812000  0.35920000  1.0 0.6394408241
C  C47  1  0.00775000  0.37945000  0.22740000  1.0 0.0912352976
C  C48  1  0.00476000  0.44304000  0.18230000  1.0 0.0131809608
C  C49  1  0.01433000  0.26207000  0.31100000  1.0 -0.0333114277
C  C50  1  0.06812000  0.30528000  0.25500000  1.0 -0.0956325203
C  C51  1  0.00559000  0.44441000  0.09450000  1.0 -0.1961902484
C  C52  1  0.95191000  0.33349000  0.28280000  1.0 -0.1279069569
C  C53  1  0.06731000  0.36569000  0.21210000  1.0 -0.1414547611
C  C54  1  0.95362000  0.27438000  0.32500000  1.0 -0.0922721112
C  C55  1  0.80188000  0.98532000  0.64080000  1.0 0.6394408241
C  C56  1  0.62055000  0.99225000  0.77260000  1.0 0.0912352976
C  C57  1  0.55696000  0.99524000  0.81770000  1.0 0.0131809608
C  C58  1  0.73793000  0.98567000  0.68900000  1.0 -0.0333114277
C  C59  1  0.69472000  0.93188000  0.74500000  1.0 -0.0956325203
C  C60  1  0.55559000  0.99441000  0.90550000  1.0 -0.1961902484
C  C61  1  0.66651000  0.04809000  0.71720000  1.0 -0.1279069569
C  C62  1  0.63431000  0.93269000  0.78790000  1.0 -0.1414547611
C  C63  1  0.72562000  0.04638000  0.67500000  1.0 -0.0922721112
C  C64  1  0.19812000  0.01468000  0.64080000  1.0 0.6394408241
C  C65  1  0.37945000  0.00775000  0.77260000  1.0 0.0912352976
C  C66  1  0.44304000  0.00476000  0.81770000  1.0 0.0131809608
C  C67  1  0.26207000  0.01433000  0.68900000  1.0 -0.0333114277
C  C68  1  0.30528000  0.06812000  0.74500000  1.0 -0.0922721112
C  C69  1  0.44441000  0.00559000  0.90550000  1.0 -0.1961902484
C  C70  1  0.33349000  0.95191000  0.71720000  1.0 -0.1279069569
C  C71  1  0.36569000  0.06731000  0.78790000  1.0 -0.1414547611
C  C72  1  0.27438000  0.95362000  0.67500000  1.0 -0.0922721112
C  C73  1  0.00000000  0.50000000  0.77160000  1.0 0.1575794004
C  C74  1  0.00000000  0.50000000  0.95240000  1.0 0.0808255662
C  C75  1  0.50000000  0.00000000  0.22840000  1.0 0.1575794004
C  C76  1  0.50000000  0.00000000  0.04760000  1.0 0.0808255662
C  C77  1  0.00000000  0.50000000  0.22840000  1.0 0.1575794004
C  C78  1  0.00000000  0.50000000  0.04760000  1.0 0.0808255662
C  C79  1  0.50000000  0.00000000  0.77160000  1.0 0.1575794004
C  C80  1  0.50000000  0.00000000  0.95240000  1.0 0.0808255662
N  N1  1  0.00000000  0.50000000  0.68240000  1.0 -0.4487962529
N  N2  1  0.50000000  0.00000000  0.31760000  1.0 -0.4487962529
N  N3  1  0.00000000  0.50000000  0.31760000  1.0 -0.4487962529
N  N4  1  0.50000000  0.00000000  0.68240000  1.0 -0.4487962529
O  O1  1  0.96447000  0.16695000  0.58419000  1.0 -0.5724504396
O  O2  1  0.06527000  0.18163000  0.65951000  1.0 -0.6061740249
O  O3  1  0.03553000  0.83305000  0.58419000  1.0 -0.5724504396
O  O4  1  0.93473000  0.81837000  0.65951000  1.0 -0.6061740249
O  O5  1  0.16695000  0.96447000  0.41581000  1.0 -0.5724504396
O  O6  1  0.18163000  0.06527000  0.34049000  1.0 -0.6061740249
O  O7  1  0.83305000  0.03553000  0.41581000  1.0 -0.5724504396
O  O8  1  0.81837000  0.93473000  0.34049000  1.0 -0.6061740249
O  O9  1  0.03553000  0.83305000  0.41581000  1.0 -0.5724504396
O  O10  1  0.93473000  0.81837000  0.34049000  1.0 -0.6061740249
O  O11  1  0.96447000  0.16695000  0.41581000  1.0 -0.5724504396
O  O12  1  0.06527000  0.18163000  0.34049000  1.0 -0.6061740249
O  O13  1  0.83305000  0.03553000  0.58419000  1.0 -0.5724504396
O  O14  1  0.81837000  0.93473000  0.65951000  1.0 -0.6061740249
O  O15  1  0.16695000  0.96447000  0.58419000  1.0 -0.5724504396
O  O16  1  0.18163000  0.06527000  0.65951000  1.0 -0.6061740249
O  O17  1  0.87613000  0.94407000  0.50000000  1.0 -1.183032472
O  O18  1  0.12387000  0.05593000  0.50000000  1.0 -1.183032472
O  O19  1  0.94407000  0.87613000  0.50000000  1.0 -1.183032472
O  O20  1  0.05593000  0.12387000  0.50000000  1.0 -1.183032472
O  O21  1  0.96630000  0.03370000  0.38580000  1.0 -1.183032472
O  O22  1  0.03370000  0.96630000  0.38580000  1.0 -1.183032472
O  O23  1  0.03370000  0.96630000  0.61420000  1.0 -1.190412651
O  O24  1  0.96630000  0.03370000  0.61420000  1.0 -1.183032472
