# DDEC6 charges by PACMAN v1.1 (https://github.com/mtap-research/PACMAN-charge/)
data_HERJEW_FSR_pacman
_symmetry_space_group_name_H-M   'P 1'
_cell_length_a   20.20740000
_cell_length_b   20.20740000
_cell_length_c   31.42590000
_cell_angle_alpha   90.00000000
_cell_angle_beta   90.00000000
_cell_angle_gamma   119.06800000
_symmetry_Int_Tables_number   1
_chemical_formula_structural   Zr3H26(C7O3)6
_chemical_formula_sum   'Zr12 H104 C168 O72'
_cell_volume   11216.09686752
_cell_formula_units_Z   4
loop_
 _symmetry_equiv_pos_site_id
 _symmetry_equiv_pos_as_xyz
  1  'x, y, z'
loop_
 _atom_site_type_symbol
 _atom_site_label
 _atom_site_symmetry_multiplicity
 _atom_site_fract_x
 _atom_site_fract_y
 _atom_site_fract_z
 _atom_site_occupancy
 _atom_site_charge
Zr  Zr1  1  0.91517000  0.91129000  0.19362000  1.0 2.5379182268
Zr  Zr2  1  0.08483000  0.08871000  0.69362000  1.0 2.5379182268
Zr  Zr3  1  0.08871000  0.08483000  0.30638000  1.0 2.5379182268
Zr  Zr4  1  0.91129000  0.91517000  0.80638000  1.0 2.5379182268
Zr  Zr5  1  0.08483000  0.08871000  0.80638000  1.0 2.5379182268
Zr  Zr6  1  0.91517000  0.91129000  0.30638000  1.0 2.5379182268
Zr  Zr7  1  0.91129000  0.91517000  0.69362000  1.0 2.5379182268
Zr  Zr8  1  0.08871000  0.08483000  0.19362000  1.0 2.5379182268
Zr  Zr9  1  0.07203000  0.92797000  0.25000000  1.0 2.3970952202
Zr  Zr10  1  0.93225000  0.06775000  0.25000000  1.0 2.3889477421
Zr  Zr11  1  0.92797000  0.07203000  0.75000000  1.0 2.3970952202
Zr  Zr12  1  0.06775000  0.93225000  0.75000000  1.0 2.3889477421
H  H1  1  0.28910000  0.10170000  0.37980000  1.0 0.1497295238
H  H2  1  0.38730000  0.09810000  0.41770000  1.0 0.1386017814
H  H3  1  0.59650000  0.99210000  0.46990000  1.0 0.1386017814
H  H4  1  0.76290000  0.09110000  0.32060000  1.0 0.1497295238
H  H5  1  0.41090000  0.01550000  0.46690000  1.0 0.1343989242
H  H6  1  0.72030000  0.90350000  0.38470000  1.0 0.1497295238
H  H7  1  0.65670000  0.08870000  0.35020000  1.0 0.1386017814
H  H8  1  0.26260000  0.92540000  0.30760000  1.0 0.15521379
H  H9  1  0.36070000  0.92170000  0.34520000  1.0 0.1386017814
H  H10  1  0.61570000  0.90270000  0.41660000  1.0 0.1386017814
H  H11  1  0.55060000  0.12620000  0.34710000  1.0 0.1386017814
H  H12  1  0.48580000  0.08640000  0.31190000  1.0 0.1497295238
H  H13  1  0.56990000  0.10230000  0.30210000  1.0 0.1386017814
H  H14  1  0.71090000  0.89830000  0.87980000  1.0 0.1497295238
H  H15  1  0.61270000  0.90190000  0.91770000  1.0 0.1386017814
H  H16  1  0.40350000  0.00790000  0.96990000  1.0 0.1386017814
H  H17  1  0.23710000  0.90890000  0.82060000  1.0 0.1497295238
H  H18  1  0.58910000  0.98450000  0.96690000  1.0 0.1343989242
H  H19  1  0.27970000  0.09650000  0.88470000  1.0 0.1386017814
H  H20  1  0.34330000  0.91130000  0.85020000  1.0 0.1386017814
H  H21  1  0.73740000  0.07460000  0.80760000  1.0 0.15521379
H  H22  1  0.63930000  0.07830000  0.84520000  1.0 0.1386017814
H  H23  1  0.38430000  0.09730000  0.91660000  1.0 0.1386017814
H  H24  1  0.44940000  0.87380000  0.84710000  1.0 0.1386017814
H  H25  1  0.51420000  0.91360000  0.81190000  1.0 0.1497295238
H  H26  1  0.43010000  0.89770000  0.80210000  1.0 0.1386017814
H  H27  1  0.89830000  0.71090000  0.12020000  1.0 0.1497295238
H  H28  1  0.90190000  0.61270000  0.08230000  1.0 0.1386017814
H  H29  1  0.00790000  0.40350000  0.03010000  1.0 0.1386017814
H  H30  1  0.90890000  0.23710000  0.17940000  1.0 0.1497295238
H  H31  1  0.98450000  0.58910000  0.03310000  1.0 0.1343989242
H  H32  1  0.09650000  0.27970000  0.11530000  1.0 0.1497295238
H  H33  1  0.91130000  0.34330000  0.14980000  1.0 0.1343989242
H  H34  1  0.07460000  0.73740000  0.19240000  1.0 0.15521379
H  H35  1  0.07830000  0.63930000  0.15480000  1.0 0.1386017814
H  H36  1  0.09730000  0.38430000  0.08340000  1.0 0.1386017814
H  H37  1  0.87380000  0.44940000  0.15290000  1.0 0.1386017814
H  H38  1  0.91360000  0.51420000  0.18810000  1.0 0.1497295238
H  H39  1  0.89770000  0.43010000  0.19790000  1.0 0.1497295238
H  H40  1  0.10170000  0.28910000  0.62020000  1.0 0.1497295238
H  H41  1  0.09810000  0.38730000  0.58230000  1.0 0.1386017814
H  H42  1  0.99210000  0.59650000  0.53010000  1.0 0.1386017814
H  H43  1  0.09110000  0.76290000  0.67940000  1.0 0.1497295238
H  H44  1  0.01550000  0.41090000  0.53310000  1.0 0.1343989242
H  H45  1  0.90350000  0.72030000  0.61530000  1.0 0.1497295238
H  H46  1  0.08870000  0.65670000  0.64980000  1.0 0.1386017814
H  H47  1  0.92540000  0.26260000  0.69240000  1.0 0.15521379
H  H48  1  0.92170000  0.36070000  0.65480000  1.0 0.1386017814
H  H49  1  0.90270000  0.61570000  0.58340000  1.0 0.1386017814
H  H50  1  0.12620000  0.55060000  0.65290000  1.0 0.1386017814
H  H51  1  0.08640000  0.48580000  0.68810000  1.0 0.1497295238
H  H52  1  0.10230000  0.56990000  0.69790000  1.0 0.1386017814
H  H53  1  0.71090000  0.89830000  0.62020000  1.0 0.1497295238
H  H54  1  0.61270000  0.90190000  0.58230000  1.0 0.1386017814
H  H55  1  0.40350000  0.00790000  0.53010000  1.0 0.1386017814
H  H56  1  0.23710000  0.90890000  0.67940000  1.0 0.1497295238
H  H57  1  0.58910000  0.98450000  0.53310000  1.0 0.1343989242
H  H58  1  0.27970000  0.09650000  0.61530000  1.0 0.1386017814
H  H59  1  0.34330000  0.91130000  0.64980000  1.0 0.1386017814
H  H60  1  0.73740000  0.07460000  0.69240000  1.0 0.15521379
H  H61  1  0.63930000  0.07830000  0.65480000  1.0 0.1386017814
H  H62  1  0.38430000  0.09730000  0.58340000  1.0 0.1386017814
H  H63  1  0.44940000  0.87380000  0.65290000  1.0 0.1386017814
H  H64  1  0.51420000  0.91360000  0.68810000  1.0 0.1497295238
H  H65  1  0.43010000  0.89770000  0.69790000  1.0 0.1386017814
H  H66  1  0.28910000  0.10170000  0.12020000  1.0 0.1497295238
H  H67  1  0.38730000  0.09810000  0.08230000  1.0 0.1386017814
H  H68  1  0.59650000  0.99210000  0.03010000  1.0 0.1386017814
H  H69  1  0.76290000  0.09110000  0.17940000  1.0 0.1497295238
H  H70  1  0.41090000  0.01550000  0.03310000  1.0 0.1343989242
H  H71  1  0.72030000  0.90350000  0.11530000  1.0 0.1497295238
H  H72  1  0.65670000  0.08870000  0.14980000  1.0 0.1386017814
H  H73  1  0.26260000  0.92540000  0.19240000  1.0 0.15521379
H  H74  1  0.36070000  0.92170000  0.15480000  1.0 0.1386017814
H  H75  1  0.61570000  0.90270000  0.08340000  1.0 0.1386017814
H  H76  1  0.55060000  0.12620000  0.15290000  1.0 0.1386017814
H  H77  1  0.48580000  0.08640000  0.18810000  1.0 0.1497295238
H  H78  1  0.56990000  0.10230000  0.19790000  1.0 0.1386017814
H  H79  1  0.10170000  0.28910000  0.87980000  1.0 0.1497295238
H  H80  1  0.09810000  0.38730000  0.91770000  1.0 0.1386017814
H  H81  1  0.99210000  0.59650000  0.96990000  1.0 0.1386017814
H  H82  1  0.09110000  0.76290000  0.82060000  1.0 0.1497295238
H  H83  1  0.01550000  0.41090000  0.96690000  1.0 0.1343989242
H  H84  1  0.90350000  0.72030000  0.88470000  1.0 0.1497295238
H  H85  1  0.08870000  0.65670000  0.85020000  1.0 0.1386017814
H  H86  1  0.92540000  0.26260000  0.80760000  1.0 0.15521379
H  H87  1  0.92170000  0.36070000  0.84520000  1.0 0.1386017814
H  H88  1  0.90270000  0.61570000  0.91660000  1.0 0.1386017814
H  H89  1  0.12620000  0.55060000  0.84710000  1.0 0.1386017814
H  H90  1  0.08640000  0.48580000  0.81190000  1.0 0.1497295238
H  H91  1  0.10230000  0.56990000  0.80210000  1.0 0.1386017814
H  H92  1  0.89830000  0.71090000  0.37980000  1.0 0.1497295238
H  H93  1  0.90190000  0.61270000  0.41770000  1.0 0.1386017814
H  H94  1  0.00790000  0.40350000  0.46990000  1.0 0.1386017814
H  H95  1  0.90890000  0.23710000  0.32060000  1.0 0.1497295238
H  H96  1  0.98450000  0.58910000  0.46690000  1.0 0.1343989242
H  H97  1  0.09650000  0.27970000  0.38470000  1.0 0.1497295238
H  H98  1  0.91130000  0.34330000  0.35020000  1.0 0.1343989242
H  H99  1  0.07460000  0.73740000  0.30760000  1.0 0.15521379
H  H100  1  0.07830000  0.63930000  0.34520000  1.0 0.1386017814
H  H101  1  0.09730000  0.38430000  0.41660000  1.0 0.1386017814
H  H102  1  0.87380000  0.44940000  0.34710000  1.0 0.1386017814
H  H103  1  0.91360000  0.51420000  0.31190000  1.0 0.1497295238
H  H104  1  0.89770000  0.43010000  0.30210000  1.0 0.1497295238
C  C1  1  0.20244000  0.01436000  0.31819000  1.0 0.6579375733
C  C2  1  0.80867000  0.98873000  0.32256000  1.0 0.652120607
C  C3  1  0.50143000  0.00117000  0.47680000  1.0 0.0973973442
C  C4  1  0.26754000  0.01546000  0.34244000  1.0 -0.0093781766
C  C5  1  0.74744000  0.99316000  0.34692000  1.0 -0.0093781766
C  C6  1  0.30353000  0.06467000  0.37291000  1.0 -0.0693966625
C  C7  1  0.36285000  0.06295000  0.39536000  1.0 -0.1305096919
C  C8  1  0.55923000  0.99777000  0.45430000  1.0 -0.1753855776
C  C9  1  0.73130000  0.05090000  0.33920000  1.0 -0.0693966625
C  C10  1  0.44944000  0.01016000  0.45257000  1.0 -0.1742404233
C  C11  1  0.62715000  0.99805000  0.38807000  1.0 0.1104521062
C  C12  1  0.70673000  0.94087000  0.37705000  1.0 -0.063930368
C  C13  1  0.38568000  0.01212000  0.38566000  1.0 0.1104521062
C  C14  1  0.56500000  0.00220000  0.41040000  1.0 0.0063619359
C  C15  1  0.50840000  0.00760000  0.38742000  1.0 0.1701453682
C  C16  1  0.45045000  0.01195000  0.40814000  1.0 -0.0093781766
C  C17  1  0.66986000  0.05114000  0.35810000  1.0 -0.1305096919
C  C18  1  0.28802000  0.95998000  0.33010000  1.0 -0.0768861268
C  C19  1  0.34632000  0.95868000  0.35220000  1.0 -0.1305096919
C  C20  1  0.64546000  0.94154000  0.39680000  1.0 -0.1234716978
C  C21  1  0.53120000  0.08840000  0.32430000  1.0 -0.2936095428
C  C22  1  0.79756000  0.98564000  0.81819000  1.0 0.6579375733
C  C23  1  0.19133000  0.01127000  0.82256000  1.0 0.652120607
C  C24  1  0.49857000  0.99883000  0.97680000  1.0 0.0973973442
C  C25  1  0.73246000  0.98454000  0.84244000  1.0 -0.0093781766
C  C26  1  0.25256000  0.00684000  0.84692000  1.0 -0.0093781766
C  C27  1  0.69647000  0.93533000  0.87291000  1.0 -0.0693966625
C  C28  1  0.63715000  0.93705000  0.89536000  1.0 -0.1305096919
C  C29  1  0.44077000  0.00223000  0.95430000  1.0 -0.1753855776
C  C30  1  0.26870000  0.94910000  0.83920000  1.0 -0.0693966625
C  C31  1  0.55056000  0.98984000  0.95257000  1.0 -0.1753855776
C  C32  1  0.37285000  0.00195000  0.88807000  1.0 0.1104521062
C  C33  1  0.29327000  0.05913000  0.87705000  1.0 -0.063930368
C  C34  1  0.61432000  0.98788000  0.88566000  1.0 0.1104521062
C  C35  1  0.43500000  0.99780000  0.91040000  1.0 0.0063619359
C  C36  1  0.49160000  0.99240000  0.88742000  1.0 0.1701453682
C  C37  1  0.54955000  0.98805000  0.90814000  1.0 -0.0093781766
C  C38  1  0.33014000  0.94886000  0.85810000  1.0 -0.1305096919
C  C39  1  0.71198000  0.04002000  0.83010000  1.0 -0.0768861268
C  C40  1  0.65368000  0.04132000  0.85220000  1.0 -0.1305096919
C  C41  1  0.35454000  0.05846000  0.89680000  1.0 -0.1234716978
C  C42  1  0.46880000  0.91160000  0.82430000  1.0 -0.2936095428
C  C43  1  0.98564000  0.79756000  0.18181000  1.0 0.6579375733
C  C44  1  0.01127000  0.19133000  0.17744000  1.0 0.652120607
C  C45  1  0.99883000  0.49857000  0.02320000  1.0 0.0973973442
C  C46  1  0.98454000  0.73246000  0.15756000  1.0 -0.0093781766
C  C47  1  0.00684000  0.25256000  0.15308000  1.0 -0.0093781766
C  C48  1  0.93533000  0.69647000  0.12709000  1.0 -0.0693966625
C  C49  1  0.93705000  0.63715000  0.10464000  1.0 -0.1305096919
C  C50  1  0.00223000  0.44077000  0.04570000  1.0 -0.1753855776
C  C51  1  0.94910000  0.26870000  0.16080000  1.0 -0.0693966625
C  C52  1  0.98984000  0.55056000  0.04743000  1.0 -0.1742404233
C  C53  1  0.00195000  0.37285000  0.11193000  1.0 0.1104521062
C  C54  1  0.05913000  0.29327000  0.12295000  1.0 -0.063930368
C  C55  1  0.98788000  0.61432000  0.11434000  1.0 0.1104521062
C  C56  1  0.99780000  0.43500000  0.08960000  1.0 0.0063619359
C  C57  1  0.99240000  0.49160000  0.11258000  1.0 0.1701453682
C  C58  1  0.98805000  0.54955000  0.09186000  1.0 -0.0093781766
C  C59  1  0.94886000  0.33014000  0.14190000  1.0 -0.1305096919
C  C60  1  0.04002000  0.71198000  0.16990000  1.0 -0.0768861268
C  C61  1  0.04132000  0.65368000  0.14780000  1.0 -0.1305096919
C  C62  1  0.05846000  0.35454000  0.10320000  1.0 -0.1234716978
C  C63  1  0.91160000  0.46880000  0.17570000  1.0 -0.2936095428
C  C64  1  0.01436000  0.20244000  0.68181000  1.0 0.6579375733
C  C65  1  0.98873000  0.80867000  0.67744000  1.0 0.652120607
C  C66  1  0.00117000  0.50143000  0.52320000  1.0 0.0973973442
C  C67  1  0.01546000  0.26754000  0.65756000  1.0 -0.0093781766
C  C68  1  0.99316000  0.74744000  0.65308000  1.0 -0.0093781766
C  C69  1  0.06467000  0.30353000  0.62709000  1.0 -0.0693966625
C  C70  1  0.06295000  0.36285000  0.60464000  1.0 -0.1305096919
C  C71  1  0.99777000  0.55923000  0.54570000  1.0 -0.1753855776
C  C72  1  0.05090000  0.73130000  0.66080000  1.0 -0.0693966625
C  C73  1  0.01016000  0.44944000  0.54743000  1.0 -0.1742404233
C  C74  1  0.99805000  0.62715000  0.61193000  1.0 0.1104521062
C  C75  1  0.94087000  0.70673000  0.62295000  1.0 -0.063930368
C  C76  1  0.01212000  0.38568000  0.61434000  1.0 0.1104521062
C  C77  1  0.00220000  0.56500000  0.58960000  1.0 0.0043686572
C  C78  1  0.00760000  0.50840000  0.61258000  1.0 0.1701453682
C  C79  1  0.01195000  0.45045000  0.59186000  1.0 -0.0093781766
C  C80  1  0.05114000  0.66986000  0.64190000  1.0 -0.1305096919
C  C81  1  0.95998000  0.28802000  0.66990000  1.0 -0.0768861268
C  C82  1  0.95868000  0.34632000  0.64780000  1.0 -0.1305096919
C  C83  1  0.94154000  0.64546000  0.60320000  1.0 -0.1234716978
C  C84  1  0.08840000  0.53120000  0.67570000  1.0 -0.2936095428
C  C85  1  0.79756000  0.98564000  0.68181000  1.0 0.6579375733
C  C86  1  0.19133000  0.01127000  0.67744000  1.0 0.652120607
C  C87  1  0.49857000  0.99883000  0.52320000  1.0 0.0973973442
C  C88  1  0.73246000  0.98454000  0.65756000  1.0 -0.0093781766
C  C89  1  0.25256000  0.00684000  0.65308000  1.0 -0.0093781766
C  C90  1  0.69647000  0.93533000  0.62709000  1.0 -0.0693966625
C  C91  1  0.63715000  0.93705000  0.60464000  1.0 -0.1305096919
C  C92  1  0.44077000  0.00223000  0.54570000  1.0 -0.1753855776
C  C93  1  0.26870000  0.94910000  0.66080000  1.0 -0.0693966625
C  C94  1  0.55056000  0.98984000  0.54743000  1.0 -0.1742404233
C  C95  1  0.37285000  0.00195000  0.61193000  1.0 0.1104521062
C  C96  1  0.29327000  0.05913000  0.62295000  1.0 -0.063930368
C  C97  1  0.61432000  0.98788000  0.61434000  1.0 0.1104521062
C  C98  1  0.43500000  0.99780000  0.58960000  1.0 0.0063619359
C  C99  1  0.49160000  0.99240000  0.61258000  1.0 0.1701453682
C  C100  1  0.54955000  0.98805000  0.59186000  1.0 -0.0093781766
C  C101  1  0.33014000  0.94886000  0.64190000  1.0 -0.1305096919
C  C102  1  0.71198000  0.04002000  0.66990000  1.0 -0.0768861268
C  C103  1  0.65368000  0.04132000  0.64780000  1.0 -0.1305096919
C  C104  1  0.35454000  0.05846000  0.60320000  1.0 -0.1234716978
C  C105  1  0.46880000  0.91160000  0.67570000  1.0 -0.2936095428
C  C106  1  0.20244000  0.01436000  0.18181000  1.0 0.6579375733
C  C107  1  0.80867000  0.98873000  0.17744000  1.0 0.652120607
C  C108  1  0.50143000  0.00117000  0.02320000  1.0 0.0973973442
C  C109  1  0.26754000  0.01546000  0.15756000  1.0 -0.0093781766
C  C110  1  0.74744000  0.99316000  0.15308000  1.0 -0.0093781766
C  C111  1  0.30353000  0.06467000  0.12709000  1.0 -0.0693966625
C  C112  1  0.36285000  0.06295000  0.10464000  1.0 -0.1305096919
C  C113  1  0.55923000  0.99777000  0.04570000  1.0 -0.1753855776
C  C114  1  0.73130000  0.05090000  0.16080000  1.0 -0.0693966625
C  C115  1  0.44944000  0.01016000  0.04743000  1.0 -0.1742404233
C  C116  1  0.62715000  0.99805000  0.11193000  1.0 0.1104521062
C  C117  1  0.70673000  0.94087000  0.12295000  1.0 -0.063930368
C  C118  1  0.38568000  0.01212000  0.11434000  1.0 0.1104521062
C  C119  1  0.56500000  0.00220000  0.08960000  1.0 0.0063619359
C  C120  1  0.50840000  0.00760000  0.11258000  1.0 0.1701453682
C  C121  1  0.45045000  0.01195000  0.09186000  1.0 -0.0093781766
C  C122  1  0.66986000  0.05114000  0.14190000  1.0 -0.1305096919
C  C123  1  0.28802000  0.95998000  0.16990000  1.0 -0.0768861268
C  C124  1  0.34632000  0.95868000  0.14780000  1.0 -0.1305096919
C  C125  1  0.64546000  0.94154000  0.10320000  1.0 -0.1234716978
C  C126  1  0.53120000  0.08840000  0.17570000  1.0 -0.2936095428
C  C127  1  0.01436000  0.20244000  0.81819000  1.0 0.6579375733
C  C128  1  0.98873000  0.80867000  0.82256000  1.0 0.652120607
C  C129  1  0.00117000  0.50143000  0.97680000  1.0 0.0973973442
C  C130  1  0.01546000  0.26754000  0.84244000  1.0 -0.0093781766
C  C131  1  0.99316000  0.74744000  0.84692000  1.0 -0.0093781766
C  C132  1  0.06467000  0.30353000  0.87291000  1.0 -0.0693966625
C  C133  1  0.06295000  0.36285000  0.89536000  1.0 -0.1305096919
C  C134  1  0.99777000  0.55923000  0.95430000  1.0 -0.1753855776
C  C135  1  0.05090000  0.73130000  0.83920000  1.0 -0.0693966625
C  C136  1  0.01016000  0.44944000  0.95257000  1.0 -0.1742404233
C  C137  1  0.99805000  0.62715000  0.88807000  1.0 0.1104521062
C  C138  1  0.94087000  0.70673000  0.87705000  1.0 -0.063930368
C  C139  1  0.01212000  0.38568000  0.88566000  1.0 0.1104521062
C  C140  1  0.00220000  0.56500000  0.91040000  1.0 0.0043686572
C  C141  1  0.00760000  0.50840000  0.88742000  1.0 0.1701453682
C  C142  1  0.01195000  0.45045000  0.90814000  1.0 -0.0093781766
C  C143  1  0.05114000  0.66986000  0.85810000  1.0 -0.1305096919
C  C144  1  0.95998000  0.28802000  0.83010000  1.0 -0.0768861268
C  C145  1  0.95868000  0.34632000  0.85220000  1.0 -0.1305096919
C  C146  1  0.94154000  0.64546000  0.89680000  1.0 -0.1234716978
C  C147  1  0.08840000  0.53120000  0.82430000  1.0 -0.2936095428
C  C148  1  0.98564000  0.79756000  0.31819000  1.0 0.6579375733
C  C149  1  0.01127000  0.19133000  0.32256000  1.0 0.652120607
C  C150  1  0.99883000  0.49857000  0.47680000  1.0 0.0973973442
C  C151  1  0.98454000  0.73246000  0.34244000  1.0 -0.0093781766
C  C152  1  0.00684000  0.25256000  0.34692000  1.0 -0.0093781766
C  C153  1  0.93533000  0.69647000  0.37291000  1.0 -0.0693966625
C  C154  1  0.93705000  0.63715000  0.39536000  1.0 -0.1305096919
C  C155  1  0.00223000  0.44077000  0.45430000  1.0 -0.1753855776
C  C156  1  0.94910000  0.26870000  0.33920000  1.0 -0.0693966625
C  C157  1  0.98984000  0.55056000  0.45257000  1.0 -0.1753855776
C  C158  1  0.00195000  0.37285000  0.38807000  1.0 0.1104521062
C  C159  1  0.05913000  0.29327000  0.37705000  1.0 -0.063930368
C  C160  1  0.98788000  0.61432000  0.38566000  1.0 0.1104521062
C  C161  1  0.99780000  0.43500000  0.41040000  1.0 0.0063619359
C  C162  1  0.99240000  0.49160000  0.38742000  1.0 0.1701453682
C  C163  1  0.98805000  0.54955000  0.40814000  1.0 -0.0093781766
C  C164  1  0.94886000  0.33014000  0.35810000  1.0 -0.1305096919
C  C165  1  0.04002000  0.71198000  0.33010000  1.0 -0.0768861268
C  C166  1  0.04132000  0.65368000  0.35220000  1.0 -0.1305096919
C  C167  1  0.05846000  0.35454000  0.39680000  1.0 -0.1234716978
C  C168  1  0.91160000  0.46880000  0.32430000  1.0 -0.2936095428
O  O1  1  0.16867000  0.96025000  0.29173000  1.0 -0.5612743528
O  O2  1  0.83689000  0.03631000  0.29255000  1.0 -0.5612743528
O  O3  1  0.18354000  0.06386000  0.32771000  1.0 -0.5612743528
O  O4  1  0.92216000  0.91444000  0.12376000  1.0 -0.6631581318
O  O5  1  0.82647000  0.93993000  0.33189000  1.0 -0.5459350975
O  O6  1  0.80691000  0.80549000  0.19463000  1.0 -0.6879993509
O  O7  1  0.51032000  0.00668000  0.34340000  1.0 -0.1305096919
O  O8  1  0.83133000  0.03975000  0.79173000  1.0 -0.5612743528
O  O9  1  0.16311000  0.96369000  0.79255000  1.0 -0.5612743528
O  O10  1  0.81646000  0.93614000  0.82771000  1.0 -0.5612743528
O  O11  1  0.07784000  0.08556000  0.62376000  1.0 -0.6822278332
O  O12  1  0.17353000  0.06007000  0.83189000  1.0 -0.5459350975
O  O13  1  0.19309000  0.19451000  0.69463000  1.0 -0.6822278332
O  O14  1  0.48968000  0.99332000  0.84340000  1.0 -0.1305096919
O  O15  1  0.03975000  0.83133000  0.20827000  1.0 -0.5612743528
O  O16  1  0.96369000  0.16311000  0.20745000  1.0 -0.5612743528
O  O17  1  0.93614000  0.81646000  0.17229000  1.0 -0.5612743528
O  O18  1  0.08556000  0.07784000  0.37624000  1.0 -0.6879993509
O  O19  1  0.06007000  0.17353000  0.16811000  1.0 -0.5459350975
O  O20  1  0.19451000  0.19309000  0.30537000  1.0 -0.6822278332
O  O21  1  0.99332000  0.48968000  0.15660000  1.0 -0.1353650969
O  O22  1  0.96025000  0.16867000  0.70827000  1.0 -0.5612743528
O  O23  1  0.03631000  0.83689000  0.70745000  1.0 -0.5612743528
O  O24  1  0.06386000  0.18354000  0.67229000  1.0 -0.5612743528
O  O25  1  0.91444000  0.92216000  0.87624000  1.0 -0.6822278332
O  O26  1  0.93993000  0.82647000  0.66811000  1.0 -0.5449281763
O  O27  1  0.80549000  0.80691000  0.80537000  1.0 -0.6822278332
O  O28  1  0.00668000  0.51032000  0.65660000  1.0 -0.1305096919
O  O29  1  0.83133000  0.03975000  0.70827000  1.0 -0.5612743528
O  O30  1  0.16311000  0.96369000  0.70745000  1.0 -0.5612743528
O  O31  1  0.81646000  0.93614000  0.67229000  1.0 -0.5612743528
O  O32  1  0.07784000  0.08556000  0.87624000  1.0 -0.6822278332
O  O33  1  0.17353000  0.06007000  0.66811000  1.0 -0.5459350975
O  O34  1  0.19309000  0.19451000  0.80537000  1.0 -0.6822278332
O  O35  1  0.48968000  0.99332000  0.65660000  1.0 -0.1305096919
O  O36  1  0.16867000  0.96025000  0.20827000  1.0 -0.5612743528
O  O37  1  0.83689000  0.03631000  0.20745000  1.0 -0.5612743528
O  O38  1  0.18354000  0.06386000  0.17229000  1.0 -0.5612743528
O  O39  1  0.92216000  0.91444000  0.37624000  1.0 -0.6631581318
O  O40  1  0.82647000  0.93993000  0.16811000  1.0 -0.5459350975
O  O41  1  0.80691000  0.80549000  0.30537000  1.0 -0.6879993509
O  O42  1  0.51032000  0.00668000  0.15660000  1.0 -0.1305096919
O  O43  1  0.96025000  0.16867000  0.79173000  1.0 -0.5612743528
O  O44  1  0.03631000  0.83689000  0.79255000  1.0 -0.5612743528
O  O45  1  0.06386000  0.18354000  0.82771000  1.0 -0.5612743528
O  O46  1  0.91444000  0.92216000  0.62376000  1.0 -0.6822278332
O  O47  1  0.93993000  0.82647000  0.83189000  1.0 -0.5449281763
O  O48  1  0.80549000  0.80691000  0.69463000  1.0 -0.6822278332
O  O49  1  0.00668000  0.51032000  0.84340000  1.0 -0.1305096919
O  O50  1  0.03975000  0.83133000  0.29173000  1.0 -0.5612743528
O  O51  1  0.96369000  0.16311000  0.29255000  1.0 -0.5612743528
O  O52  1  0.93614000  0.81646000  0.32771000  1.0 -0.5612743528
O  O53  1  0.08556000  0.07784000  0.12376000  1.0 -0.6879993509
O  O54  1  0.06007000  0.17353000  0.33189000  1.0 -0.5459350975
O  O55  1  0.19451000  0.19309000  0.19463000  1.0 -0.6822278332
O  O56  1  0.99332000  0.48968000  0.34340000  1.0 -0.1305096919
O  O57  1  0.97085000  0.02915000  0.19881000  1.0 -1.1089444191
O  O58  1  0.03871000  0.96129000  0.18862000  1.0 -1.1003208589
O  O59  1  0.02915000  0.97085000  0.69881000  1.0 -1.1167496275
O  O60  1  0.96129000  0.03871000  0.68862000  1.0 -1.0919402074
O  O61  1  0.97085000  0.02915000  0.30119000  1.0 -1.1089444191
O  O62  1  0.03871000  0.96129000  0.31138000  1.0 -1.1003208589
O  O63  1  0.02915000  0.97085000  0.80119000  1.0 -1.1167496275
O  O64  1  0.96129000  0.03871000  0.81138000  1.0 -1.0919402074
O  O65  1  0.95478000  0.88802000  0.25000000  1.0 -1.1089444191
O  O66  1  0.86947000  0.93833000  0.25000000  1.0 -1.0919402074
O  O67  1  0.04522000  0.11198000  0.75000000  1.0 -1.1089444191
O  O68  1  0.13053000  0.06167000  0.75000000  1.0 -1.1003208589
O  O69  1  0.11198000  0.04522000  0.25000000  1.0 -1.1089444191
O  O70  1  0.06167000  0.13053000  0.25000000  1.0 -1.1003208589
O  O71  1  0.88802000  0.95478000  0.75000000  1.0 -1.1089444191
O  O72  1  0.93833000  0.86947000  0.75000000  1.0 -1.0919402074
