# DDEC6 charges by PACMAN v1.1 (https://github.com/mtap-research/PACMAN-charge/)
data_HERMEZ_FSR_pacman
_symmetry_space_group_name_H-M   'P 1'
_cell_length_a   17.10300000
_cell_length_b   17.10300000
_cell_length_c   15.98660000
_cell_angle_alpha   67.84260000
_cell_angle_beta   112.15700000
_cell_angle_gamma   136.02500000
_symmetry_Int_Tables_number   1
_chemical_formula_structural   FeAg2H10(C8N5)2
_chemical_formula_sum   'Fe4 Ag8 H40 C64 N40'
_cell_volume   2966.24277720
_cell_formula_units_Z   4
loop_
 _symmetry_equiv_pos_site_id
 _symmetry_equiv_pos_as_xyz
  1  'x, y, z'
loop_
 _atom_site_type_symbol
 _atom_site_label
 _atom_site_symmetry_multiplicity
 _atom_site_fract_x
 _atom_site_fract_y
 _atom_site_fract_z
 _atom_site_occupancy
 _atom_site_charge
Fe  Fe1  1  0.69732000  0.80242000  0.47140000  1.0 0.5543260854
Fe  Fe2  1  0.80242000  0.69732000  0.02860000  1.0 0.5543260854
Fe  Fe3  1  0.30268000  0.19758000  0.52860000  1.0 0.5543260854
Fe  Fe4  1  0.19758000  0.30268000  0.97140000  1.0 0.5552111547
Ag  Ag1  1  0.45419000  0.56177000  0.21336000  1.0 0.1297691424
Ag  Ag2  1  0.92854000  0.02666000  0.73936000  1.0 0.1297691424
Ag  Ag3  1  0.56177000  0.45419000  0.28664000  1.0 0.1297691424
Ag  Ag4  1  0.02666000  0.92854000  0.76064000  1.0 0.1358723205
Ag  Ag5  1  0.54581000  0.43823000  0.78664000  1.0 0.1297691424
Ag  Ag6  1  0.07146000  0.97334000  0.26064000  1.0 0.1297691424
Ag  Ag7  1  0.43823000  0.54581000  0.71336000  1.0 0.1297691424
Ag  Ag8  1  0.97334000  0.07146000  0.23936000  1.0 0.1297691424
H  H1  1  0.32820000  0.90360000  0.25690000  1.0 0.2696690094
H  H2  1  0.35620000  0.93100000  0.16900000  1.0 0.2607780379
H  H3  1  0.79960000  0.03960000  0.42380000  1.0 0.1175705864
H  H4  1  0.75070000  0.14730000  0.35030000  1.0 0.1117291622
H  H5  1  0.42190000  0.85490000  0.29650000  1.0 0.1117291622
H  H6  1  0.48130000  0.75610000  0.37260000  1.0 0.1175705864
H  H7  1  0.54150000  0.35410000  0.09620000  1.0 0.1358723205
H  H8  1  0.43510000  0.40330000  0.01510000  1.0 0.1175705864
H  H9  1  0.14980000  0.08780000  0.07360000  1.0 0.1117291622
H  H10  1  0.24940000  0.03140000  0.16140000  1.0 0.1175705864
H  H11  1  0.90360000  0.32820000  0.24310000  1.0 0.2696690094
H  H12  1  0.93100000  0.35620000  0.33100000  1.0 0.2607780379
H  H13  1  0.03960000  0.79960000  0.07620000  1.0 0.1175705864
H  H14  1  0.14730000  0.75070000  0.14970000  1.0 0.1175705864
H  H15  1  0.85490000  0.42190000  0.20350000  1.0 0.1117291622
H  H16  1  0.75610000  0.48130000  0.12740000  1.0 0.1175705864
H  H17  1  0.35410000  0.54150000  0.40380000  1.0 0.1358723205
H  H18  1  0.40330000  0.43510000  0.48490000  1.0 0.1175705864
H  H19  1  0.08780000  0.14980000  0.42640000  1.0 0.1117291622
H  H20  1  0.03140000  0.24940000  0.33860000  1.0 0.1175705864
H  H21  1  0.67180000  0.09640000  0.74310000  1.0 0.2696690094
H  H22  1  0.64380000  0.06900000  0.83100000  1.0 0.2607780379
H  H23  1  0.20040000  0.96040000  0.57620000  1.0 0.1175705864
H  H24  1  0.24930000  0.85270000  0.64970000  1.0 0.1175705864
H  H25  1  0.57810000  0.14510000  0.70350000  1.0 0.1117291622
H  H26  1  0.51870000  0.24390000  0.62740000  1.0 0.1175705864
H  H27  1  0.45850000  0.64590000  0.90380000  1.0 0.1358723205
H  H28  1  0.56490000  0.59670000  0.98490000  1.0 0.1117291622
H  H29  1  0.85020000  0.91220000  0.92640000  1.0 0.1117291622
H  H30  1  0.75060000  0.96860000  0.83860000  1.0 0.1175705864
H  H31  1  0.09640000  0.67180000  0.75690000  1.0 0.2696690094
H  H32  1  0.06900000  0.64380000  0.66900000  1.0 0.2607780379
H  H33  1  0.96040000  0.20040000  0.92380000  1.0 0.1175705864
H  H34  1  0.85270000  0.24930000  0.85030000  1.0 0.1175705864
H  H35  1  0.14510000  0.57810000  0.79650000  1.0 0.1117291622
H  H36  1  0.24390000  0.51870000  0.87260000  1.0 0.1175705864
H  H37  1  0.64590000  0.45850000  0.59620000  1.0 0.1358723205
H  H38  1  0.59670000  0.56490000  0.51510000  1.0 0.1117291622
H  H39  1  0.91220000  0.85020000  0.57360000  1.0 0.1117291622
H  H40  1  0.96860000  0.75060000  0.66140000  1.0 0.1175705864
C  C1  1  0.54820000  0.65220000  0.31970000  1.0 -0.0252476758
C  C2  1  0.83955000  0.94485000  0.62710000  1.0 -0.0206220165
C  C3  1  0.72200000  0.00180000  0.39790000  1.0 0.0799032692
C  C4  1  0.69345000  0.06675000  0.35370000  1.0 -0.1858273018
C  C5  1  0.58005000  0.01395000  0.31380000  1.0 0.0799032692
C  C6  1  0.50008000  0.89512000  0.32200000  1.0 -0.2123201508
C  C7  1  0.53659000  0.83681000  0.36790000  1.0 0.096401697
C  C8  1  0.55728000  0.08932000  0.26860000  1.0 0.1513999422
C  C9  1  0.48330000  0.16470000  0.19360000  1.0 0.1711285171
C  C10  1  0.40813000  0.18667000  0.14010000  1.0 0.0799032692
C  C11  1  0.46098000  0.29802000  0.09380000  1.0 -0.1771054957
C  C12  1  0.39692000  0.32668000  0.04490000  1.0 0.0799032692
C  C13  1  0.23062000  0.14298000  0.07970000  1.0 0.0724975104
C  C14  1  0.28960000  0.10840000  0.13160000  1.0 -0.2015414853
C  C15  1  0.35990000  0.47830000  0.10230000  1.0 -0.0206220165
C  C16  1  0.02849000  0.11971000  0.84570000  1.0 -0.0206220165
C  C17  1  0.65220000  0.54820000  0.18030000  1.0 -0.0252476758
C  C18  1  0.94485000  0.83955000  0.87290000  1.0 -0.0206220165
C  C19  1  0.00180000  0.72200000  0.10210000  1.0 0.0799032692
C  C20  1  0.06675000  0.69345000  0.14630000  1.0 -0.1858273018
C  C21  1  0.01395000  0.58005000  0.18620000  1.0 0.0799032692
C  C22  1  0.89512000  0.50008000  0.17800000  1.0 -0.2123201508
C  C23  1  0.83681000  0.53659000  0.13210000  1.0 0.096401697
C  C24  1  0.08932000  0.55728000  0.23140000  1.0 0.1513999422
C  C25  1  0.16470000  0.48330000  0.30640000  1.0 0.1711285171
C  C26  1  0.18667000  0.40813000  0.35990000  1.0 0.0799032692
C  C27  1  0.29802000  0.46098000  0.40620000  1.0 -0.1771054957
C  C28  1  0.32668000  0.39692000  0.45510000  1.0 0.0799032692
C  C29  1  0.14298000  0.23062000  0.42030000  1.0 0.0724975104
C  C30  1  0.10840000  0.28960000  0.36840000  1.0 -0.2015414853
C  C31  1  0.47830000  0.35990000  0.39770000  1.0 -0.0206220165
C  C32  1  0.11971000  0.02849000  0.65430000  1.0 -0.0206220165
C  C33  1  0.45180000  0.34780000  0.68030000  1.0 -0.0252476758
C  C34  1  0.16045000  0.05515000  0.37290000  1.0 -0.0206220165
C  C35  1  0.27800000  0.99820000  0.60210000  1.0 0.0799032692
C  C36  1  0.30655000  0.93325000  0.64630000  1.0 -0.1858273018
C  C37  1  0.41995000  0.98605000  0.68620000  1.0 0.0799032692
C  C38  1  0.49992000  0.10488000  0.67800000  1.0 -0.2123201508
C  C39  1  0.46341000  0.16319000  0.63210000  1.0 0.096401697
C  C40  1  0.44272000  0.91068000  0.73140000  1.0 0.1513999422
C  C41  1  0.51670000  0.83530000  0.80640000  1.0 0.1711285171
C  C42  1  0.59187000  0.81333000  0.85990000  1.0 0.0799032692
C  C43  1  0.53902000  0.70198000  0.90620000  1.0 -0.1771054957
C  C44  1  0.60308000  0.67332000  0.95510000  1.0 0.0799032692
C  C45  1  0.76938000  0.85702000  0.92030000  1.0 0.0724975104
C  C46  1  0.71040000  0.89160000  0.86840000  1.0 -0.2015414853
C  C47  1  0.64010000  0.52170000  0.89770000  1.0 -0.0206220165
C  C48  1  0.97151000  0.88029000  0.15430000  1.0 -0.0206220165
C  C49  1  0.34780000  0.45180000  0.81970000  1.0 -0.0252476758
C  C50  1  0.05515000  0.16045000  0.12710000  1.0 -0.0206220165
C  C51  1  0.99820000  0.27800000  0.89790000  1.0 0.0799032692
C  C52  1  0.93325000  0.30655000  0.85370000  1.0 -0.1858273018
C  C53  1  0.98605000  0.41995000  0.81380000  1.0 0.0799032692
C  C54  1  0.10488000  0.49992000  0.82200000  1.0 -0.2123201508
C  C55  1  0.16319000  0.46341000  0.86790000  1.0 0.096401697
C  C56  1  0.91068000  0.44272000  0.76860000  1.0 0.1513999422
C  C57  1  0.83530000  0.51670000  0.69360000  1.0 0.1711285171
C  C58  1  0.81333000  0.59187000  0.64010000  1.0 0.0799032692
C  C59  1  0.70198000  0.53902000  0.59380000  1.0 -0.1771054957
C  C60  1  0.67332000  0.60308000  0.54490000  1.0 0.0799032692
C  C61  1  0.85702000  0.76938000  0.57970000  1.0 0.0724975104
C  C62  1  0.89160000  0.71040000  0.63160000  1.0 -0.2015414853
C  C63  1  0.52170000  0.64010000  0.60230000  1.0 -0.0206220165
C  C64  1  0.88029000  0.97151000  0.34570000  1.0 -0.0206220165
N  N1  1  0.60151000  0.70609000  0.37750000  1.0 -0.2879064251
N  N2  1  0.79160000  0.89640000  0.56690000  1.0 -0.2809074092
N  N3  1  0.64529000  0.88751000  0.40610000  1.0 -0.1256216709
N  N4  1  0.63962000  0.20078000  0.26720000  1.0 -0.2474015374
N  N5  1  0.59284000  0.24816000  0.22060000  1.0 -0.2313225809
N  N6  1  0.45727000  0.06333000  0.22270000  1.0 0.0724975104
N  N7  1  0.34982000  0.95518000  0.20510000  1.0 -0.4438415039
N  N8  1  0.28237000  0.25103000  0.03730000  1.0 -0.1226761211
N  N9  1  0.30352000  0.42268000  0.04610000  1.0 -0.2879064251
N  N10  1  0.09016000  0.18084000  0.89810000  1.0 -0.2809074092
N  N11  1  0.70609000  0.60151000  0.12250000  1.0 -0.2879064251
N  N12  1  0.89640000  0.79160000  0.93310000  1.0 -0.2809074092
N  N13  1  0.88751000  0.64529000  0.09390000  1.0 -0.1256216709
N  N14  1  0.20078000  0.63962000  0.23280000  1.0 -0.2474015374
N  N15  1  0.24816000  0.59284000  0.27940000  1.0 -0.2313225809
N  N16  1  0.06333000  0.45727000  0.27730000  1.0 0.0724975104
N  N17  1  0.95518000  0.34982000  0.29490000  1.0 -0.4438415039
N  N18  1  0.25103000  0.28237000  0.46270000  1.0 -0.1226761211
N  N19  1  0.42268000  0.30352000  0.45390000  1.0 -0.2879064251
N  N20  1  0.18084000  0.09016000  0.60190000  1.0 -0.2809074092
N  N21  1  0.39849000  0.29391000  0.62250000  1.0 -0.2879064251
N  N22  1  0.20840000  0.10360000  0.43310000  1.0 -0.2809074092
N  N23  1  0.35471000  0.11249000  0.59390000  1.0 -0.1256216709
N  N24  1  0.36038000  0.79922000  0.73280000  1.0 -0.2474015374
N  N25  1  0.40716000  0.75184000  0.77940000  1.0 -0.2313225809
N  N26  1  0.54273000  0.93667000  0.77730000  1.0 0.0724975104
N  N27  1  0.65018000  0.04482000  0.79490000  1.0 -0.4438415039
N  N28  1  0.71763000  0.74897000  0.96270000  1.0 -0.1226761211
N  N29  1  0.69648000  0.57732000  0.95390000  1.0 -0.2879064251
N  N30  1  0.90984000  0.81916000  0.10190000  1.0 -0.2809074092
N  N31  1  0.29391000  0.39849000  0.87750000  1.0 -0.2879064251
N  N32  1  0.10360000  0.20840000  0.06690000  1.0 -0.2809074092
N  N33  1  0.11249000  0.35471000  0.90610000  1.0 -0.1256216709
N  N34  1  0.79922000  0.36038000  0.76720000  1.0 -0.2474015374
N  N35  1  0.75184000  0.40716000  0.72060000  1.0 -0.2313225809
N  N36  1  0.93667000  0.54273000  0.72270000  1.0 0.0724975104
N  N37  1  0.04482000  0.65018000  0.70510000  1.0 -0.4438415039
N  N38  1  0.74897000  0.71763000  0.53730000  1.0 -0.1226761211
N  N39  1  0.57732000  0.69648000  0.54610000  1.0 -0.2879064251
N  N40  1  0.81916000  0.90984000  0.39810000  1.0 -0.2809074092
