# DDEC6 charges by PACMAN v1.1 (https://github.com/mtap-research/PACMAN-charge/)
data_HERMEZ02_FSR_pacman
_symmetry_space_group_name_H-M   'P 1'
_cell_length_a   12.89080000
_cell_length_b   16.35200000
_cell_length_c   17.10000000
_cell_angle_alpha   111.60200000
_cell_angle_beta   111.43600000
_cell_angle_gamma   90.00300000
_symmetry_Int_Tables_number   1
_chemical_formula_structural   FeAg2H10(C8N5)2
_chemical_formula_sum   'Fe4 Ag8 H40 C64 N40'
_cell_volume   3081.56338427
_cell_formula_units_Z   4
loop_
 _symmetry_equiv_pos_site_id
 _symmetry_equiv_pos_as_xyz
  1  'x, y, z'
loop_
 _atom_site_type_symbol
 _atom_site_label
 _atom_site_symmetry_multiplicity
 _atom_site_fract_x
 _atom_site_fract_y
 _atom_site_fract_z
 _atom_site_occupancy
 _atom_site_charge
Fe  Fe1  1  0.30191000  0.53032000  0.60618000  1.0 0.5558098047
Fe  Fe2  1  0.80221000  0.02981000  0.60625000  1.0 0.7720861523
Fe  Fe3  1  0.69809000  0.46968000  0.39382000  1.0 0.5558098047
Fe  Fe4  1  0.19779000  0.97019000  0.39375000  1.0 0.7720861523
Ag  Ag1  1  0.54306000  0.78090000  0.60657000  1.0 0.1496922586
Ag  Ag2  1  0.55815000  0.29423000  0.60991000  1.0 0.1399477477
Ag  Ag3  1  0.02540000  0.75422000  0.59665000  1.0 0.1496922586
Ag  Ag4  1  0.07563000  0.26796000  0.60076000  1.0 0.1399477477
Ag  Ag5  1  0.45694000  0.21910000  0.39343000  1.0 0.1399477477
Ag  Ag6  1  0.44185000  0.70577000  0.39009000  1.0 0.1399477477
Ag  Ag7  1  0.97460000  0.24578000  0.40335000  1.0 0.1496922586
Ag  Ag8  1  0.92437000  0.73204000  0.39924000  1.0 0.1399477477
H  H1  1  0.66070000  0.74360000  0.06990000  1.0 0.2697713314
H  H2  1  0.63230000  0.82960000  0.06950000  1.0 0.2620146363
H  H3  1  0.91560000  0.25110000  0.08710000  1.0 0.2697713314
H  H4  1  0.94050000  0.33570000  0.08230000  1.0 0.2620146363
H  H5  1  0.19850000  0.57580000  0.74110000  1.0 0.1179545854
H  H6  1  0.24520000  0.64930000  0.89620000  1.0 0.1179545854
H  H7  1  0.56960000  0.70270000  0.93010000  1.0 0.1111709497
H  H8  1  0.51320000  0.62780000  0.77370000  1.0 0.1179545854
H  H9  1  0.45260000  0.91310000  0.30570000  1.0 0.1399477477
H  H10  1  0.56140000  0.99460000  0.45810000  1.0 0.1111709497
H  H11  1  0.83520000  0.91100000  0.42710000  1.0 0.1111709497
H  H12  1  0.73420000  0.82420000  0.27400000  1.0 0.1179545854
H  H13  1  0.40310000  0.48830000  0.46910000  1.0 0.1111709497
H  H14  1  0.35840000  0.40860000  0.31630000  1.0 0.1399477477
H  H15  1  0.03890000  0.34290000  0.28640000  1.0 0.1111709497
H  H16  1  0.09200000  0.42800000  0.44070000  1.0 0.1111709497
H  H17  1  0.15270000  0.15090000  0.90360000  1.0 0.1179545854
H  H18  1  0.04340000  0.07730000  0.75000000  1.0 0.1179545854
H  H19  1  0.76740000  0.13860000  0.78890000  1.0 0.1111709497
H  H20  1  0.86720000  0.21360000  0.94510000  1.0 0.1111709497
H  H21  1  0.33930000  0.25640000  0.93010000  1.0 0.2697713314
H  H22  1  0.36770000  0.17040000  0.93050000  1.0 0.2620146363
H  H23  1  0.08440000  0.74890000  0.91290000  1.0 0.2697713314
H  H24  1  0.05950000  0.66430000  0.91770000  1.0 0.2620146363
H  H25  1  0.80150000  0.42420000  0.25890000  1.0 0.1179545854
H  H26  1  0.75480000  0.35070000  0.10380000  1.0 0.1111709497
H  H27  1  0.43040000  0.29730000  0.06990000  1.0 0.1111709497
H  H28  1  0.48680000  0.37220000  0.22630000  1.0 0.1179545854
H  H29  1  0.54740000  0.08690000  0.69430000  1.0 0.1399477477
H  H30  1  0.43860000  0.00540000  0.54190000  1.0 0.1111709497
H  H31  1  0.16480000  0.08900000  0.57290000  1.0 0.1111709497
H  H32  1  0.26580000  0.17580000  0.72600000  1.0 0.1179545854
H  H33  1  0.59690000  0.51170000  0.53090000  1.0 0.1111709497
H  H34  1  0.64160000  0.59140000  0.68370000  1.0 0.1399477477
H  H35  1  0.96110000  0.65710000  0.71360000  1.0 0.1111709497
H  H36  1  0.90800000  0.57200000  0.55930000  1.0 0.1111709497
H  H37  1  0.84730000  0.84910000  0.09640000  1.0 0.1179545854
H  H38  1  0.95660000  0.92270000  0.25000000  1.0 0.1179545854
H  H39  1  0.23260000  0.86140000  0.21110000  1.0 0.1111709497
H  H40  1  0.13280000  0.78640000  0.05490000  1.0 0.1111709497
C  C1  1  0.27460000  0.60200000  0.78000000  1.0 0.0799615799
C  C2  1  0.30190000  0.64600000  0.87250000  1.0 -0.1804129219
C  C3  1  0.41300000  0.68590000  0.93150000  1.0 0.0799615799
C  C4  1  0.49270000  0.67760000  0.89280000  1.0 -0.2100562235
C  C5  1  0.45810000  0.63240000  0.79920000  1.0 0.0951349898
C  C6  1  0.43440000  0.73130000  0.02900000  1.0 0.1496922586
C  C7  1  0.50620000  0.80520000  0.17630000  1.0 0.1758174537
C  C8  1  0.58060000  0.85800000  0.27170000  1.0 0.0799615799
C  C9  1  0.53110000  0.91070000  0.32920000  1.0 -0.1609473289
C  C10  1  0.59660000  0.95920000  0.42010000  1.0 0.0901358894
C  C11  1  0.75600000  0.91020000  0.40200000  1.0 0.0901358894
C  C12  1  0.69660000  0.85870000  0.31030000  1.0 -0.1921481402
C  C13  1  0.32810000  0.45840000  0.43150000  1.0 0.0799615799
C  C14  1  0.30230000  0.41060000  0.34040000  1.0 -0.1804129219
C  C15  1  0.19320000  0.36470000  0.28280000  1.0 0.0799615799
C  C16  1  0.11440000  0.37230000  0.32270000  1.0 -0.1997489692
C  C17  1  0.14700000  0.42290000  0.41500000  1.0 0.0685881241
C  C18  1  0.17190000  0.31160000  0.18690000  1.0 0.1659837453
C  C19  1  0.09880000  0.23750000  0.03990000  1.0 0.1599633186
C  C20  1  0.02310000  0.19210000  0.94290000  1.0 0.0901358894
C  C21  1  0.07330000  0.14960000  0.88180000  1.0 -0.1804129219
C  C22  1  0.00730000  0.10590000  0.79020000  1.0 0.0901358894
C  C23  1  0.84700000  0.14140000  0.81300000  1.0 0.1111709497
C  C24  1  0.90590000  0.18670000  0.90660000  1.0 -0.2100562235
C  C25  1  0.44900000  0.67760000  0.60360000  1.0 -0.0203940244
C  C26  1  0.11750000  0.65040000  0.58950000  1.0 -0.0203940244
C  C27  1  0.16270000  0.37820000  0.60800000  1.0 -0.0099146055
C  C28  1  0.47720000  0.40310000  0.62090000  1.0 -0.0203940244
C  C29  1  0.64480000  0.18840000  0.60600000  1.0 -0.0099146055
C  C30  1  0.98010000  0.16140000  0.59200000  1.0 -0.0099146055
C  C31  1  0.94760000  0.86550000  0.60550000  1.0 -0.0099146055
C  C32  1  0.63310000  0.89130000  0.61880000  1.0 -0.0099146055
C  C33  1  0.72540000  0.39800000  0.22000000  1.0 0.0799615799
C  C34  1  0.69810000  0.35400000  0.12750000  1.0 -0.1804129219
C  C35  1  0.58700000  0.31410000  0.06850000  1.0 0.0799615799
C  C36  1  0.50730000  0.32240000  0.10720000  1.0 -0.2100562235
C  C37  1  0.54190000  0.36760000  0.20080000  1.0 0.0901358894
C  C38  1  0.56560000  0.26870000  0.97100000  1.0 0.1496922586
C  C39  1  0.49380000  0.19480000  0.82370000  1.0 0.1758174537
C  C40  1  0.41940000  0.14200000  0.72830000  1.0 0.0799615799
C  C41  1  0.46890000  0.08930000  0.67080000  1.0 -0.1609473289
C  C42  1  0.40340000  0.04080000  0.57990000  1.0 0.0901358894
C  C43  1  0.24400000  0.08980000  0.59800000  1.0 0.0901358894
C  C44  1  0.30340000  0.14130000  0.68970000  1.0 -0.1921481402
C  C45  1  0.67190000  0.54160000  0.56850000  1.0 0.0799615799
C  C46  1  0.69770000  0.58940000  0.65960000  1.0 -0.1804129219
C  C47  1  0.80680000  0.63530000  0.71720000  1.0 0.0799615799
C  C48  1  0.88560000  0.62770000  0.67730000  1.0 -0.1997489692
C  C49  1  0.85300000  0.57710000  0.58500000  1.0 0.0685881241
C  C50  1  0.82810000  0.68840000  0.81310000  1.0 0.1599633186
C  C51  1  0.90120000  0.76250000  0.96010000  1.0 0.1496922586
C  C52  1  0.97690000  0.80790000  0.05710000  1.0 0.0901358894
C  C53  1  0.92670000  0.85040000  0.11820000  1.0 -0.1804129219
C  C54  1  0.99270000  0.89410000  0.20980000  1.0 0.0901358894
C  C55  1  0.15300000  0.85860000  0.18700000  1.0 0.1111709497
C  C56  1  0.09410000  0.81330000  0.09340000  1.0 -0.2100562235
C  C57  1  0.55100000  0.32240000  0.39640000  1.0 -0.0203940244
C  C58  1  0.88250000  0.34960000  0.41050000  1.0 -0.0203940244
C  C59  1  0.83730000  0.62180000  0.39200000  1.0 -0.0099146055
C  C60  1  0.52280000  0.59690000  0.37910000  1.0 -0.0260591512
C  C61  1  0.35520000  0.81160000  0.39400000  1.0 -0.0099146055
C  C62  1  0.01990000  0.83860000  0.40800000  1.0 -0.0099146055
C  C63  1  0.05240000  0.13450000  0.39450000  1.0 -0.0043823111
C  C64  1  0.36690000  0.10870000  0.38120000  1.0 -0.0099146055
N  N1  1  0.35120000  0.59450000  0.74220000  1.0 -0.1270062184
N  N2  1  0.35300000  0.73280000  0.05830000  1.0 -0.2521731207
N  N3  1  0.39840000  0.77940000  0.15160000  1.0 -0.2342749845
N  N4  1  0.53270000  0.77610000  0.10110000  1.0 0.0685881241
N  N5  1  0.63890000  0.79380000  0.09970000  1.0 -0.4419722916
N  N6  1  0.70800000  0.95910000  0.45770000  1.0 -0.2100562235
N  N7  1  0.25330000  0.46540000  0.47070000  1.0 -0.1270062184
N  N8  1  0.25550000  0.28600000  0.16040000  1.0 -0.2359537692
N  N9  1  0.20810000  0.23930000  0.06730000  1.0 -0.2521731207
N  N10  1  0.07240000  0.28290000  0.11280000  1.0 0.0685881241
N  N11  1  0.96570000  0.30140000  0.11400000  1.0 -0.4504862638
N  N12  1  0.89500000  0.10140000  0.75450000  1.0 -0.2100562235
N  N13  1  0.39610000  0.62250000  0.60460000  1.0 -0.2860748084
N  N14  1  0.17920000  0.60030000  0.58990000  1.0 -0.2785459669
N  N15  1  0.20980000  0.43700000  0.60750000  1.0 -0.2785459669
N  N16  1  0.42210000  0.45840000  0.62170000  1.0 -0.2860748084
N  N17  1  0.69650000  0.13160000  0.60540000  1.0 -0.339532482
N  N18  1  0.92080000  0.10560000  0.58690000  1.0 -0.339532482
N  N19  1  0.90420000  0.92680000  0.60690000  1.0 -0.339532482
N  N20  1  0.68480000  0.95230000  0.62470000  1.0 -0.339532482
N  N21  1  0.64880000  0.40550000  0.25780000  1.0 -0.1270062184
N  N22  1  0.64700000  0.26720000  0.94170000  1.0 -0.2521731207
N  N23  1  0.60160000  0.22060000  0.84840000  1.0 -0.2342749845
N  N24  1  0.46730000  0.22390000  0.89890000  1.0 0.0685881241
N  N25  1  0.36110000  0.20620000  0.90030000  1.0 -0.4419722916
N  N26  1  0.29200000  0.04090000  0.54230000  1.0 -0.2100562235
N  N27  1  0.74670000  0.53460000  0.52930000  1.0 -0.1270062184
N  N28  1  0.74450000  0.71400000  0.83960000  1.0 -0.2342749845
N  N29  1  0.79190000  0.76070000  0.93270000  1.0 -0.2521731207
N  N30  1  0.92760000  0.71710000  0.88720000  1.0 0.0685881241
N  N31  1  0.03430000  0.69860000  0.88600000  1.0 -0.4504862638
N  N32  1  0.10500000  0.89860000  0.24550000  1.0 -0.2100562235
N  N33  1  0.60390000  0.37750000  0.39540000  1.0 -0.2860748084
N  N34  1  0.82080000  0.39970000  0.41010000  1.0 -0.2785459669
N  N35  1  0.79020000  0.56300000  0.39250000  1.0 -0.2785459669
N  N36  1  0.57790000  0.54160000  0.37830000  1.0 -0.2860748084
N  N37  1  0.30350000  0.86840000  0.39460000  1.0 -0.339532482
N  N38  1  0.07920000  0.89440000  0.41310000  1.0 -0.339532482
N  N39  1  0.09580000  0.07320000  0.39310000  1.0 -0.339532482
N  N40  1  0.31520000  0.04770000  0.37530000  1.0 -0.339532482
