# DDEC6 charges by PACMAN v1.1 (https://github.com/mtap-research/PACMAN-charge/)
data_HERMEZ04_ASR_pacman
_symmetry_space_group_name_H-M   'P 1'
_cell_length_a   17.24130000
_cell_length_b   17.24130000
_cell_length_c   16.71730000
_cell_angle_alpha   69.25270000
_cell_angle_beta   110.74700000
_cell_angle_gamma   135.87800000
_symmetry_Int_Tables_number   1
_chemical_formula_structural   FeAg2H10(C8N5)2
_chemical_formula_sum   'Fe4 Ag8 H40 C64 N40'
_cell_volume   3196.95572162
_cell_formula_units_Z   4
loop_
 _symmetry_equiv_pos_site_id
 _symmetry_equiv_pos_as_xyz
  1  'x, y, z'
loop_
 _atom_site_type_symbol
 _atom_site_label
 _atom_site_symmetry_multiplicity
 _atom_site_fract_x
 _atom_site_fract_y
 _atom_site_fract_z
 _atom_site_occupancy
 _atom_site_charge
Fe  Fe1  1  0.69667000  0.80391000  0.46859000  1.0 0.7728642653
Fe  Fe2  1  0.80391000  0.69667000  0.03141000  1.0 0.7728642653
Fe  Fe3  1  0.30333000  0.19609000  0.53141000  1.0 0.7728642653
Fe  Fe4  1  0.19609000  0.30333000  0.96859000  1.0 0.7728642653
Ag  Ag1  1  0.45031000  0.55875000  0.21230000  1.0 0.1560384091
Ag  Ag2  1  0.92497000  0.02463000  0.73791000  1.0 0.1519093681
Ag  Ag3  1  0.55875000  0.45031000  0.28770000  1.0 0.1560384091
Ag  Ag4  1  0.02463000  0.92497000  0.76209000  1.0 0.1519093681
Ag  Ag5  1  0.54969000  0.44125000  0.78770000  1.0 0.1560384091
Ag  Ag6  1  0.07503000  0.97537000  0.26209000  1.0 0.1519093681
Ag  Ag7  1  0.44125000  0.54969000  0.71230000  1.0 0.1560384091
Ag  Ag8  1  0.97537000  0.07503000  0.23791000  1.0 0.1519093681
H  H1  1  0.34080000  0.91880000  0.25110000  1.0 0.2770780753
H  H2  1  0.36880000  0.94620000  0.16320000  1.0 0.2770780753
H  H3  1  0.79400000  0.04580000  0.42220000  1.0 0.1167303324
H  H4  1  0.75170000  0.15530000  0.34930000  1.0 0.1167303324
H  H5  1  0.43150000  0.87190000  0.28550000  1.0 0.109445876
H  H6  1  0.48430000  0.77150000  0.36130000  1.0 0.1167303324
H  H7  1  0.54730000  0.35550000  0.08420000  1.0 0.143574072
H  H8  1  0.43800000  0.39640000  0.00520000  1.0 0.109445876
H  H9  1  0.16620000  0.09700000  0.08560000  1.0 0.109445876
H  H10  1  0.26730000  0.04750000  0.17050000  1.0 0.1167303324
H  H11  1  0.91880000  0.34080000  0.24890000  1.0 0.2770780753
H  H12  1  0.94620000  0.36880000  0.33680000  1.0 0.2770780753
H  H13  1  0.04580000  0.79400000  0.07780000  1.0 0.1167303324
H  H14  1  0.15530000  0.75170000  0.15070000  1.0 0.1167303324
H  H15  1  0.87190000  0.43150000  0.21450000  1.0 0.109445876
H  H16  1  0.77150000  0.48430000  0.13870000  1.0 0.1167303324
H  H17  1  0.35550000  0.54730000  0.41580000  1.0 0.143574072
H  H18  1  0.39640000  0.43800000  0.49480000  1.0 0.109445876
H  H19  1  0.09700000  0.16620000  0.41440000  1.0 0.109445876
H  H20  1  0.04750000  0.26730000  0.32950000  1.0 0.1167303324
H  H21  1  0.65920000  0.08120000  0.74890000  1.0 0.2770780753
H  H22  1  0.63120000  0.05380000  0.83680000  1.0 0.2770780753
H  H23  1  0.20600000  0.95420000  0.57780000  1.0 0.1167303324
H  H24  1  0.24830000  0.84470000  0.65070000  1.0 0.1167303324
H  H25  1  0.56850000  0.12810000  0.71450000  1.0 0.109445876
H  H26  1  0.51570000  0.22850000  0.63870000  1.0 0.1167303324
H  H27  1  0.45270000  0.64450000  0.91580000  1.0 0.143574072
H  H28  1  0.56200000  0.60360000  0.99480000  1.0 0.109445876
H  H29  1  0.83380000  0.90300000  0.91440000  1.0 0.109445876
H  H30  1  0.73270000  0.95250000  0.82950000  1.0 0.1167303324
H  H31  1  0.08120000  0.65920000  0.75110000  1.0 0.2770780753
H  H32  1  0.05380000  0.63120000  0.66320000  1.0 0.2770780753
H  H33  1  0.95420000  0.20600000  0.92220000  1.0 0.1167303324
H  H34  1  0.84470000  0.24830000  0.84930000  1.0 0.1167303324
H  H35  1  0.12810000  0.56850000  0.78550000  1.0 0.109445876
H  H36  1  0.22850000  0.51570000  0.86130000  1.0 0.1167303324
H  H37  1  0.64450000  0.45270000  0.58420000  1.0 0.143574072
H  H38  1  0.60360000  0.56200000  0.50520000  1.0 0.109445876
H  H39  1  0.90300000  0.83380000  0.58560000  1.0 0.109445876
H  H40  1  0.95250000  0.73270000  0.67050000  1.0 0.1167303324
C  C1  1  0.54144000  0.64536000  0.31520000  1.0 -0.0075608133
C  C2  1  0.84091000  0.94929000  0.62870000  1.0 -9.09232e-05
C  C3  1  0.71998000  0.01042000  0.39410000  1.0 0.0889571793
C  C4  1  0.69531000  0.07689000  0.35040000  1.0 -0.1824401673
C  C5  1  0.58651000  0.02689000  0.30800000  1.0 0.0832601161
C  C6  1  0.50638000  0.90982000  0.31270000  1.0 -0.2171028275
C  C7  1  0.53910000  0.85030000  0.35840000  1.0 0.109445876
C  C8  1  0.56647000  0.10273000  0.26230000  1.0 0.1519093681
C  C9  1  0.49509000  0.17691000  0.18950000  1.0 0.1803109291
C  C10  1  0.42054000  0.19706000  0.13720000  1.0 0.0832601161
C  C11  1  0.46954000  0.30126000  0.08640000  1.0 -0.1605950613
C  C12  1  0.40321000  0.32479000  0.03890000  1.0 0.0889571793
C  C13  1  0.24458000  0.15022000  0.08620000  1.0 0.0889571793
C  C14  1  0.30412000  0.11928000  0.13690000  1.0 -0.1946589519
C  C15  1  0.36231000  0.48349000  0.10320000  1.0 -0.0075608133
C  C16  1  0.02017000  0.11103000  0.84210000  1.0 -0.0075608133
C  C17  1  0.64536000  0.54144000  0.18480000  1.0 -0.0075608133
C  C18  1  0.94929000  0.84091000  0.87130000  1.0 -9.09232e-05
C  C19  1  0.01042000  0.71998000  0.10590000  1.0 0.0889571793
C  C20  1  0.07689000  0.69531000  0.14960000  1.0 -0.1824401673
C  C21  1  0.02689000  0.58651000  0.19200000  1.0 0.0832601161
C  C22  1  0.90982000  0.50638000  0.18730000  1.0 -0.2171028275
C  C23  1  0.85030000  0.53910000  0.14160000  1.0 0.109445876
C  C24  1  0.10273000  0.56647000  0.23770000  1.0 0.1519093681
C  C25  1  0.17691000  0.49509000  0.31050000  1.0 0.1803109291
C  C26  1  0.19706000  0.42054000  0.36280000  1.0 0.0832601161
C  C27  1  0.30126000  0.46954000  0.41360000  1.0 -0.1605950613
C  C28  1  0.32479000  0.40321000  0.46110000  1.0 0.0889571793
C  C29  1  0.15022000  0.24458000  0.41380000  1.0 0.0889571793
C  C30  1  0.11928000  0.30412000  0.36310000  1.0 -0.195138501
C  C31  1  0.48349000  0.36231000  0.39680000  1.0 -0.0075608133
C  C32  1  0.11103000  0.02017000  0.65790000  1.0 -0.0075608133
C  C33  1  0.45856000  0.35464000  0.68480000  1.0 -0.0075608133
C  C34  1  0.15909000  0.05071000  0.37130000  1.0 0.0002665687
C  C35  1  0.28002000  0.98958000  0.60590000  1.0 0.0889571793
C  C36  1  0.30469000  0.92311000  0.64960000  1.0 -0.1824401673
C  C37  1  0.41349000  0.97311000  0.69200000  1.0 0.0832601161
C  C38  1  0.49362000  0.09018000  0.68730000  1.0 -0.2171028275
C  C39  1  0.46090000  0.14970000  0.64160000  1.0 0.109445876
C  C40  1  0.43353000  0.89727000  0.73770000  1.0 0.1519093681
C  C41  1  0.50491000  0.82309000  0.81050000  1.0 0.1803109291
C  C42  1  0.57946000  0.80294000  0.86280000  1.0 0.0832601161
C  C43  1  0.53046000  0.69874000  0.91360000  1.0 -0.1605950613
C  C44  1  0.59679000  0.67521000  0.96110000  1.0 0.0889571793
C  C45  1  0.75542000  0.84978000  0.91380000  1.0 0.0889571793
C  C46  1  0.69588000  0.88072000  0.86310000  1.0 -0.195138501
C  C47  1  0.63769000  0.51651000  0.89680000  1.0 -0.0075608133
C  C48  1  0.97983000  0.88897000  0.15790000  1.0 -0.0075608133
C  C49  1  0.35464000  0.45856000  0.81520000  1.0 -0.0075608133
C  C50  1  0.05071000  0.15909000  0.12870000  1.0 -9.09232e-05
C  C51  1  0.98958000  0.28002000  0.89410000  1.0 0.0889571793
C  C52  1  0.92311000  0.30469000  0.85040000  1.0 -0.1824401673
C  C53  1  0.97311000  0.41349000  0.80800000  1.0 0.0832601161
C  C54  1  0.09018000  0.49362000  0.81270000  1.0 -0.2171028275
C  C55  1  0.14970000  0.46090000  0.85840000  1.0 0.109445876
C  C56  1  0.89727000  0.43353000  0.76230000  1.0 0.1519093681
C  C57  1  0.82309000  0.50491000  0.68950000  1.0 0.1803109291
C  C58  1  0.80294000  0.57946000  0.63720000  1.0 0.0832601161
C  C59  1  0.69874000  0.53046000  0.58640000  1.0 -0.1605950613
C  C60  1  0.67521000  0.59679000  0.53890000  1.0 0.0889571793
C  C61  1  0.84978000  0.75542000  0.58620000  1.0 0.0889571793
C  C62  1  0.88072000  0.69588000  0.63690000  1.0 -0.1946589519
C  C63  1  0.51651000  0.63769000  0.60320000  1.0 -0.0075608133
C  C64  1  0.88897000  0.97983000  0.34210000  1.0 -0.0075608133
N  N1  1  0.59330000  0.69750000  0.36974000  1.0 -0.3459806014
N  N2  1  0.79663000  0.90617000  0.56915000  1.0 -0.3416827911
N  N3  1  0.64331000  0.89789000  0.39830000  1.0 -0.2097664271
N  N4  1  0.64779000  0.21221000  0.26090000  1.0 -0.2501456347
N  N5  1  0.60295000  0.25965000  0.21420000  1.0 -0.2352211941
N  N6  1  0.46856000  0.07664000  0.21789000  1.0 0.0685402863
N  N7  1  0.36232000  0.97028000  0.19930000  1.0 -0.4637500215
N  N8  1  0.29192000  0.25134000  0.03818000  1.0 -0.2097664271
N  N9  1  0.31211000  0.43909000  0.04420000  1.0 -0.3416827911
N  N10  1  0.07842000  0.16518000  0.89557000  1.0 -0.3416827911
N  N11  1  0.69750000  0.59330000  0.13026000  1.0 -0.3459806014
N  N12  1  0.90617000  0.79663000  0.93085000  1.0 -0.3416827911
N  N13  1  0.89789000  0.64331000  0.10170000  1.0 -0.2097664271
N  N14  1  0.21221000  0.64779000  0.23910000  1.0 -0.2501456347
N  N15  1  0.25965000  0.60295000  0.28580000  1.0 -0.2352211941
N  N16  1  0.07664000  0.46856000  0.28211000  1.0 0.0685402863
N  N17  1  0.97028000  0.36232000  0.30070000  1.0 -0.4637500215
N  N18  1  0.25134000  0.29192000  0.46182000  1.0 -0.2097664271
N  N19  1  0.43909000  0.31211000  0.45580000  1.0 -0.3416827911
N  N20  1  0.16518000  0.07842000  0.60443000  1.0 -0.3416827911
N  N21  1  0.40670000  0.30250000  0.63026000  1.0 -0.3459806014
N  N22  1  0.20337000  0.09383000  0.43085000  1.0 -0.3416827911
N  N23  1  0.35669000  0.10211000  0.60170000  1.0 -0.2097664271
N  N24  1  0.35221000  0.78779000  0.73910000  1.0 -0.2501456347
N  N25  1  0.39705000  0.74035000  0.78580000  1.0 -0.2352211941
N  N26  1  0.53144000  0.92336000  0.78211000  1.0 0.0685402863
N  N27  1  0.63768000  0.02972000  0.80070000  1.0 -0.4637500215
N  N28  1  0.70808000  0.74866000  0.96182000  1.0 -0.2097664271
N  N29  1  0.68789000  0.56091000  0.95580000  1.0 -0.3416827911
N  N30  1  0.92158000  0.83482000  0.10443000  1.0 -0.3416827911
N  N31  1  0.30250000  0.40670000  0.86974000  1.0 -0.3459806014
N  N32  1  0.09383000  0.20337000  0.06915000  1.0 -0.3416827911
N  N33  1  0.10211000  0.35669000  0.89830000  1.0 -0.2097664271
N  N34  1  0.78779000  0.35221000  0.76090000  1.0 -0.2501456347
N  N35  1  0.74035000  0.39705000  0.71420000  1.0 -0.2352211941
N  N36  1  0.92336000  0.53144000  0.71789000  1.0 0.0685402863
N  N37  1  0.02972000  0.63768000  0.69930000  1.0 -0.4637500215
N  N38  1  0.74866000  0.70808000  0.53818000  1.0 -0.2097664271
N  N39  1  0.56091000  0.68789000  0.54420000  1.0 -0.3416827911
N  N40  1  0.83482000  0.92158000  0.39557000  1.0 -0.3416827911
