# DDEC6 charges by PACMAN v1.1 (https://github.com/mtap-research/PACMAN-charge/)
data_HERMEZ03_FSR_pacman
_symmetry_space_group_name_H-M   'P 1'
_cell_length_a   12.89700000
_cell_length_b   17.18780000
_cell_length_c   31.29550000
_cell_angle_alpha   80.28120000
_cell_angle_beta   78.13830000
_cell_angle_gamma   67.96960000
_symmetry_Int_Tables_number   1
_chemical_formula_structural   FeAg2H10(C8N5)2
_chemical_formula_sum   'Fe8 Ag16 H80 C128 N80'
_cell_volume   6261.21792961
_cell_formula_units_Z   8
loop_
 _symmetry_equiv_pos_site_id
 _symmetry_equiv_pos_as_xyz
  1  'x, y, z'
loop_
 _atom_site_type_symbol
 _atom_site_label
 _atom_site_symmetry_multiplicity
 _atom_site_fract_x
 _atom_site_fract_y
 _atom_site_fract_z
 _atom_site_occupancy
 _atom_site_charge
Fe  Fe1  1  0.80381000  0.65832000  0.73398000  1.0 0.8063498548
Fe  Fe2  1  0.30302000  0.90865000  0.48464000  1.0 0.8063498548
Fe  Fe3  1  0.80356000  0.15891000  0.23506000  1.0 0.7923299135
Fe  Fe4  1  0.30332000  0.40850000  0.98446000  1.0 0.7923299135
Fe  Fe5  1  0.19619000  0.34168000  0.26602000  1.0 0.8063498548
Fe  Fe6  1  0.69698000  0.09135000  0.51536000  1.0 0.8063498548
Fe  Fe7  1  0.19644000  0.84109000  0.76494000  1.0 0.7923299135
Fe  Fe8  1  0.69668000  0.59150000  0.01554000  1.0 0.7951350472
Ag  Ag1  1  0.54941000  0.53513000  0.85577000  1.0 0.1501754876
Ag  Ag2  1  0.55973000  0.78516000  0.60574000  1.0 0.1501754876
Ag  Ag3  1  0.07465000  0.78152000  0.61872000  1.0 0.1501754876
Ag  Ag4  1  0.02523000  0.53148000  0.86863000  1.0 0.1501754876
Ag  Ag5  1  0.54858000  0.03536000  0.35650000  1.0 0.1501754876
Ag  Ag6  1  0.02484000  0.03172000  0.36968000  1.0 0.1501754876
Ag  Ag7  1  0.55964000  0.28523000  0.10640000  1.0 0.1501754876
Ag  Ag8  1  0.07391000  0.28164000  0.11946000  1.0 0.1501754876
Ag  Ag9  1  0.45059000  0.46487000  0.14423000  1.0 0.1501754876
Ag  Ag10  1  0.44027000  0.21484000  0.39426000  1.0 0.1501754876
Ag  Ag11  1  0.92535000  0.21848000  0.38128000  1.0 0.1501754876
Ag  Ag12  1  0.97477000  0.46852000  0.13137000  1.0 0.1501754876
Ag  Ag13  1  0.45142000  0.96464000  0.64350000  1.0 0.1501754876
Ag  Ag14  1  0.97516000  0.96828000  0.63032000  1.0 0.1501754876
Ag  Ag15  1  0.44036000  0.71477000  0.89360000  1.0 0.1501754876
Ag  Ag16  1  0.92609000  0.71836000  0.88054000  1.0 0.1501754876
H  H1  1  0.91640000  0.29600000  0.62580000  1.0 0.2721348963
H  H2  1  0.94200000  0.34130000  0.58250000  1.0 0.2721348963
H  H3  1  0.66200000  0.54510000  0.37600000  1.0 0.2752639911
H  H4  1  0.63410000  0.59080000  0.33280000  1.0 0.2721348963
H  H5  1  0.91640000  0.79640000  0.12590000  1.0 0.2752639911
H  H6  1  0.94380000  0.84020000  0.08220000  1.0 0.2721348963
H  H7  1  0.66220000  0.04500000  0.87590000  1.0 0.2721348963
H  H8  1  0.63320000  0.09100000  0.83280000  1.0 0.2721348963
H  H9  1  0.04530000  0.53820000  0.71160000  1.0 0.1165072872
H  H10  1  0.15350000  0.42320000  0.67460000  1.0 0.1165072872
H  H11  1  0.86810000  0.41750000  0.64350000  1.0 0.1100960287
H  H12  1  0.76730000  0.53260000  0.68180000  1.0 0.1165072872
H  H13  1  0.35590000  0.14700000  0.54200000  1.0 0.1425822935
H  H14  1  0.39840000  0.03520000  0.50420000  1.0 0.1100960287
H  H15  1  0.09520000  0.02880000  0.53770000  1.0 0.1012662369
H  H16  1  0.04530000  0.13140000  0.58530000  1.0 0.1165072872
H  H17  1  0.20190000  0.79100000  0.46140000  1.0 0.1165072872
H  H18  1  0.24880000  0.67370000  0.42500000  1.0 0.1165072872
H  H19  1  0.56860000  0.66860000  0.39470000  1.0 0.1100960287
H  H20  1  0.51580000  0.78480000  0.43190000  1.0 0.1165072872
H  H21  1  0.45400000  0.39720000  0.29350000  1.0 0.1425822935
H  H22  1  0.55990000  0.28790000  0.25430000  1.0 0.1165072872
H  H23  1  0.83720000  0.27680000  0.29190000  1.0 0.1100960287
H  H24  1  0.73550000  0.38510000  0.33500000  1.0 0.1100960287
H  H25  1  0.04530000  0.04050000  0.21160000  1.0 0.1165072872
H  H26  1  0.15390000  0.92270000  0.17570000  1.0 0.1165072872
H  H27  1  0.86990000  0.91740000  0.14390000  1.0 0.1100960287
H  H28  1  0.76890000  0.03380000  0.18170000  1.0 0.1165072872
H  H29  1  0.35560000  0.64750000  0.04320000  1.0 0.1425822935
H  H30  1  0.39840000  0.53660000  0.00280000  1.0 0.1100960287
H  H31  1  0.09240000  0.52690000  0.04440000  1.0 0.1100960287
H  H32  1  0.04480000  0.63620000  0.08420000  1.0 0.1100960287
H  H33  1  0.20520000  0.28840000  0.96150000  1.0 0.1165072872
H  H34  1  0.24730000  0.17250000  0.92500000  1.0 0.1165072872
H  H35  1  0.57060000  0.16600000  0.89310000  1.0 0.1100960287
H  H36  1  0.51730000  0.28190000  0.93130000  1.0 0.1165072872
H  H37  1  0.45430000  0.89710000  0.79200000  1.0 0.1425822935
H  H38  1  0.56460000  0.78540000  0.75230000  1.0 0.1100960287
H  H39  1  0.83760000  0.77550000  0.79160000  1.0 0.1100960287
H  H40  1  0.73640000  0.88370000  0.83460000  1.0 0.1165072872
H  H41  1  0.08360000  0.70400000  0.37420000  1.0 0.2721348963
H  H42  1  0.05800000  0.65870000  0.41750000  1.0 0.2721348963
H  H43  1  0.33800000  0.45490000  0.62400000  1.0 0.2752639911
H  H44  1  0.36590000  0.40920000  0.66720000  1.0 0.2721348963
H  H45  1  0.08360000  0.20360000  0.87410000  1.0 0.2721348963
H  H46  1  0.05620000  0.15980000  0.91780000  1.0 0.2721348963
H  H47  1  0.33780000  0.95500000  0.12410000  1.0 0.2721348963
H  H48  1  0.36680000  0.90900000  0.16720000  1.0 0.2721348963
H  H49  1  0.95470000  0.46180000  0.28840000  1.0 0.1165072872
H  H50  1  0.84650000  0.57680000  0.32540000  1.0 0.1165072872
H  H51  1  0.13190000  0.58250000  0.35650000  1.0 0.1100960287
H  H52  1  0.23270000  0.46740000  0.31820000  1.0 0.1165072872
H  H53  1  0.64410000  0.85300000  0.45800000  1.0 0.1425822935
H  H54  1  0.60160000  0.96480000  0.49580000  1.0 0.1100960287
H  H55  1  0.90480000  0.97120000  0.46230000  1.0 0.1012662369
H  H56  1  0.95470000  0.86860000  0.41470000  1.0 0.1165072872
H  H57  1  0.79810000  0.20900000  0.53860000  1.0 0.1165072872
H  H58  1  0.75120000  0.32630000  0.57500000  1.0 0.1165072872
H  H59  1  0.43140000  0.33140000  0.60530000  1.0 0.1100960287
H  H60  1  0.48420000  0.21520000  0.56810000  1.0 0.1165072872
H  H61  1  0.54600000  0.60280000  0.70650000  1.0 0.1425822935
H  H62  1  0.44010000  0.71210000  0.74570000  1.0 0.1165072872
H  H63  1  0.16280000  0.72320000  0.70810000  1.0 0.1100960287
H  H64  1  0.26450000  0.61490000  0.66500000  1.0 0.1100960287
H  H65  1  0.95470000  0.95950000  0.78840000  1.0 0.1165072872
H  H66  1  0.84610000  0.07730000  0.82430000  1.0 0.1165072872
H  H67  1  0.13010000  0.08260000  0.85610000  1.0 0.1100960287
H  H68  1  0.23110000  0.96620000  0.81830000  1.0 0.1165072872
H  H69  1  0.64440000  0.35250000  0.95680000  1.0 0.1425822935
H  H70  1  0.60160000  0.46340000  0.99720000  1.0 0.1100960287
H  H71  1  0.90760000  0.47310000  0.95560000  1.0 0.1100960287
H  H72  1  0.95520000  0.36380000  0.91580000  1.0 0.1100960287
H  H73  1  0.79480000  0.71160000  0.03850000  1.0 0.1165072872
H  H74  1  0.75270000  0.82750000  0.07500000  1.0 0.1165072872
H  H75  1  0.42940000  0.83400000  0.10690000  1.0 0.1100960287
H  H76  1  0.48270000  0.71810000  0.06870000  1.0 0.1165072872
H  H77  1  0.54570000  0.10290000  0.20800000  1.0 0.1425822935
H  H78  1  0.43540000  0.21460000  0.24770000  1.0 0.1100960287
H  H79  1  0.16240000  0.22450000  0.20840000  1.0 0.1100960287
H  H80  1  0.26360000  0.11630000  0.16540000  1.0 0.1165072872
C  C1  1  0.63930000  0.57680000  0.80150000  1.0 -0.0103542999
C  C2  1  0.64750000  0.73730000  0.65700000  1.0 -0.0103542999
C  C3  1  0.97730000  0.73670000  0.67130000  1.0 -0.0028260962
C  C4  1  0.94810000  0.57820000  0.81360000  1.0 -0.0028260962
C  C5  1  0.00920000  0.51380000  0.69740000  1.0 0.0885563651
C  C6  1  0.07450000  0.44450000  0.67550000  1.0 -0.1803062522
C  C7  1  0.02460000  0.40550000  0.65450000  1.0 0.0808338422
C  C8  1  0.90630000  0.44100000  0.65720000  1.0 -0.2111407279
C  C9  1  0.84670000  0.51050000  0.67990000  1.0 0.1100960287
C  C10  1  0.10080000  0.33170000  0.63120000  1.0 0.15745235
C  C11  1  0.17530000  0.22240000  0.59460000  1.0 0.1693742982
C  C12  1  0.19470000  0.15380000  0.56890000  1.0 0.0808338422
C  C13  1  0.30130000  0.12240000  0.54320000  1.0 -0.1666462013
C  C14  1  0.32510000  0.05630000  0.52020000  1.0 0.0808338422
C  C15  1  0.15000000  0.05070000  0.54050000  1.0 0.0885563651
C  C16  1  0.11720000  0.11480000  0.56800000  1.0 -0.1985475012
C  C17  1  0.48130000  0.82830000  0.55060000  1.0 0.0053603555
C  C18  1  0.45780000  0.98740000  0.40810000  1.0 -0.0103542999
C  C19  1  0.11370000  0.98810000  0.42270000  1.0 0.0053603555
C  C20  1  0.16040000  0.82830000  0.56370000  1.0 0.0013811734
C  C21  1  0.27710000  0.76580000  0.44790000  1.0 0.0885563651
C  C22  1  0.30490000  0.69560000  0.42590000  1.0 -0.1803062522
C  C23  1  0.41480000  0.65670000  0.40490000  1.0 0.0808338422
C  C24  1  0.49300000  0.69230000  0.40800000  1.0 -0.2111407279
C  C25  1  0.46070000  0.76220000  0.43060000  1.0 0.1100960287
C  C26  1  0.43510000  0.58280000  0.38230000  1.0 0.15745235
C  C27  1  0.50670000  0.47230000  0.34550000  1.0 0.1693742982
C  C28  1  0.58100000  0.40490000  0.31880000  1.0 0.0700746081
C  C29  1  0.53240000  0.37320000  0.29410000  1.0 -0.1544480362
C  C30  1  0.59650000  0.30800000  0.27060000  1.0 0.0700746081
C  C31  1  0.75830000  0.30080000  0.29270000  1.0 0.0808338422
C  C32  1  0.69840000  0.36640000  0.31820000  1.0 -0.1896820926
C  C33  1  0.63820000  0.07830000  0.30190000  1.0 -0.0103542999
C  C34  1  0.64740000  0.23790000  0.15830000  1.0 -0.0103542999
C  C35  1  0.97750000  0.23860000  0.17190000  1.0 -0.0103542999
C  C36  1  0.94830000  0.07840000  0.31460000  1.0 0.0013811734
C  C37  1  0.00960000  0.01510000  0.19780000  1.0 0.0885563651
C  C38  1  0.07520000  0.94490000  0.17610000  1.0 -0.1803062522
C  C39  1  0.02395000  0.90710000  0.15495000  1.0 0.0808338422
C  C40  1  0.90800000  0.94120000  0.15740000  1.0 -0.2111407279
C  C41  1  0.84800000  0.01140000  0.18020000  1.0 0.1100960287
C  C42  1  0.10060000  0.83340000  0.13240000  1.0 0.1501754876
C  C43  1  0.17440000  0.72390000  0.09570000  1.0 0.1889603696
C  C44  1  0.19569000  0.65410000  0.06901000  1.0 0.0808338422
C  C45  1  0.30100000  0.62320000  0.04380000  1.0 -0.1601190904
C  C46  1  0.32620000  0.55680000  0.01960000  1.0 0.0885563651
C  C47  1  0.14650000  0.55160000  0.04410000  1.0 0.0616890675
C  C48  1  0.11790000  0.61620000  0.06800000  1.0 -0.1803062522
C  C49  1  0.48230000  0.32720000  0.05210000  1.0 -0.0103542999
C  C50  1  0.45710000  0.48760000  0.90760000  1.0 -0.0103542999
C  C51  1  0.11230000  0.48770000  0.92070000  1.0 -0.0103542999
C  C52  1  0.15880000  0.32780000  0.06460000  1.0 -0.0103542999
C  C53  1  0.27980000  0.26340000  0.94730000  1.0 0.0885563651
C  C54  1  0.30390000  0.19410000  0.92560000  1.0 -0.1896820926
C  C55  1  0.41431000  0.15620000  0.90429000  1.0 0.0808338422
C  C56  1  0.49520000  0.19000000  0.90670000  1.0 -0.2111407279
C  C57  1  0.46190000  0.25980000  0.92960000  1.0 0.1100960287
C  C58  1  0.43480000  0.08180000  0.88180000  1.0 0.1501754876
C  C59  1  0.50660000  0.97330000  0.84500000  1.0 0.1824639997
C  C60  1  0.58230000  0.90340000  0.81860000  1.0 0.0885563651
C  C61  1  0.53250000  0.87260000  0.79300000  1.0 -0.1666462013
C  C62  1  0.59930000  0.80600000  0.76920000  1.0 0.1012662369
C  C63  1  0.75880000  0.79980000  0.79240000  1.0 0.0808338422
C  C64  1  0.69910000  0.86500000  0.81790000  1.0 -0.1985475012
C  C65  1  0.36070000  0.42320000  0.19850000  1.0 -0.0103542999
C  C66  1  0.35250000  0.26270000  0.34300000  1.0 -0.0103542999
C  C67  1  0.02270000  0.26330000  0.32870000  1.0 -0.0028260962
C  C68  1  0.05190000  0.42180000  0.18640000  1.0 -0.0028260962
C  C69  1  0.99080000  0.48620000  0.30260000  1.0 0.0885563651
C  C70  1  0.92550000  0.55550000  0.32450000  1.0 -0.1803062522
C  C71  1  0.97540000  0.59450000  0.34550000  1.0 0.0808338422
C  C72  1  0.09370000  0.55900000  0.34280000  1.0 -0.2111407279
C  C73  1  0.15330000  0.48950000  0.32010000  1.0 0.1100960287
C  C74  1  0.89920000  0.66830000  0.36880000  1.0 0.15745235
C  C75  1  0.82470000  0.77760000  0.40540000  1.0 0.1693742982
C  C76  1  0.80530000  0.84620000  0.43110000  1.0 0.0808338422
C  C77  1  0.69870000  0.87760000  0.45680000  1.0 -0.1666462013
C  C78  1  0.67490000  0.94370000  0.47980000  1.0 0.0808338422
C  C79  1  0.85000000  0.94930000  0.45950000  1.0 0.0885563651
C  C80  1  0.88280000  0.88520000  0.43200000  1.0 -0.1985475012
C  C81  1  0.51870000  0.17170000  0.44940000  1.0 0.0053603555
C  C82  1  0.54220000  0.01260000  0.59190000  1.0 -0.0103542999
C  C83  1  0.88630000  0.01190000  0.57730000  1.0 0.0053603555
C  C84  1  0.83960000  0.17170000  0.43630000  1.0 0.0013811734
C  C85  1  0.72290000  0.23420000  0.55210000  1.0 0.0885563651
C  C86  1  0.69510000  0.30440000  0.57410000  1.0 -0.1803062522
C  C87  1  0.58520000  0.34330000  0.59510000  1.0 0.0808338422
C  C88  1  0.50700000  0.30770000  0.59200000  1.0 -0.2111407279
C  C89  1  0.53930000  0.23780000  0.56940000  1.0 0.1100960287
C  C90  1  0.56490000  0.41720000  0.61770000  1.0 0.15745235
C  C91  1  0.49330000  0.52770000  0.65450000  1.0 0.1693742982
C  C92  1  0.41900000  0.59510000  0.68120000  1.0 0.0700746081
C  C93  1  0.46760000  0.62680000  0.70590000  1.0 -0.1544480362
C  C94  1  0.40350000  0.69200000  0.72940000  1.0 0.0700746081
C  C95  1  0.24170000  0.69920000  0.70730000  1.0 0.0808338422
C  C96  1  0.30160000  0.63360000  0.68180000  1.0 -0.1896820926
C  C97  1  0.36180000  0.92170000  0.69810000  1.0 -0.0103542999
C  C98  1  0.35260000  0.76210000  0.84170000  1.0 -0.0103542999
C  C99  1  0.02250000  0.76140000  0.82810000  1.0 -0.0103542999
C  C100  1  0.05170000  0.92160000  0.68540000  1.0 0.0013811734
C  C101  1  0.99040000  0.98490000  0.80220000  1.0 0.0885563651
C  C102  1  0.92480000  0.05510000  0.82390000  1.0 -0.1803062522
C  C103  1  0.97605000  0.09290000  0.84505000  1.0 0.0808338422
C  C104  1  0.09200000  0.05880000  0.84260000  1.0 -0.2111407279
C  C105  1  0.15200000  0.98860000  0.81980000  1.0 0.1100960287
C  C106  1  0.89940000  0.16660000  0.86760000  1.0 0.1501754876
C  C107  1  0.82560000  0.27610000  0.90430000  1.0 0.1889603696
C  C108  1  0.80431000  0.34590000  0.93099000  1.0 0.0808338422
C  C109  1  0.69900000  0.37680000  0.95620000  1.0 -0.1601190904
C  C110  1  0.67380000  0.44320000  0.98040000  1.0 0.0885563651
C  C111  1  0.85350000  0.44840000  0.95590000  1.0 0.0616890675
C  C112  1  0.88210000  0.38380000  0.93200000  1.0 -0.1803062522
C  C113  1  0.51770000  0.67280000  0.94790000  1.0 -0.0103542999
C  C114  1  0.54290000  0.51240000  0.09240000  1.0 -0.0103542999
C  C115  1  0.88770000  0.51230000  0.07930000  1.0 -0.0103542999
C  C116  1  0.84120000  0.67220000  0.93540000  1.0 -0.0103542999
C  C117  1  0.72020000  0.73660000  0.05270000  1.0 0.0885563651
C  C118  1  0.69610000  0.80590000  0.07440000  1.0 -0.1896820926
C  C119  1  0.58569000  0.84380000  0.09571000  1.0 0.0808338422
C  C120  1  0.50480000  0.81000000  0.09330000  1.0 -0.2111407279
C  C121  1  0.53810000  0.74020000  0.07040000  1.0 0.1100960287
C  C122  1  0.56520000  0.91820000  0.11820000  1.0 0.15745235
C  C123  1  0.49340000  0.02670000  0.15500000  1.0 0.1824639997
C  C124  1  0.41770000  0.09660000  0.18140000  1.0 0.0885563651
C  C125  1  0.46750000  0.12740000  0.20700000  1.0 -0.1666462013
C  C126  1  0.40070000  0.19400000  0.23080000  1.0 0.1012662369
C  C127  1  0.24120000  0.20020000  0.20760000  1.0 0.0808338422
C  C128  1  0.30090000  0.13500000  0.18210000  1.0 -0.1985475012
N  N1  1  0.69119000  0.60180000  0.77151000  1.0 -0.3471246619
N  N2  1  0.70060000  0.70960000  0.68520000  1.0 -0.3471246619
N  N3  1  0.91772000  0.71370000  0.69828000  1.0 -0.3406456484
N  N4  1  0.90333000  0.60730000  0.78357000  1.0 -0.3406456484
N  N5  1  0.89538000  0.54870000  0.69962000  1.0 -0.2111407279
N  N6  1  0.21020000  0.30480000  0.63080000  1.0 -0.2486515158
N  N7  1  0.25850000  0.23560000  0.60720000  1.0 -0.231116259
N  N8  1  0.07439000  0.28260000  0.60951000  1.0 0.0700746081
N  N9  1  0.96700000  0.29260000  0.60010000  1.0 -0.452268346
N  N10  1  0.25271000  0.01870000  0.51839000  1.0 -0.2111407279
N  N11  1  0.43400000  0.85300000  0.52180000  1.0 -0.3471246619
N  N12  1  0.40420000  0.96000000  0.43580000  1.0 -0.3471246619
N  N13  1  0.16880000  0.96460000  0.44840000  1.0 -0.3406456484
N  N14  1  0.20540000  0.85760000  0.53350000  1.0 -0.3406456484
N  N15  1  0.35516000  0.79940000  0.45064000  1.0 -0.2111407279
N  N16  1  0.35270000  0.55590000  0.38160000  1.0 -0.2486515158
N  N17  1  0.39770000  0.48700000  0.35820000  1.0 -0.231116259
N  N18  1  0.53242000  0.53310000  0.36018000  1.0 0.0700746081
N  N19  1  0.63970000  0.54230000  0.35040000  1.0 -0.452268346
N  N20  1  0.71041000  0.26920000  0.26899000  1.0 -0.216083672
N  N21  1  0.68960000  0.10280000  0.27240000  1.0 -0.3406456484
N  N22  1  0.70062000  0.20950000  0.18588000  1.0 -0.3471246619
N  N23  1  0.91921000  0.21460000  0.19799000  1.0 -0.3406456484
N  N24  1  0.90335000  0.10750000  0.28495000  1.0 -0.3406456484
N  N25  1  0.89559000  0.04870000  0.20011000  1.0 -0.2111407279
N  N26  1  0.21080000  0.80520000  0.13140000  1.0 -0.2486515158
N  N27  1  0.25780000  0.73630000  0.10770000  1.0 -0.231116259
N  N28  1  0.07503000  0.78320000  0.10947000  1.0 0.0700746081
N  N29  1  0.96761000  0.79210000  0.10039000  1.0 -0.452268346
N  N30  1  0.25107000  0.51970000  0.01913000  1.0 -0.2111407279
N  N31  1  0.43591000  0.35170000  0.02199000  1.0 -0.3471246619
N  N32  1  0.40507000  0.45920000  0.93523000  1.0 -0.3471246619
N  N33  1  0.16878000  0.46440000  0.94782000  1.0 -0.3406456484
N  N34  1  0.20452000  0.35730000  0.03468000  1.0 -0.3406456484
N  N35  1  0.35664000  0.29770000  0.94946000  1.0 -0.2111407279
N  N36  1  0.35420000  0.05420000  0.88070000  1.0 -0.2486515158
N  N37  1  0.39870000  0.98540000  0.85700000  1.0 -0.2350474932
N  N38  1  0.53338000  0.03230000  0.85892000  1.0 0.0616890675
N  N39  1  0.64050000  0.04200000  0.85020000  1.0 -0.4555457273
N  N40  1  0.71037000  0.76920000  0.76883000  1.0 -0.2111407279
N  N41  1  0.30881000  0.39820000  0.22849000  1.0 -0.3471246619
N  N42  1  0.29940000  0.29040000  0.31480000  1.0 -0.3471246619
N  N43  1  0.08228000  0.28630000  0.30172000  1.0 -0.3406456484
N  N44  1  0.09667000  0.39270000  0.21643000  1.0 -0.3406456484
N  N45  1  0.10462000  0.45130000  0.30038000  1.0 -0.2111407279
N  N46  1  0.78980000  0.69520000  0.36920000  1.0 -0.2486515158
N  N47  1  0.74150000  0.76440000  0.39280000  1.0 -0.231116259
N  N48  1  0.92561000  0.71740000  0.39049000  1.0 0.0700746081
N  N49  1  0.03300000  0.70740000  0.39990000  1.0 -0.452268346
N  N50  1  0.74729000  0.98130000  0.48161000  1.0 -0.2111407279
N  N51  1  0.56600000  0.14700000  0.47820000  1.0 -0.3471246619
N  N52  1  0.59580000  0.04000000  0.56420000  1.0 -0.3471246619
N  N53  1  0.83120000  0.03540000  0.55160000  1.0 -0.3406456484
N  N54  1  0.79460000  0.14240000  0.46650000  1.0 -0.3406456484
N  N55  1  0.64484000  0.20060000  0.54936000  1.0 -0.2111407279
N  N56  1  0.64730000  0.44410000  0.61840000  1.0 -0.2486515158
N  N57  1  0.60230000  0.51300000  0.64180000  1.0 -0.231116259
N  N58  1  0.46758000  0.46690000  0.63982000  1.0 0.0700746081
N  N59  1  0.36030000  0.45770000  0.64960000  1.0 -0.452268346
N  N60  1  0.28959000  0.73080000  0.73101000  1.0 -0.216083672
N  N61  1  0.31040000  0.89720000  0.72760000  1.0 -0.3471246619
N  N62  1  0.29938000  0.79050000  0.81412000  1.0 -0.3471246619
N  N63  1  0.08079000  0.78540000  0.80201000  1.0 -0.3406456484
N  N64  1  0.09665000  0.89250000  0.71505000  1.0 -0.3406456484
N  N65  1  0.10441000  0.95130000  0.79989000  1.0 -0.2111407279
N  N66  1  0.78920000  0.19480000  0.86860000  1.0 -0.2486515158
N  N67  1  0.74220000  0.26370000  0.89230000  1.0 -0.231116259
N  N68  1  0.92497000  0.21680000  0.89053000  1.0 0.0700746081
N  N69  1  0.03239000  0.20790000  0.89961000  1.0 -0.452268346
N  N70  1  0.74893000  0.48030000  0.98087000  1.0 -0.2111407279
N  N71  1  0.56409000  0.64830000  0.97801000  1.0 -0.3471246619
N  N72  1  0.59493000  0.54080000  0.06477000  1.0 -0.3471246619
N  N73  1  0.83122000  0.53560000  0.05218000  1.0 -0.3406456484
N  N74  1  0.79548000  0.64270000  0.96532000  1.0 -0.3406456484
N  N75  1  0.64336000  0.70230000  0.05054000  1.0 -0.2111407279
N  N76  1  0.64580000  0.94580000  0.11930000  1.0 -0.2486515158
N  N77  1  0.60130000  0.01460000  0.14300000  1.0 -0.2350474932
N  N78  1  0.46662000  0.96770000  0.14108000  1.0 0.0616890675
N  N79  1  0.35950000  0.95800000  0.14980000  1.0 -0.4555457273
N  N80  1  0.28963000  0.23080000  0.23117000  1.0 -0.2111407279
