# DDEC6 charges by PACMAN v1.1 (https://github.com/mtap-research/PACMAN-charge/)
data_HERMEZ01_FSR_pacman
_symmetry_space_group_name_H-M   'P 1'
_cell_length_a   12.86590000
_cell_length_b   17.13690000
_cell_length_c   30.45900000
_cell_angle_alpha   80.40400000
_cell_angle_beta   77.87900000
_cell_angle_gamma   68.15000000
_symmetry_Int_Tables_number   1
_chemical_formula_structural   FeAg2H10(C8N5)2
_chemical_formula_sum   'Fe8 Ag16 H80 C128 N80'
_cell_volume   6065.16252195
_cell_formula_units_Z   8
loop_
 _symmetry_equiv_pos_site_id
 _symmetry_equiv_pos_as_xyz
  1  'x, y, z'
loop_
 _atom_site_type_symbol
 _atom_site_label
 _atom_site_symmetry_multiplicity
 _atom_site_fract_x
 _atom_site_fract_y
 _atom_site_fract_z
 _atom_site_occupancy
 _atom_site_charge
Fe  Fe1  1  0.19527000  0.34142000  0.26808000  1.0 0.5575983074
Fe  Fe2  1  0.69763000  0.09092000  0.51456000  1.0 0.5528959629
Fe  Fe3  1  0.19966000  0.84067000  0.76137000  1.0 0.5575983074
Fe  Fe4  1  0.69725000  0.59145000  0.01469000  1.0 0.7697990534
Fe  Fe5  1  0.80473000  0.65858000  0.73192000  1.0 0.5575983074
Fe  Fe6  1  0.30237000  0.90908000  0.48544000  1.0 0.5528959629
Fe  Fe7  1  0.80034000  0.15933000  0.23863000  1.0 0.5575983074
Fe  Fe8  1  0.30275000  0.40855000  0.98531000  1.0 0.7697990534
Ag  Ag1  1  0.93993000  0.46395000  0.14799000  1.0 0.133321429
Ag  Ag2  1  0.95202000  0.21496000  0.39587000  1.0 0.1181224577
Ag  Ag3  1  0.47400000  0.21812000  0.38220000  1.0 0.133321429
Ag  Ag4  1  0.42339000  0.46773000  0.13510000  1.0 0.1390579204
Ag  Ag5  1  0.93933000  0.96430000  0.64153000  1.0 0.1181224577
Ag  Ag6  1  0.42992000  0.96730000  0.62814000  1.0 0.133321429
Ag  Ag7  1  0.95682000  0.71561000  0.88862000  1.0 0.1390579204
Ag  Ag8  1  0.47465000  0.71860000  0.87590000  1.0 0.148899307
Ag  Ag9  1  0.06007000  0.53605000  0.85201000  1.0 0.133321429
Ag  Ag10  1  0.04798000  0.78504000  0.60413000  1.0 0.1181224577
Ag  Ag11  1  0.52600000  0.78188000  0.61780000  1.0 0.133321429
Ag  Ag12  1  0.57661000  0.53227000  0.86490000  1.0 0.1390579204
Ag  Ag13  1  0.06067000  0.03570000  0.35847000  1.0 0.1181224577
Ag  Ag14  1  0.57008000  0.03270000  0.37186000  1.0 0.133321429
Ag  Ag15  1  0.04318000  0.28439000  0.11138000  1.0 0.148899307
Ag  Ag16  1  0.52535000  0.28140000  0.12410000  1.0 0.148899307
H  H1  1  0.83020000  0.70570000  0.37280000  1.0 0.2680049722
H  H2  1  0.85790000  0.66040000  0.41610000  1.0 0.2596128878
H  H3  1  0.59300000  0.45500000  0.62140000  1.0 0.2680049722
H  H4  1  0.56760000  0.40920000  0.66460000  1.0 0.2596128878
H  H5  1  0.83870000  0.19860000  0.87130000  1.0 0.2680049722
H  H6  1  0.86610000  0.15490000  0.91490000  1.0 0.2596128878
H  H7  1  0.58570000  0.95820000  0.12540000  1.0 0.2680049722
H  H8  1  0.55960000  0.91220000  0.16850000  1.0 0.2596128878
H  H9  1  0.29730000  0.45430000  0.29130000  1.0 0.1181224577
H  H10  1  0.24890000  0.57480000  0.32670000  1.0 0.1181224577
H  H11  1  0.92300000  0.58320000  0.35420000  1.0 0.1110484848
H  H12  1  0.98060000  0.46340000  0.31650000  1.0 0.1181224577
H  H13  1  0.04100000  0.86170000  0.45310000  1.0 0.1390579204
H  H14  1  0.93420000  0.97500000  0.49400000  1.0 0.1110484848
H  H15  1  0.65220000  0.97520000  0.46280000  1.0 0.1110484848
H  H16  1  0.75210000  0.86380000  0.41950000  1.0 0.1181224577
H  H17  1  0.46080000  0.20240000  0.53730000  1.0 0.1181224577
H  H18  1  0.35360000  0.32030000  0.57480000  1.0 0.1110484848
H  H19  1  0.64290000  0.33070000  0.60190000  1.0 0.1110484848
H  H20  1  0.74290000  0.21140000  0.56390000  1.0 0.1181224577
H  H21  1  0.14730000  0.60810000  0.70080000  1.0 0.1390579204
H  H22  1  0.10010000  0.72280000  0.74090000  1.0 0.1181224577
H  H23  1  0.41220000  0.72350000  0.71010000  1.0 0.1110484848
H  H24  1  0.46740000  0.61130000  0.66720000  1.0 0.1181224577
H  H25  1  0.30190000  0.95320000  0.78450000  1.0 0.1181224577
H  H26  1  0.25540000  0.06940000  0.82320000  1.0 0.1181224577
H  H27  1  0.93000000  0.07770000  0.85150000  1.0 0.1110484848
H  H28  1  0.98540000  0.96130000  0.81080000  1.0 0.1181224577
H  H29  1  0.04700000  0.34970000  0.95560000  1.0 0.1390579204
H  H30  1  0.93940000  0.46260000  0.99580000  1.0 0.1110484848
H  H31  1  0.66230000  0.47240000  0.95620000  1.0 0.1110484848
H  H32  1  0.76370000  0.36170000  0.91260000  1.0 0.1181224577
H  H33  1  0.45550000  0.71060000  0.03870000  1.0 0.1181224577
H  H34  1  0.34610000  0.82830000  0.07620000  1.0 0.1181224577
H  H35  1  0.63350000  0.83650000  0.10680000  1.0 0.1110484848
H  H36  1  0.73360000  0.71790000  0.06890000  1.0 0.1181224577
H  H37  1  0.14120000  0.11160000  0.20650000  1.0 0.1390579204
H  H38  1  0.09490000  0.22360000  0.24850000  1.0 0.1110484848
H  H39  1  0.40690000  0.22660000  0.21540000  1.0 0.1110484848
H  H40  1  0.46030000  0.11550000  0.17190000  1.0 0.1181224577
H  H41  1  0.16980000  0.29430000  0.62720000  1.0 0.2680049722
H  H42  1  0.14210000  0.33960000  0.58390000  1.0 0.2596128878
H  H43  1  0.40700000  0.54500000  0.37860000  1.0 0.2680049722
H  H44  1  0.43240000  0.59080000  0.33540000  1.0 0.2596128878
H  H45  1  0.16130000  0.80140000  0.12870000  1.0 0.2680049722
H  H46  1  0.13390000  0.84510000  0.08510000  1.0 0.2596128878
H  H47  1  0.41430000  0.04180000  0.87460000  1.0 0.2680049722
H  H48  1  0.44040000  0.08780000  0.83150000  1.0 0.2596128878
H  H49  1  0.70270000  0.54570000  0.70870000  1.0 0.1181224577
H  H50  1  0.75110000  0.42520000  0.67330000  1.0 0.1110484848
H  H51  1  0.07700000  0.41680000  0.64580000  1.0 0.1110484848
H  H52  1  0.01940000  0.53660000  0.68350000  1.0 0.1181224577
H  H53  1  0.95900000  0.13830000  0.54690000  1.0 0.1390579204
H  H54  1  0.06580000  0.02500000  0.50600000  1.0 0.1110484848
H  H55  1  0.34780000  0.02480000  0.53720000  1.0 0.1110484848
H  H56  1  0.24790000  0.13620000  0.58050000  1.0 0.1181224577
H  H57  1  0.53920000  0.79760000  0.46270000  1.0 0.1181224577
H  H58  1  0.64640000  0.67970000  0.42520000  1.0 0.1181224577
H  H59  1  0.35710000  0.66930000  0.39810000  1.0 0.1110484848
H  H60  1  0.25710000  0.78860000  0.43610000  1.0 0.1181224577
H  H61  1  0.85270000  0.39190000  0.29920000  1.0 0.1390579204
H  H62  1  0.89990000  0.27720000  0.25910000  1.0 0.1110484848
H  H63  1  0.58780000  0.27650000  0.28990000  1.0 0.1110484848
H  H64  1  0.53260000  0.38870000  0.33280000  1.0 0.1181224577
H  H65  1  0.69810000  0.04680000  0.21550000  1.0 0.1181224577
H  H66  1  0.74460000  0.93060000  0.17680000  1.0 0.1181224577
H  H67  1  0.07000000  0.92230000  0.14850000  1.0 0.1110484848
H  H68  1  0.01460000  0.03870000  0.18920000  1.0 0.1181224577
H  H69  1  0.95300000  0.65030000  0.04440000  1.0 0.1390579204
H  H70  1  0.06060000  0.53740000  0.00420000  1.0 0.1110484848
H  H71  1  0.33770000  0.52760000  0.04380000  1.0 0.1110484848
H  H72  1  0.23630000  0.63830000  0.08740000  1.0 0.1181224577
H  H73  1  0.54450000  0.28940000  0.96130000  1.0 0.1181224577
H  H74  1  0.65390000  0.17170000  0.92380000  1.0 0.1181224577
H  H75  1  0.36650000  0.16350000  0.89320000  1.0 0.1110484848
H  H76  1  0.26640000  0.28210000  0.93110000  1.0 0.1181224577
H  H77  1  0.85880000  0.88840000  0.79350000  1.0 0.1390579204
H  H78  1  0.90510000  0.77640000  0.75150000  1.0 0.1110484848
H  H79  1  0.59310000  0.77340000  0.78460000  1.0 0.1110484848
H  H80  1  0.53970000  0.88450000  0.82810000  1.0 0.1181224577
C  C1  1  0.02090000  0.41980000  0.20340000  1.0 -0.0179776348
C  C2  1  0.04510000  0.26480000  0.34340000  1.0 -0.0179776348
C  C3  1  0.38080000  0.26380000  0.32992000  1.0 -0.0179776348
C  C4  1  0.33610000  0.41890000  0.19080000  1.0 -0.0092227766
C  C5  1  0.22030000  0.48110000  0.30409000  1.0 0.0808638778
C  C6  1  0.19220000  0.55260000  0.32538000  1.0 -0.1808339708
C  C7  1  0.08010000  0.59240000  0.34513000  1.0 0.0808638778
C  C8  1  0.00040000  0.55800000  0.34150000  1.0 -0.2093272088
C  C9  1  0.03580000  0.48620000  0.31900000  1.0 0.0984615407
C  C10  1  0.05750000  0.66810000  0.36770000  1.0 0.148899307
C  C11  1  0.98390000  0.78000000  0.40420000  1.0 0.1683235687
C  C12  1  0.90940000  0.84960000  0.43127000  1.0 0.0808638778
C  C13  1  0.96110000  0.88450000  0.45420000  1.0 -0.1734468374
C  C14  1  0.89680000  0.95210000  0.47860000  1.0 0.0808638778
C  C15  1  0.73250000  0.95250000  0.46020000  1.0 0.0698127104
C  C16  1  0.79140000  0.88550000  0.43470000  1.0 -0.198967549
C  C17  1  0.85890000  0.16990000  0.45040000  1.0 -0.028541297
C  C18  1  0.84730000  0.01400000  0.58926000  1.0 -0.0179776348
C  C19  1  0.52960000  0.01320000  0.57583000  1.0 -0.0179776348
C  C20  1  0.55590000  0.16870000  0.43758000  1.0 -0.0179776348
C  C21  1  0.49820000  0.22860000  0.55064000  1.0 0.0808638778
C  C22  1  0.43370000  0.29920000  0.57292000  1.0 -0.1808339708
C  C23  1  0.48550000  0.33990000  0.59280000  1.0 0.0808638778
C  C24  1  0.60350000  0.30550000  0.58900000  1.0 -0.2093272088
C  C25  1  0.66260000  0.23410000  0.56617000  1.0 0.0911385699
C  C26  1  0.40960000  0.41480000  0.61550000  1.0 0.148899307
C  C27  1  0.33520000  0.52650000  0.65210000  1.0 0.1683235687
C  C28  1  0.31270000  0.59710000  0.67860000  1.0 0.0808638778
C  C29  1  0.20300000  0.63160000  0.70160000  1.0 -0.1734468374
C  C30  1  0.17560000  0.70000000  0.72550000  1.0 0.0808638778
C  C31  1  0.35700000  0.70080000  0.70734000  1.0 0.0808638778
C  C32  1  0.39120000  0.63310000  0.68210000  1.0 -0.198967549
C  C33  1  0.02250000  0.92010000  0.69600000  1.0 -0.0179776348
C  C34  1  0.05170000  0.76430000  0.83620000  1.0 -0.0179776348
C  C35  1  0.38300000  0.76360000  0.82330000  1.0 -0.0179776348
C  C36  1  0.34260000  0.91900000  0.68380000  1.0 -0.0179776348
C  C37  1  0.22550000  0.97860000  0.79830000  1.0 0.0808638778
C  C38  1  0.19800000  0.04840000  0.82120000  1.0 -0.1808339708
C  C39  1  0.08690000  0.08800000  0.84130000  1.0 0.0808638778
C  C40  1  0.00680000  0.05360000  0.83780000  1.0 -0.2093272088
C  C41  1  0.04120000  0.98320000  0.81380000  1.0 0.0984615407
C  C42  1  0.06560000  0.16240000  0.86460000  1.0 0.148899307
C  C43  1  0.99330000  0.27270000  0.90200000  1.0 0.1859274504
C  C44  1  0.91750000  0.34290000  0.92880000  1.0 0.0808638778
C  C45  1  0.96790000  0.37470000  0.95480000  1.0 -0.1604923311
C  C46  1  0.90330000  0.44160000  0.97880000  1.0 0.0911385699
C  C47  1  0.74210000  0.44770000  0.95540000  1.0 0.0808638778
C  C48  1  0.80170000  0.38110000  0.92960000  1.0 -0.1901385415
C  C49  1  0.86660000  0.67260000  0.94470000  1.0 -0.0179776348
C  C50  1  0.85360000  0.51240000  0.09450000  1.0 -0.0092227766
C  C51  1  0.51970000  0.51210000  0.08130000  1.0 -0.0092227766
C  C52  1  0.55200000  0.67190000  0.93230000  1.0 -0.0092227766
C  C53  1  0.49190000  0.73650000  0.05280000  1.0 0.0984615407
C  C54  1  0.42610000  0.80700000  0.07510000  1.0 -0.1808339708
C  C55  1  0.47640000  0.84680000  0.09600000  1.0 0.0808638778
C  C56  1  0.59470000  0.81190000  0.09320000  1.0 -0.2093272088
C  C57  1  0.65350000  0.74110000  0.07040000  1.0 0.1110484848
C  C58  1  0.40100000  0.92130000  0.11920000  1.0 0.148899307
C  C59  1  0.32700000  0.03140000  0.15650000  1.0 0.1683235687
C  C60  1  0.30600000  0.10040000  0.18380000  1.0 0.0808638778
C  C61  1  0.19730000  0.13460000  0.20750000  1.0 -0.1734468374
C  C62  1  0.16990000  0.20180000  0.23250000  1.0 0.0911385699
C  C63  1  0.35180000  0.20360000  0.21310000  1.0 0.0698127104
C  C64  1  0.38450000  0.13670000  0.18730000  1.0 -0.198967549
C  C65  1  0.97910000  0.58020000  0.79660000  1.0 -0.0179776348
C  C66  1  0.95490000  0.73520000  0.65660000  1.0 -0.0179776348
C  C67  1  0.61920000  0.73620000  0.67008000  1.0 -0.0179776348
C  C68  1  0.66390000  0.58110000  0.80920000  1.0 -0.0092227766
C  C69  1  0.77970000  0.51890000  0.69591000  1.0 0.0808638778
C  C70  1  0.80780000  0.44740000  0.67462000  1.0 -0.1808339708
C  C71  1  0.91990000  0.40760000  0.65487000  1.0 0.0808638778
C  C72  1  0.99960000  0.44200000  0.65850000  1.0 -0.2093272088
C  C73  1  0.96420000  0.51380000  0.68100000  1.0 0.0984615407
C  C74  1  0.94250000  0.33190000  0.63230000  1.0 0.148899307
C  C75  1  0.01610000  0.22000000  0.59580000  1.0 0.1683235687
C  C76  1  0.09060000  0.15040000  0.56873000  1.0 0.0808638778
C  C77  1  0.03890000  0.11550000  0.54580000  1.0 -0.1734468374
C  C78  1  0.10320000  0.04790000  0.52140000  1.0 0.0808638778
C  C79  1  0.26750000  0.04750000  0.53980000  1.0 0.0698127104
C  C80  1  0.20860000  0.11450000  0.56530000  1.0 -0.198967549
C  C81  1  0.14110000  0.83010000  0.54960000  1.0 -0.028541297
C  C82  1  0.15270000  0.98600000  0.41074000  1.0 -0.0179776348
C  C83  1  0.47040000  0.98680000  0.42417000  1.0 -0.0179776348
C  C84  1  0.44410000  0.83130000  0.56242000  1.0 -0.0179776348
C  C85  1  0.50180000  0.77140000  0.44936000  1.0 0.0808638778
C  C86  1  0.56630000  0.70080000  0.42708000  1.0 -0.1808339708
C  C87  1  0.51450000  0.66010000  0.40720000  1.0 0.0808638778
C  C88  1  0.39650000  0.69450000  0.41100000  1.0 -0.2093272088
C  C89  1  0.33740000  0.76590000  0.43383000  1.0 0.0911385699
C  C90  1  0.59040000  0.58520000  0.38450000  1.0 0.148899307
C  C91  1  0.66480000  0.47350000  0.34790000  1.0 0.1683235687
C  C92  1  0.68730000  0.40290000  0.32140000  1.0 0.0808638778
C  C93  1  0.79700000  0.36840000  0.29840000  1.0 -0.1734468374
C  C94  1  0.82440000  0.30000000  0.27450000  1.0 0.0808638778
C  C95  1  0.64300000  0.29920000  0.29266000  1.0 0.0808638778
C  C96  1  0.60880000  0.36690000  0.31790000  1.0 -0.198967549
C  C97  1  0.97750000  0.07990000  0.30400000  1.0 -0.0179776348
C  C98  1  0.94830000  0.23570000  0.16380000  1.0 -0.0179776348
C  C99  1  0.61700000  0.23640000  0.17670000  1.0 -0.0179776348
C  C100  1  0.65740000  0.08100000  0.31620000  1.0 -0.0179776348
C  C101  1  0.77450000  0.02140000  0.20170000  1.0 0.0808638778
C  C102  1  0.80200000  0.95160000  0.17880000  1.0 -0.1808339708
C  C103  1  0.91310000  0.91200000  0.15870000  1.0 0.0808638778
C  C104  1  0.99320000  0.94640000  0.16220000  1.0 -0.2093272088
C  C105  1  0.95880000  0.01680000  0.18620000  1.0 0.0984615407
C  C106  1  0.93440000  0.83760000  0.13540000  1.0 0.148899307
C  C107  1  0.00670000  0.72730000  0.09800000  1.0 0.1845848855
C  C108  1  0.08250000  0.65710000  0.07120000  1.0 0.0808638778
C  C109  1  0.03210000  0.62530000  0.04520000  1.0 -0.1604923311
C  C110  1  0.09670000  0.55840000  0.02120000  1.0 0.0911385699
C  C111  1  0.25790000  0.55230000  0.04460000  1.0 0.0808638778
C  C112  1  0.19830000  0.61890000  0.07040000  1.0 -0.1901385415
C  C113  1  0.13340000  0.32740000  0.05530000  1.0 -0.0179776348
C  C114  1  0.14640000  0.48760000  0.90550000  1.0 -0.0092227766
C  C115  1  0.48030000  0.48790000  0.91870000  1.0 -0.0092227766
C  C116  1  0.44800000  0.32810000  0.06770000  1.0 -0.0092227766
C  C117  1  0.50810000  0.26350000  0.94720000  1.0 0.0984615407
C  C118  1  0.57390000  0.19300000  0.92490000  1.0 -0.1808339708
C  C119  1  0.52360000  0.15320000  0.90400000  1.0 0.0808638778
C  C120  1  0.40530000  0.18810000  0.90680000  1.0 -0.2093272088
C  C121  1  0.34650000  0.25890000  0.92960000  1.0 0.1110484848
C  C122  1  0.59900000  0.07870000  0.88080000  1.0 0.148899307
C  C123  1  0.67300000  0.96860000  0.84350000  1.0 0.1683235687
C  C124  1  0.69400000  0.89960000  0.81620000  1.0 0.0808638778
C  C125  1  0.80270000  0.86540000  0.79250000  1.0 -0.1808339708
C  C126  1  0.83010000  0.79820000  0.76750000  1.0 0.0911385699
C  C127  1  0.64820000  0.79640000  0.78690000  1.0 0.0698127104
C  C128  1  0.61550000  0.86330000  0.81270000  1.0 -0.198967549
N  N1  1  0.07430000  0.39320000  0.23158000  1.0 -0.2889599753
N  N2  1  0.09880000  0.29370000  0.31535000  1.0 -0.2889599753
N  N3  1  0.32010000  0.28960000  0.30419000  1.0 -0.2827487616
N  N4  1  0.28910000  0.38900000  0.22060000  1.0 -0.2889599753
N  N5  1  0.14350000  0.44740000  0.30059000  1.0 -0.1297270485
N  N6  1  0.13880000  0.69700000  0.36830000  1.0 -0.2477485019
N  N7  1  0.09310000  0.76720000  0.39160000  1.0 -0.2312123983
N  N8  1  0.95880000  0.71860000  0.39010000  1.0 0.0698127104
N  N9  1  0.85170000  0.70910000  0.39850000  1.0 -0.4483667168
N  N10  1  0.78340000  0.98730000  0.48159000  1.0 -0.1297270485
N  N11  1  0.80300000  0.14310000  0.47824000  1.0 -0.2827487616
N  N12  1  0.79380000  0.04330000  0.56147000  1.0 -0.2889599753
N  N13  1  0.59020000  0.03900000  0.55012000  1.0 -0.2827487616
N  N14  1  0.60410000  0.13860000  0.46728000  1.0 -0.2827487616
N  N15  1  0.61180000  0.19540000  0.54703000  1.0 -0.1297270485
N  N16  1  0.29960000  0.44290000  0.61600000  1.0 -0.2477485019
N  N17  1  0.25200000  0.51310000  0.63920000  1.0 -0.2312123983
N  N18  1  0.43560000  0.46560000  0.63819000  1.0 0.0698127104
N  N19  1  0.54230000  0.45780000  0.64690000  1.0 -0.4483667168
N  N20  1  0.25070000  0.73640000  0.72816000  1.0 -0.1297270485
N  N21  1  0.07700000  0.89310000  0.72424000  1.0 -0.2889599753
N  N22  1  0.10420000  0.79280000  0.80799000  1.0 -0.2889599753
N  N23  1  0.32340000  0.78880000  0.79700000  1.0 -0.2827487616
N  N24  1  0.29360000  0.88900000  0.71354000  1.0 -0.2827487616
N  N25  1  0.14900000  0.94470000  0.79466000  1.0 -0.1297270485
N  N26  1  0.14770000  0.19050000  0.86520000  1.0 -0.2477485019
N  N27  1  0.10110000  0.26040000  0.88900000  1.0 -0.2312123983
N  N28  1  0.96680000  0.21260000  0.88776000  1.0 0.0698127104
N  N29  1  0.86010000  0.20300000  0.89680000  1.0 -0.4417838457
N  N30  1  0.79080000  0.47930000  0.97946000  1.0 -0.2093272088
N  N31  1  0.81300000  0.64780000  0.97491000  1.0 -0.3418441492
N  N32  1  0.80180000  0.54020000  0.06558000  1.0 -0.3418441492
N  N33  1  0.58020000  0.53540000  0.05325000  1.0 -0.3418441492
N  N34  1  0.59640000  0.64290000  0.96300000  1.0 -0.3418441492
N  N35  1  0.60490000  0.70330000  0.05018000  1.0 -0.2093272088
N  N36  1  0.29070000  0.94950000  0.11960000  1.0 -0.2442277748
N  N37  1  0.24410000  0.01860000  0.14330000  1.0 -0.2312123983
N  N38  1  0.42700000  0.97150000  0.14219000  1.0 0.0698127104
N  N39  1  0.53530000  0.96120000  0.15100000  1.0 -0.4483667168
N  N40  1  0.24530000  0.23750000  0.23504000  1.0 -0.1297270485
N  N41  1  0.92570000  0.60680000  0.76842000  1.0 -0.2889599753
N  N42  1  0.90120000  0.70630000  0.68465000  1.0 -0.2889599753
N  N43  1  0.67990000  0.71040000  0.69581000  1.0 -0.2827487616
N  N44  1  0.71090000  0.61100000  0.77940000  1.0 -0.2889599753
N  N45  1  0.85650000  0.55260000  0.69941000  1.0 -0.1297270485
N  N46  1  0.86120000  0.30300000  0.63170000  1.0 -0.2477485019
N  N47  1  0.90690000  0.23280000  0.60840000  1.0 -0.2312123983
N  N48  1  0.04120000  0.28140000  0.60990000  1.0 0.0698127104
N  N49  1  0.14830000  0.29090000  0.60150000  1.0 -0.4483667168
N  N50  1  0.21660000  0.01270000  0.51841000  1.0 -0.1297270485
N  N51  1  0.19700000  0.85690000  0.52176000  1.0 -0.2889599753
N  N52  1  0.20620000  0.95670000  0.43853000  1.0 -0.2827487616
N  N53  1  0.40980000  0.96100000  0.44988000  1.0 -0.2827487616
N  N54  1  0.39590000  0.86140000  0.53272000  1.0 -0.2827487616
N  N55  1  0.38820000  0.80460000  0.45297000  1.0 -0.1297270485
N  N56  1  0.70040000  0.55710000  0.38400000  1.0 -0.2477485019
N  N57  1  0.74800000  0.48690000  0.36080000  1.0 -0.2312123983
N  N58  1  0.56440000  0.53440000  0.36181000  1.0 0.0698127104
N  N59  1  0.45770000  0.54220000  0.35310000  1.0 -0.4483667168
N  N60  1  0.74930000  0.26360000  0.27184000  1.0 -0.1297270485
N  N61  1  0.92300000  0.10690000  0.27576000  1.0 -0.2889599753
N  N62  1  0.89580000  0.20720000  0.19201000  1.0 -0.2889599753
N  N63  1  0.67660000  0.21120000  0.20300000  1.0 -0.2827487616
N  N64  1  0.70640000  0.11100000  0.28646000  1.0 -0.2827487616
N  N65  1  0.85100000  0.05530000  0.20534000  1.0 -0.1297270485
N  N66  1  0.85230000  0.80950000  0.13480000  1.0 -0.2477485019
N  N67  1  0.89890000  0.73960000  0.11100000  1.0 -0.2312123983
N  N68  1  0.03320000  0.78740000  0.11224000  1.0 0.0698127104
N  N69  1  0.13990000  0.79700000  0.10320000  1.0 -0.4417838457
N  N70  1  0.20920000  0.52070000  0.02054000  1.0 -0.2093272088
N  N71  1  0.18700000  0.35220000  0.02509000  1.0 -0.3418441492
N  N72  1  0.19820000  0.45980000  0.93442000  1.0 -0.3418441492
N  N73  1  0.41980000  0.46460000  0.94675000  1.0 -0.3418441492
N  N74  1  0.40360000  0.35710000  0.03700000  1.0 -0.3418441492
N  N75  1  0.39510000  0.29670000  0.94982000  1.0 -0.2093272088
N  N76  1  0.70930000  0.05050000  0.88040000  1.0 -0.2442277748
N  N77  1  0.75590000  0.98140000  0.85670000  1.0 -0.2312123983
N  N78  1  0.57300000  0.02850000  0.85781000  1.0 0.0698127104
N  N79  1  0.46470000  0.03880000  0.84900000  1.0 -0.4483667168
N  N80  1  0.75470000  0.76250000  0.76496000  1.0 -0.1297270485
