# DDEC6 charges by PACMAN v1.1 (https://github.com/mtap-research/PACMAN-charge/)
data_HERNEA01_FSR_pacman
_symmetry_space_group_name_H-M   'P 1'
_cell_length_a   10.35990000
_cell_length_b   29.38370000
_cell_length_c   13.25060000
_cell_angle_alpha   90.00000000
_cell_angle_beta   129.35100000
_cell_angle_gamma   90.00000000
_symmetry_Int_Tables_number   1
_chemical_formula_structural   FeAg2H10(C8N5)2
_chemical_formula_sum   'Fe4 Ag8 H40 C64 N40'
_cell_volume   3119.12074471
_cell_formula_units_Z   4
loop_
 _symmetry_equiv_pos_site_id
 _symmetry_equiv_pos_as_xyz
  1  'x, y, z'
loop_
 _atom_site_type_symbol
 _atom_site_label
 _atom_site_symmetry_multiplicity
 _atom_site_fract_x
 _atom_site_fract_y
 _atom_site_fract_z
 _atom_site_occupancy
 _atom_site_charge
Fe  Fe1  1  0.45979000  0.94703000  0.23046000  1.0 0.8034758425
Fe  Fe2  1  0.54021000  0.44703000  0.26954000  1.0 0.8094976005
Fe  Fe3  1  0.54021000  0.05297000  0.76954000  1.0 0.8094976005
Fe  Fe4  1  0.45979000  0.55297000  0.73046000  1.0 0.8094976005
Ag  Ag1  1  0.94588000  0.95026000  0.73394000  1.0 0.1508580397
Ag  Ag2  1  0.94814000  0.94752000  0.21492000  1.0 0.1285285584
Ag  Ag3  1  0.05412000  0.45026000  0.76606000  1.0 0.1508580397
Ag  Ag4  1  0.05186000  0.44752000  0.28508000  1.0 0.1285285584
Ag  Ag5  1  0.05412000  0.04974000  0.26606000  1.0 0.1508580397
Ag  Ag6  1  0.05186000  0.05248000  0.78508000  1.0 0.1285285584
Ag  Ag7  1  0.94588000  0.54974000  0.23394000  1.0 0.1508580397
Ag  Ag8  1  0.94814000  0.55248000  0.71492000  1.0 0.1285285584
H  H1  1  0.62050000  0.69110000  0.43050000  1.0 0.2772645212
H  H2  1  0.43760000  0.68060000  0.32290000  1.0 0.2772645212
H  H3  1  0.45060000  0.87780000  0.05830000  1.0 0.10885599
H  H4  1  0.48730000  0.80130000  0.04600000  1.0 0.10885599
H  H5  1  0.56490000  0.78280000  0.38250000  1.0 0.1204163681
H  H6  1  0.52630000  0.85950000  0.38430000  1.0 0.1204163681
H  H7  1  0.51140000  0.59320000  0.05960000  1.0 0.1441311731
H  H8  1  0.50770000  0.51640000  0.08840000  1.0 0.10885599
H  H9  1  0.61930000  0.53480000  0.42680000  1.0 0.10885599
H  H10  1  0.63920000  0.61230000  0.41390000  1.0 0.1000869355
H  H11  1  0.37950000  0.19110000  0.06950000  1.0 0.2772645212
H  H12  1  0.56240000  0.18060000  0.17710000  1.0 0.2772645212
H  H13  1  0.54940000  0.37780000  0.44170000  1.0 0.10885599
H  H14  1  0.51270000  0.30130000  0.45400000  1.0 0.10885599
H  H15  1  0.43510000  0.28280000  0.11750000  1.0 0.1204163681
H  H16  1  0.47370000  0.35950000  0.11570000  1.0 0.1204163681
H  H17  1  0.48860000  0.09320000  0.44040000  1.0 0.1441311731
H  H18  1  0.49230000  0.01640000  0.41160000  1.0 0.10885599
H  H19  1  0.38070000  0.03480000  0.07320000  1.0 0.10885599
H  H20  1  0.36080000  0.11230000  0.08610000  1.0 0.1000869355
H  H21  1  0.37950000  0.30890000  0.56950000  1.0 0.2772645212
H  H22  1  0.56240000  0.31940000  0.67710000  1.0 0.2772645212
H  H23  1  0.54940000  0.12220000  0.94170000  1.0 0.10885599
H  H24  1  0.51270000  0.19870000  0.95400000  1.0 0.10885599
H  H25  1  0.43510000  0.21720000  0.61750000  1.0 0.1204163681
H  H26  1  0.47370000  0.14050000  0.61570000  1.0 0.1204163681
H  H27  1  0.48860000  0.40680000  0.94040000  1.0 0.1441311731
H  H28  1  0.49230000  0.48360000  0.91160000  1.0 0.10885599
H  H29  1  0.38070000  0.46520000  0.57320000  1.0 0.10885599
H  H30  1  0.36080000  0.38770000  0.58610000  1.0 0.1000869355
H  H31  1  0.62050000  0.80890000  0.93050000  1.0 0.2772645212
H  H32  1  0.43760000  0.81940000  0.82290000  1.0 0.2772645212
H  H33  1  0.45060000  0.62220000  0.55830000  1.0 0.10885599
H  H34  1  0.48730000  0.69870000  0.54600000  1.0 0.10885599
H  H35  1  0.56490000  0.71720000  0.88250000  1.0 0.1204163681
H  H36  1  0.52630000  0.64050000  0.88430000  1.0 0.1204163681
H  H37  1  0.51140000  0.90680000  0.55960000  1.0 0.1441311731
H  H38  1  0.50770000  0.98360000  0.58840000  1.0 0.10885599
H  H39  1  0.61930000  0.96520000  0.92680000  1.0 0.10885599
H  H40  1  0.63920000  0.88770000  0.91390000  1.0 0.1000869355
C  C1  1  0.47420000  0.85836000  0.12450000  1.0 0.0896092238
C  C2  1  0.49610000  0.81244000  0.11670000  1.0 -0.1819867783
C  C3  1  0.53080000  0.78291000  0.21220000  1.0 0.0821044452
C  C4  1  0.54190000  0.80141000  0.31510000  1.0 -0.1904194534
C  C5  1  0.51850000  0.84744000  0.31490000  1.0 0.1000869355
C  C6  1  0.55530000  0.73460000  0.19800000  1.0 0.1726212024
C  C7  1  0.57530000  0.66097000  0.20770000  1.0 0.1508580397
C  C8  1  0.57340000  0.61226000  0.23280000  1.0 0.0821044452
C  C9  1  0.53500000  0.58221000  0.13640000  1.0 -0.1712440395
C  C10  1  0.53150000  0.53618000  0.15410000  1.0 0.0896092238
C  C11  1  0.59820000  0.54686000  0.35190000  1.0 0.0896092238
C  C12  1  0.60860000  0.59345000  0.34440000  1.0 -0.2105112051
C  C13  1  0.75770000  0.94701000  0.53650000  1.0 -0.0096057364
C  C14  1  0.17020000  0.94027000  0.24840000  1.0 -0.0096057364
C  C15  1  0.14730000  0.94985000  0.92940000  1.0 -0.0096057364
C  C16  1  0.73610000  0.95413000  0.19640000  1.0 -0.0177413745
C  C17  1  0.52580000  0.35836000  0.37550000  1.0 0.0896092238
C  C18  1  0.50390000  0.31244000  0.38330000  1.0 -0.1819867783
C  C19  1  0.46920000  0.28291000  0.28780000  1.0 0.0821044452
C  C20  1  0.45810000  0.30141000  0.18490000  1.0 -0.1904194534
C  C21  1  0.48150000  0.34744000  0.18510000  1.0 0.1000869355
C  C22  1  0.44470000  0.23460000  0.30200000  1.0 0.1726212024
C  C23  1  0.42470000  0.16097000  0.29230000  1.0 0.1508580397
C  C24  1  0.42660000  0.11226000  0.26720000  1.0 0.0821044452
C  C25  1  0.46500000  0.08221000  0.36360000  1.0 -0.1712440395
C  C26  1  0.46850000  0.03618000  0.34590000  1.0 0.0896092238
C  C27  1  0.40180000  0.04686000  0.14810000  1.0 0.0896092238
C  C28  1  0.39140000  0.09345000  0.15560000  1.0 -0.2105112051
C  C29  1  0.24230000  0.44701000  0.96350000  1.0 -0.0096057364
C  C30  1  0.82980000  0.44027000  0.25160000  1.0 -0.0096057364
C  C31  1  0.85270000  0.44985000  0.57060000  1.0 -0.0096057364
C  C32  1  0.26390000  0.45413000  0.30360000  1.0 -0.0177413745
C  C33  1  0.52580000  0.14164000  0.87550000  1.0 0.0896092238
C  C34  1  0.50390000  0.18756000  0.88330000  1.0 -0.1819867783
C  C35  1  0.46920000  0.21709000  0.78780000  1.0 0.0821044452
C  C36  1  0.45810000  0.19859000  0.68490000  1.0 -0.1904194534
C  C37  1  0.48150000  0.15256000  0.68510000  1.0 0.1000869355
C  C38  1  0.44470000  0.26540000  0.80200000  1.0 0.1726212024
C  C39  1  0.42470000  0.33903000  0.79230000  1.0 0.1508580397
C  C40  1  0.42660000  0.38774000  0.76720000  1.0 0.0821044452
C  C41  1  0.46500000  0.41779000  0.86360000  1.0 -0.1712440395
C  C42  1  0.46850000  0.46382000  0.84590000  1.0 0.0896092238
C  C43  1  0.40180000  0.45314000  0.64810000  1.0 0.0896092238
C  C44  1  0.39140000  0.40655000  0.65560000  1.0 -0.2105112051
C  C45  1  0.24230000  0.05299000  0.46350000  1.0 -0.0096057364
C  C46  1  0.82980000  0.05973000  0.75160000  1.0 -0.0096057364
C  C47  1  0.85270000  0.05015000  0.07060000  1.0 -0.0096057364
C  C48  1  0.26390000  0.04587000  0.80360000  1.0 -0.0177413745
C  C49  1  0.47420000  0.64164000  0.62450000  1.0 0.0896092238
C  C50  1  0.49610000  0.68756000  0.61670000  1.0 -0.1819867783
C  C51  1  0.53080000  0.71709000  0.71220000  1.0 0.0821044452
C  C52  1  0.54190000  0.69859000  0.81510000  1.0 -0.1904194534
C  C53  1  0.51850000  0.65256000  0.81490000  1.0 0.1000869355
C  C54  1  0.55530000  0.76540000  0.69800000  1.0 0.1726212024
C  C55  1  0.57530000  0.83903000  0.70770000  1.0 0.1508580397
C  C56  1  0.57340000  0.88774000  0.73280000  1.0 0.0821044452
C  C57  1  0.53500000  0.91779000  0.63640000  1.0 -0.1712440395
C  C58  1  0.53150000  0.96382000  0.65410000  1.0 0.0896092238
C  C59  1  0.59820000  0.95314000  0.85190000  1.0 0.0896092238
C  C60  1  0.60860000  0.90655000  0.84440000  1.0 -0.2105112051
C  C61  1  0.75770000  0.55299000  0.03650000  1.0 -0.0096057364
C  C62  1  0.17020000  0.55973000  0.74840000  1.0 -0.0096057364
C  C63  1  0.14730000  0.55015000  0.42940000  1.0 -0.0096057364
C  C64  1  0.73610000  0.54587000  0.69640000  1.0 -0.0177413745
N  N1  1  0.48530000  0.87629000  0.22280000  1.0 -0.2105112051
N  N2  1  0.58040000  0.72161000  0.11670000  1.0 -0.2467424341
N  N3  1  0.59270000  0.67501000  0.12260000  1.0 -0.2297367447
N  N4  1  0.55390000  0.69764000  0.25940000  1.0 0.0699146918
N  N5  1  0.52490000  0.69930000  0.34980000  1.0 -0.4575491839
N  N6  1  0.55990000  0.51794000  0.25870000  1.0 -0.2001637996
N  N7  1  0.65200000  0.94586000  0.42610000  1.0 -0.3401686021
N  N8  1  0.28780000  0.93895000  0.25830000  1.0 -0.3401686021
N  N9  1  0.26390000  0.94889000  0.03620000  1.0 -0.332230761
N  N10  1  0.62760000  0.95571000  0.19870000  1.0 -0.332230761
N  N11  1  0.51470000  0.37629000  0.27720000  1.0 -0.2105112051
N  N12  1  0.41960000  0.22161000  0.38330000  1.0 -0.2467424341
N  N13  1  0.40730000  0.17501000  0.37740000  1.0 -0.2297367447
N  N14  1  0.44610000  0.19764000  0.24060000  1.0 0.0699146918
N  N15  1  0.47510000  0.19930000  0.15020000  1.0 -0.4575491839
N  N16  1  0.44010000  0.01794000  0.24130000  1.0 -0.2001637996
N  N17  1  0.34800000  0.44586000  0.07390000  1.0 -0.3401686021
N  N18  1  0.71220000  0.43895000  0.24170000  1.0 -0.3401686021
N  N19  1  0.73610000  0.44889000  0.46380000  1.0 -0.332230761
N  N20  1  0.37240000  0.45571000  0.30130000  1.0 -0.332230761
N  N21  1  0.51470000  0.12371000  0.77720000  1.0 -0.2105112051
N  N22  1  0.41960000  0.27839000  0.88330000  1.0 -0.2440982007
N  N23  1  0.40730000  0.32499000  0.87740000  1.0 -0.2297367447
N  N24  1  0.44610000  0.30236000  0.74060000  1.0 0.0699146918
N  N25  1  0.47510000  0.30070000  0.65020000  1.0 -0.4575491839
N  N26  1  0.44010000  0.48206000  0.74130000  1.0 -0.2001637996
N  N27  1  0.34800000  0.05414000  0.57390000  1.0 -0.3401686021
N  N28  1  0.71220000  0.06105000  0.74170000  1.0 -0.3401686021
N  N29  1  0.73610000  0.05111000  0.96380000  1.0 -0.332230761
N  N30  1  0.37240000  0.04429000  0.80130000  1.0 -0.332230761
N  N31  1  0.48530000  0.62371000  0.72280000  1.0 -0.2105112051
N  N32  1  0.58040000  0.77839000  0.61670000  1.0 -0.2440982007
N  N33  1  0.59270000  0.82499000  0.62260000  1.0 -0.2297367447
N  N34  1  0.55390000  0.80236000  0.75940000  1.0 0.0699146918
N  N35  1  0.52490000  0.80070000  0.84980000  1.0 -0.4575491839
N  N36  1  0.55990000  0.98206000  0.75870000  1.0 -0.2001637996
N  N37  1  0.65200000  0.55414000  0.92610000  1.0 -0.3401686021
N  N38  1  0.28780000  0.56105000  0.75830000  1.0 -0.3401686021
N  N39  1  0.26390000  0.55111000  0.53620000  1.0 -0.332230761
N  N40  1  0.62760000  0.54429000  0.69870000  1.0 -0.332230761
