# DDEC6 charges by PACMAN v1.1 (https://github.com/mtap-research/PACMAN-charge/)
data_HERNEA02_ASR_pacman
_symmetry_space_group_name_H-M   'P 1'
_cell_length_a   10.48480000
_cell_length_b   29.69530000
_cell_length_c   13.20840000
_cell_angle_alpha   90.00000000
_cell_angle_beta   128.38200000
_cell_angle_gamma   90.00000000
_symmetry_Int_Tables_number   1
_chemical_formula_structural   FeAg2H10(C8N5)2
_chemical_formula_sum   'Fe4 Ag8 H40 C64 N40'
_cell_volume   3223.68356855
_cell_formula_units_Z   4
loop_
 _symmetry_equiv_pos_site_id
 _symmetry_equiv_pos_as_xyz
  1  'x, y, z'
loop_
 _atom_site_type_symbol
 _atom_site_label
 _atom_site_symmetry_multiplicity
 _atom_site_fract_x
 _atom_site_fract_y
 _atom_site_fract_z
 _atom_site_occupancy
 _atom_site_charge
Fe  Fe1  1  0.46381000  0.94679000  0.23350000  1.0 0.7678658425
Fe  Fe2  1  0.53619000  0.44679000  0.26650000  1.0 0.7678658425
Fe  Fe3  1  0.53619000  0.05321000  0.76650000  1.0 0.7678658425
Fe  Fe4  1  0.46381000  0.55321000  0.73350000  1.0 0.7678658425
Ag  Ag1  1  0.94818000  0.94966000  0.73834000  1.0 0.1671969353
Ag  Ag2  1  0.95198000  0.94766000  0.21691000  1.0 0.1496938824
Ag  Ag3  1  0.05182000  0.44966000  0.76166000  1.0 0.1671969353
Ag  Ag4  1  0.04802000  0.44766000  0.28309000  1.0 0.1496938824
Ag  Ag5  1  0.05182000  0.05034000  0.26166000  1.0 0.1671969353
Ag  Ag6  1  0.04802000  0.05234000  0.78309000  1.0 0.1496938824
Ag  Ag7  1  0.94818000  0.55034000  0.23834000  1.0 0.1671969353
Ag  Ag8  1  0.95198000  0.55234000  0.71691000  1.0 0.1496938824
H  H1  1  0.62150000  0.68820000  0.42700000  1.0 0.2798518001
H  H2  1  0.44100000  0.68230000  0.31920000  1.0 0.2798518001
H  H3  1  0.45110000  0.87640000  0.05720000  1.0 0.1101100212
H  H4  1  0.48670000  0.80050000  0.04150000  1.0 0.1101100212
H  H5  1  0.57920000  0.78090000  0.38440000  1.0 0.1258335024
H  H6  1  0.53920000  0.85720000  0.38890000  1.0 0.1101100212
H  H7  1  0.49460000  0.59490000  0.04850000  1.0 0.1496938824
H  H8  1  0.48590000  0.51850000  0.07640000  1.0 0.1101100212
H  H9  1  0.63620000  0.53700000  0.42820000  1.0 0.1101100212
H  H10  1  0.65890000  0.61360000  0.41480000  1.0 0.1101100212
H  H11  1  0.37850000  0.18820000  0.07300000  1.0 0.2798518001
H  H12  1  0.55900000  0.18230000  0.18080000  1.0 0.2798518001
H  H13  1  0.54890000  0.37640000  0.44280000  1.0 0.1101100212
H  H14  1  0.51330000  0.30050000  0.45850000  1.0 0.1101100212
H  H15  1  0.42080000  0.28090000  0.11560000  1.0 0.1258335024
H  H16  1  0.46080000  0.35720000  0.11110000  1.0 0.1101100212
H  H17  1  0.50540000  0.09490000  0.45150000  1.0 0.1496938824
H  H18  1  0.51410000  0.01850000  0.42360000  1.0 0.1101100212
H  H19  1  0.36380000  0.03700000  0.07180000  1.0 0.1101100212
H  H20  1  0.34110000  0.11360000  0.08520000  1.0 0.1101100212
H  H21  1  0.37850000  0.31180000  0.57300000  1.0 0.2798518001
H  H22  1  0.55900000  0.31770000  0.68080000  1.0 0.2798518001
H  H23  1  0.54890000  0.12360000  0.94280000  1.0 0.1101100212
H  H24  1  0.51330000  0.19950000  0.95850000  1.0 0.1101100212
H  H25  1  0.42080000  0.21910000  0.61560000  1.0 0.1258335024
H  H26  1  0.46080000  0.14280000  0.61110000  1.0 0.1101100212
H  H27  1  0.50540000  0.40510000  0.95150000  1.0 0.1496938824
H  H28  1  0.51410000  0.48150000  0.92360000  1.0 0.1101100212
H  H29  1  0.36380000  0.46300000  0.57180000  1.0 0.1101100212
H  H30  1  0.34110000  0.38640000  0.58520000  1.0 0.1101100212
H  H31  1  0.62150000  0.81180000  0.92700000  1.0 0.2798518001
H  H32  1  0.44100000  0.81770000  0.81920000  1.0 0.2798518001
H  H33  1  0.45110000  0.62360000  0.55720000  1.0 0.1101100212
H  H34  1  0.48670000  0.69950000  0.54150000  1.0 0.1101100212
H  H35  1  0.57920000  0.71910000  0.88440000  1.0 0.1258335024
H  H36  1  0.53920000  0.64280000  0.88890000  1.0 0.1101100212
H  H37  1  0.49460000  0.90510000  0.54850000  1.0 0.1496938824
H  H38  1  0.48590000  0.98150000  0.57640000  1.0 0.1101100212
H  H39  1  0.63620000  0.96300000  0.92820000  1.0 0.1101100212
H  H40  1  0.65890000  0.88640000  0.91480000  1.0 0.1101100212
C  C1  1  0.47730000  0.85670000  0.12440000  1.0 0.0890008074
C  C2  1  0.49850000  0.81134000  0.11450000  1.0 -0.1839711272
C  C3  1  0.53670000  0.78197000  0.21050000  1.0 0.0890008074
C  C4  1  0.55260000  0.79978000  0.31560000  1.0 -0.186708355
C  C5  1  0.52880000  0.84536000  0.31730000  1.0 0.100282064
C  C6  1  0.56060000  0.73432000  0.19480000  1.0 0.1768717378
C  C7  1  0.57890000  0.66128000  0.20310000  1.0 0.1614514052
C  C8  1  0.57520000  0.61325000  0.22770000  1.0 0.0719174578
C  C9  1  0.52490000  0.58382000  0.12820000  1.0 -0.1565017492
C  C10  1  0.51920000  0.53822000  0.14550000  1.0 0.0890008074
C  C11  1  0.60750000  0.54900000  0.34980000  1.0 0.0890008074
C  C12  1  0.62020000  0.59489000  0.34260000  1.0 -0.2108044864
C  C13  1  0.76250000  0.94632000  0.54390000  1.0 -0.0082713594
C  C14  1  0.17210000  0.94055000  0.25470000  1.0 -0.0208966885
C  C15  1  0.14640000  0.94939000  0.92990000  1.0 -0.0082713594
C  C16  1  0.74070000  0.95402000  0.19450000  1.0 -0.0208966885
C  C17  1  0.52270000  0.35670000  0.37560000  1.0 0.0890008074
C  C18  1  0.50150000  0.31134000  0.38550000  1.0 -0.1839711272
C  C19  1  0.46330000  0.28197000  0.28950000  1.0 0.0890008074
C  C20  1  0.44740000  0.29978000  0.18440000  1.0 -0.186708355
C  C21  1  0.47120000  0.34536000  0.18270000  1.0 0.100282064
C  C22  1  0.43940000  0.23432000  0.30520000  1.0 0.1768717378
C  C23  1  0.42110000  0.16128000  0.29690000  1.0 0.1614514052
C  C24  1  0.42480000  0.11325000  0.27230000  1.0 0.0719174578
C  C25  1  0.47510000  0.08382000  0.37180000  1.0 -0.1565017492
C  C26  1  0.48080000  0.03822000  0.35450000  1.0 0.0890008074
C  C27  1  0.39250000  0.04900000  0.15020000  1.0 0.0890008074
C  C28  1  0.37980000  0.09489000  0.15740000  1.0 -0.2108044864
C  C29  1  0.23750000  0.44632000  0.95610000  1.0 -0.0082713594
C  C30  1  0.82790000  0.44055000  0.24530000  1.0 -0.0208966885
C  C31  1  0.85360000  0.44939000  0.57010000  1.0 -0.0082713594
C  C32  1  0.25930000  0.45402000  0.30550000  1.0 -0.0208966885
C  C33  1  0.52270000  0.14330000  0.87560000  1.0 0.0890008074
C  C34  1  0.50150000  0.18866000  0.88550000  1.0 -0.1839711272
C  C35  1  0.46330000  0.21803000  0.78950000  1.0 0.0890008074
C  C36  1  0.44740000  0.20022000  0.68440000  1.0 -0.186708355
C  C37  1  0.47120000  0.15464000  0.68270000  1.0 0.100282064
C  C38  1  0.43940000  0.26568000  0.80520000  1.0 0.1768717378
C  C39  1  0.42110000  0.33872000  0.79690000  1.0 0.1614514052
C  C40  1  0.42480000  0.38675000  0.77230000  1.0 0.0719174578
C  C41  1  0.47510000  0.41618000  0.87180000  1.0 -0.1565017492
C  C42  1  0.48080000  0.46178000  0.85450000  1.0 0.0890008074
C  C43  1  0.39250000  0.45100000  0.65020000  1.0 0.0890008074
C  C44  1  0.37980000  0.40511000  0.65740000  1.0 -0.2108044864
C  C45  1  0.23750000  0.05368000  0.45610000  1.0 -0.0082713594
C  C46  1  0.82790000  0.05945000  0.74530000  1.0 -0.0208966885
C  C47  1  0.85360000  0.05061000  0.07010000  1.0 -0.0082713594
C  C48  1  0.25930000  0.04598000  0.80550000  1.0 -0.0208966885
C  C49  1  0.47730000  0.64330000  0.62440000  1.0 0.0890008074
C  C50  1  0.49850000  0.68866000  0.61450000  1.0 -0.1839711272
C  C51  1  0.53670000  0.71803000  0.71050000  1.0 0.0890008074
C  C52  1  0.55260000  0.70022000  0.81560000  1.0 -0.186708355
C  C53  1  0.52880000  0.65464000  0.81730000  1.0 0.100282064
C  C54  1  0.56060000  0.76568000  0.69480000  1.0 0.1768717378
C  C55  1  0.57890000  0.83872000  0.70310000  1.0 0.1614514052
C  C56  1  0.57520000  0.88675000  0.72770000  1.0 0.0719174578
C  C57  1  0.52490000  0.91618000  0.62820000  1.0 -0.1565017492
C  C58  1  0.51920000  0.96178000  0.64550000  1.0 0.0890008074
C  C59  1  0.60750000  0.95100000  0.84980000  1.0 0.0890008074
C  C60  1  0.62020000  0.90511000  0.84260000  1.0 -0.2108044864
C  C61  1  0.76250000  0.55368000  0.04390000  1.0 -0.0082713594
C  C62  1  0.17210000  0.55945000  0.75470000  1.0 -0.0208966885
C  C63  1  0.14640000  0.55061000  0.42990000  1.0 -0.0082713594
C  C64  1  0.74070000  0.54598000  0.69450000  1.0 -0.0208966885
N  N1  1  0.49230000  0.87385000  0.22480000  1.0 -0.2029609696
N  N2  1  0.58300000  0.72154000  0.11170000  1.0 -0.2505718746
N  N3  1  0.59400000  0.67526000  0.11700000  1.0 -0.2351560385
N  N4  1  0.55920000  0.69757000  0.25640000  1.0 0.0719174578
N  N5  1  0.53200000  0.69911000  0.34870000  1.0 -0.4597817451
N  N6  1  0.55780000  0.52043000  0.25390000  1.0 -0.2029609696
N  N7  1  0.66110000  0.94529000  0.43570000  1.0 -0.3475465439
N  N8  1  0.29140000  0.93776000  0.26990000  1.0 -0.3475465439
N  N9  1  0.26170000  0.94867000  0.03440000  1.0 -0.3392162843
N  N10  1  0.63260000  0.95682000  0.19470000  1.0 -0.3392162843
N  N11  1  0.50770000  0.37385000  0.27520000  1.0 -0.2029609696
N  N12  1  0.41700000  0.22154000  0.38830000  1.0 -0.2505718746
N  N13  1  0.40600000  0.17526000  0.38300000  1.0 -0.2351560385
N  N14  1  0.44080000  0.19757000  0.24360000  1.0 0.0719174578
N  N15  1  0.46800000  0.19911000  0.15130000  1.0 -0.4597817451
N  N16  1  0.44220000  0.02043000  0.24610000  1.0 -0.2029609696
N  N17  1  0.33890000  0.44529000  0.06430000  1.0 -0.3475465439
N  N18  1  0.70860000  0.43776000  0.23010000  1.0 -0.3475465439
N  N19  1  0.73830000  0.44867000  0.46560000  1.0 -0.3392162843
N  N20  1  0.36740000  0.45682000  0.30530000  1.0 -0.3392162843
N  N21  1  0.50770000  0.12615000  0.77520000  1.0 -0.2029609696
N  N22  1  0.41700000  0.27846000  0.88830000  1.0 -0.2505718746
N  N23  1  0.40600000  0.32474000  0.88300000  1.0 -0.2351560385
N  N24  1  0.44080000  0.30243000  0.74360000  1.0 0.0719174578
N  N25  1  0.46800000  0.30089000  0.65130000  1.0 -0.4597817451
N  N26  1  0.44220000  0.47957000  0.74610000  1.0 -0.2029609696
N  N27  1  0.33890000  0.05471000  0.56430000  1.0 -0.3475465439
N  N28  1  0.70860000  0.06224000  0.73010000  1.0 -0.3392162843
N  N29  1  0.73830000  0.05133000  0.96560000  1.0 -0.3392162843
N  N30  1  0.36740000  0.04318000  0.80530000  1.0 -0.3392162843
N  N31  1  0.49230000  0.62615000  0.72480000  1.0 -0.2029609696
N  N32  1  0.58300000  0.77846000  0.61170000  1.0 -0.2505718746
N  N33  1  0.59400000  0.82474000  0.61700000  1.0 -0.2347345293
N  N34  1  0.55920000  0.80243000  0.75640000  1.0 0.0719174578
N  N35  1  0.53200000  0.80089000  0.84870000  1.0 -0.4597817451
N  N36  1  0.55780000  0.97957000  0.75390000  1.0 -0.2029609696
N  N37  1  0.66110000  0.55471000  0.93570000  1.0 -0.3475465439
N  N38  1  0.29140000  0.56224000  0.76990000  1.0 -0.3475465439
N  N39  1  0.26170000  0.55133000  0.53440000  1.0 -0.3392162843
N  N40  1  0.63260000  0.54318000  0.69470000  1.0 -0.3392162843
