# DDEC6 charges by PACMAN v1.1 (https://github.com/mtap-research/PACMAN-charge/)
data_HERNEA_ASR_pacman
_symmetry_space_group_name_H-M   'P 1'
_cell_length_a   10.22570000
_cell_length_b   29.07510000
_cell_length_c   13.23950000
_cell_angle_alpha   90.00000000
_cell_angle_beta   130.09200000
_cell_angle_gamma   90.00000000
_symmetry_Int_Tables_number   1
_chemical_formula_structural   FeAg2H10(C8N5)2
_chemical_formula_sum   'Fe4 Ag8 H40 C64 N40'
_cell_volume   3011.29786072
_cell_formula_units_Z   4
loop_
 _symmetry_equiv_pos_site_id
 _symmetry_equiv_pos_as_xyz
  1  'x, y, z'
loop_
 _atom_site_type_symbol
 _atom_site_label
 _atom_site_symmetry_multiplicity
 _atom_site_fract_x
 _atom_site_fract_y
 _atom_site_fract_z
 _atom_site_occupancy
 _atom_site_charge
Fe  Fe1  1  0.45533000  0.94724000  0.22674000  1.0 0.5599518183
Fe  Fe2  1  0.54467000  0.44724000  0.27326000  1.0 0.5599518183
Fe  Fe3  1  0.54467000  0.05276000  0.77326000  1.0 0.5599518183
Fe  Fe4  1  0.45533000  0.55276000  0.72674000  1.0 0.5599518183
Ag  Ag1  1  0.94484000  0.95026000  0.72911000  1.0 0.1283699187
Ag  Ag2  1  0.94398000  0.94810000  0.21213000  1.0 0.1187907818
Ag  Ag3  1  0.05516000  0.45026000  0.77089000  1.0 0.1363019757
Ag  Ag4  1  0.05602000  0.44810000  0.28787000  1.0 0.1187907818
Ag  Ag5  1  0.05516000  0.04974000  0.27089000  1.0 0.1363019757
Ag  Ag6  1  0.05602000  0.05190000  0.78787000  1.0 0.1187907818
Ag  Ag7  1  0.94484000  0.54974000  0.22911000  1.0 0.1283699187
Ag  Ag8  1  0.94398000  0.55190000  0.71213000  1.0 0.1187907818
H  H1  1  0.61300000  0.69120000  0.43300000  1.0 0.2730239692
H  H2  1  0.43010000  0.68080000  0.32540000  1.0 0.2762317124
H  H3  1  0.44580000  0.87970000  0.05560000  1.0 0.1125370103
H  H4  1  0.48570000  0.80200000  0.04700000  1.0 0.1125370103
H  H5  1  0.55790000  0.78430000  0.38430000  1.0 0.1283699187
H  H6  1  0.51560000  0.86300000  0.38330000  1.0 0.1187907818
H  H7  1  0.53310000  0.59250000  0.07270000  1.0 0.1363019757
H  H8  1  0.53240000  0.51390000  0.10070000  1.0 0.1125370103
H  H9  1  0.60360000  0.53220000  0.42760000  1.0 0.1125370103
H  H10  1  0.62380000  0.61130000  0.41690000  1.0 0.1019694178
H  H11  1  0.38700000  0.19120000  0.06700000  1.0 0.2730239692
H  H12  1  0.56990000  0.18080000  0.17460000  1.0 0.2762317124
H  H13  1  0.55420000  0.37970000  0.44440000  1.0 0.1125370103
H  H14  1  0.51430000  0.30200000  0.45300000  1.0 0.1125370103
H  H15  1  0.44210000  0.28430000  0.11570000  1.0 0.1283699187
H  H16  1  0.48440000  0.36300000  0.11670000  1.0 0.1187907818
H  H17  1  0.46690000  0.09250000  0.42730000  1.0 0.1363019757
H  H18  1  0.46760000  0.01390000  0.39930000  1.0 0.1125370103
H  H19  1  0.39640000  0.03220000  0.07240000  1.0 0.1125370103
H  H20  1  0.37620000  0.11130000  0.08310000  1.0 0.1019694178
H  H21  1  0.38700000  0.30880000  0.56700000  1.0 0.2730239692
H  H22  1  0.56990000  0.31920000  0.67460000  1.0 0.2762317124
H  H23  1  0.55420000  0.12030000  0.94440000  1.0 0.1125370103
H  H24  1  0.51430000  0.19800000  0.95300000  1.0 0.1125370103
H  H25  1  0.44210000  0.21570000  0.61570000  1.0 0.1283699187
H  H26  1  0.48440000  0.13700000  0.61670000  1.0 0.1187907818
H  H27  1  0.46690000  0.40750000  0.92730000  1.0 0.1363019757
H  H28  1  0.46760000  0.48610000  0.89930000  1.0 0.1125370103
H  H29  1  0.39640000  0.46780000  0.57240000  1.0 0.1125370103
H  H30  1  0.37620000  0.38870000  0.58310000  1.0 0.1019694178
H  H31  1  0.61300000  0.80880000  0.93300000  1.0 0.2730239692
H  H32  1  0.43010000  0.81920000  0.82540000  1.0 0.2762317124
H  H33  1  0.44580000  0.62030000  0.55560000  1.0 0.1125370103
H  H34  1  0.48570000  0.69800000  0.54700000  1.0 0.1125370103
H  H35  1  0.55790000  0.71570000  0.88430000  1.0 0.1283699187
H  H36  1  0.51560000  0.63700000  0.88330000  1.0 0.1187907818
H  H37  1  0.53310000  0.90750000  0.57270000  1.0 0.1363019757
H  H38  1  0.53240000  0.98610000  0.60070000  1.0 0.1125370103
H  H39  1  0.60360000  0.96780000  0.92760000  1.0 0.1125370103
H  H40  1  0.62380000  0.88870000  0.91690000  1.0 0.1019694178
C  C1  1  0.46910000  0.86015000  0.12310000  1.0 0.0691370514
C  C2  1  0.49240000  0.81375000  0.11720000  1.0 -0.1862202629
C  C3  1  0.52610000  0.78400000  0.21470000  1.0 0.0796722972
C  C4  1  0.53510000  0.80314000  0.31580000  1.0 -0.1862202629
C  C5  1  0.51000000  0.85036000  0.31440000  1.0 0.088500144
C  C6  1  0.55380000  0.73514000  0.20280000  1.0 0.1722260105
C  C7  1  0.57650000  0.66048000  0.21500000  1.0 0.151121101
C  C8  1  0.57550000  0.61124000  0.24040000  1.0 0.0796722972
C  C9  1  0.54910000  0.58096000  0.14710000  1.0 -0.1812548247
C  C10  1  0.54660000  0.53394000  0.16370000  1.0 0.088500144
C  C11  1  0.59040000  0.54465000  0.35520000  1.0 0.088500144
C  C12  1  0.60040000  0.59217000  0.34880000  1.0 -0.2147606102
C  C13  1  0.75120000  0.94751000  0.52800000  1.0 -0.0209608123
C  C14  1  0.16720000  0.94071000  0.24160000  1.0 -0.0209608123
C  C15  1  0.14900000  0.94950000  0.92840000  1.0 -0.0298743826
C  C16  1  0.73010000  0.95431000  0.19670000  1.0 -0.0298743826
C  C17  1  0.53090000  0.36015000  0.37690000  1.0 0.0691370514
C  C18  1  0.50760000  0.31375000  0.38280000  1.0 -0.1862202629
C  C19  1  0.47390000  0.28400000  0.28530000  1.0 0.0796722972
C  C20  1  0.46490000  0.30314000  0.18420000  1.0 -0.1862202629
C  C21  1  0.49000000  0.35036000  0.18560000  1.0 0.088500144
C  C22  1  0.44620000  0.23514000  0.29720000  1.0 0.1722260105
C  C23  1  0.42350000  0.16048000  0.28500000  1.0 0.151121101
C  C24  1  0.42450000  0.11124000  0.25960000  1.0 0.0796722972
C  C25  1  0.45090000  0.08096000  0.35290000  1.0 -0.1812548247
C  C26  1  0.45340000  0.03394000  0.33630000  1.0 0.088500144
C  C27  1  0.40960000  0.04465000  0.14480000  1.0 0.088500144
C  C28  1  0.39960000  0.09217000  0.15120000  1.0 -0.2154812751
C  C29  1  0.24880000  0.44751000  0.97200000  1.0 -0.0209608123
C  C30  1  0.83280000  0.44071000  0.25840000  1.0 -0.0209608123
C  C31  1  0.85100000  0.44950000  0.57160000  1.0 -0.0298743826
C  C32  1  0.26990000  0.45431000  0.30330000  1.0 -0.0298743826
C  C33  1  0.53090000  0.13985000  0.87690000  1.0 0.0691370514
C  C34  1  0.50760000  0.18625000  0.88280000  1.0 -0.1862202629
C  C35  1  0.47390000  0.21600000  0.78530000  1.0 0.0796722972
C  C36  1  0.46490000  0.19686000  0.68420000  1.0 -0.1812548247
C  C37  1  0.49000000  0.14964000  0.68560000  1.0 0.088500144
C  C38  1  0.44620000  0.26486000  0.79720000  1.0 0.1722260105
C  C39  1  0.42350000  0.33952000  0.78500000  1.0 0.151121101
C  C40  1  0.42450000  0.38876000  0.75960000  1.0 0.0796722972
C  C41  1  0.45090000  0.41904000  0.85290000  1.0 -0.1812548247
C  C42  1  0.45340000  0.46606000  0.83630000  1.0 0.088500144
C  C43  1  0.40960000  0.45535000  0.64480000  1.0 0.088500144
C  C44  1  0.39960000  0.40783000  0.65120000  1.0 -0.2154812751
C  C45  1  0.24880000  0.05249000  0.47200000  1.0 -0.0209608123
C  C46  1  0.83280000  0.05929000  0.75840000  1.0 -0.0209608123
C  C47  1  0.85100000  0.05050000  0.07160000  1.0 -0.0298743826
C  C48  1  0.26990000  0.04569000  0.80330000  1.0 -0.0298743826
C  C49  1  0.46910000  0.63985000  0.62310000  1.0 0.0691370514
C  C50  1  0.49240000  0.68625000  0.61720000  1.0 -0.1862202629
C  C51  1  0.52610000  0.71600000  0.71470000  1.0 0.0796722972
C  C52  1  0.53510000  0.69686000  0.81580000  1.0 -0.1862202629
C  C53  1  0.51000000  0.64964000  0.81440000  1.0 0.088500144
C  C54  1  0.55380000  0.76486000  0.70280000  1.0 0.1722260105
C  C55  1  0.57650000  0.83952000  0.71500000  1.0 0.151121101
C  C56  1  0.57550000  0.88876000  0.74040000  1.0 0.0796722972
C  C57  1  0.54910000  0.91904000  0.64710000  1.0 -0.1812548247
C  C58  1  0.54660000  0.96606000  0.66370000  1.0 0.088500144
C  C59  1  0.59040000  0.95535000  0.85520000  1.0 0.088500144
C  C60  1  0.60040000  0.90783000  0.84880000  1.0 -0.2154812751
C  C61  1  0.75120000  0.55249000  0.02800000  1.0 -0.0209608123
C  C62  1  0.16720000  0.55929000  0.74160000  1.0 -0.0209608123
C  C63  1  0.14900000  0.55050000  0.42840000  1.0 -0.0298743826
C  C64  1  0.73010000  0.54569000  0.69670000  1.0 -0.0298743826
N  N1  1  0.47810000  0.87900000  0.22070000  1.0 -0.1285163307
N  N2  1  0.58330000  0.72179000  0.12400000  1.0 -0.250583866
N  N3  1  0.59760000  0.67465000  0.13170000  1.0 -0.2353097138
N  N4  1  0.54960000  0.69761000  0.26360000  1.0 0.0691370514
N  N5  1  0.51740000  0.69947000  0.35230000  1.0 -0.445751184
N  N6  1  0.56320000  0.51540000  0.26440000  1.0 -0.1285163307
N  N7  1  0.64160000  0.94642000  0.41620000  1.0 -0.286873086
N  N8  1  0.28450000  0.94003000  0.24760000  1.0 -0.2800957934
N  N9  1  0.26760000  0.94873000  0.03870000  1.0 -0.2800957934
N  N10  1  0.62250000  0.95500000  0.20210000  1.0 -0.2800957934
N  N11  1  0.52190000  0.37900000  0.27930000  1.0 -0.1285163307
N  N12  1  0.41670000  0.22179000  0.37600000  1.0 -0.250583866
N  N13  1  0.40240000  0.17465000  0.36830000  1.0 -0.2341445697
N  N14  1  0.45040000  0.19761000  0.23640000  1.0 0.0691370514
N  N15  1  0.48260000  0.19947000  0.14770000  1.0 -0.445751184
N  N16  1  0.43680000  0.01540000  0.23560000  1.0 -0.1285163307
N  N17  1  0.35840000  0.44642000  0.08380000  1.0 -0.2800957934
N  N18  1  0.71550000  0.44003000  0.25240000  1.0 -0.2800957934
N  N19  1  0.73240000  0.44873000  0.46130000  1.0 -0.2800957934
N  N20  1  0.37750000  0.45500000  0.29790000  1.0 -0.2800957934
N  N21  1  0.52190000  0.12100000  0.77930000  1.0 -0.1285163307
N  N22  1  0.41670000  0.27821000  0.87600000  1.0 -0.250583866
N  N23  1  0.40240000  0.32535000  0.86830000  1.0 -0.2353097138
N  N24  1  0.45040000  0.30239000  0.73640000  1.0 0.0691370514
N  N25  1  0.48260000  0.30053000  0.64770000  1.0 -0.4445394215
N  N26  1  0.43680000  0.48460000  0.73560000  1.0 -0.1285163307
N  N27  1  0.35840000  0.05358000  0.58380000  1.0 -0.286873086
N  N28  1  0.71550000  0.05997000  0.75240000  1.0 -0.2800957934
N  N29  1  0.73240000  0.05127000  0.96130000  1.0 -0.2800957934
N  N30  1  0.37750000  0.04500000  0.79790000  1.0 -0.2800957934
N  N31  1  0.47810000  0.62100000  0.72070000  1.0 -0.1285163307
N  N32  1  0.58330000  0.77821000  0.62400000  1.0 -0.250583866
N  N33  1  0.59760000  0.82535000  0.63170000  1.0 -0.2341445697
N  N34  1  0.54960000  0.80239000  0.76360000  1.0 0.0691370514
N  N35  1  0.51740000  0.80053000  0.85230000  1.0 -0.4445394215
N  N36  1  0.56320000  0.98460000  0.76440000  1.0 -0.1285163307
N  N37  1  0.64160000  0.55358000  0.91620000  1.0 -0.286873086
N  N38  1  0.28450000  0.55997000  0.74760000  1.0 -0.2800957934
N  N39  1  0.26760000  0.55127000  0.53870000  1.0 -0.2800957934
N  N40  1  0.62250000  0.54500000  0.70210000  1.0 -0.2800957934
