# DDEC6 charges by PACMAN v1.1 (https://github.com/mtap-research/PACMAN-charge/)
data_HESCUG_ASR_pacman
_symmetry_space_group_name_H-M   'P 1'
_cell_length_a   19.11740000
_cell_length_b   19.11740000
_cell_length_c   19.11740000
_cell_angle_alpha   92.73240000
_cell_angle_beta   92.73240000
_cell_angle_gamma   92.73240000
_symmetry_Int_Tables_number   1
_chemical_formula_structural   Gd2Re6H2C12Se8N6O5
_chemical_formula_sum   'Gd12 Re36 H12 C72 Se48 N36 O30'
_cell_volume   6962.31387544
_cell_formula_units_Z   6
loop_
 _symmetry_equiv_pos_site_id
 _symmetry_equiv_pos_as_xyz
  1  'x, y, z'
loop_
 _atom_site_type_symbol
 _atom_site_label
 _atom_site_symmetry_multiplicity
 _atom_site_fract_x
 _atom_site_fract_y
 _atom_site_fract_z
 _atom_site_occupancy
 _atom_site_charge
Gd  Gd1  1  0.45111000  0.11270000  0.49607000  1.0 1.9003434159
Gd  Gd2  1  0.11270000  0.49607000  0.45111000  1.0 1.9003434159
Gd  Gd3  1  0.49607000  0.45111000  0.11270000  1.0 1.9003434159
Gd  Gd4  1  0.04889000  0.00393000  0.38730000  1.0 1.9003434159
Gd  Gd5  1  0.38730000  0.04889000  0.00393000  1.0 1.9003434159
Gd  Gd6  1  0.00393000  0.38730000  0.04889000  1.0 1.9003434159
Gd  Gd7  1  0.54889000  0.88730000  0.50393000  1.0 1.9003434159
Gd  Gd8  1  0.88730000  0.50393000  0.54889000  1.0 1.9003434159
Gd  Gd9  1  0.50393000  0.54889000  0.88730000  1.0 1.9003434159
Gd  Gd10  1  0.95111000  0.99607000  0.61270000  1.0 1.9003434159
Gd  Gd11  1  0.61270000  0.95111000  0.99607000  1.0 1.9003434159
Gd  Gd12  1  0.99607000  0.61270000  0.95111000  1.0 1.9003434159
Re  Re1  1  0.68380000  0.17470000  0.34493000  1.0 0.1102364489
Re  Re2  1  0.72468000  0.14288000  0.21779000  1.0 0.1102364489
Re  Re3  1  0.68331000  0.26937000  0.24925000  1.0 0.0703601013
Re  Re4  1  0.17470000  0.34493000  0.68380000  1.0 0.1157972797
Re  Re5  1  0.14288000  0.21779000  0.72468000  1.0 0.1102364489
Re  Re6  1  0.26937000  0.24925000  0.68331000  1.0 0.0788352428
Re  Re7  1  0.34493000  0.68380000  0.17470000  1.0 0.1102364489
Re  Re8  1  0.21779000  0.72468000  0.14288000  1.0 0.1102364489
Re  Re9  1  0.24925000  0.68331000  0.26937000  1.0 0.0703601013
Re  Re10  1  0.81620000  0.15507000  0.32530000  1.0 0.1102364489
Re  Re11  1  0.77532000  0.28221000  0.35712000  1.0 0.1102364489
Re  Re12  1  0.81669000  0.25075000  0.23063000  1.0 0.0703601013
Re  Re13  1  0.32530000  0.81620000  0.15507000  1.0 0.1102364489
Re  Re14  1  0.35712000  0.77532000  0.28221000  1.0 0.1102364489
Re  Re15  1  0.23063000  0.81669000  0.25075000  1.0 0.0788352428
Re  Re16  1  0.15507000  0.32530000  0.81620000  1.0 0.1157972797
Re  Re17  1  0.28221000  0.35712000  0.77532000  1.0 0.1102364489
Re  Re18  1  0.25075000  0.23063000  0.81669000  1.0 0.0788352428
Re  Re19  1  0.31620000  0.82530000  0.65507000  1.0 0.1157972797
Re  Re20  1  0.27532000  0.85712000  0.78221000  1.0 0.1102364489
Re  Re21  1  0.31669000  0.73063000  0.75075000  1.0 0.0788352428
Re  Re22  1  0.82530000  0.65507000  0.31620000  1.0 0.1102364489
Re  Re23  1  0.85712000  0.78221000  0.27532000  1.0 0.1102364489
Re  Re24  1  0.73063000  0.75075000  0.31669000  1.0 0.0788352428
Re  Re25  1  0.65507000  0.31620000  0.82530000  1.0 0.1102364489
Re  Re26  1  0.78221000  0.27532000  0.85712000  1.0 0.1102364489
Re  Re27  1  0.75075000  0.31669000  0.73063000  1.0 0.0703601013
Re  Re28  1  0.18380000  0.84493000  0.67470000  1.0 0.1157972797
Re  Re29  1  0.22468000  0.71779000  0.64288000  1.0 0.1102364489
Re  Re30  1  0.18331000  0.74925000  0.76937000  1.0 0.0788352428
Re  Re31  1  0.67470000  0.18380000  0.84493000  1.0 0.1102364489
Re  Re32  1  0.64288000  0.22468000  0.71779000  1.0 0.1102364489
Re  Re33  1  0.76937000  0.18331000  0.74925000  1.0 0.0788352428
Re  Re34  1  0.84493000  0.67470000  0.18380000  1.0 0.1102364489
Re  Re35  1  0.71779000  0.64288000  0.22468000  1.0 0.1102364489
Re  Re36  1  0.74925000  0.76937000  0.18331000  1.0 0.0703601013
H  H1  1  0.41380000  0.09550000  0.68360000  1.0 0.1102364489
H  H2  1  0.09550000  0.68360000  0.41380000  1.0 0.1102364489
H  H3  1  0.68360000  0.41380000  0.09550000  1.0 0.1102364489
H  H4  1  0.08620000  0.81640000  0.40450000  1.0 0.104913153
H  H5  1  0.40450000  0.08620000  0.81640000  1.0 0.104913153
H  H6  1  0.81640000  0.40450000  0.08620000  1.0 0.1102364489
H  H7  1  0.58620000  0.90450000  0.31640000  1.0 0.1102364489
H  H8  1  0.90450000  0.31640000  0.58620000  1.0 0.1102364489
H  H9  1  0.31640000  0.58620000  0.90450000  1.0 0.1102364489
H  H10  1  0.91380000  0.18360000  0.59550000  1.0 0.1102364489
H  H11  1  0.59550000  0.91380000  0.18360000  1.0 0.1102364489
H  H12  1  0.18360000  0.59550000  0.91380000  1.0 0.1102364489
C  C1  1  0.61030000  0.13510000  0.41450000  1.0 0.0788352428
C  C2  1  0.69430000  0.06610000  0.13730000  1.0 0.0628309742
C  C3  1  0.61160000  0.33540000  0.20270000  1.0 0.1817201259
C  C4  1  0.51270000  0.99930000  0.62270000  1.0 0.5745923795
C  C5  1  0.48930000  0.01930000  0.69270000  1.0 0.0240868722
C  C6  1  0.43940000  0.06600000  0.71300000  1.0 -0.2296125439
C  C7  1  0.13510000  0.41450000  0.61030000  1.0 0.0788352428
C  C8  1  0.06610000  0.13730000  0.69430000  1.0 0.0703601013
C  C9  1  0.33540000  0.20270000  0.61160000  1.0 0.1854220483
C  C10  1  0.99930000  0.62270000  0.51270000  1.0 0.5761088011
C  C11  1  0.01930000  0.69270000  0.48930000  1.0 0.0240868722
C  C12  1  0.06600000  0.71300000  0.43940000  1.0 -0.2296125439
C  C13  1  0.41450000  0.61030000  0.13510000  1.0 0.0788352428
C  C14  1  0.13730000  0.69430000  0.06610000  1.0 0.0628309742
C  C15  1  0.20270000  0.61160000  0.33540000  1.0 0.1817201259
C  C16  1  0.62270000  0.51270000  0.99930000  1.0 0.5745923795
C  C17  1  0.69270000  0.48930000  0.01930000  1.0 0.0240868722
C  C18  1  0.71300000  0.43940000  0.06600000  1.0 -0.2296125439
C  C19  1  0.88970000  0.08550000  0.36490000  1.0 0.0859534654
C  C20  1  0.80570000  0.36270000  0.43390000  1.0 0.0703601013
C  C21  1  0.88840000  0.29730000  0.16460000  1.0 0.1817201259
C  C22  1  0.98730000  0.87730000  0.50070000  1.0 0.5761088011
C  C23  1  0.01070000  0.80730000  0.48070000  1.0 0.0240868722
C  C24  1  0.06060000  0.78700000  0.43400000  1.0 -0.2296125439
C  C25  1  0.36490000  0.88970000  0.08550000  1.0 0.0859534654
C  C26  1  0.43390000  0.80570000  0.36270000  1.0 0.0703601013
C  C27  1  0.16460000  0.88840000  0.29730000  1.0 0.1817201259
C  C28  1  0.50070000  0.98730000  0.87730000  1.0 0.5761088011
C  C29  1  0.48070000  0.01070000  0.80730000  1.0 0.0240868722
C  C30  1  0.43400000  0.06060000  0.78700000  1.0 -0.2296125439
C  C31  1  0.08550000  0.36490000  0.88970000  1.0 0.0788352428
C  C32  1  0.36270000  0.43390000  0.80570000  1.0 0.0628309742
C  C33  1  0.29730000  0.16460000  0.88840000  1.0 0.1854220483
C  C34  1  0.87730000  0.50070000  0.98730000  1.0 0.5761088011
C  C35  1  0.80730000  0.48070000  0.01070000  1.0 0.0240868722
C  C36  1  0.78700000  0.43400000  0.06060000  1.0 -0.2296125439
C  C37  1  0.38970000  0.86490000  0.58550000  1.0 0.0788352428
C  C38  1  0.30570000  0.93390000  0.86270000  1.0 0.0703601013
C  C39  1  0.38840000  0.66460000  0.79730000  1.0 0.1817201259
C  C40  1  0.48730000  0.00070000  0.37730000  1.0 0.5761088011
C  C41  1  0.51070000  0.98070000  0.30730000  1.0 0.0240868722
C  C42  1  0.56060000  0.93400000  0.28700000  1.0 -0.2296125439
C  C43  1  0.86490000  0.58550000  0.38970000  1.0 0.0859534654
C  C44  1  0.93390000  0.86270000  0.30570000  1.0 0.0628309742
C  C45  1  0.66460000  0.79730000  0.38840000  1.0 0.1817201259
C  C46  1  0.00070000  0.37730000  0.48730000  1.0 0.5761088011
C  C47  1  0.98070000  0.30730000  0.51070000  1.0 0.0240868722
C  C48  1  0.93400000  0.28700000  0.56060000  1.0 -0.2296125439
C  C49  1  0.58550000  0.38970000  0.86490000  1.0 0.0788352428
C  C50  1  0.86270000  0.30570000  0.93390000  1.0 0.0703601013
C  C51  1  0.79730000  0.38840000  0.66460000  1.0 0.1817201259
C  C52  1  0.37730000  0.48730000  0.00070000  1.0 0.5761088011
C  C53  1  0.30730000  0.51070000  0.98070000  1.0 0.0240868722
C  C54  1  0.28700000  0.56060000  0.93400000  1.0 -0.2296125439
C  C55  1  0.11030000  0.91450000  0.63510000  1.0 0.0859534654
C  C56  1  0.19430000  0.63730000  0.56610000  1.0 0.0628309742
C  C57  1  0.11160000  0.70270000  0.83540000  1.0 0.1817201259
C  C58  1  0.01270000  0.12270000  0.49930000  1.0 0.5761088011
C  C59  1  0.98930000  0.19270000  0.51930000  1.0 0.0240868722
C  C60  1  0.93940000  0.21300000  0.56600000  1.0 -0.2296125439
C  C61  1  0.63510000  0.11030000  0.91450000  1.0 0.0788352428
C  C62  1  0.56610000  0.19430000  0.63730000  1.0 0.0628309742
C  C63  1  0.83540000  0.11160000  0.70270000  1.0 0.1817201259
C  C64  1  0.49930000  0.01270000  0.12270000  1.0 0.5761088011
C  C65  1  0.51930000  0.98930000  0.19270000  1.0 0.0240868722
C  C66  1  0.56600000  0.93940000  0.21300000  1.0 -0.2296125439
C  C67  1  0.91450000  0.63510000  0.11030000  1.0 0.0859534654
C  C68  1  0.63730000  0.56610000  0.19430000  1.0 0.0628309742
C  C69  1  0.70270000  0.83540000  0.11160000  1.0 0.1817201259
C  C70  1  0.12270000  0.49930000  0.01270000  1.0 0.5745923795
C  C71  1  0.19270000  0.51930000  0.98930000  1.0 0.0240868722
C  C72  1  0.21300000  0.56600000  0.93940000  1.0 -0.2296125439
Se  Se1  1  0.59825000  0.16299000  0.24041000  1.0 0.0323527441
Se  Se2  1  0.72505000  0.05476000  0.31199000  1.0 -0.0508579123
Se  Se3  1  0.64623000  0.29702000  0.37154000  1.0 0.1157972797
Se  Se4  1  0.72657000  0.23702000  0.12938000  1.0 0.0027965257
Se  Se5  1  0.16299000  0.24041000  0.59825000  1.0 0.0323527441
Se  Se6  1  0.05476000  0.31199000  0.72505000  1.0 -0.0556747371
Se  Se7  1  0.29702000  0.37154000  0.64623000  1.0 0.1102364489
Se  Se8  1  0.23702000  0.12938000  0.72657000  1.0 -0.0018982781
Se  Se9  1  0.24041000  0.59825000  0.16299000  1.0 0.0379278923
Se  Se10  1  0.31199000  0.72505000  0.05476000  1.0 -0.0508579123
Se  Se11  1  0.37154000  0.64623000  0.29702000  1.0 0.1157972797
Se  Se12  1  0.12938000  0.72657000  0.23702000  1.0 -0.0018982781
Se  Se13  1  0.90175000  0.25959000  0.33701000  1.0 0.0323527441
Se  Se14  1  0.77495000  0.18801000  0.44524000  1.0 -0.0508579123
Se  Se15  1  0.85377000  0.12846000  0.20298000  1.0 0.1157972797
Se  Se16  1  0.77343000  0.37062000  0.26298000  1.0 0.0027965257
Se  Se17  1  0.33701000  0.90175000  0.25959000  1.0 0.0323527441
Se  Se18  1  0.44524000  0.77495000  0.18801000  1.0 -0.0508579123
Se  Se19  1  0.20298000  0.85377000  0.12846000  1.0 0.1102364489
Se  Se20  1  0.26298000  0.77343000  0.37062000  1.0 0.0027965257
Se  Se21  1  0.25959000  0.33701000  0.90175000  1.0 0.0379278923
Se  Se22  1  0.18801000  0.44524000  0.77495000  1.0 -0.0508579123
Se  Se23  1  0.12846000  0.20298000  0.85377000  1.0 0.1102364489
Se  Se24  1  0.37062000  0.26298000  0.77343000  1.0 -0.0018982781
Se  Se25  1  0.40175000  0.83701000  0.75959000  1.0 0.0323527441
Se  Se26  1  0.27495000  0.94524000  0.68801000  1.0 -0.0508579123
Se  Se27  1  0.35377000  0.70298000  0.62846000  1.0 0.1102364489
Se  Se28  1  0.27343000  0.76298000  0.87062000  1.0 0.0057641419
Se  Se29  1  0.83701000  0.75959000  0.40175000  1.0 0.0240868722
Se  Se30  1  0.94524000  0.68801000  0.27495000  1.0 -0.0508579123
Se  Se31  1  0.70298000  0.62846000  0.35377000  1.0 0.1102364489
Se  Se32  1  0.76298000  0.87062000  0.27343000  1.0 0.0027965257
Se  Se33  1  0.75959000  0.40175000  0.83701000  1.0 0.0323527441
Se  Se34  1  0.68801000  0.27495000  0.94524000  1.0 -0.0508579123
Se  Se35  1  0.62846000  0.35377000  0.70298000  1.0 0.1102364489
Se  Se36  1  0.87062000  0.27343000  0.76298000  1.0 -0.0018982781
Se  Se37  1  0.09825000  0.74041000  0.66299000  1.0 0.0323527441
Se  Se38  1  0.22505000  0.81199000  0.55476000  1.0 -0.0508579123
Se  Se39  1  0.14623000  0.87154000  0.79702000  1.0 0.1157972797
Se  Se40  1  0.22657000  0.62938000  0.73702000  1.0 0.0027965257
Se  Se41  1  0.66299000  0.09825000  0.74041000  1.0 0.0323527441
Se  Se42  1  0.55476000  0.22505000  0.81199000  1.0 -0.0508579123
Se  Se43  1  0.79702000  0.14623000  0.87154000  1.0 0.1102364489
Se  Se44  1  0.73702000  0.22657000  0.62938000  1.0 -0.0018982781
Se  Se45  1  0.74041000  0.66299000  0.09825000  1.0 0.0323527441
Se  Se46  1  0.81199000  0.55476000  0.22505000  1.0 -0.0508579123
Se  Se47  1  0.87154000  0.79702000  0.14623000  1.0 0.1102364489
Se  Se48  1  0.62938000  0.73702000  0.22657000  1.0 -0.0054023301
N  N1  1  0.57140000  0.11440000  0.45280000  1.0 -0.5106092664
N  N2  1  0.67920000  0.02740000  0.09150000  1.0 -0.4969524167
N  N3  1  0.57250000  0.37330000  0.17690000  1.0 -0.6007896704
N  N4  1  0.11440000  0.45280000  0.57140000  1.0 -0.5106092664
N  N5  1  0.02740000  0.09150000  0.67920000  1.0 -0.4927304807
N  N6  1  0.37330000  0.17690000  0.57250000  1.0 -0.6060291154
N  N7  1  0.45280000  0.57140000  0.11440000  1.0 -0.5106092664
N  N8  1  0.09150000  0.67920000  0.02740000  1.0 -0.4927304807
N  N9  1  0.17690000  0.57250000  0.37330000  1.0 -0.6007896704
N  N10  1  0.92860000  0.04720000  0.38560000  1.0 -0.5106092664
N  N11  1  0.82080000  0.40850000  0.47260000  1.0 -0.4927304807
N  N12  1  0.92750000  0.32310000  0.12670000  1.0 -0.6060291154
N  N13  1  0.38560000  0.92860000  0.04720000  1.0 -0.5106092664
N  N14  1  0.47260000  0.82080000  0.40850000  1.0 -0.4969524167
N  N15  1  0.12670000  0.92750000  0.32310000  1.0 -0.6007896704
N  N16  1  0.04720000  0.38560000  0.92860000  1.0 -0.5106092664
N  N17  1  0.40850000  0.47260000  0.82080000  1.0 -0.4969524167
N  N18  1  0.32310000  0.12670000  0.92750000  1.0 -0.6007896704
N  N19  1  0.42860000  0.88560000  0.54720000  1.0 -0.5106092664
N  N20  1  0.32080000  0.97260000  0.90850000  1.0 -0.4927304807
N  N21  1  0.42750000  0.62670000  0.82310000  1.0 -0.6007896704
N  N22  1  0.88560000  0.54720000  0.42860000  1.0 -0.5106092664
N  N23  1  0.97260000  0.90850000  0.32080000  1.0 -0.4969524167
N  N24  1  0.62670000  0.82310000  0.42750000  1.0 -0.6007896704
N  N25  1  0.54720000  0.42860000  0.88560000  1.0 -0.5106092664
N  N26  1  0.90850000  0.32080000  0.97260000  1.0 -0.4969524167
N  N27  1  0.82310000  0.42750000  0.62670000  1.0 -0.6007896704
N  N28  1  0.07140000  0.95280000  0.61440000  1.0 -0.5106092664
N  N29  1  0.17920000  0.59150000  0.52740000  1.0 -0.4927304807
N  N30  1  0.07250000  0.67690000  0.87330000  1.0 -0.6007896704
N  N31  1  0.61440000  0.07140000  0.95280000  1.0 -0.5106092664
N  N32  1  0.52740000  0.17920000  0.59150000  1.0 -0.4927304807
N  N33  1  0.87330000  0.07250000  0.67690000  1.0 -0.6007896704
N  N34  1  0.95280000  0.61440000  0.07140000  1.0 -0.5106092664
N  N35  1  0.59150000  0.52740000  0.17920000  1.0 -0.4969524167
N  N36  1  0.67690000  0.87330000  0.07250000  1.0 -0.6007896704
O  O1  1  0.49130000  0.03420000  0.57230000  1.0 -0.7459724902
O  O2  1  0.55240000  0.94900000  0.61770000  1.0 -0.6812767309
O  O3  1  0.03420000  0.57230000  0.49130000  1.0 -0.7445843739
O  O4  1  0.94900000  0.61770000  0.55240000  1.0 -0.6812767309
O  O5  1  0.57230000  0.49130000  0.03420000  1.0 -0.7459724902
O  O6  1  0.61770000  0.55240000  0.94900000  1.0 -0.6812767309
O  O7  1  0.00870000  0.92770000  0.46580000  1.0 -0.7459724902
O  O8  1  0.94760000  0.88230000  0.55100000  1.0 -0.6812767309
O  O9  1  0.46580000  0.00870000  0.92770000  1.0 -0.7459724902
O  O10  1  0.55100000  0.94760000  0.88230000  1.0 -0.6812767309
O  O11  1  0.92770000  0.46580000  0.00870000  1.0 -0.7459724902
O  O12  1  0.88230000  0.55100000  0.94760000  1.0 -0.6812767309
O  O13  1  0.50870000  0.96580000  0.42770000  1.0 -0.7459724902
O  O14  1  0.44760000  0.05100000  0.38230000  1.0 -0.6812767309
O  O15  1  0.96580000  0.42770000  0.50870000  1.0 -0.7459724902
O  O16  1  0.05100000  0.38230000  0.44760000  1.0 -0.6812767309
O  O17  1  0.42770000  0.50870000  0.96580000  1.0 -0.7459724902
O  O18  1  0.38230000  0.44760000  0.05100000  1.0 -0.6812767309
O  O19  1  0.99130000  0.07230000  0.53420000  1.0 -0.7459724902
O  O20  1  0.05240000  0.11770000  0.44900000  1.0 -0.6812767309
O  O21  1  0.53420000  0.99130000  0.07230000  1.0 -0.7459724902
O  O22  1  0.44900000  0.05240000  0.11770000  1.0 -0.6812767309
O  O23  1  0.07230000  0.53420000  0.99130000  1.0 -0.7459724902
O  O24  1  0.11770000  0.44900000  0.05240000  1.0 -0.6812767309
O  O25  1  0.51465000  0.98535000  0.75000000  1.0 -0.1352609841
O  O26  1  0.98535000  0.75000000  0.51465000  1.0 -0.1335974731
O  O27  1  0.75000000  0.51465000  0.98535000  1.0 -0.1352609841
O  O28  1  0.48535000  0.01465000  0.25000000  1.0 -0.1335974731
O  O29  1  0.01465000  0.25000000  0.48535000  1.0 -0.1335974731
O  O30  1  0.25000000  0.48535000  0.01465000  1.0 -0.1352609841
