# DDEC6 charges by PACMAN v1.1 (https://github.com/mtap-research/PACMAN-charge/)
data_HETDUG_FSR_pacman
_symmetry_space_group_name_H-M   'P 1'
_cell_length_a   11.99350000
_cell_length_b   11.99350000
_cell_length_c   7.15500000
_cell_angle_alpha   83.45790000
_cell_angle_beta   96.54210000
_cell_angle_gamma   93.49000000
_symmetry_Int_Tables_number   1
_chemical_formula_structural   Cu(C9N)4
_chemical_formula_sum   'Cu2 C72 N8'
_cell_volume   1014.64762723
_cell_formula_units_Z   2
loop_
 _symmetry_equiv_pos_site_id
 _symmetry_equiv_pos_as_xyz
  1  'x, y, z'
loop_
 _atom_site_type_symbol
 _atom_site_label
 _atom_site_symmetry_multiplicity
 _atom_site_fract_x
 _atom_site_fract_y
 _atom_site_fract_z
 _atom_site_occupancy
 _atom_site_charge
Cu  Cu1  1  0.78516000  0.21484000  0.99249000  1.0 0.234729953
Cu  Cu2  1  0.21484000  0.78516000  0.00751000  1.0 0.2361047192
C  C1  1  0.56590000  0.14610000  0.15160000  1.0 0.0469760222
C  C2  1  0.14610000  0.56590000  0.84840000  1.0 0.0469760222
C  C3  1  0.43410000  0.85390000  0.84840000  1.0 0.0469760222
C  C4  1  0.85390000  0.43410000  0.15160000  1.0 0.0469760222
C  C5  1  0.49730000  0.10070000  0.28550000  1.0 -0.0543638469
C  C6  1  0.10070000  0.49730000  0.71450000  1.0 -0.0543638469
C  C7  1  0.50270000  0.89930000  0.71450000  1.0 -0.0543638469
C  C8  1  0.89930000  0.50270000  0.28550000  1.0 -0.0543638469
C  C9  1  0.53660000  0.02520000  0.42820000  1.0 0.0469760222
C  C10  1  0.02520000  0.53660000  0.57180000  1.0 0.0469760222
C  C11  1  0.46340000  0.97480000  0.57180000  1.0 0.0469760222
C  C12  1  0.97480000  0.46340000  0.42820000  1.0 0.0469760222
C  C13  1  0.63380000  0.96820000  0.39100000  1.0 0.0040946314
C  C14  1  0.96820000  0.63380000  0.60900000  1.0 0.0040946314
C  C15  1  0.36620000  0.03180000  0.60900000  1.0 0.0040946314
C  C16  1  0.03180000  0.36620000  0.39100000  1.0 0.0040946314
C  C17  1  0.70600000  0.03200000  0.27300000  1.0 0.0251061095
C  C18  1  0.03200000  0.70600000  0.72700000  1.0 0.0201394578
C  C19  1  0.29400000  0.96800000  0.72700000  1.0 0.0201394578
C  C20  1  0.96800000  0.29400000  0.27300000  1.0 0.0201394578
C  C21  1  0.85000000  0.02400000  0.80900000  1.0 0.0675124288
C  C22  1  0.02400000  0.85000000  0.19100000  1.0 0.0641630514
C  C23  1  0.15000000  0.97600000  0.19100000  1.0 0.0641630514
C  C24  1  0.97600000  0.15000000  0.80900000  1.0 0.0675124288
C  C25  1  0.89130000  0.96930000  0.67400000  1.0 0.0040946314
C  C26  1  0.96930000  0.89130000  0.32600000  1.0 0.0122077104
C  C27  1  0.10870000  0.03070000  0.32600000  1.0 0.0040946314
C  C28  1  0.03070000  0.10870000  0.67400000  1.0 0.0040946314
C  C29  1  0.97430000  0.02570000  0.57430000  1.0 -0.0408213622
C  C30  1  0.02570000  0.97430000  0.42570000  1.0 -0.0408213622
C  C31  1  0.53820000  0.46180000  0.56680000  1.0 0.0201394578
C  C32  1  0.46180000  0.53820000  0.43320000  1.0 0.0201394578
C  C33  1  0.50010000  0.39490000  0.71000000  1.0 -0.0408213622
C  C34  1  0.39490000  0.50010000  0.29000000  1.0 -0.0408213622
C  C35  1  0.49990000  0.60510000  0.29000000  1.0 -0.0408213622
C  C36  1  0.60510000  0.49990000  0.71000000  1.0 -0.0408213622
C  C37  1  0.54520000  0.35300000  0.54040000  1.0 -0.0408213622
C  C38  1  0.35300000  0.54520000  0.45960000  1.0 -0.0408213622
C  C39  1  0.45480000  0.64700000  0.45960000  1.0 -0.0408213622
C  C40  1  0.64700000  0.45480000  0.54040000  1.0 -0.0408213622
C  C41  1  0.56920000  0.32260000  0.82800000  1.0 0.0122077104
C  C42  1  0.32260000  0.56920000  0.17200000  1.0 0.0201394578
C  C43  1  0.43080000  0.67740000  0.17200000  1.0 0.0201394578
C  C44  1  0.67740000  0.43080000  0.82800000  1.0 0.0122077104
C  C45  1  0.61680000  0.28380000  0.66840000  1.0 0.0427997707
C  C46  1  0.28380000  0.61680000  0.33160000  1.0 0.0427997707
C  C47  1  0.38320000  0.71620000  0.33160000  1.0 0.0427997707
C  C48  1  0.71620000  0.38320000  0.66840000  1.0 0.0427997707
C  C49  1  0.64050000  0.19830000  0.29400000  1.0 -0.0696477321
C  C50  1  0.19830000  0.64050000  0.70600000  1.0 -0.0696477321
C  C51  1  0.35950000  0.80170000  0.70600000  1.0 -0.0696477321
C  C52  1  0.80170000  0.35950000  0.29400000  1.0 -0.0696477321
C  C53  1  0.56790000  0.14890000  0.42300000  1.0 -0.1035165956
C  C54  1  0.14890000  0.56790000  0.57700000  1.0 -0.1035165956
C  C55  1  0.43210000  0.85110000  0.57700000  1.0 -0.1035165956
C  C56  1  0.85110000  0.43210000  0.42300000  1.0 -0.1035165956
C  C57  1  0.58860000  0.97460000  0.32100000  1.0 0.0122077104
C  C58  1  0.97460000  0.58860000  0.67900000  1.0 0.0122077104
C  C59  1  0.41140000  0.02540000  0.67900000  1.0 0.0122077104
C  C60  1  0.02540000  0.41140000  0.32100000  1.0 0.0122077104
C  C61  1  0.66300000  0.02300000  0.20200000  1.0 0.0675124288
C  C62  1  0.02300000  0.66300000  0.79800000  1.0 0.0675124288
C  C63  1  0.33700000  0.97700000  0.79800000  1.0 0.0675124288
C  C64  1  0.97700000  0.33700000  0.20200000  1.0 0.0675124288
C  C65  1  0.81200000  0.05000000  0.74500000  1.0 0.0469760222
C  C66  1  0.05000000  0.81200000  0.25500000  1.0 0.0427997707
C  C67  1  0.18800000  0.95000000  0.25500000  1.0 0.0427997707
C  C68  1  0.95000000  0.18800000  0.74500000  1.0 0.0469760222
C  C69  1  0.86880000  0.99880000  0.60800000  1.0 0.0201394578
C  C70  1  0.99880000  0.86880000  0.39200000  1.0 0.0201394578
C  C71  1  0.13120000  0.00120000  0.39200000  1.0 0.0201394578
C  C72  1  0.00120000  0.13120000  0.60800000  1.0 0.0201394578
N  N1  1  0.67760000  0.12280000  0.16250000  1.0 -0.0640369302
N  N2  1  0.12280000  0.67760000  0.83750000  1.0 -0.0640369302
N  N3  1  0.32240000  0.87720000  0.83750000  1.0 -0.0640369302
N  N4  1  0.87720000  0.32240000  0.16250000  1.0 -0.0640369302
N  N5  1  0.87360000  0.12640000  0.84400000  1.0 -0.1888906138
N  N6  1  0.12640000  0.87360000  0.15600000  1.0 -0.1888906138
N  N7  1  0.67970000  0.32030000  0.80960000  1.0 -0.0696477321
N  N8  1  0.32030000  0.67970000  0.19040000  1.0 -0.0696477321
