# DDEC6 charges by PACMAN v1.1 (https://github.com/mtap-research/PACMAN-charge/)
data_HEVZUH_FSR_pacman
_symmetry_space_group_name_H-M   'P 1'
_cell_length_a   15.89720000
_cell_length_b   15.89720000
_cell_length_c   20.92700000
_cell_angle_alpha   69.82120000
_cell_angle_beta   110.17900000
_cell_angle_gamma   95.52790000
_symmetry_Int_Tables_number   1
_chemical_formula_structural   Cu6PH16W16C40(N3O16)4
_chemical_formula_sum   'Cu12 P2 H32 W32 C80 N24 O128'
_cell_volume   4657.83656314
_cell_formula_units_Z   2
loop_
 _symmetry_equiv_pos_site_id
 _symmetry_equiv_pos_as_xyz
  1  'x, y, z'
loop_
 _atom_site_type_symbol
 _atom_site_label
 _atom_site_symmetry_multiplicity
 _atom_site_fract_x
 _atom_site_fract_y
 _atom_site_fract_z
 _atom_site_occupancy
 _atom_site_charge
Cu  Cu1  1  0.27769000  0.74695000  0.26316000  1.0 0.9471781505
Cu  Cu2  1  0.74695000  0.27769000  0.23684000  1.0 0.9471781505
Cu  Cu3  1  0.72231000  0.25305000  0.73684000  1.0 0.9471781505
Cu  Cu4  1  0.25305000  0.72231000  0.76316000  1.0 0.9419988049
Cu  Cu5  1  0.14804000  0.68258000  0.99799000  1.0 0.9419988049
Cu  Cu6  1  0.68258000  0.14804000  0.50201000  1.0 0.9419988049
Cu  Cu7  1  0.85196000  0.31742000  0.00201000  1.0 0.9419988049
Cu  Cu8  1  0.31742000  0.85196000  0.49799000  1.0 0.9419988049
Cu  Cu9  1  0.47810000  0.47810000  0.25000000  1.0 0.7584814681
Cu  Cu10  1  0.52190000  0.52190000  0.75000000  1.0 0.7584814681
Cu  Cu11  1  0.01340000  0.01340000  0.25000000  1.0 0.7767004026
Cu  Cu12  1  0.98660000  0.98660000  0.75000000  1.0 0.7742176903
P  P1  1  0.50000000  0.00000000  0.00000000  1.0 0.9021320594
P  P2  1  0.00000000  0.50000000  0.50000000  1.0 0.8854657663
H  H1  1  0.36731000  0.40383000  0.11979000  1.0 0.1108187613
H  H2  1  0.40383000  0.36731000  0.38021000  1.0 0.1108187613
H  H3  1  0.63269000  0.59617000  0.88021000  1.0 0.1108187613
H  H4  1  0.59617000  0.63269000  0.61979000  1.0 0.1108187613
H  H5  1  0.35546000  0.65150000  0.97269000  1.0 0.097296345
H  H6  1  0.65150000  0.35546000  0.52731000  1.0 0.097296345
H  H7  1  0.64454000  0.34850000  0.02731000  1.0 0.097296345
H  H8  1  0.34850000  0.64454000  0.47269000  1.0 0.097296345
H  H9  1  0.40283000  0.34667000  0.04164000  1.0 0.1192822829
H  H10  1  0.34667000  0.40283000  0.45836000  1.0 0.1192822829
H  H11  1  0.59717000  0.65333000  0.95836000  1.0 0.1192822829
H  H12  1  0.65333000  0.59717000  0.54164000  1.0 0.1192822829
H  H13  1  0.40805000  0.43541000  0.93267000  1.0 0.1192822829
H  H14  1  0.43541000  0.40805000  0.56733000  1.0 0.1192822829
H  H15  1  0.59195000  0.56459000  0.06733000  1.0 0.1192822829
H  H16  1  0.56459000  0.59195000  0.43267000  1.0 0.1192822829
H  H17  1  0.95067000  0.85093000  0.17089000  1.0 0.1192822829
H  H18  1  0.85093000  0.95067000  0.32911000  1.0 0.1192822829
H  H19  1  0.04933000  0.14907000  0.82911000  1.0 0.1192822829
H  H20  1  0.14907000  0.04933000  0.67089000  1.0 0.1192822829
H  H21  1  0.16605000  0.92029000  0.10663000  1.0 0.0949097955
H  H22  1  0.92029000  0.16605000  0.39337000  1.0 0.0949097955
H  H23  1  0.83395000  0.07971000  0.89337000  1.0 0.0949097955
H  H24  1  0.07971000  0.83395000  0.60663000  1.0 0.0949097955
H  H25  1  0.86681000  0.85151000  0.05007000  1.0 0.1108187613
H  H26  1  0.85151000  0.86681000  0.44993000  1.0 0.1108187613
H  H27  1  0.13319000  0.14849000  0.94993000  1.0 0.1108187613
H  H28  1  0.14849000  0.13319000  0.55007000  1.0 0.1108187613
H  H29  1  0.93949000  0.87303000  0.97027000  1.0 0.1192822829
H  H30  1  0.87303000  0.93949000  0.52973000  1.0 0.1192822829
H  H31  1  0.06051000  0.12697000  0.02973000  1.0 0.1192822829
H  H32  1  0.12697000  0.06051000  0.47027000  1.0 0.1192822829
W  W1  1  0.41150000  0.87548000  0.13661000  1.0 2.2466702116
W  W2  1  0.87548000  0.41150000  0.36339000  1.0 2.2466702116
W  W3  1  0.58850000  0.12452000  0.86339000  1.0 2.2466702116
W  W4  1  0.12452000  0.58850000  0.63661000  1.0 2.2466702116
W  W5  1  0.53744000  0.76466000  0.07991000  1.0 2.1704516662
W  W6  1  0.76466000  0.53744000  0.42009000  1.0 2.1704516662
W  W7  1  0.46256000  0.23534000  0.92009000  1.0 2.1704516662
W  W8  1  0.23534000  0.46256000  0.57991000  1.0 2.1704516662
W  W9  1  0.64004000  0.90590000  0.17722000  1.0 2.1352067245
W  W10  1  0.90590000  0.64004000  0.32278000  1.0 2.133392836
W  W11  1  0.35996000  0.09410000  0.82278000  1.0 2.133392836
W  W12  1  0.09410000  0.35996000  0.67722000  1.0 2.133392836
W  W13  1  0.25503000  0.97537000  0.93876000  1.0 1.1806959165
W  W14  1  0.97537000  0.25503000  0.56124000  1.0 1.1806959165
W  W15  1  0.74497000  0.02463000  0.06124000  1.0 1.1806959165
W  W16  1  0.02463000  0.74497000  0.43876000  1.0 1.1806959165
W  W17  1  0.36986000  0.11028000  0.05644000  1.0 2.2059530867
W  W18  1  0.11028000  0.36986000  0.44356000  1.0 2.2059530867
W  W19  1  0.63014000  0.88972000  0.94356000  1.0 2.2059530867
W  W20  1  0.88972000  0.63014000  0.55644000  1.0 2.2059530867
W  W21  1  0.37882000  0.87462000  0.88218000  1.0 1.0287876976
W  W22  1  0.87462000  0.37882000  0.61782000  1.0 1.0223464025
W  W23  1  0.62118000  0.12538000  0.11782000  1.0 1.0223464025
W  W24  1  0.12538000  0.62118000  0.38218000  1.0 1.0287876976
W  W25  1  0.03967000  0.72431000  0.46808000  1.0 1.2160436166
W  W26  1  0.72431000  0.03967000  0.03192000  1.0 1.2132622652
W  W27  1  0.96033000  0.27569000  0.53192000  1.0 1.2132622652
W  W28  1  0.27569000  0.96033000  0.96808000  1.0 1.2132622652
W  W29  1  0.15166000  0.58926000  0.40872000  1.0 1.1739295972
W  W30  1  0.58926000  0.15166000  0.09128000  1.0 1.1806959165
W  W31  1  0.84834000  0.41074000  0.59128000  1.0 1.1806959165
W  W32  1  0.41074000  0.84834000  0.90872000  1.0 1.1806959165
C  C1  1  0.19610000  0.70430000  0.13050000  1.0 0.5367516829
C  C2  1  0.70430000  0.19610000  0.36950000  1.0 0.5367516829
C  C3  1  0.80390000  0.29570000  0.86950000  1.0 0.5367516829
C  C4  1  0.29570000  0.80390000  0.63050000  1.0 0.5367516829
C  C5  1  0.38080000  0.59420000  0.27050000  1.0 0.5286645545
C  C6  1  0.59420000  0.38080000  0.22950000  1.0 0.5286645545
C  C7  1  0.61920000  0.40580000  0.72950000  1.0 0.5286645545
C  C8  1  0.40580000  0.61920000  0.77050000  1.0 0.5286645545
C  C9  1  0.27000000  0.65360000  0.13730000  1.0 -0.0483651212
C  C10  1  0.65360000  0.27000000  0.36270000  1.0 -0.0483651212
C  C11  1  0.73000000  0.34640000  0.86270000  1.0 -0.0483651212
C  C12  1  0.34640000  0.73000000  0.63730000  1.0 -0.0483651212
C  C13  1  0.34310000  0.60550000  0.19380000  1.0 -0.0009409539
C  C14  1  0.60550000  0.34310000  0.30620000  1.0 -0.0009409539
C  C15  1  0.65690000  0.39450000  0.80620000  1.0 -0.0009409539
C  C16  1  0.39450000  0.65690000  0.69380000  1.0 -0.0009409539
C  C17  1  0.33710000  0.57590000  0.10040000  1.0 0.329523283
C  C18  1  0.57590000  0.33710000  0.39960000  1.0 0.329523283
C  C19  1  0.66290000  0.42410000  0.89960000  1.0 0.329523283
C  C20  1  0.42410000  0.66290000  0.60040000  1.0 0.329523283
C  C21  1  0.35950000  0.53490000  0.05310000  1.0 -0.0202943508
C  C22  1  0.53490000  0.35950000  0.44690000  1.0 -0.0202943508
C  C23  1  0.64050000  0.46510000  0.94690000  1.0 -0.0202943508
C  C24  1  0.46510000  0.64050000  0.55310000  1.0 -0.0202943508
C  C25  1  0.37190000  0.44250000  0.07500000  1.0 -0.0683981972
C  C26  1  0.44250000  0.37190000  0.42500000  1.0 -0.0683981972
C  C27  1  0.62810000  0.55750000  0.92500000  1.0 -0.0683981972
C  C28  1  0.55750000  0.62810000  0.57500000  1.0 -0.0683981972
C  C29  1  0.36450000  0.58850000  0.98760000  1.0 0.0203873942
C  C30  1  0.58850000  0.36450000  0.51240000  1.0 0.0203873942
C  C31  1  0.63550000  0.41150000  0.01240000  1.0 0.0203873942
C  C32  1  0.41150000  0.63550000  0.48760000  1.0 0.0203873942
C  C33  1  0.39180000  0.40920000  0.02730000  1.0 -0.1283651264
C  C34  1  0.40920000  0.39180000  0.47270000  1.0 -0.1283651264
C  C35  1  0.60820000  0.59080000  0.97270000  1.0 -0.1283651264
C  C36  1  0.59080000  0.60820000  0.52730000  1.0 -0.1283651264
C  C37  1  0.39600000  0.46080000  0.96370000  1.0 0.0269038228
C  C38  1  0.46080000  0.39600000  0.53630000  1.0 0.0269038228
C  C39  1  0.60400000  0.53920000  0.03630000  1.0 0.0269038228
C  C40  1  0.53920000  0.60400000  0.46370000  1.0 0.0269038228
C  C41  1  0.32470000  0.82530000  0.36890000  1.0 0.5367516829
C  C42  1  0.82530000  0.32470000  0.13110000  1.0 0.5367516829
C  C43  1  0.67530000  0.17470000  0.63110000  1.0 0.5367516829
C  C44  1  0.17470000  0.67530000  0.86890000  1.0 0.5367516829
C  C45  1  0.17210000  0.96450000  0.36960000  1.0 0.5503574861
C  C46  1  0.96450000  0.17210000  0.13040000  1.0 0.5503574861
C  C47  1  0.82790000  0.03550000  0.63040000  1.0 0.5503574861
C  C48  1  0.03550000  0.82790000  0.86960000  1.0 0.5503574861
C  C49  1  0.23760000  0.86280000  0.32020000  1.0 -0.0389860652
C  C50  1  0.86280000  0.23760000  0.17980000  1.0 -0.0389860652
C  C51  1  0.76240000  0.13720000  0.67980000  1.0 -0.0389860652
C  C52  1  0.13720000  0.76240000  0.82020000  1.0 -0.0389860652
C  C53  1  0.12530000  0.88710000  0.22240000  1.0 0.329523283
C  C54  1  0.88710000  0.12530000  0.27760000  1.0 0.329523283
C  C55  1  0.87470000  0.11290000  0.77760000  1.0 0.329523283
C  C56  1  0.11290000  0.87470000  0.72240000  1.0 0.329523283
C  C57  1  0.17240000  0.91680000  0.32190000  1.0 -0.0202943508
C  C58  1  0.91680000  0.17240000  0.17810000  1.0 -0.0202943508
C  C59  1  0.82760000  0.08320000  0.67810000  1.0 -0.0202943508
C  C60  1  0.08320000  0.82760000  0.82190000  1.0 -0.0202943508
C  C61  1  0.06560000  0.88480000  0.14970000  1.0 -0.0389860652
C  C62  1  0.88480000  0.06560000  0.35030000  1.0 -0.0389860652
C  C63  1  0.93440000  0.11520000  0.85030000  1.0 -0.0389860652
C  C64  1  0.11520000  0.93440000  0.64970000  1.0 -0.0389860652
C  C65  1  0.97860000  0.86420000  0.13520000  1.0 -0.0683981972
C  C66  1  0.86420000  0.97860000  0.36480000  1.0 -0.0683981972
C  C67  1  0.02140000  0.13580000  0.86480000  1.0 -0.0683981972
C  C68  1  0.13580000  0.02140000  0.63520000  1.0 -0.0683981972
C  C69  1  0.10510000  0.90370000  0.09650000  1.0 0.0409613475
C  C70  1  0.90370000  0.10510000  0.40350000  1.0 0.0409613475
C  C71  1  0.89490000  0.09630000  0.90350000  1.0 0.0409613475
C  C72  1  0.09630000  0.89490000  0.59650000  1.0 0.0409613475
C  C73  1  0.92920000  0.86280000  0.06350000  1.0 -0.1223748224
C  C74  1  0.86280000  0.92920000  0.43650000  1.0 -0.1223748224
C  C75  1  0.07080000  0.13720000  0.93650000  1.0 -0.1223748224
C  C76  1  0.13720000  0.07080000  0.56350000  1.0 -0.1223748224
C  C77  1  0.97160000  0.87760000  0.01650000  1.0 0.0409613475
C  C78  1  0.87760000  0.97160000  0.48350000  1.0 0.0409613475
C  C79  1  0.02840000  0.12240000  0.98350000  1.0 0.0409613475
C  C80  1  0.12240000  0.02840000  0.51650000  1.0 0.0409613475
N  N1  1  0.26720000  0.63580000  0.07600000  1.0 -0.4068828496
N  N2  1  0.63580000  0.26720000  0.42400000  1.0 -0.4068828496
N  N3  1  0.73280000  0.36420000  0.92400000  1.0 -0.4068828496
N  N4  1  0.36420000  0.73280000  0.57600000  1.0 -0.4068828496
N  N5  1  0.38400000  0.55740000  0.17090000  1.0 -0.3727113763
N  N6  1  0.55740000  0.38400000  0.32910000  1.0 -0.3727113763
N  N7  1  0.61600000  0.44260000  0.82910000  1.0 -0.3727113763
N  N8  1  0.44260000  0.61600000  0.67090000  1.0 -0.3727113763
N  N9  1  0.38240000  0.55140000  0.94310000  1.0 -0.109168985
N  N10  1  0.55140000  0.38240000  0.55690000  1.0 -0.109168985
N  N11  1  0.61760000  0.44860000  0.05690000  1.0 -0.109168985
N  N12  1  0.44860000  0.61760000  0.44310000  1.0 -0.109168985
N  N13  1  0.20280000  0.84420000  0.25790000  1.0 -0.3727113763
N  N14  1  0.84420000  0.20280000  0.24210000  1.0 -0.3727113763
N  N15  1  0.79720000  0.15580000  0.74210000  1.0 -0.3727113763
N  N16  1  0.15580000  0.79720000  0.75790000  1.0 -0.3727113763
N  N17  1  0.10310000  0.93170000  0.26020000  1.0 -0.3540656763
N  N18  1  0.93170000  0.10310000  0.23980000  1.0 -0.3540656763
N  N19  1  0.89690000  0.06830000  0.73980000  1.0 -0.3540656763
N  N20  1  0.06830000  0.89690000  0.76020000  1.0 -0.3540656763
N  N21  1  0.05870000  0.89890000  0.03180000  1.0 -0.1370656816
N  N22  1  0.89890000  0.05870000  0.46820000  1.0 -0.1370656816
N  N23  1  0.94130000  0.10110000  0.96820000  1.0 -0.1370656816
N  N24  1  0.10110000  0.94130000  0.53180000  1.0 -0.1370656816
O  O1  1  0.50720000  0.92520000  0.06190000  1.0 -0.2376608039
O  O2  1  0.92520000  0.50720000  0.43810000  1.0 -0.2376608039
O  O3  1  0.49280000  0.07480000  0.93810000  1.0 -0.2376608039
O  O4  1  0.07480000  0.49280000  0.56190000  1.0 -0.2376608039
O  O5  1  0.45090000  0.78230000  0.11600000  1.0 -0.8219802128
O  O6  1  0.78230000  0.45090000  0.38400000  1.0 -0.8257146226
O  O7  1  0.54910000  0.21770000  0.88400000  1.0 -0.8257146226
O  O8  1  0.21770000  0.54910000  0.61600000  1.0 -0.8257146226
O  O9  1  0.52770000  0.88630000  0.19250000  1.0 -0.8417574959
O  O10  1  0.88630000  0.52770000  0.30750000  1.0 -0.8417574959
O  O11  1  0.47230000  0.11370000  0.80750000  1.0 -0.8417574959
O  O12  1  0.11370000  0.47230000  0.69250000  1.0 -0.8417574959
O  O13  1  0.31100000  0.89220000  0.04910000  1.0 -0.6707438635
O  O14  1  0.89220000  0.31100000  0.45090000  1.0 -0.6707438635
O  O15  1  0.68900000  0.10780000  0.95090000  1.0 -0.6707438635
O  O16  1  0.10780000  0.68900000  0.54910000  1.0 -0.6707438635
O  O17  1  0.38620000  0.99660000  0.12260000  1.0 -0.8097691732
O  O18  1  0.99660000  0.38620000  0.37740000  1.0 -0.8097691732
O  O19  1  0.61380000  0.00340000  0.87740000  1.0 -0.8097691732
O  O20  1  0.00340000  0.61380000  0.62260000  1.0 -0.8097691732
O  O21  1  0.36240000  0.82140000  0.19850000  1.0 -0.711136152
O  O22  1  0.82140000  0.36240000  0.30150000  1.0 -0.711136152
O  O23  1  0.63760000  0.17860000  0.80150000  1.0 -0.711136152
O  O24  1  0.17860000  0.63760000  0.69850000  1.0 -0.711136152
O  O25  1  0.40450000  0.99230000  0.93360000  1.0 -0.5794985192
O  O26  1  0.99230000  0.40450000  0.56640000  1.0 -0.5794985192
O  O27  1  0.59550000  0.00770000  0.06640000  1.0 -0.5794985192
O  O28  1  0.00770000  0.59550000  0.43360000  1.0 -0.5794985192
O  O29  1  0.61640000  0.79820000  0.02470000  1.0 -0.8097691732
O  O30  1  0.79820000  0.61640000  0.47530000  1.0 -0.8097691732
O  O31  1  0.38360000  0.20180000  0.97530000  1.0 -0.8097691732
O  O32  1  0.20180000  0.38360000  0.52470000  1.0 -0.8097691732
O  O33  1  0.62460000  0.80340000  0.15030000  1.0 -0.8219802128
O  O34  1  0.80340000  0.62460000  0.34970000  1.0 -0.8219802128
O  O35  1  0.37540000  0.19660000  0.84970000  1.0 -0.8219802128
O  O36  1  0.19660000  0.37540000  0.65030000  1.0 -0.8219802128
O  O37  1  0.54910000  0.65430000  0.11160000  1.0 -0.5640520202
O  O38  1  0.65430000  0.54910000  0.38840000  1.0 -0.5640520202
O  O39  1  0.45090000  0.34570000  0.88840000  1.0 -0.5640520202
O  O40  1  0.34570000  0.45090000  0.61160000  1.0 -0.5640520202
O  O41  1  0.44580000  0.78000000  0.99000000  1.0 -0.6629203307
O  O42  1  0.78000000  0.44580000  0.51000000  1.0 -0.6629203307
O  O43  1  0.55420000  0.22000000  0.01000000  1.0 -0.6629203307
O  O44  1  0.22000000  0.55420000  0.49000000  1.0 -0.6629203307
O  O45  1  0.72030000  0.84470000  0.27990000  1.0 -0.5929559416
O  O46  1  0.84470000  0.72030000  0.22010000  1.0 -0.5962218391
O  O47  1  0.27970000  0.15530000  0.72010000  1.0 -0.5929559416
O  O48  1  0.15530000  0.27970000  0.77990000  1.0 -0.5929559416
O  O49  1  0.73410000  0.94610000  0.13460000  1.0 -0.6707438635
O  O50  1  0.94610000  0.73410000  0.36540000  1.0 -0.6707438635
O  O51  1  0.26590000  0.05390000  0.86540000  1.0 -0.6707438635
O  O52  1  0.05390000  0.26590000  0.63460000  1.0 -0.6707438635
O  O53  1  0.63070000  0.02910000  0.17310000  1.0 -0.6478512483
O  O54  1  0.02910000  0.63070000  0.32690000  1.0 -0.6478512483
O  O55  1  0.36930000  0.97090000  0.82690000  1.0 -0.6478512483
O  O56  1  0.97090000  0.36930000  0.67310000  1.0 -0.6478512483
O  O57  1  0.15630000  0.95070000  0.93470000  1.0 -0.5381941544
O  O58  1  0.95070000  0.15630000  0.56530000  1.0 -0.5381941544
O  O59  1  0.84370000  0.04930000  0.06530000  1.0 -0.5381941544
O  O60  1  0.04930000  0.84370000  0.43470000  1.0 -0.5381941544
O  O61  1  0.30060000  0.87760000  0.92860000  1.0 -0.6707438635
O  O62  1  0.87760000  0.30060000  0.57140000  1.0 -0.6762041497
O  O63  1  0.69940000  0.12240000  0.07140000  1.0 -0.6762041497
O  O64  1  0.12240000  0.69940000  0.42860000  1.0 -0.6707438635
O  O65  1  0.28270000  0.06330000  0.99330000  1.0 -0.7605631547
O  O66  1  0.06330000  0.28270000  0.50670000  1.0 -0.7605631547
O  O67  1  0.71730000  0.93670000  0.00670000  1.0 -0.7605631547
O  O68  1  0.93670000  0.71730000  0.49330000  1.0 -0.7605631547
O  O69  1  0.30610000  0.16350000  0.08250000  1.0 -0.6478512483
O  O70  1  0.16350000  0.30610000  0.41750000  1.0 -0.6478512483
O  O71  1  0.69390000  0.83650000  0.91750000  1.0 -0.6478512483
O  O72  1  0.83650000  0.69390000  0.58250000  1.0 -0.6478512483
O  O73  1  0.48610000  0.13090000  0.10800000  1.0 -0.711136152
O  O74  1  0.13090000  0.48610000  0.39200000  1.0 -0.711136152
O  O75  1  0.51390000  0.86910000  0.89200000  1.0 -0.711136152
O  O76  1  0.86910000  0.51390000  0.60800000  1.0 -0.711136152
O  O77  1  0.34860000  0.79240000  0.84970000  1.0 -0.5710606026
O  O78  1  0.79240000  0.34860000  0.65030000  1.0 -0.5710606026
O  O79  1  0.65140000  0.20760000  0.15030000  1.0 -0.5710606026
O  O80  1  0.20760000  0.65140000  0.34970000  1.0 -0.5710606026
O  O81  1  0.18810000  0.72370000  0.18150000  1.0 -0.5084900754
O  O82  1  0.72370000  0.18810000  0.31850000  1.0 -0.5084900754
O  O83  1  0.81190000  0.27630000  0.81850000  1.0 -0.5084900754
O  O84  1  0.27630000  0.81190000  0.68150000  1.0 -0.5084900754
O  O85  1  0.35260000  0.63700000  0.30060000  1.0 -0.4838600727
O  O86  1  0.63700000  0.35260000  0.19940000  1.0 -0.4838600727
O  O87  1  0.64740000  0.36300000  0.69940000  1.0 -0.4838600727
O  O88  1  0.36300000  0.64740000  0.80060000  1.0 -0.4838600727
O  O89  1  0.13390000  0.72570000  0.06940000  1.0 -0.4735350432
O  O90  1  0.72570000  0.13390000  0.43060000  1.0 -0.4735350432
O  O91  1  0.86610000  0.27430000  0.93060000  1.0 -0.4735350432
O  O92  1  0.27430000  0.86610000  0.56940000  1.0 -0.4735350432
O  O93  1  0.44270000  0.53510000  0.30820000  1.0 -0.4855076717
O  O94  1  0.53510000  0.44270000  0.19180000  1.0 -0.4855076717
O  O95  1  0.55730000  0.46490000  0.69180000  1.0 -0.4855076717
O  O96  1  0.46490000  0.55730000  0.80820000  1.0 -0.4855076717
O  O97  1  0.07140000  0.56040000  0.03660000  1.0 0.0203873942
O  O98  1  0.56040000  0.07140000  0.46340000  1.0 0.0203873942
O  O99  1  0.92860000  0.43960000  0.96340000  1.0 0.0203873942
O  O100  1  0.43960000  0.92860000  0.53660000  1.0 0.0269038228
O  O101  1  0.59400000  0.59400000  0.25000000  1.0 0.142873737
O  O102  1  0.40600000  0.40600000  0.75000000  1.0 0.142873737
O  O103  1  0.36120000  0.78000000  0.34500000  1.0 -0.4639036404
O  O104  1  0.78000000  0.36120000  0.15500000  1.0 -0.4639036404
O  O105  1  0.63880000  0.22000000  0.65500000  1.0 -0.4639036404
O  O106  1  0.22000000  0.63880000  0.84500000  1.0 -0.4639036404
O  O107  1  0.36320000  0.83300000  0.43140000  1.0 -0.5191810401
O  O108  1  0.83300000  0.36320000  0.06860000  1.0 -0.5191810401
O  O109  1  0.63680000  0.16700000  0.56860000  1.0 -0.5191810401
O  O110  1  0.16700000  0.63680000  0.93140000  1.0 -0.5191810401
O  O111  1  0.23530000  0.95290000  0.43040000  1.0 -0.5191810401
O  O112  1  0.95290000  0.23530000  0.06960000  1.0 -0.5191810401
O  O113  1  0.76470000  0.04710000  0.56960000  1.0 -0.5191810401
O  O114  1  0.04710000  0.76470000  0.93040000  1.0 -0.5191810401
O  O115  1  0.10780000  0.02100000  0.34620000  1.0 -0.5084900754
O  O116  1  0.02100000  0.10780000  0.15380000  1.0 -0.5084900754
O  O117  1  0.89220000  0.97900000  0.65380000  1.0 -0.5084900754
O  O118  1  0.97900000  0.89220000  0.84620000  1.0 -0.5084900754
O  O119  1  0.91350000  0.91350000  0.25000000  1.0 -0.1223748224
O  O120  1  0.08650000  0.08650000  0.75000000  1.0 -0.1223748224
O  O121  1  0.01280000  0.56880000  0.53360000  1.0 -0.3069429668
O  O122  1  0.56880000  0.01280000  0.96640000  1.0 -0.3069429668
O  O123  1  0.98720000  0.43120000  0.46640000  1.0 -0.3069429668
O  O124  1  0.43120000  0.98720000  0.03360000  1.0 -0.3069429668
O  O125  1  0.09190000  0.47770000  0.49400000  1.0 -0.3945889222
O  O126  1  0.47770000  0.09190000  0.00600000  1.0 -0.3966119833
O  O127  1  0.90810000  0.52230000  0.50600000  1.0 -0.3966119833
O  O128  1  0.52230000  0.90810000  0.99400000  1.0 -0.3966119833
