# DDEC6 charges by PACMAN v1.1 (https://github.com/mtap-research/PACMAN-charge/)
data_HEYBIX_ASR_pacman
_symmetry_space_group_name_H-M   'P 1'
_cell_length_a   17.64230000
_cell_length_b   16.79000000
_cell_length_c   8.46173000
_cell_angle_alpha   81.44810000
_cell_angle_beta   70.23840000
_cell_angle_gamma   28.31350000
_symmetry_Int_Tables_number   1
_chemical_formula_structural   NbZn3P4(O8F)2
_chemical_formula_sum   'Nb2 Zn6 P8 O32 F4'
_cell_volume   1054.67089417
_cell_formula_units_Z   2
loop_
 _symmetry_equiv_pos_site_id
 _symmetry_equiv_pos_as_xyz
  1  'x, y, z'
loop_
 _atom_site_type_symbol
 _atom_site_label
 _atom_site_symmetry_multiplicity
 _atom_site_fract_x
 _atom_site_fract_y
 _atom_site_fract_z
 _atom_site_occupancy
 _atom_site_charge
Nb  Nb1  1  0.25000000  0.25000000  0.25000000  1.0 2.493302719
Nb  Nb2  1  0.00000000  0.00000000  0.00000000  1.0 2.493302719
Zn  Zn1  1  0.61633000  0.61633000  0.88367000  1.0 1.1872626704
Zn  Zn2  1  0.88367000  0.88367000  0.61633000  1.0 1.1842392049
Zn  Zn3  1  0.63367000  0.63367000  0.36633000  1.0 1.1842392049
Zn  Zn4  1  0.36633000  0.36633000  0.63367000  1.0 1.1842392049
Zn  Zn5  1  0.75000000  0.75000000  0.75000000  1.0 1.1431020063
Zn  Zn6  1  0.50000000  0.50000000  0.50000000  1.0 1.1431020063
P  P1  1  0.85638000  0.51318000  0.52482000  1.0 1.5107459189
P  P2  1  0.10562000  0.52482000  0.51318000  1.0 1.5157022637
P  P3  1  0.52482000  0.10562000  0.85638000  1.0 1.5107459189
P  P4  1  0.51318000  0.85638000  0.10562000  1.0 1.5107459189
P  P5  1  0.39362000  0.73682000  0.72518000  1.0 1.5107459189
P  P6  1  0.14438000  0.72518000  0.73682000  1.0 1.5157022637
P  P7  1  0.72518000  0.14438000  0.39362000  1.0 1.5107459189
P  P8  1  0.73682000  0.39362000  0.14438000  1.0 1.5107459189
O  O1  1  0.05800000  0.35580000  0.45100000  1.0 -0.7594067145
O  O2  1  0.13520000  0.45100000  0.35580000  1.0 -0.7594067145
O  O3  1  0.45100000  0.13520000  0.05800000  1.0 -0.7594067145
O  O4  1  0.35580000  0.05800000  0.13520000  1.0 -0.7594067145
O  O5  1  0.19200000  0.89420000  0.79900000  1.0 -0.7594067145
O  O6  1  0.11480000  0.79900000  0.89420000  1.0 -0.7594067145
O  O7  1  0.79900000  0.11480000  0.19200000  1.0 -0.7594067145
O  O8  1  0.89420000  0.19200000  0.11480000  1.0 -0.7594067145
O  O9  1  0.74110000  0.69030000  0.58670000  1.0 -0.6935746033
O  O10  1  0.98190000  0.58670000  0.69030000  1.0 -0.6935746033
O  O11  1  0.58670000  0.98190000  0.74110000  1.0 -0.6935746033
O  O12  1  0.69030000  0.74110000  0.98190000  1.0 -0.696260019
O  O13  1  0.50890000  0.55970000  0.66330000  1.0 -0.6935746033
O  O14  1  0.26810000  0.66330000  0.55970000  1.0 -0.6935746033
O  O15  1  0.66330000  0.26810000  0.50890000  1.0 -0.6935746033
O  O16  1  0.55970000  0.50890000  0.26810000  1.0 -0.6935746033
O  O17  1  0.82670000  0.47050000  0.67450000  1.0 -0.6935746033
O  O18  1  0.02830000  0.67450000  0.47050000  1.0 -0.6935746033
O  O19  1  0.67450000  0.02830000  0.82670000  1.0 -0.6935746033
O  O20  1  0.47050000  0.82670000  0.02830000  1.0 -0.6935746033
O  O21  1  0.42330000  0.77950000  0.57550000  1.0 -0.6935746033
O  O22  1  0.22170000  0.57550000  0.77950000  1.0 -0.6935746033
O  O23  1  0.57550000  0.22170000  0.42330000  1.0 -0.6935746033
O  O24  1  0.77950000  0.42330000  0.22170000  1.0 -0.6935746033
O  O25  1  0.82850000  0.51110000  0.37690000  1.0 -0.6520770628
O  O26  1  0.28350000  0.37690000  0.51110000  1.0 -0.6520770628
O  O27  1  0.37690000  0.28350000  0.82850000  1.0 -0.6520770628
O  O28  1  0.51110000  0.82850000  0.28350000  1.0 -0.6520770628
O  O29  1  0.42150000  0.73890000  0.87310000  1.0 -0.6520770628
O  O30  1  0.96650000  0.87310000  0.73890000  1.0 -0.6520770628
O  O31  1  0.87310000  0.96650000  0.42150000  1.0 -0.6520770628
O  O32  1  0.73890000  0.42150000  0.96650000  1.0 -0.6520770628
F  F1  1  0.11460000  0.38540000  0.11460000  1.0 -0.4292301226
F  F2  1  0.38540000  0.11460000  0.38540000  1.0 -0.4292301226
F  F3  1  0.13540000  0.86460000  0.13540000  1.0 -0.4292301226
F  F4  1  0.86460000  0.13540000  0.86460000  1.0 -0.4292301226
