# DDEC6 charges by PACMAN v1.1 (https://github.com/mtap-research/PACMAN-charge/)
data_HEZHIH_ASR_pacman
_symmetry_space_group_name_H-M   'P 1'
_cell_length_a   18.74840000
_cell_length_b   18.74840000
_cell_length_c   18.74840000
_cell_angle_alpha   111.32900000
_cell_angle_beta   111.32900000
_cell_angle_gamma   111.32900000
_symmetry_Int_Tables_number   1
_chemical_formula_structural   CaH8C9O5
_chemical_formula_sum   'Ca12 H96 C108 O60'
_cell_volume   4691.86372311
_cell_formula_units_Z   12
loop_
 _symmetry_equiv_pos_site_id
 _symmetry_equiv_pos_as_xyz
  1  'x, y, z'
loop_
 _atom_site_type_symbol
 _atom_site_label
 _atom_site_symmetry_multiplicity
 _atom_site_fract_x
 _atom_site_fract_y
 _atom_site_fract_z
 _atom_site_occupancy
 _atom_site_charge
Ca  Ca1  1  0.64154000  0.14488000  0.17018000  1.0 1.3382308854
Ca  Ca2  1  0.14488000  0.17018000  0.64154000  1.0 1.3382308854
Ca  Ca3  1  0.17018000  0.64154000  0.14488000  1.0 1.3278772049
Ca  Ca4  1  0.35846000  0.85512000  0.82982000  1.0 1.3382308854
Ca  Ca5  1  0.85512000  0.82982000  0.35846000  1.0 1.3382308854
Ca  Ca6  1  0.82982000  0.35846000  0.85512000  1.0 1.3382308854
Ca  Ca7  1  0.33255000  0.88538000  0.36922000  1.0 1.3278772049
Ca  Ca8  1  0.88538000  0.36922000  0.33255000  1.0 1.3278772049
Ca  Ca9  1  0.36922000  0.33255000  0.88538000  1.0 1.3278772049
Ca  Ca10  1  0.66745000  0.11462000  0.63078000  1.0 1.3278772049
Ca  Ca11  1  0.11462000  0.63078000  0.66745000  1.0 1.3278772049
Ca  Ca12  1  0.63078000  0.66745000  0.11462000  1.0 1.32440287
H  H1  1  0.30800000  0.07080000  0.49650000  1.0 0.120832757
H  H2  1  0.07080000  0.49650000  0.30800000  1.0 0.120832757
H  H3  1  0.49650000  0.30800000  0.07080000  1.0 0.120832757
H  H4  1  0.69200000  0.92920000  0.50350000  1.0 0.120832757
H  H5  1  0.92920000  0.50350000  0.69200000  1.0 0.120832757
H  H6  1  0.50350000  0.69200000  0.92920000  1.0 0.120832757
H  H7  1  0.54200000  0.22140000  0.75600000  1.0 0.120832757
H  H8  1  0.22140000  0.75600000  0.54200000  1.0 0.120832757
H  H9  1  0.75600000  0.54200000  0.22140000  1.0 0.120832757
H  H10  1  0.45800000  0.77860000  0.24400000  1.0 0.120832757
H  H11  1  0.77860000  0.24400000  0.45800000  1.0 0.120832757
H  H12  1  0.24400000  0.45800000  0.77860000  1.0 0.120832757
H  H13  1  0.28440000  0.77330000  0.97460000  1.0 0.1282005477
H  H14  1  0.77330000  0.97460000  0.28440000  1.0 0.1282005477
H  H15  1  0.97460000  0.28440000  0.77330000  1.0 0.1282005477
H  H16  1  0.71560000  0.22670000  0.02540000  1.0 0.1282005477
H  H17  1  0.22670000  0.02540000  0.71560000  1.0 0.1282005477
H  H18  1  0.02540000  0.71560000  0.22670000  1.0 0.1282005477
H  H19  1  0.46940000  0.02590000  0.22220000  1.0 0.120832757
H  H20  1  0.02590000  0.22220000  0.46940000  1.0 0.120832757
H  H21  1  0.22220000  0.46940000  0.02590000  1.0 0.120832757
H  H22  1  0.53060000  0.97410000  0.77780000  1.0 0.120832757
H  H23  1  0.97410000  0.77780000  0.53060000  1.0 0.120832757
H  H24  1  0.77780000  0.53060000  0.97410000  1.0 0.120832757
H  H25  1  0.13580000  0.55530000  0.92120000  1.0 0.1282005477
H  H26  1  0.55530000  0.92120000  0.13580000  1.0 0.1282005477
H  H27  1  0.92120000  0.13580000  0.55530000  1.0 0.1282005477
H  H28  1  0.86420000  0.44470000  0.07880000  1.0 0.1282005477
H  H29  1  0.44470000  0.07880000  0.86420000  1.0 0.1282005477
H  H30  1  0.07880000  0.86420000  0.44470000  1.0 0.1282005477
H  H31  1  0.15710000  0.63460000  0.90460000  1.0 0.120832757
H  H32  1  0.63460000  0.90460000  0.15710000  1.0 0.120832757
H  H33  1  0.90460000  0.15710000  0.63460000  1.0 0.120832757
H  H34  1  0.84290000  0.36540000  0.09540000  1.0 0.120832757
H  H35  1  0.36540000  0.09540000  0.84290000  1.0 0.120832757
H  H36  1  0.09540000  0.84290000  0.36540000  1.0 0.120832757
H  H37  1  0.23560000  0.62060000  0.94780000  1.0 0.120832757
H  H38  1  0.62060000  0.94780000  0.23560000  1.0 0.120832757
H  H39  1  0.94780000  0.23560000  0.62060000  1.0 0.120832757
H  H40  1  0.76440000  0.37940000  0.05220000  1.0 0.120832757
H  H41  1  0.37940000  0.05220000  0.76440000  1.0 0.120832757
H  H42  1  0.05220000  0.76440000  0.37940000  1.0 0.120832757
H  H43  1  0.55570000  0.24150000  0.89380000  1.0 0.120832757
H  H44  1  0.24150000  0.89380000  0.55570000  1.0 0.120832757
H  H45  1  0.89380000  0.55570000  0.24150000  1.0 0.120832757
H  H46  1  0.44430000  0.75850000  0.10620000  1.0 0.120832757
H  H47  1  0.75850000  0.10620000  0.44430000  1.0 0.120832757
H  H48  1  0.10620000  0.44430000  0.75850000  1.0 0.120832757
H  H49  1  0.60760000  0.33540000  0.90400000  1.0 0.1133377267
H  H50  1  0.33540000  0.90400000  0.60760000  1.0 0.1133377267
H  H51  1  0.90400000  0.60760000  0.33540000  1.0 0.1133377267
H  H52  1  0.39240000  0.66460000  0.09600000  1.0 0.1133377267
H  H53  1  0.66460000  0.09600000  0.39240000  1.0 0.1133377267
H  H54  1  0.09600000  0.39240000  0.66460000  1.0 0.1133377267
H  H55  1  0.58020000  0.33350000  0.97320000  1.0 0.120832757
H  H56  1  0.33350000  0.97320000  0.58020000  1.0 0.120832757
H  H57  1  0.97320000  0.58020000  0.33350000  1.0 0.120832757
H  H58  1  0.41980000  0.66650000  0.02680000  1.0 0.120832757
H  H59  1  0.66650000  0.02680000  0.41980000  1.0 0.120832757
H  H60  1  0.02680000  0.41980000  0.66650000  1.0 0.120832757
H  H61  1  0.49650000  0.10200000  0.43550000  1.0 0.1373729731
H  H62  1  0.10200000  0.43550000  0.49650000  1.0 0.1373729731
H  H63  1  0.43550000  0.49650000  0.10200000  1.0 0.1373729731
H  H64  1  0.50350000  0.89800000  0.56450000  1.0 0.1373729731
H  H65  1  0.89800000  0.56450000  0.50350000  1.0 0.1373729731
H  H66  1  0.56450000  0.50350000  0.89800000  1.0 0.1373729731
H  H67  1  0.53570000  0.08810000  0.37420000  1.0 0.120832757
H  H68  1  0.08810000  0.37420000  0.53570000  1.0 0.120832757
H  H69  1  0.37420000  0.53570000  0.08810000  1.0 0.120832757
H  H70  1  0.46430000  0.91190000  0.62580000  1.0 0.120832757
H  H71  1  0.91190000  0.62580000  0.46430000  1.0 0.120832757
H  H72  1  0.62580000  0.46430000  0.91190000  1.0 0.120832757
H  H73  1  0.45350000  0.10020000  0.34530000  1.0 0.1282005477
H  H74  1  0.10020000  0.34530000  0.45350000  1.0 0.1282005477
H  H75  1  0.34530000  0.45350000  0.10020000  1.0 0.1282005477
H  H76  1  0.54650000  0.89980000  0.65470000  1.0 0.1282005477
H  H77  1  0.89980000  0.65470000  0.54650000  1.0 0.1282005477
H  H78  1  0.65470000  0.54650000  0.89980000  1.0 0.1282005477
H  H79  1  0.18980000  0.10350000  0.43710000  1.0 0.120832757
H  H80  1  0.10350000  0.43710000  0.18980000  1.0 0.120832757
H  H81  1  0.43710000  0.18980000  0.10350000  1.0 0.120832757
H  H82  1  0.81020000  0.89650000  0.56290000  1.0 0.120832757
H  H83  1  0.89650000  0.56290000  0.81020000  1.0 0.120832757
H  H84  1  0.56290000  0.81020000  0.89650000  1.0 0.120832757
H  H85  1  0.16080000  0.00810000  0.42500000  1.0 0.120832757
H  H86  1  0.00810000  0.42500000  0.16080000  1.0 0.120832757
H  H87  1  0.42500000  0.16080000  0.00810000  1.0 0.120832757
H  H88  1  0.83920000  0.99190000  0.57500000  1.0 0.120832757
H  H89  1  0.99190000  0.57500000  0.83920000  1.0 0.120832757
H  H90  1  0.57500000  0.83920000  0.99190000  1.0 0.120832757
H  H91  1  0.09480000  0.04140000  0.42080000  1.0 0.1373729731
H  H92  1  0.04140000  0.42080000  0.09480000  1.0 0.1373729731
H  H93  1  0.42080000  0.09480000  0.04140000  1.0 0.1373729731
H  H94  1  0.90520000  0.95860000  0.57920000  1.0 0.1373729731
H  H95  1  0.95860000  0.57920000  0.90520000  1.0 0.1373729731
H  H96  1  0.57920000  0.90520000  0.95860000  1.0 0.1373729731
C  C1  1  0.43400000  0.22336000  0.75407000  1.0 0.120832757
C  C2  1  0.22336000  0.75407000  0.43400000  1.0 0.120832757
C  C3  1  0.75407000  0.43400000  0.22336000  1.0 0.120832757
C  C4  1  0.56600000  0.77664000  0.24593000  1.0 0.120832757
C  C5  1  0.77664000  0.24593000  0.56600000  1.0 0.120832757
C  C6  1  0.24593000  0.56600000  0.77664000  1.0 0.120832757
C  C7  1  0.29524000  0.13516000  0.59937000  1.0 0.1282005477
C  C8  1  0.13516000  0.59937000  0.29524000  1.0 0.1282005477
C  C9  1  0.59937000  0.29524000  0.13516000  1.0 0.1282005477
C  C10  1  0.70476000  0.86484000  0.40063000  1.0 0.1282005477
C  C11  1  0.86484000  0.40063000  0.70476000  1.0 0.1282005477
C  C12  1  0.40063000  0.70476000  0.86484000  1.0 0.1282005477
C  C13  1  0.38067000  0.90626000  0.09124000  1.0 -0.0259830607
C  C14  1  0.90626000  0.09124000  0.38067000  1.0 -0.0259830607
C  C15  1  0.09124000  0.38067000  0.90626000  1.0 -0.0259830607
C  C16  1  0.61933000  0.09374000  0.90876000  1.0 -0.0259830607
C  C17  1  0.09374000  0.90876000  0.61933000  1.0 -0.0259830607
C  C18  1  0.90876000  0.61933000  0.09374000  1.0 -0.0259830607
C  C19  1  0.33955000  0.10939000  0.56088000  1.0 -0.2787043539
C  C20  1  0.10939000  0.56088000  0.33955000  1.0 -0.2787043539
C  C21  1  0.56088000  0.33955000  0.10939000  1.0 -0.2787043539
C  C22  1  0.66045000  0.89061000  0.43912000  1.0 -0.2787043539
C  C23  1  0.89061000  0.43912000  0.66045000  1.0 -0.2787043539
C  C24  1  0.43912000  0.66045000  0.89061000  1.0 -0.2787043539
C  C25  1  0.48016000  0.19946000  0.71687000  1.0 -0.2688354622
C  C26  1  0.19946000  0.71687000  0.48016000  1.0 -0.2688354622
C  C27  1  0.71687000  0.48016000  0.19946000  1.0 -0.2688354622
C  C28  1  0.51984000  0.80054000  0.28313000  1.0 -0.2688354622
C  C29  1  0.80054000  0.28313000  0.51984000  1.0 -0.2688354622
C  C30  1  0.28313000  0.51984000  0.80054000  1.0 -0.2688354622
C  C31  1  0.30972000  0.81120000  0.03774000  1.0 -0.2688354622
C  C32  1  0.81120000  0.03774000  0.30972000  1.0 -0.2688354622
C  C33  1  0.03774000  0.30972000  0.81120000  1.0 -0.2688354622
C  C34  1  0.69028000  0.18880000  0.96226000  1.0 -0.2688354622
C  C35  1  0.18880000  0.96226000  0.69028000  1.0 -0.2688354622
C  C36  1  0.96226000  0.69028000  0.18880000  1.0 -0.2688354622
C  C37  1  0.43263000  0.14209000  0.62008000  1.0 -0.0157576566
C  C38  1  0.14209000  0.62008000  0.43263000  1.0 -0.0157576566
C  C39  1  0.62008000  0.43263000  0.14209000  1.0 -0.0157576566
C  C40  1  0.56737000  0.85791000  0.37992000  1.0 -0.0157576566
C  C41  1  0.85791000  0.37992000  0.56737000  1.0 -0.0157576566
C  C42  1  0.37992000  0.56737000  0.85791000  1.0 -0.0157576566
C  C43  1  0.47872000  0.11029000  0.57843000  1.0 0.598414919
C  C44  1  0.11029000  0.57843000  0.47872000  1.0 0.598414919
C  C45  1  0.57843000  0.47872000  0.11029000  1.0 0.598414919
C  C46  1  0.52128000  0.88971000  0.42157000  1.0 0.598414919
C  C47  1  0.88971000  0.42157000  0.52128000  1.0 0.598414919
C  C48  1  0.42157000  0.52128000  0.88971000  1.0 0.598414919
C  C49  1  0.27771000  0.77439000  0.08049000  1.0 0.120832757
C  C50  1  0.77439000  0.08049000  0.27771000  1.0 0.120832757
C  C51  1  0.08049000  0.27771000  0.77439000  1.0 0.120832757
C  C52  1  0.72229000  0.22561000  0.91951000  1.0 0.120832757
C  C53  1  0.22561000  0.91951000  0.72229000  1.0 0.120832757
C  C54  1  0.91951000  0.72229000  0.22561000  1.0 0.120832757
C  C55  1  0.34044000  0.19169000  0.69708000  1.0 0.1527621113
C  C56  1  0.19169000  0.69708000  0.34044000  1.0 0.1527621113
C  C57  1  0.69708000  0.34044000  0.19169000  1.0 0.1527621113
C  C58  1  0.65956000  0.80831000  0.30292000  1.0 0.1527621113
C  C59  1  0.80831000  0.30292000  0.65956000  1.0 0.1527621113
C  C60  1  0.30292000  0.65956000  0.80831000  1.0 0.1527621113
C  C61  1  0.31104000  0.83113000  0.17483000  1.0 0.1583118973
C  C62  1  0.83113000  0.17483000  0.31104000  1.0 0.1583118973
C  C63  1  0.17483000  0.31104000  0.83113000  1.0 0.1583118973
C  C64  1  0.68896000  0.16887000  0.82517000  1.0 0.1583118973
C  C65  1  0.16887000  0.82517000  0.68896000  1.0 0.1583118973
C  C66  1  0.82517000  0.68896000  0.16887000  1.0 0.1583118973
C  C67  1  0.41419000  0.94924000  0.04717000  1.0 0.6088078035
C  C68  1  0.94924000  0.04717000  0.41419000  1.0 0.6088078035
C  C69  1  0.04717000  0.41419000  0.94924000  1.0 0.6088078035
C  C70  1  0.58581000  0.05076000  0.95283000  1.0 0.6088078035
C  C71  1  0.05076000  0.95283000  0.58581000  1.0 0.6088078035
C  C72  1  0.95283000  0.58581000  0.05076000  1.0 0.6088078035
C  C73  1  0.42004000  0.96353000  0.18645000  1.0 -0.2688354622
C  C74  1  0.96353000  0.18645000  0.42004000  1.0 -0.2688354622
C  C75  1  0.18645000  0.42004000  0.96353000  1.0 -0.2688354622
C  C76  1  0.57996000  0.03647000  0.81355000  1.0 -0.2688354622
C  C77  1  0.03647000  0.81355000  0.57996000  1.0 -0.2688354622
C  C78  1  0.81355000  0.57996000  0.03647000  1.0 -0.2688354622
C  C79  1  0.38448000  0.92616000  0.22686000  1.0 0.1282005477
C  C80  1  0.92616000  0.22686000  0.38448000  1.0 0.1282005477
C  C81  1  0.22686000  0.38448000  0.92616000  1.0 0.1282005477
C  C82  1  0.61552000  0.07384000  0.77314000  1.0 0.1282005477
C  C83  1  0.07384000  0.77314000  0.61552000  1.0 0.1282005477
C  C84  1  0.77314000  0.61552000  0.07384000  1.0 0.1282005477
C  C85  1  0.18236000  0.61766000  0.94497000  1.0 -0.2316313274
C  C86  1  0.61766000  0.94497000  0.18236000  1.0 -0.2316313274
C  C87  1  0.94497000  0.18236000  0.61766000  1.0 -0.2316313274
C  C88  1  0.81764000  0.38234000  0.05503000  1.0 -0.2316313274
C  C89  1  0.38234000  0.05503000  0.81764000  1.0 -0.2316313274
C  C90  1  0.05503000  0.81764000  0.38234000  1.0 -0.2316313274
C  C91  1  0.56149000  0.29913000  0.90997000  1.0 -0.2316313274
C  C92  1  0.29913000  0.90997000  0.56149000  1.0 -0.2316313274
C  C93  1  0.90997000  0.56149000  0.29913000  1.0 -0.2316313274
C  C94  1  0.43851000  0.70087000  0.09003000  1.0 -0.2316313274
C  C95  1  0.70087000  0.09003000  0.43851000  1.0 -0.2316313274
C  C96  1  0.09003000  0.43851000  0.70087000  1.0 -0.2316313274
C  C97  1  0.48046000  0.07463000  0.37292000  1.0 -0.2174633219
C  C98  1  0.07463000  0.37292000  0.48046000  1.0 -0.2174633219
C  C99  1  0.37292000  0.48046000  0.07463000  1.0 -0.2174633219
C  C100  1  0.51954000  0.92537000  0.62708000  1.0 -0.2174633219
C  C101  1  0.92537000  0.62708000  0.51954000  1.0 -0.2174633219
C  C102  1  0.62708000  0.51954000  0.92537000  1.0 -0.2174633219
C  C103  1  0.15861000  0.06136000  0.44968000  1.0 -0.2174633219
C  C104  1  0.06136000  0.44968000  0.15861000  1.0 -0.2174633219
C  C105  1  0.44968000  0.15861000  0.06136000  1.0 -0.2174633219
C  C106  1  0.84139000  0.93864000  0.55032000  1.0 -0.2174633219
C  C107  1  0.93864000  0.55032000  0.84139000  1.0 -0.2174633219
C  C108  1  0.55032000  0.84139000  0.93864000  1.0 -0.2174633219
O  O1  1  0.42825000  0.03141000  0.50309000  1.0 -0.6547879034
O  O2  1  0.03141000  0.50309000  0.42825000  1.0 -0.6547879034
O  O3  1  0.50309000  0.42825000  0.03141000  1.0 -0.6547879034
O  O4  1  0.57175000  0.96859000  0.49691000  1.0 -0.6547879034
O  O5  1  0.96859000  0.49691000  0.57175000  1.0 -0.6547879034
O  O6  1  0.49691000  0.57175000  0.96859000  1.0 -0.6547879034
O  O7  1  0.47331000  0.27967000  0.84856000  1.0 -0.1861805729
O  O8  1  0.27967000  0.84856000  0.47331000  1.0 -0.1861805729
O  O9  1  0.84856000  0.47331000  0.27967000  1.0 -0.1861805729
O  O10  1  0.52669000  0.72033000  0.15144000  1.0 -0.1861805729
O  O11  1  0.72033000  0.15144000  0.52669000  1.0 -0.1861805729
O  O12  1  0.15144000  0.52669000  0.72033000  1.0 -0.1861805729
O  O13  1  0.29727000  0.21369000  0.73298000  1.0 -0.6666655925
O  O14  1  0.21369000  0.73298000  0.29727000  1.0 -0.6666655925
O  O15  1  0.73298000  0.29727000  0.21369000  1.0 -0.6666655925
O  O16  1  0.70273000  0.78631000  0.26702000  1.0 -0.6666655925
O  O17  1  0.78631000  0.26702000  0.70273000  1.0 -0.6666655925
O  O18  1  0.26702000  0.70273000  0.78631000  1.0 -0.6666655925
O  O19  1  0.21013000  0.68119000  0.03679000  1.0 -0.1861805729
O  O20  1  0.68119000  0.03679000  0.21013000  1.0 -0.1861805729
O  O21  1  0.03679000  0.21013000  0.68119000  1.0 -0.1861805729
O  O22  1  0.78987000  0.31881000  0.96321000  1.0 -0.1861805729
O  O23  1  0.31881000  0.96321000  0.78987000  1.0 -0.1861805729
O  O24  1  0.96321000  0.78987000  0.31881000  1.0 -0.1861805729
O  O25  1  0.49526000  0.02116000  0.09737000  1.0 -0.6557829963
O  O26  1  0.02116000  0.09737000  0.49526000  1.0 -0.6557829963
O  O27  1  0.09737000  0.49526000  0.02116000  1.0 -0.6547879034
O  O28  1  0.50474000  0.97884000  0.90263000  1.0 -0.6557829963
O  O29  1  0.97884000  0.90263000  0.50474000  1.0 -0.6547879034
O  O30  1  0.90263000  0.50474000  0.97884000  1.0 -0.6547879034
O  O31  1  0.35728000  0.91098000  0.96060000  1.0 -0.6360164868
O  O32  1  0.91098000  0.96060000  0.35728000  1.0 -0.6360164868
O  O33  1  0.96060000  0.35728000  0.91098000  1.0 -0.6360164868
O  O34  1  0.64272000  0.08902000  0.03940000  1.0 -0.6346805679
O  O35  1  0.08902000  0.03940000  0.64272000  1.0 -0.6360164868
O  O36  1  0.03940000  0.64272000  0.08902000  1.0 -0.6360164868
O  O37  1  0.27541000  0.79696000  0.21238000  1.0 -0.6666655925
O  O38  1  0.79696000  0.21238000  0.27541000  1.0 -0.6666655925
O  O39  1  0.21238000  0.27541000  0.79696000  1.0 -0.6666655925
O  O40  1  0.72459000  0.20304000  0.78762000  1.0 -0.6666655925
O  O41  1  0.20304000  0.78762000  0.72459000  1.0 -0.6666655925
O  O42  1  0.78762000  0.72459000  0.20304000  1.0 -0.6666655925
O  O43  1  0.56632000  0.16440000  0.62080000  1.0 -0.6240789281
O  O44  1  0.16440000  0.62080000  0.56632000  1.0 -0.6240789281
O  O45  1  0.62080000  0.56632000  0.16440000  1.0 -0.6240789281
O  O46  1  0.43368000  0.83560000  0.37920000  1.0 -0.6240789281
O  O47  1  0.83560000  0.37920000  0.43368000  1.0 -0.6240789281
O  O48  1  0.37920000  0.43368000  0.83560000  1.0 -0.6240789281
O  O49  1  0.20412000  0.10779000  0.54833000  1.0 -0.1802002228
O  O50  1  0.10779000  0.54833000  0.20412000  1.0 -0.1802002228
O  O51  1  0.54833000  0.20412000  0.10779000  1.0 -0.1802002228
O  O52  1  0.79588000  0.89221000  0.45167000  1.0 -0.1802002228
O  O53  1  0.89221000  0.45167000  0.79588000  1.0 -0.1802002228
O  O54  1  0.45167000  0.79588000  0.89221000  1.0 -0.1802002228
O  O55  1  0.41469000  0.97578000  0.31896000  1.0 -0.1802002228
O  O56  1  0.97578000  0.31896000  0.41469000  1.0 -0.1802002228
O  O57  1  0.31896000  0.41469000  0.97578000  1.0 -0.1802002228
O  O58  1  0.58531000  0.02422000  0.68104000  1.0 -0.1802002228
O  O59  1  0.02422000  0.68104000  0.58531000  1.0 -0.1802002228
O  O60  1  0.68104000  0.58531000  0.02422000  1.0 -0.1802002228
