# DDEC6 charges by PACMAN v1.1 (https://github.com/mtap-research/PACMAN-charge/)
data_HEZNUW_ASR_pacman
_symmetry_space_group_name_H-M   'P 1'
_cell_length_a   8.21300000
_cell_length_b   10.02570000
_cell_length_c   15.51330000
_cell_angle_alpha   99.15800000
_cell_angle_beta   104.32900000
_cell_angle_gamma   89.02000000
_symmetry_Int_Tables_number   1
_chemical_formula_structural   Zn4P5(HO5)4
_chemical_formula_sum   'Zn8 P10 H8 O40'
_cell_volume   1221.53551354
_cell_formula_units_Z   2
loop_
 _symmetry_equiv_pos_site_id
 _symmetry_equiv_pos_as_xyz
  1  'x, y, z'
loop_
 _atom_site_type_symbol
 _atom_site_label
 _atom_site_symmetry_multiplicity
 _atom_site_fract_x
 _atom_site_fract_y
 _atom_site_fract_z
 _atom_site_occupancy
 _atom_site_charge
Zn  Zn1  1  0.84076000  0.73891000  0.22170000  1.0 1.1493225278
Zn  Zn2  1  0.15924000  0.26109000  0.77830000  1.0 1.1550886812
Zn  Zn3  1  0.24188000  0.50402000  0.02330000  1.0 1.1016926946
Zn  Zn4  1  0.75812000  0.49598000  0.97670000  1.0 1.1016926946
Zn  Zn5  1  0.13491000  0.14308000  0.48061000  1.0 1.1403915467
Zn  Zn6  1  0.86509000  0.85692000  0.51939000  1.0 1.1403915467
Zn  Zn7  1  0.28707000  0.51598000  0.53938000  1.0 1.0940412464
Zn  Zn8  1  0.71293000  0.48402000  0.46062000  1.0 1.0940412464
P  P1  1  0.02584000  0.73402000  0.06147000  1.0 1.4504952016
P  P2  1  0.97416000  0.26598000  0.93853000  1.0 1.4504952016
P  P3  1  0.62215000  0.48917000  0.13885000  1.0 1.5073546352
P  P4  1  0.37785000  0.51083000  0.86115000  1.0 1.5073546352
P  P5  1  0.80459000  0.00905000  0.35647000  1.0 1.5629177274
P  P6  1  0.19541000  0.99095000  0.64353000  1.0 1.5692260446
P  P7  1  0.99541000  0.60016000  0.39011000  1.0 1.5692260446
P  P8  1  0.00459000  0.39984000  0.60989000  1.0 1.5692260446
P  P9  1  0.48025000  0.26562000  0.48321000  1.0 1.5525398435
P  P10  1  0.51975000  0.73438000  0.51679000  1.0 1.5525398435
H  H1  1  0.18390000  0.84180000  0.01930000  1.0 0.4366402658
H  H2  1  0.81610000  0.15820000  0.98070000  1.0 0.4366402658
H  H3  1  0.63760000  0.11260000  0.49930000  1.0 0.4200273287
H  H4  1  0.36240000  0.88740000  0.50070000  1.0 0.4200273287
H  H5  1  0.71420000  0.45940000  0.26560000  1.0 0.4200273287
H  H6  1  0.28580000  0.54060000  0.73440000  1.0 0.4200273287
H  H7  1  0.67320000  0.17890000  0.36200000  1.0 0.4200273287
H  H8  1  0.32680000  0.82110000  0.63800000  1.0 0.4200273287
O  O1  1  0.18000000  0.65690000  0.10390000  1.0 -0.7141503511
O  O2  1  0.82000000  0.34310000  0.89610000  1.0 -0.7141503511
O  O3  1  0.91340000  0.64420000  0.98095000  1.0 -0.7304888783
O  O4  1  0.08660000  0.35580000  0.01905000  1.0 -0.7304888783
O  O5  1  0.99190000  0.03670000  0.37358000  1.0 -0.7404252632
O  O6  1  0.00810000  0.96330000  0.62642000  1.0 -0.7404252632
O  O7  1  0.45470000  0.43330000  0.07798000  1.0 -0.7141503511
O  O8  1  0.54530000  0.56670000  0.92202000  1.0 -0.7141503511
O  O9  1  0.76590000  0.45040000  0.09394000  1.0 -0.7509081779
O  O10  1  0.23410000  0.54960000  0.90606000  1.0 -0.7509081779
O  O11  1  0.45300000  0.37410000  0.55765000  1.0 -0.7304888783
O  O12  1  0.54700000  0.62590000  0.44235000  1.0 -0.7304888783
O  O13  1  0.62250000  0.64100000  0.16826000  1.0 -0.7204125641
O  O14  1  0.37750000  0.35900000  0.83174000  1.0 -0.7204125641
O  O15  1  0.31390000  0.19640000  0.42679000  1.0 -0.7204125641
O  O16  1  0.68610000  0.80360000  0.57321000  1.0 -0.7204125641
O  O17  1  0.15430000  0.52000000  0.42043000  1.0 -0.7404252632
O  O18  1  0.84570000  0.48000000  0.57957000  1.0 -0.7404252632
O  O19  1  0.93570000  0.79600000  0.13135000  1.0 -0.7204125641
O  O20  1  0.06430000  0.20400000  0.86865000  1.0 -0.7204125641
O  O21  1  0.74200000  0.89160000  0.28077000  1.0 -0.7015514938
O  O22  1  0.25800000  0.10840000  0.71923000  1.0 -0.7015514938
O  O23  1  0.83870000  0.50540000  0.37347000  1.0 -0.7509081779
O  O24  1  0.16130000  0.49460000  0.62653000  1.0 -0.7509081779
O  O25  1  0.57100000  0.31680000  0.41919000  1.0 -0.7015514938
O  O26  1  0.42900000  0.68320000  0.58081000  1.0 -0.7015514938
O  O27  1  0.98470000  0.72380000  0.45864000  1.0 -0.8082777975
O  O28  1  0.01530000  0.27620000  0.54136000  1.0 -0.8082777975
O  O29  1  0.75520000  0.98780000  0.44234000  1.0 -0.7404252632
O  O30  1  0.24480000  0.01220000  0.55766000  1.0 -0.7404252632
O  O31  1  0.99890000  0.63580000  0.29700000  1.0 -0.7404252632
O  O32  1  0.00110000  0.36420000  0.70300000  1.0 -0.7404252632
O  O33  1  0.08720000  0.85450000  0.02390000  1.0 -0.5171642123
O  O34  1  0.91280000  0.14550000  0.97610000  1.0 -0.5171642123
O  O35  1  0.59370000  0.16150000  0.53436000  1.0 -0.5293874659
O  O36  1  0.40630000  0.83850000  0.46564000  1.0 -0.5293874659
O  O37  1  0.64780000  0.41530000  0.22252000  1.0 -0.5293874659
O  O38  1  0.35220000  0.58470000  0.77748000  1.0 -0.5293874659
O  O39  1  0.70490000  0.13290000  0.32089000  1.0 -0.5293874659
O  O40  1  0.29510000  0.86710000  0.67911000  1.0 -0.5293874659
