# DDEC6 charges by PACMAN v1.1 (https://github.com/mtap-research/PACMAN-charge/)
data_HEZPIL01_FSR_pacman
_symmetry_space_group_name_H-M   'P 1'
_cell_length_a   8.44810000
_cell_length_b   10.46400000
_cell_length_c   17.14200000
_cell_angle_alpha   90.00000000
_cell_angle_beta   90.00000000
_cell_angle_gamma   90.00000000
_symmetry_Int_Tables_number   1
_chemical_formula_structural   V3P2(H2O5)3
_chemical_formula_sum   'V12 P8 H24 O60'
_cell_volume   1515.36854321
_cell_formula_units_Z   4
loop_
 _symmetry_equiv_pos_site_id
 _symmetry_equiv_pos_as_xyz
  1  'x, y, z'
loop_
 _atom_site_type_symbol
 _atom_site_label
 _atom_site_symmetry_multiplicity
 _atom_site_fract_x
 _atom_site_fract_y
 _atom_site_fract_z
 _atom_site_occupancy
 _atom_site_charge
V  V1  1  0.22045000  0.85891000  0.43838000  1.0 1.8887587138
V  V2  1  0.27955000  0.35891000  0.43838000  1.0 1.8887587138
V  V3  1  0.22045000  0.85891000  0.06162000  1.0 1.8887587138
V  V4  1  0.72045000  0.64109000  0.93838000  1.0 1.8887587138
V  V5  1  0.77955000  0.14109000  0.56162000  1.0 1.8887587138
V  V6  1  0.72045000  0.64109000  0.56162000  1.0 1.8887587138
V  V7  1  0.77955000  0.14109000  0.93838000  1.0 1.8887587138
V  V8  1  0.27955000  0.35891000  0.06162000  1.0 1.8887587138
V  V9  1  0.32863000  0.71662000  0.25000000  1.0 1.9221088239
V  V10  1  0.17137000  0.21662000  0.25000000  1.0 1.9221088239
V  V11  1  0.82863000  0.78338000  0.75000000  1.0 1.9221088239
V  V12  1  0.67137000  0.28338000  0.75000000  1.0 1.9221088239
P  P1  1  0.47438000  0.62872000  0.41284000  1.0 1.6536749252
P  P2  1  0.02562000  0.12872000  0.41284000  1.0 1.6555523523
P  P3  1  0.47438000  0.62872000  0.08716000  1.0 1.6536749252
P  P4  1  0.97438000  0.87128000  0.91284000  1.0 1.6536749252
P  P5  1  0.52562000  0.37128000  0.58716000  1.0 1.6555523523
P  P6  1  0.97438000  0.87128000  0.58716000  1.0 1.6536749252
P  P7  1  0.52562000  0.37128000  0.91284000  1.0 1.6555523523
P  P8  1  0.02562000  0.12872000  0.08716000  1.0 1.6536749252
H  H1  1  0.05800000  0.64600000  0.41200000  1.0 0.3465978675
H  H2  1  0.44200000  0.14600000  0.41200000  1.0 0.3465978675
H  H3  1  0.05800000  0.64600000  0.08800000  1.0 0.3465978675
H  H4  1  0.55800000  0.85400000  0.91200000  1.0 0.3465978675
H  H5  1  0.94200000  0.35400000  0.58800000  1.0 0.3465978675
H  H6  1  0.55800000  0.85400000  0.58800000  1.0 0.3465978675
H  H7  1  0.94200000  0.35400000  0.91200000  1.0 0.3465978675
H  H8  1  0.44200000  0.14600000  0.08800000  1.0 0.3465978675
H  H9  1  0.95200000  0.71500000  0.44200000  1.0 0.3465978675
H  H10  1  0.54800000  0.21500000  0.44200000  1.0 0.3465978675
H  H11  1  0.95200000  0.71500000  0.05800000  1.0 0.3465978675
H  H12  1  0.45200000  0.78500000  0.94200000  1.0 0.3465978675
H  H13  1  0.04800000  0.28500000  0.55800000  1.0 0.3465978675
H  H14  1  0.45200000  0.78500000  0.55800000  1.0 0.3465978675
H  H15  1  0.04800000  0.28500000  0.94200000  1.0 0.3465978675
H  H16  1  0.54800000  0.21500000  0.05800000  1.0 0.3465978675
H  H17  1  0.21900000  0.90100000  0.31000000  1.0 0.431338536
H  H18  1  0.28100000  0.40100000  0.31000000  1.0 0.431338536
H  H19  1  0.21900000  0.90100000  0.19000000  1.0 0.431338536
H  H20  1  0.71900000  0.59900000  0.81000000  1.0 0.431338536
H  H21  1  0.78100000  0.09900000  0.69000000  1.0 0.431338536
H  H22  1  0.71900000  0.59900000  0.69000000  1.0 0.431338536
H  H23  1  0.78100000  0.09900000  0.81000000  1.0 0.431338536
H  H24  1  0.28100000  0.40100000  0.19000000  1.0 0.431338536
O  O1  1  0.01940000  0.71501000  0.41030000  1.0 -0.5867472194
O  O2  1  0.48060000  0.21501000  0.41030000  1.0 -0.5867472194
O  O3  1  0.01940000  0.71501000  0.08970000  1.0 -0.5867472194
O  O4  1  0.51940000  0.78499000  0.91030000  1.0 -0.5867472194
O  O5  1  0.98060000  0.28499000  0.58970000  1.0 -0.5867472194
O  O6  1  0.51940000  0.78499000  0.58970000  1.0 -0.5867472194
O  O7  1  0.98060000  0.28499000  0.91030000  1.0 -0.5867472194
O  O8  1  0.48060000  0.21501000  0.08970000  1.0 -0.5867472194
O  O9  1  0.25430000  0.84236000  0.32603000  1.0 -0.8536679424
O  O10  1  0.24570000  0.34236000  0.32603000  1.0 -0.8536679424
O  O11  1  0.25430000  0.84236000  0.17397000  1.0 -0.8536679424
O  O12  1  0.75430000  0.65764000  0.82603000  1.0 -0.8536679424
O  O13  1  0.74570000  0.15764000  0.67397000  1.0 -0.8536679424
O  O14  1  0.75430000  0.65764000  0.67397000  1.0 -0.8536679424
O  O15  1  0.74570000  0.15764000  0.82603000  1.0 -0.8536679424
O  O16  1  0.24570000  0.34236000  0.17397000  1.0 -0.8536679424
O  O17  1  0.63259000  0.66278000  0.45293000  1.0 -0.8044498614
O  O18  1  0.86741000  0.16278000  0.45293000  1.0 -0.8044498614
O  O19  1  0.63259000  0.66278000  0.04707000  1.0 -0.8044498614
O  O20  1  0.13259000  0.83722000  0.95293000  1.0 -0.8044498614
O  O21  1  0.36741000  0.33722000  0.54707000  1.0 -0.8044498614
O  O22  1  0.13259000  0.83722000  0.54707000  1.0 -0.8044498614
O  O23  1  0.36741000  0.33722000  0.95293000  1.0 -0.8044498614
O  O24  1  0.86741000  0.16278000  0.04707000  1.0 -0.8044498614
O  O25  1  0.45157000  0.48260000  0.41388000  1.0 -0.8189534894
O  O26  1  0.04843000  0.98260000  0.41388000  1.0 -0.8189534894
O  O27  1  0.45157000  0.48260000  0.08612000  1.0 -0.8189534894
O  O28  1  0.95157000  0.01740000  0.91388000  1.0 -0.8189534894
O  O29  1  0.54843000  0.51740000  0.58612000  1.0 -0.8189534894
O  O30  1  0.95157000  0.01740000  0.58612000  1.0 -0.8189534894
O  O31  1  0.54843000  0.51740000  0.91388000  1.0 -0.8189534894
O  O32  1  0.04843000  0.98260000  0.08612000  1.0 -0.8189534894
O  O33  1  0.49053000  0.67482000  0.32784000  1.0 -0.8297244362
O  O34  1  0.00947000  0.17482000  0.32784000  1.0 -0.8297244362
O  O35  1  0.49053000  0.67482000  0.17216000  1.0 -0.8297244362
O  O36  1  0.99053000  0.82518000  0.82784000  1.0 -0.8297244362
O  O37  1  0.50947000  0.32518000  0.67216000  1.0 -0.8297244362
O  O38  1  0.99053000  0.82518000  0.67216000  1.0 -0.8297244362
O  O39  1  0.50947000  0.32518000  0.82784000  1.0 -0.8297244362
O  O40  1  0.00947000  0.17482000  0.17216000  1.0 -0.8297244362
O  O41  1  0.33579000  0.69461000  0.45521000  1.0 -0.8409754238
O  O42  1  0.16421000  0.19461000  0.45521000  1.0 -0.8409754238
O  O43  1  0.33579000  0.69461000  0.04479000  1.0 -0.8409754238
O  O44  1  0.83579000  0.80539000  0.95521000  1.0 -0.8409754238
O  O45  1  0.66421000  0.30539000  0.54479000  1.0 -0.8409754238
O  O46  1  0.83579000  0.80539000  0.54479000  1.0 -0.8409754238
O  O47  1  0.66421000  0.30539000  0.95521000  1.0 -0.8409754238
O  O48  1  0.16421000  0.19461000  0.04479000  1.0 -0.8409754238
O  O49  1  0.20620000  0.60020000  0.25000000  1.0 -0.6431991808
O  O50  1  0.29380000  0.10020000  0.25000000  1.0 -0.6431991808
O  O51  1  0.70620000  0.89980000  0.75000000  1.0 -0.6453087679
O  O52  1  0.79380000  0.39980000  0.75000000  1.0 -0.6453087679
O  O53  1  0.36269000  0.95592000  0.45951000  1.0 -0.5720809973
O  O54  1  0.13731000  0.45592000  0.45951000  1.0 -0.5720809973
O  O55  1  0.36269000  0.95592000  0.04049000  1.0 -0.5720809973
O  O56  1  0.86269000  0.54408000  0.95951000  1.0 -0.5720809973
O  O57  1  0.63731000  0.04408000  0.54049000  1.0 -0.5720809973
O  O58  1  0.86269000  0.54408000  0.54049000  1.0 -0.5720809973
O  O59  1  0.63731000  0.04408000  0.95951000  1.0 -0.5720809973
O  O60  1  0.13731000  0.45592000  0.04049000  1.0 -0.5720809973
