# DDEC6 charges by PACMAN v1.1 (https://github.com/mtap-research/PACMAN-charge/)
data_HIBTIY_ASR_pacman
_chemical_formula_sum              "Cu8 O32 C96 H52 S8"
_cell_length_a       13.296
_cell_length_b       19.054
_cell_length_c       15.562
_cell_angle_alpha    90
_cell_angle_beta     98.142
_cell_angle_gamma    90

_symmetry_space_group_name_H-M    "P 1"
_symmetry_Int_Tables_number       1

loop_
  _symmetry_equiv_pos_as_xyz
  'x, y, z'

loop_
  _atom_site_type_symbol
  _atom_site_label
  _atom_site_symmetry_multiplicity
  _atom_site_fract_x
  _atom_site_fract_y
  _atom_site_fract_z
  _atom_site_occupancy
 _atom_site_charge
Cu  Cu1       1.0  0.51970  0.53275  0.42854  1.0000 0.8471150654
Cu  Cu2       1.0  0.08831  0.53306  0.99627  1.0000 0.829595502
O   O1        1.0  0.04020  0.53960  0.86930  1.0000 -0.5390473547
O   O2        1.0  0.89390  0.48230  0.87870  1.0000 -0.5021700484
O   O3        1.0  0.62200  0.48690  0.61840  1.0000 -0.5021700484
O   O4        1.0  0.65680  0.54150  0.49660  1.0000 -0.5021700484
O   O5        1.0  0.55600  0.43700  0.39180  1.0000 -0.5390473547
O   O6        1.0  0.52260  0.37970  0.51300  1.0000 -0.5159291369
O   O7        1.0  0.13850  0.43780  0.98070  1.0000 -0.5099284214
O   O8        1.0  0.98910  0.38110  0.98910  1.0000 -0.5099284214
C   C1        1.0  0.99790  0.61980  0.43980  1.0000 -0.1332518612
H   H1        1.0  0.93530  0.61510  0.40510  1.0000 0.1309232378
S   S1        1.0  0.78660  0.31990  0.19490  1.0000 -0.1590358993
S   S2        1.0  0.47250  0.31940  0.94810  1.0000 -0.1803318826
C   C2        1.0  0.95180  0.51520  0.83660  1.0000 0.5825656759
C   C3        1.0  0.92100  0.53030  0.73990  1.0000 -0.003226201
C   C4        1.0  0.98850  0.55920  0.69060  1.0000 -0.169797909
H   H2        1.0  0.05720  0.55850  0.71270  1.0000 0.1114640901
C   C5        1.0  0.96130  0.57440  0.60090  1.0000 0.0467126476
C   C6        1.0  0.85440  0.55890  0.56470  1.0000 -0.1332518612
H   H3        1.0  0.83170  0.56760  0.50640  1.0000 0.1207896218
C   C7        1.0  0.78850  0.53230  0.61330  1.0000 -0.003226201
C   C8        1.0  0.82310  0.51710  0.70300  1.0000 -0.1083726105
H   H4        1.0  0.78490  0.48740  0.73310  1.0000 0.1373282877
C   C9        1.0  0.67770  0.51500  0.56940  1.0000 0.5698827284
C   C10       1.0  0.01280  0.59960  0.53860  1.0000 -0.0106374921
C   C11       1.0  0.17400  0.63740  0.48810  1.0000 -0.1803318826
H   H5        1.0  0.24250  0.64720  0.48780  1.0000 0.1373282877
S   S3        1.0  0.12550  0.61620  0.56270  1.0000 0.1207896218
C   C12       1.0  0.09060  0.64020  0.41210  1.0000 -0.0972445227
H   H6        1.0  0.09870  0.65470  0.35640  1.0000 0.1309232378
C   C13       1.0  0.55030  0.38150  0.43880  1.0000 0.5698827284
C   C14       1.0  0.57810  0.31480  0.40280  1.0000 -0.056809098
C   C15       1.0  0.63650  0.31230  0.33390  1.0000 -0.1590358993
H   H7        1.0  0.65590  0.35540  0.31350  1.0000 0.1207896218
C   C16       1.0  0.85770  0.29030  0.14020  1.0000 -0.0972445227
H   H8        1.0  0.89460  0.31750  0.10600  1.0000 0.1309232378
C   C17       1.0  0.08210  0.38560  0.98340  1.0000 0.5642140764
C   C18       1.0  0.14290  0.31090  0.98230  1.0000 0.0407359781
C   C19       1.0  0.24990  0.31520  0.97680  1.0000 -0.1971808938
H   H9        1.0  0.28550  0.35730  0.98010  1.0000 0.1309232378
C   C20       1.0  0.57360  0.28970  0.94600  1.0000 -0.0918832985
H   H10       1.0  0.63190  0.31650  0.94530  1.0000 0.1309232378
C   C21       1.0  0.78660  0.18010  0.19490  1.0000 0.0407359781
C   C22       1.0  0.47250  0.18060  0.94810  1.0000 0.0346536333
H   H11       1.0  0.45320  0.36640  0.94680  1.0000 0.1373282877
H   H12       1.0  0.77690  0.36630  0.21040  1.0000 0.1309232378
Cu  Cu3       1.0  0.48030  0.03275  0.57146  1.0000 0.8471150654
Cu  Cu4       1.0  0.91169  0.03306  0.00373  1.0000 0.829595502
O   O9        1.0  0.95980  0.03960  0.13070  1.0000 -0.5390473547
O   O10       1.0  0.10610  0.98230  0.12130  1.0000 -0.5021700484
O   O11       1.0  0.37800  0.98690  0.38160  1.0000 -0.5021700484
O   O12       1.0  0.34320  0.04150  0.50340  1.0000 -0.5021700484
O   O13       1.0  0.44400  0.93700  0.60820  1.0000 -0.5390473547
O   O14       1.0  0.47740  0.87970  0.48700  1.0000 -0.5159291369
O   O15       1.0  0.86150  0.93780  0.01930  1.0000 -0.5099284214
O   O16       1.0  0.01090  0.88110  0.01090  1.0000 -0.5099284214
C   C23       1.0  0.00210  0.11980  0.56020  1.0000 -0.1332518612
H   H13       1.0  0.06470  0.11510  0.59490  1.0000 0.1309232378
S   S4        1.0  0.21340  0.81990  0.80510  1.0000 -0.1590358993
S   S5        1.0  0.52750  0.81940  0.05190  1.0000 -0.1803318826
C   C24       1.0  0.04820  0.01520  0.16340  1.0000 0.5825656759
C   C25       1.0  0.07900  0.03030  0.26010  1.0000 -0.003226201
C   C26       1.0  0.01150  0.05920  0.30940  1.0000 -0.169797909
H   H14       1.0  0.94280  0.05850  0.28730  1.0000 0.1114640901
C   C27       1.0  0.03870  0.07440  0.39910  1.0000 0.0467126476
C   C28       1.0  0.14560  0.05890  0.43530  1.0000 -0.1332518612
H   H15       1.0  0.16830  0.06760  0.49360  1.0000 0.1207896218
C   C29       1.0  0.21150  0.03230  0.38670  1.0000 -0.003226201
C   C30       1.0  0.17690  0.01710  0.29700  1.0000 -0.1083726105
H   H16       1.0  0.21510  0.98740  0.26690  1.0000 0.1373282877
C   C31       1.0  0.32230  0.01500  0.43060  1.0000 0.5698827284
C   C32       1.0  0.98720  0.09960  0.46140  1.0000 -0.0106374921
C   C33       1.0  0.82600  0.13740  0.51190  1.0000 -0.1803318826
H   H17       1.0  0.75750  0.14720  0.51220  1.0000 0.1373282877
S   S6        1.0  0.87450  0.11620  0.43730  1.0000 0.1207896218
C   C34       1.0  0.90940  0.14020  0.58790  1.0000 -0.0972445227
H   H18       1.0  0.90130  0.15470  0.64360  1.0000 0.1309232378
C   C35       1.0  0.44970  0.88150  0.56120  1.0000 0.5698827284
C   C36       1.0  0.42190  0.81480  0.59720  1.0000 -0.056809098
C   C37       1.0  0.36350  0.81230  0.66610  1.0000 -0.1590358993
H   H19       1.0  0.34410  0.85540  0.68650  1.0000 0.1207896218
C   C38       1.0  0.14230  0.79030  0.85980  1.0000 -0.0972445227
H   H20       1.0  0.10540  0.81750  0.89400  1.0000 0.1309232378
C   C39       1.0  0.91790  0.88560  0.01660  1.0000 0.5642140764
C   C40       1.0  0.85710  0.81090  0.01770  1.0000 0.0407359781
C   C41       1.0  0.75010  0.81520  0.02320  1.0000 -0.1971808938
H   H21       1.0  0.71450  0.85730  0.01990  1.0000 0.1309232378
C   C42       1.0  0.42640  0.78970  0.05400  1.0000 -0.0918832985
H   H22       1.0  0.36810  0.81650  0.05470  1.0000 0.1309232378
C   C43       1.0  0.21340  0.68010  0.80510  1.0000 0.0346536333
C   C44       1.0  0.52750  0.68060  0.05190  1.0000 0.0407359781
H   H23       1.0  0.54680  0.86640  0.05320  1.0000 0.1373282877
H   H24       1.0  0.22310  0.86630  0.78960  1.0000 0.1309232378
Cu  Cu5       1.0  0.48030  0.46725  0.57146  1.0000 0.8471150654
Cu  Cu6       1.0  0.91169  0.46694  0.00373  1.0000 0.829595502
O   O17       1.0  0.95980  0.46040  0.13070  1.0000 -0.5338951391
O   O18       1.0  0.10610  0.51770  0.12130  1.0000 -0.5099284214
O   O19       1.0  0.37800  0.51310  0.38160  1.0000 -0.5021700484
O   O20       1.0  0.34320  0.45850  0.50340  1.0000 -0.5021700484
O   O21       1.0  0.44400  0.56300  0.60820  1.0000 -0.5390473547
O   O22       1.0  0.47740  0.62030  0.48700  1.0000 -0.5099284214
O   O23       1.0  0.86150  0.56220  0.01930  1.0000 -0.5099284214
O   O24       1.0  0.01090  0.61890  0.01090  1.0000 -0.5159291369
C   C45       1.0  0.00210  0.38020  0.56020  1.0000 -0.1332518612
H   H25       1.0  0.06470  0.38490  0.59490  1.0000 0.1309232378
C   C46       1.0  0.04820  0.48480  0.16340  1.0000 0.5825656759
C   C47       1.0  0.07900  0.46970  0.26010  1.0000 -0.0106374921
C   C48       1.0  0.01150  0.44080  0.30940  1.0000 -0.1590358993
H   H26       1.0  0.94280  0.44150  0.28730  1.0000 0.1207896218
C   C49       1.0  0.03870  0.42560  0.39910  1.0000 0.0407359781
C   C50       1.0  0.14560  0.44110  0.43530  1.0000 -0.1332518612
H   H27       1.0  0.16830  0.43240  0.49360  1.0000 0.1207896218
C   C51       1.0  0.21150  0.46770  0.38670  1.0000 -0.003226201
C   C52       1.0  0.17690  0.48290  0.29700  1.0000 -0.1083726105
H   H28       1.0  0.21510  0.51260  0.26690  1.0000 0.1373282877
C   C53       1.0  0.32230  0.48500  0.43060  1.0000 0.5698827284
C   C54       1.0  0.98720  0.40040  0.46140  1.0000 -0.0106374921
C   C55       1.0  0.82600  0.36260  0.51190  1.0000 -0.1803318826
H   H29       1.0  0.75750  0.35280  0.51220  1.0000 0.1373282877
S   S7        1.0  0.87450  0.38380  0.43730  1.0000 0.1309232378
C   C56       1.0  0.90940  0.35980  0.58790  1.0000 -0.0972445227
H   H30       1.0  0.90130  0.34530  0.64360  1.0000 0.1309232378
C   C57       1.0  0.44970  0.61850  0.56120  1.0000 0.5698827284
C   C58       1.0  0.42190  0.68520  0.59720  1.0000 -0.0530936611
C   C59       1.0  0.36350  0.68770  0.66610  1.0000 -0.1803318826
H   H31       1.0  0.34410  0.64460  0.68650  1.0000 0.1114640901
C   C60       1.0  0.14230  0.70970  0.85980  1.0000 -0.1590358993
H   H32       1.0  0.10540  0.68250  0.89400  1.0000 0.1469738217
C   C61       1.0  0.91790  0.61440  0.01660  1.0000 0.5698827284
C   C62       1.0  0.85710  0.68910  0.01770  1.0000 0.0407359781
C   C63       1.0  0.75010  0.68480  0.02320  1.0000 -0.2242405755
H   H33       1.0  0.71450  0.64270  0.01990  1.0000 0.1207896218
C   C64       1.0  0.42640  0.71030  0.05400  1.0000 -0.169797909
H   H34       1.0  0.36810  0.68350  0.05470  1.0000 0.1373282877
H   H35       1.0  0.54680  0.63360  0.05320  1.0000 0.1036130446
H   H36       1.0  0.22310  0.63370  0.78960  1.0000 0.092840424
Cu  Cu7       1.0  0.51970  0.96725  0.42854  1.0000 0.8471150654
Cu  Cu8       1.0  0.08831  0.96694  0.99627  1.0000 0.829595502
O   O25       1.0  0.04020  0.96040  0.86930  1.0000 -0.5338951391
O   O26       1.0  0.89390  0.01770  0.87870  1.0000 -0.5099284214
O   O27       1.0  0.62200  0.01310  0.61840  1.0000 -0.5021700484
O   O28       1.0  0.65680  0.95850  0.49660  1.0000 -0.5021700484
O   O29       1.0  0.55600  0.06300  0.39180  1.0000 -0.5390473547
O   O30       1.0  0.52260  0.12030  0.51300  1.0000 -0.5099284214
O   O31       1.0  0.13850  0.06220  0.98070  1.0000 -0.5099284214
O   O32       1.0  0.98910  0.11890  0.98910  1.0000 -0.5159291369
C   C65       1.0  0.99790  0.88020  0.43980  1.0000 -0.1332518612
H   H37       1.0  0.93530  0.88490  0.40510  1.0000 0.1309232378
C   C66       1.0  0.95180  0.98480  0.83660  1.0000 0.5825656759
C   C67       1.0  0.92100  0.96970  0.73990  1.0000 -0.0106374921
C   C68       1.0  0.98850  0.94080  0.69060  1.0000 -0.1590358993
H   H38       1.0  0.05720  0.94150  0.71270  1.0000 0.1207896218
C   C69       1.0  0.96130  0.92560  0.60090  1.0000 0.0407359781
C   C70       1.0  0.85440  0.94110  0.56470  1.0000 -0.1332518612
H   H39       1.0  0.83170  0.93240  0.50640  1.0000 0.1207896218
C   C71       1.0  0.78850  0.96770  0.61330  1.0000 -0.003226201
C   C72       1.0  0.82310  0.98290  0.70300  1.0000 -0.1083726105
H   H40       1.0  0.78490  0.01260  0.73310  1.0000 0.1373282877
C   C73       1.0  0.67770  0.98500  0.56940  1.0000 0.5698827284
C   C74       1.0  0.01280  0.90040  0.53860  1.0000 -0.0106374921
C   C75       1.0  0.17400  0.86260  0.48810  1.0000 -0.1803318826
H   H41       1.0  0.24250  0.85280  0.48780  1.0000 0.1373282877
S   S8        1.0  0.12550  0.88380  0.56270  1.0000 0.1309232378
C   C76       1.0  0.09060  0.85980  0.41210  1.0000 -0.0972445227
H   H42       1.0  0.09870  0.84530  0.35640  1.0000 0.1309232378
C   C77       1.0  0.55030  0.11850  0.43880  1.0000 0.5698827284
C   C78       1.0  0.57810  0.18520  0.40280  1.0000 -0.0530936611
C   C79       1.0  0.63650  0.18770  0.33390  1.0000 -0.1803318826
H   H43       1.0  0.65590  0.14460  0.31350  1.0000 0.1114640901
C   C80       1.0  0.85770  0.20970  0.14020  1.0000 -0.1590358993
H   H44       1.0  0.89460  0.18250  0.10600  1.0000 0.1469738217
C   C81       1.0  0.08210  0.11440  0.98340  1.0000 0.5698827284
C   C82       1.0  0.14290  0.18910  0.98230  1.0000 0.0407359781
C   C83       1.0  0.24990  0.18480  0.97680  1.0000 -0.2242405755
H   H45       1.0  0.28550  0.14270  0.98010  1.0000 0.1207896218
C   C84       1.0  0.57360  0.21030  0.94600  1.0000 -0.169797909
H   H46       1.0  0.63190  0.18350  0.94530  1.0000 0.1373282877
H   H47       1.0  0.45320  0.13360  0.94680  1.0000 0.1036130446
H   H48       1.0  0.77690  0.13370  0.21040  1.0000 0.092840424
C   C85       1.0  0.55420  0.25000  0.43830  1.0000 -0.0918832985
H   H49       1.0  0.51900  0.25000  0.48580  1.0000 0.1309232378
C   C86       1.0  0.66950  0.25000  0.29680  1.0000 0.092840424
C   C87       1.0  0.74680  0.25000  0.22890  1.0000 -0.003226201
C   C88       1.0  0.08130  0.25000  0.98060  1.0000 -0.1917092246
H   H50       1.0  0.01170  0.25000  0.98260  1.0000 0.1309232378
C   C89       1.0  0.29760  0.25000  0.96950  1.0000 0.092840424
C   C90       1.0  0.41010  0.25000  0.95140  1.0000 0.0174362431
C   C91       1.0  0.44580  0.75000  0.56170  1.0000 -0.0918832985
H   H51       1.0  0.48100  0.75000  0.51420  1.0000 0.1309232378
C   C92       1.0  0.33050  0.75000  0.70320  1.0000 0.092840424
C   C93       1.0  0.25320  0.75000  0.77110  1.0000 -0.003226201
C   C94       1.0  0.91870  0.75000  0.01940  1.0000 -0.1917092246
H   H52       1.0  0.98830  0.75000  0.01740  1.0000 0.1309232378
C   C95       1.0  0.70240  0.75000  0.03050  1.0000 0.092840424
C   C96       1.0  0.58990  0.75000  0.04860  1.0000 0.0149008478
  C   C97       1.0  0.78660  0.31990  0.19490  1.0000
  C   C98       1.0  0.47250  0.31940  0.94810  1.0000
  S   S9        1.0  0.78660  0.18010  0.19490  1.0000
  S   S10       1.0  0.47250  0.18060  0.94810  1.0000
  C   C99       1.0  0.21340  0.81990  0.80510  1.0000
  C   C100      1.0  0.52750  0.81940  0.05190  1.0000
  S   S11       1.0  0.21340  0.68010  0.80510  1.0000
  S   S12       1.0  0.52750  0.68060  0.05190  1.0000
