# DDEC6 charges by PACMAN v1.1 (https://github.com/mtap-research/PACMAN-charge/)
data_HIBVUM_ASR_pacman
_chemical_formula_sum              "O24 C72 H42 S6 Cu6"
_cell_length_a       18.815
_cell_length_b       18.815
_cell_length_c       7.117
_cell_angle_alpha    90
_cell_angle_beta     90
_cell_angle_gamma    120

_symmetry_space_group_name_H-M    "P 1"
_symmetry_Int_Tables_number       1

loop_
  _symmetry_equiv_pos_as_xyz
  'x, y, z'

loop_
  _atom_site_type_symbol
  _atom_site_label
  _atom_site_symmetry_multiplicity
  _atom_site_fract_x
  _atom_site_fract_y
  _atom_site_fract_z
  _atom_site_occupancy
 _atom_site_charge
O   O1        1.0  0.51740  0.62760  0.02440  1.0000 -0.4988001316
O   O2        1.0  0.55560  0.58940  0.76230  1.0000 -0.5140323778
C   C1        1.0  0.54610  0.63960  0.86250  1.0000 0.5554906374
C   C2        1.0  0.57280  0.72260  0.77760  1.0000 -0.0029578405
C   C3        1.0  0.62040  0.74740  0.61380  1.0000 -0.1955052221
H   H1        1.0  0.63550  0.71230  0.55740  1.0000 0.1120207852
C   C4        1.0  0.75940  0.90950  0.06500  1.0000 -0.0748439038
H   H2        1.0  0.76840  0.94520  0.97460  1.0000 0.1186404349
S   S1        1.0  0.71680  0.91620  0.22990  1.0000 -0.1893612862
C   C5        1.0  0.71680  0.80060  0.22990  1.0000 0.0971245228
H   H3        1.0  0.70760  0.96230  0.25350  1.0000 0.1186404349
O   O3        1.0  0.37240  0.88980  0.02440  1.0000 -0.4988001316
O   O4        1.0  0.41060  0.96620  0.76230  1.0000 -0.5140323778
C   C6        1.0  0.36040  0.90650  0.86250  1.0000 0.5554906374
C   C7        1.0  0.27740  0.85020  0.77760  1.0000 -0.0029578405
C   C8        1.0  0.25260  0.87300  0.61380  1.0000 -0.1955052221
H   H4        1.0  0.28770  0.92320  0.55740  1.0000 0.1120207852
C   C9        1.0  0.09050  0.84990  0.06500  1.0000 -0.0748439038
H   H5        1.0  0.05480  0.82320  0.97460  1.0000 0.1186404349
S   S2        1.0  0.08380  0.80060  0.22990  1.0000 -0.1893612862
C   C10       1.0  0.19940  0.91620  0.22990  1.0000 0.0971245228
H   H6        1.0  0.03770  0.74530  0.25350  1.0000 0.1186404349
O   O5        1.0  0.11020  0.48260  0.02440  1.0000 -0.4988001316
O   O6        1.0  0.03380  0.44440  0.76230  1.0000 -0.5140323778
C   C11       1.0  0.09350  0.45390  0.86250  1.0000 0.5554906374
C   C12       1.0  0.14980  0.42720  0.77760  1.0000 -0.0029578405
C   C13       1.0  0.12700  0.37960  0.61380  1.0000 -0.1893612862
H   H7        1.0  0.07680  0.36450  0.55740  1.0000 0.1120207852
C   C14       1.0  0.15010  0.24060  0.06500  1.0000 -0.0748439038
H   H8        1.0  0.17680  0.23160  0.97460  1.0000 0.1186404349
S   S3        1.0  0.19940  0.28320  0.22990  1.0000 -0.1893612862
C   C15       1.0  0.08380  0.28320  0.22990  1.0000 0.0971245228
H   H9        1.0  0.25470  0.29240  0.25350  1.0000 0.1186404349
O   O7        1.0  0.62760  0.51740  0.97560  1.0000 -0.4988001316
O   O8        1.0  0.58940  0.55560  0.23770  1.0000 -0.5140323778
C   C16       1.0  0.63960  0.54610  0.13750  1.0000 0.5554906374
C   C17       1.0  0.72260  0.57280  0.22240  1.0000 -0.0029578405
C   C18       1.0  0.74740  0.62040  0.38620  1.0000 -0.1893612862
H   H10       1.0  0.71230  0.63550  0.44260  1.0000 0.1120207852
C   C19       1.0  0.90950  0.75940  0.93500  1.0000 -0.0758308151
H   H11       1.0  0.94520  0.76840  0.02540  1.0000 0.1186404349
S   S4        1.0  0.91620  0.71680  0.77010  1.0000 -0.1893612862
C   C20       1.0  0.80060  0.71680  0.77010  1.0000 0.0971245228
H   H12       1.0  0.96230  0.70760  0.74650  1.0000 0.1186404349
O   O9        1.0  0.88980  0.37240  0.97560  1.0000 -0.4988001316
O   O10       1.0  0.96620  0.41060  0.23770  1.0000 -0.5140323778
C   C21       1.0  0.90650  0.36040  0.13750  1.0000 0.5554906374
C   C22       1.0  0.85020  0.27740  0.22240  1.0000 -0.0029578405
C   C23       1.0  0.87300  0.25260  0.38620  1.0000 -0.1893612862
H   H13       1.0  0.92320  0.28770  0.44260  1.0000 0.1120207852
C   C24       1.0  0.84990  0.09050  0.93500  1.0000 -0.0748439038
H   H14       1.0  0.82320  0.05480  0.02540  1.0000 0.1186404349
S   S5        1.0  0.80060  0.08380  0.77010  1.0000 -0.1893612862
C   C25       1.0  0.91620  0.19940  0.77010  1.0000 0.0971245228
H   H15       1.0  0.74530  0.03770  0.74650  1.0000 0.1186404349
O   O11       1.0  0.48260  0.11020  0.97560  1.0000 -0.4988001316
O   O12       1.0  0.44440  0.03380  0.23770  1.0000 -0.5140323778
C   C26       1.0  0.45390  0.09350  0.13750  1.0000 0.5554906374
C   C27       1.0  0.42720  0.14980  0.22240  1.0000 -0.0029578405
C   C28       1.0  0.37960  0.12700  0.38620  1.0000 -0.1955052221
H   H16       1.0  0.36450  0.07680  0.44260  1.0000 0.1120207852
C   C29       1.0  0.24060  0.15010  0.93500  1.0000 -0.0758308151
H   H17       1.0  0.23160  0.17680  0.02540  1.0000 0.1186404349
S   S6        1.0  0.28320  0.19940  0.77010  1.0000 -0.1893612862
C   C30       1.0  0.28320  0.08380  0.77010  1.0000 0.0971245228
H   H18       1.0  0.29240  0.25470  0.74650  1.0000 0.1186404349
O   O13       1.0  0.48260  0.37240  0.97560  1.0000 -0.4988001316
O   O14       1.0  0.44440  0.41060  0.23770  1.0000 -0.5158900911
C   C31       1.0  0.45390  0.36040  0.13750  1.0000 0.5554906374
C   C32       1.0  0.42720  0.27740  0.22240  1.0000 -0.0029578405
C   C33       1.0  0.37960  0.25260  0.38620  1.0000 -0.148147715
H   H19       1.0  0.36450  0.28770  0.44260  1.0000 0.1186404349
C   C34       1.0  0.24060  0.09050  0.93500  1.0000 -0.1412703796
H   H20       1.0  0.23160  0.05480  0.02540  1.0000 0.1186404349
H   H21       1.0  0.29240  0.03770  0.74650  1.0000 0.0764161674
O   O15       1.0  0.62760  0.11020  0.97560  1.0000 -0.4988001316
O   O16       1.0  0.58940  0.03380  0.23770  1.0000 -0.5140323778
C   C35       1.0  0.63960  0.09350  0.13750  1.0000 0.5554906374
C   C36       1.0  0.72260  0.14980  0.22240  1.0000 -0.0029578405
C   C37       1.0  0.74740  0.12700  0.38620  1.0000 -0.148147715
H   H22       1.0  0.71230  0.07680  0.44260  1.0000 0.1186404349
C   C38       1.0  0.90950  0.15010  0.93500  1.0000 -0.1412703796
H   H23       1.0  0.94520  0.17680  0.02540  1.0000 0.1186404349
H   H24       1.0  0.96230  0.25470  0.74650  1.0000 0.0764161674
O   O17       1.0  0.88980  0.51740  0.97560  1.0000 -0.4988001316
O   O18       1.0  0.96620  0.55560  0.23770  1.0000 -0.5158900911
C   C39       1.0  0.90650  0.54610  0.13750  1.0000 0.5554906374
C   C40       1.0  0.85020  0.57280  0.22240  1.0000 -0.0029578405
C   C41       1.0  0.87300  0.62040  0.38620  1.0000 -0.148147715
H   H25       1.0  0.92320  0.63550  0.44260  1.0000 0.1186404349
C   C42       1.0  0.84990  0.75940  0.93500  1.0000 -0.1412703796
H   H26       1.0  0.82320  0.76840  0.02540  1.0000 0.1186404349
H   H27       1.0  0.74530  0.70760  0.74650  1.0000 0.0764161674
O   O19       1.0  0.37240  0.48260  0.02440  1.0000 -0.4988001316
O   O20       1.0  0.41060  0.44440  0.76230  1.0000 -0.5158900911
C   C43       1.0  0.36040  0.45390  0.86250  1.0000 0.5554906374
C   C44       1.0  0.27740  0.42720  0.77760  1.0000 -0.0029578405
C   C45       1.0  0.25260  0.37960  0.61380  1.0000 -0.148147715
H   H28       1.0  0.28770  0.36450  0.55740  1.0000 0.1186404349
C   C46       1.0  0.09050  0.24060  0.06500  1.0000 -0.1412703796
H   H29       1.0  0.05480  0.23160  0.97460  1.0000 0.1186404349
H   H30       1.0  0.03770  0.29240  0.25350  1.0000 0.0764161674
O   O21       1.0  0.11020  0.62760  0.02440  1.0000 -0.4988001316
O   O22       1.0  0.03380  0.58940  0.76230  1.0000 -0.5158900911
C   C47       1.0  0.09350  0.63960  0.86250  1.0000 0.5554906374
C   C48       1.0  0.14980  0.72260  0.77760  1.0000 -0.0029578405
C   C49       1.0  0.12700  0.74740  0.61380  1.0000 -0.148147715
H   H31       1.0  0.07680  0.71230  0.55740  1.0000 0.1186404349
C   C50       1.0  0.15010  0.90950  0.06500  1.0000 -0.1412703796
H   H32       1.0  0.17680  0.94520  0.97460  1.0000 0.1186404349
H   H33       1.0  0.25470  0.96230  0.25350  1.0000 0.0764161674
O   O23       1.0  0.51740  0.88980  0.02440  1.0000 -0.4988001316
O   O24       1.0  0.55560  0.96620  0.76230  1.0000 -0.5158900911
C   C51       1.0  0.54610  0.90650  0.86250  1.0000 0.5554906374
C   C52       1.0  0.57280  0.85020  0.77760  1.0000 -0.0029578405
C   C53       1.0  0.62040  0.87300  0.61380  1.0000 -0.148147715
H   H34       1.0  0.63550  0.92320  0.55740  1.0000 0.1186404349
C   C54       1.0  0.75940  0.84990  0.06500  1.0000 -0.1412703796
H   H35       1.0  0.76840  0.82320  0.97460  1.0000 0.1186404349
H   H36       1.0  0.70760  0.74530  0.25350  1.0000 0.0764161674
Cu  Cu1       1.0  0.47773  0.52227  0.15365  1.0000 0.8095389948
Cu  Cu2       1.0  0.47773  0.95546  0.15365  1.0000 0.8095389948
Cu  Cu3       1.0  0.04454  0.52227  0.15365  1.0000 0.8095389948
Cu  Cu4       1.0  0.52227  0.47773  0.84635  1.0000 0.8095389948
Cu  Cu5       1.0  0.95546  0.47773  0.84635  1.0000 0.8095389948
Cu  Cu6       1.0  0.52227  0.04454  0.84635  1.0000 0.8095389948
C   C55       1.0  0.55190  0.77595  0.86080  1.0000 -0.1230456075
H   H37       1.0  0.52340  0.76170  0.97400  1.0000 0.1311149395
C   C56       1.0  0.64500  0.82250  0.53600  1.0000 0.0764161674
C   C57       1.0  0.69480  0.84740  0.35500  1.0000 0.0143853196
C   C58       1.0  0.22405  0.77595  0.86080  1.0000 -0.1230456075
H   H38       1.0  0.23830  0.76170  0.97400  1.0000 0.1311149395
C   C59       1.0  0.17750  0.82250  0.53600  1.0000 0.0764161674
C   C60       1.0  0.15260  0.84740  0.35500  1.0000 0.0143853196
C   C61       1.0  0.22405  0.44810  0.86080  1.0000 -0.1230456075
H   H39       1.0  0.23830  0.47660  0.97400  1.0000 0.1311149395
C   C62       1.0  0.17750  0.35500  0.53600  1.0000 0.0764161674
C   C63       1.0  0.15260  0.30520  0.35500  1.0000 0.0143853196
C   C64       1.0  0.77595  0.55190  0.13920  1.0000 -0.1230456075
H   H40       1.0  0.76170  0.52340  0.02600  1.0000 0.1311149395
C   C65       1.0  0.82250  0.64500  0.46400  1.0000 0.0764161674
C   C66       1.0  0.84740  0.69480  0.64500  1.0000 0.0143853196
C   C67       1.0  0.77595  0.22405  0.13920  1.0000 -0.1230456075
H   H41       1.0  0.76170  0.23830  0.02600  1.0000 0.1311149395
C   C68       1.0  0.82250  0.17750  0.46400  1.0000 0.0764161674
C   C69       1.0  0.84740  0.15260  0.64500  1.0000 0.0143853196
C   C70       1.0  0.44810  0.22405  0.13920  1.0000 -0.1230456075
H   H42       1.0  0.47660  0.23830  0.02600  1.0000 0.1311149395
C   C71       1.0  0.35500  0.17750  0.46400  1.0000 0.0764161674
C   C72       1.0  0.30520  0.15260  0.64500  1.0000 0.0143853196
  C   C73       1.0  0.71680  0.91620  0.22990  1.0000
  S   S7        1.0  0.71680  0.80060  0.22990  1.0000
  C   C74       1.0  0.08380  0.80060  0.22990  1.0000
  S   S8        1.0  0.19940  0.91620  0.22990  1.0000
  C   C75       1.0  0.19940  0.28320  0.22990  1.0000
  S   S9        1.0  0.08380  0.28320  0.22990  1.0000
  C   C76       1.0  0.91620  0.71680  0.77010  1.0000
  S   S10       1.0  0.80060  0.71680  0.77010  1.0000
  C   C77       1.0  0.80060  0.08380  0.77010  1.0000
  S   S11       1.0  0.91620  0.19940  0.77010  1.0000
  C   C78       1.0  0.28320  0.19940  0.77010  1.0000
  S   S12       1.0  0.28320  0.08380  0.77010  1.0000
