# DDEC6 charges by PACMAN v1.1 (https://github.com/mtap-research/PACMAN-charge/)
data_HICGEG_FSR_pacman
_symmetry_space_group_name_H-M   'P 1'
_cell_length_a   20.95340000
_cell_length_b   20.95340000
_cell_length_c   25.54700000
_cell_angle_alpha   53.17730000
_cell_angle_beta   126.82300000
_cell_angle_gamma   125.41100000
_symmetry_Int_Tables_number   1
_chemical_formula_structural   Zn5H36(C9N5)4
_chemical_formula_sum   'Zn20 H144 C144 N80'
_cell_volume   6749.46235047
_cell_formula_units_Z   4
loop_
 _symmetry_equiv_pos_site_id
 _symmetry_equiv_pos_as_xyz
  1  'x, y, z'
loop_
 _atom_site_type_symbol
 _atom_site_label
 _atom_site_symmetry_multiplicity
 _atom_site_fract_x
 _atom_site_fract_y
 _atom_site_fract_z
 _atom_site_occupancy
 _atom_site_charge
Zn  Zn1  1  0.08854000  0.40550000  0.45232000  1.0 0.5889042393
Zn  Zn2  1  0.40550000  0.08854000  0.04768000  1.0 0.5889042393
Zn  Zn3  1  0.91146000  0.59450000  0.54768000  1.0 0.5889042393
Zn  Zn4  1  0.59450000  0.91146000  0.95232000  1.0 0.5889042393
Zn  Zn5  1  0.21842000  0.91236000  0.54298000  1.0 0.6068563238
Zn  Zn6  1  0.91236000  0.21842000  0.95702000  1.0 0.6068563238
Zn  Zn7  1  0.78158000  0.08764000  0.45702000  1.0 0.6068563238
Zn  Zn8  1  0.08764000  0.78158000  0.04298000  1.0 0.6068563238
Zn  Zn9  1  0.17810000  0.17810000  0.25000000  1.0 0.5683833435
Zn  Zn10  1  0.82190000  0.82190000  0.75000000  1.0 0.5683833435
Zn  Zn11  1  0.07279000  0.42447000  0.20152000  1.0 0.5788364932
Zn  Zn12  1  0.42447000  0.07279000  0.29848000  1.0 0.5788364932
Zn  Zn13  1  0.92721000  0.57553000  0.79848000  1.0 0.5788364932
Zn  Zn14  1  0.57553000  0.92721000  0.70152000  1.0 0.5788364932
Zn  Zn15  1  0.76549000  0.10837000  0.20505000  1.0 0.6068563238
Zn  Zn16  1  0.10837000  0.76549000  0.29495000  1.0 0.6068563238
Zn  Zn17  1  0.23451000  0.89163000  0.79495000  1.0 0.6068563238
Zn  Zn18  1  0.89163000  0.23451000  0.70505000  1.0 0.6068563238
Zn  Zn19  1  0.83507000  0.83507000  0.25000000  1.0 0.596122928
Zn  Zn20  1  0.16493000  0.16493000  0.75000000  1.0 0.596122928
H  H1  1  0.03950000  0.77730000  0.55460000  1.0 0.0903998446
H  H2  1  0.77730000  0.03950000  0.94540000  1.0 0.0903998446
H  H3  1  0.96050000  0.22270000  0.44540000  1.0 0.0903998446
H  H4  1  0.22270000  0.96050000  0.05460000  1.0 0.0903998446
H  H5  1  0.08490000  0.61510000  0.56570000  1.0 0.1087186374
H  H6  1  0.61510000  0.08490000  0.93430000  1.0 0.1087186374
H  H7  1  0.91510000  0.38490000  0.43430000  1.0 0.1087186374
H  H8  1  0.38490000  0.91510000  0.06570000  1.0 0.1087186374
H  H9  1  0.20700000  0.74660000  0.55750000  1.0 0.1087186374
H  H10  1  0.74660000  0.20700000  0.94250000  1.0 0.1087186374
H  H11  1  0.79300000  0.25340000  0.44250000  1.0 0.1087186374
H  H12  1  0.25340000  0.79300000  0.05750000  1.0 0.1087186374
H  H13  1  0.25360000  0.05380000  0.40250000  1.0 0.0903998446
H  H14  1  0.05380000  0.25360000  0.09750000  1.0 0.0903998446
H  H15  1  0.74640000  0.94620000  0.59750000  1.0 0.0903998446
H  H16  1  0.94620000  0.74640000  0.90250000  1.0 0.0903998446
H  H17  1  0.05690000  0.97150000  0.43690000  1.0 0.1087186374
H  H18  1  0.97150000  0.05690000  0.06310000  1.0 0.1087186374
H  H19  1  0.94310000  0.02850000  0.56310000  1.0 0.1087186374
H  H20  1  0.02850000  0.94310000  0.93690000  1.0 0.1087186374
H  H21  1  0.03870000  0.08010000  0.31600000  1.0 0.1087186374
H  H22  1  0.08010000  0.03870000  0.18400000  1.0 0.1087186374
H  H23  1  0.96130000  0.91990000  0.68400000  1.0 0.1087186374
H  H24  1  0.91990000  0.96130000  0.81600000  1.0 0.1087186374
H  H25  1  0.40050000  0.92310000  0.65730000  1.0 0.0903998446
H  H26  1  0.92310000  0.40050000  0.84270000  1.0 0.0903998446
H  H27  1  0.59950000  0.07690000  0.34270000  1.0 0.0903998446
H  H28  1  0.07690000  0.59950000  0.15730000  1.0 0.0903998446
H  H29  1  0.31850000  0.91730000  0.47780000  1.0 0.0997719658
H  H30  1  0.91730000  0.31850000  0.02220000  1.0 0.0997719658
H  H31  1  0.68150000  0.08270000  0.52220000  1.0 0.0997719658
H  H32  1  0.08270000  0.68150000  0.97780000  1.0 0.0997719658
H  H33  1  0.46160000  0.91620000  0.54540000  1.0 0.0997719658
H  H34  1  0.91620000  0.46160000  0.95460000  1.0 0.0997719658
H  H35  1  0.53840000  0.08380000  0.45460000  1.0 0.0997719658
H  H36  1  0.08380000  0.53840000  0.04540000  1.0 0.0997719658
H  H37  1  0.94610000  0.24050000  0.26180000  1.0 0.0903998446
H  H38  1  0.24050000  0.94610000  0.23820000  1.0 0.0903998446
H  H39  1  0.05390000  0.75950000  0.73820000  1.0 0.0903998446
H  H40  1  0.75950000  0.05390000  0.76180000  1.0 0.0903998446
H  H41  1  0.77380000  0.28360000  0.06950000  1.0 0.1087186374
H  H42  1  0.28360000  0.77380000  0.43050000  1.0 0.1087186374
H  H43  1  0.22620000  0.71640000  0.93050000  1.0 0.1087186374
H  H44  1  0.71640000  0.22620000  0.56950000  1.0 0.1087186374
H  H45  1  0.89930000  0.41070000  0.07050000  1.0 0.1087186374
H  H46  1  0.41070000  0.89930000  0.42950000  1.0 0.1087186374
H  H47  1  0.10070000  0.58930000  0.92950000  1.0 0.1087186374
H  H48  1  0.58930000  0.10070000  0.57050000  1.0 0.1087186374
H  H49  1  0.10560000  0.58940000  0.33900000  1.0 0.0903998446
H  H50  1  0.58940000  0.10560000  0.16100000  1.0 0.0903998446
H  H51  1  0.89440000  0.41060000  0.66100000  1.0 0.0903998446
H  H52  1  0.41060000  0.89440000  0.83900000  1.0 0.0903998446
H  H53  1  0.08130000  0.64470000  0.44480000  1.0 0.1087186374
H  H54  1  0.64470000  0.08130000  0.05520000  1.0 0.1087186374
H  H55  1  0.91870000  0.35530000  0.55520000  1.0 0.1087186374
H  H56  1  0.35530000  0.91870000  0.94480000  1.0 0.1087186374
H  H57  1  0.07470000  0.50090000  0.50940000  1.0 0.1087186374
H  H58  1  0.50090000  0.07470000  0.99060000  1.0 0.1087186374
H  H59  1  0.92530000  0.49910000  0.49060000  1.0 0.1087186374
H  H60  1  0.49910000  0.92530000  0.00940000  1.0 0.1087186374
H  H61  1  0.16680000  0.84860000  0.66700000  1.0 0.0903998446
H  H62  1  0.84860000  0.16680000  0.83300000  1.0 0.0903998446
H  H63  1  0.83320000  0.15140000  0.33300000  1.0 0.0903998446
H  H64  1  0.15140000  0.83320000  0.16700000  1.0 0.0903998446
H  H65  1  0.34740000  0.04740000  0.70790000  1.0 0.1087186374
H  H66  1  0.04740000  0.34740000  0.79210000  1.0 0.1087186374
H  H67  1  0.65260000  0.95260000  0.29210000  1.0 0.1087186374
H  H68  1  0.95260000  0.65260000  0.20790000  1.0 0.1087186374
H  H69  1  0.34240000  0.05740000  0.60540000  1.0 0.1179425735
H  H70  1  0.05740000  0.34240000  0.89460000  1.0 0.1179425735
H  H71  1  0.65760000  0.94260000  0.39460000  1.0 0.1179425735
H  H72  1  0.94260000  0.65760000  0.10540000  1.0 0.1179425735
H  H73  1  0.77320000  0.92900000  0.26640000  1.0 0.0997719658
H  H74  1  0.92900000  0.77320000  0.23360000  1.0 0.0997719658
H  H75  1  0.22680000  0.07100000  0.73360000  1.0 0.0997719658
H  H76  1  0.07100000  0.22680000  0.76640000  1.0 0.0997719658
H  H77  1  0.88610000  0.14150000  0.14940000  1.0 0.0997719658
H  H78  1  0.14150000  0.88610000  0.35060000  1.0 0.0997719658
H  H79  1  0.11390000  0.85850000  0.85060000  1.0 0.0997719658
H  H80  1  0.85850000  0.11390000  0.64940000  1.0 0.0997719658
H  H81  1  0.92070000  0.03370000  0.17210000  1.0 0.1087186374
H  H82  1  0.03370000  0.92070000  0.32790000  1.0 0.1087186374
H  H83  1  0.07930000  0.96630000  0.82790000  1.0 0.1087186374
H  H84  1  0.96630000  0.07930000  0.67210000  1.0 0.1087186374
H  H85  1  0.01690000  0.37830000  0.31590000  1.0 0.0997719658
H  H86  1  0.37830000  0.01690000  0.18410000  1.0 0.0997719658
H  H87  1  0.98310000  0.62170000  0.68410000  1.0 0.0997719658
H  H88  1  0.62170000  0.98310000  0.81590000  1.0 0.0997719658
H  H89  1  0.07210000  0.26310000  0.59410000  1.0 0.0997719658
H  H90  1  0.26310000  0.07210000  0.90590000  1.0 0.0997719658
H  H91  1  0.92790000  0.73690000  0.40590000  1.0 0.0997719658
H  H92  1  0.73690000  0.92790000  0.09410000  1.0 0.0997719658
H  H93  1  0.06830000  0.26250000  0.21640000  1.0 0.0997719658
H  H94  1  0.26250000  0.06830000  0.28360000  1.0 0.0997719658
H  H95  1  0.93170000  0.73750000  0.78360000  1.0 0.0997719658
H  H96  1  0.73750000  0.93170000  0.71640000  1.0 0.0997719658
H  H97  1  0.24580000  0.48160000  0.32310000  1.0 0.0511681097
H  H98  1  0.48160000  0.24580000  0.17690000  1.0 0.0511681097
H  H99  1  0.75420000  0.51840000  0.67690000  1.0 0.0511681097
H  H100  1  0.51840000  0.75420000  0.82310000  1.0 0.0511681097
H  H101  1  0.25270000  0.46630000  0.42880000  1.0 0.0511681097
H  H102  1  0.46630000  0.25270000  0.07120000  1.0 0.0511681097
H  H103  1  0.74730000  0.53370000  0.57120000  1.0 0.0511681097
H  H104  1  0.53370000  0.74730000  0.92880000  1.0 0.0511681097
H  H105  1  0.23840000  0.48300000  0.18220000  1.0 0.0720052898
H  H106  1  0.48300000  0.23840000  0.31780000  1.0 0.0777035789
H  H107  1  0.76160000  0.51700000  0.81780000  1.0 0.0777035789
H  H108  1  0.51700000  0.76160000  0.68220000  1.0 0.0777035789
H  H109  1  0.27820000  0.38420000  0.19430000  1.0 0.0777035789
H  H110  1  0.38420000  0.27820000  0.30570000  1.0 0.0777035789
H  H111  1  0.72180000  0.61580000  0.80570000  1.0 0.0777035789
H  H112  1  0.61580000  0.72180000  0.69430000  1.0 0.0777035789
H  H113  1  0.31640000  0.32140000  0.69020000  1.0 0.0511681097
H  H114  1  0.32140000  0.31640000  0.80980000  1.0 0.0511681097
H  H115  1  0.68360000  0.67860000  0.30980000  1.0 0.0511681097
H  H116  1  0.67860000  0.68360000  0.19020000  1.0 0.0511681097
H  H117  1  0.28510000  0.42990000  0.56930000  1.0 0.0511681097
H  H118  1  0.42990000  0.28510000  0.93070000  1.0 0.056032613
H  H119  1  0.71490000  0.57010000  0.43070000  1.0 0.056032613
H  H120  1  0.57010000  0.71490000  0.06930000  1.0 0.0511681097
H  H121  1  0.76990000  0.46390000  0.70720000  1.0 0.0430824529
H  H122  1  0.46390000  0.76990000  0.79280000  1.0 0.0430824529
H  H123  1  0.23010000  0.53610000  0.29280000  1.0 0.0430824529
H  H124  1  0.53610000  0.23010000  0.20720000  1.0 0.0430824529
H  H125  1  0.75910000  0.48050000  0.59950000  1.0 0.056032613
H  H126  1  0.48050000  0.75910000  0.90050000  1.0 0.056032613
H  H127  1  0.24090000  0.51950000  0.40050000  1.0 0.056032613
H  H128  1  0.51950000  0.24090000  0.09950000  1.0 0.056032613
H  H129  1  0.54590000  0.73350000  0.75460000  1.0 0.0720052898
H  H130  1  0.73350000  0.54590000  0.74540000  1.0 0.0720052898
H  H131  1  0.45410000  0.26650000  0.24540000  1.0 0.0720052898
H  H132  1  0.26650000  0.45410000  0.25460000  1.0 0.0720052898
H  H133  1  0.64590000  0.68890000  0.77350000  1.0 0.0777035789
H  H134  1  0.68890000  0.64590000  0.72650000  1.0 0.0777035789
H  H135  1  0.35410000  0.31110000  0.22650000  1.0 0.0777035789
H  H136  1  0.31110000  0.35410000  0.27350000  1.0 0.0777035789
H  H137  1  0.30440000  0.27300000  0.67910000  1.0 0.056032613
H  H138  1  0.27300000  0.30440000  0.82090000  1.0 0.056032613
H  H139  1  0.69560000  0.72700000  0.32090000  1.0 0.056032613
H  H140  1  0.72700000  0.69560000  0.17910000  1.0 0.056032613
H  H141  1  0.27590000  0.38070000  0.55690000  1.0 0.0430824529
H  H142  1  0.38070000  0.27590000  0.94310000  1.0 0.0430824529
H  H143  1  0.72410000  0.61930000  0.44310000  1.0 0.0430824529
H  H144  1  0.61930000  0.72410000  0.05690000  1.0 0.0430824529
C  C1  1  0.06610000  0.75250000  0.55620000  1.0 0.1276804479
C  C2  1  0.75250000  0.06610000  0.94380000  1.0 0.1276804479
C  C3  1  0.93390000  0.24750000  0.44380000  1.0 0.1276804479
C  C4  1  0.24750000  0.93390000  0.05620000  1.0 0.1276804479
C  C5  1  0.08960000  0.66440000  0.56200000  1.0 -0.0598801419
C  C6  1  0.66440000  0.08960000  0.93800000  1.0 -0.0598801419
C  C7  1  0.91040000  0.33560000  0.43800000  1.0 -0.0598801419
C  C8  1  0.33560000  0.91040000  0.06200000  1.0 -0.0598801419
C  C9  1  0.15810000  0.73730000  0.55800000  1.0 -0.0734558574
C  C10  1  0.73730000  0.15810000  0.94200000  1.0 -0.0734558574
C  C11  1  0.84190000  0.26270000  0.44200000  1.0 -0.0734558574
C  C12  1  0.26270000  0.84190000  0.05800000  1.0 -0.0734558574
C  C13  1  0.20120000  0.04620000  0.39570000  1.0 0.1179425735
C  C14  1  0.04620000  0.20120000  0.10430000  1.0 0.1179425735
C  C15  1  0.79880000  0.95380000  0.60430000  1.0 0.1179425735
C  C16  1  0.95380000  0.79880000  0.89570000  1.0 0.1179425735
C  C17  1  0.09510000  0.00090000  0.41560000  1.0 -0.0598801419
C  C18  1  0.00090000  0.09510000  0.08440000  1.0 -0.0598801419
C  C19  1  0.90490000  0.99910000  0.58440000  1.0 -0.0598801419
C  C20  1  0.99910000  0.90490000  0.91560000  1.0 -0.0598801419
C  C21  1  0.08480000  0.06120000  0.34810000  1.0 -0.0598801419
C  C22  1  0.06120000  0.08480000  0.15190000  1.0 -0.0598801419
C  C23  1  0.91520000  0.93880000  0.65190000  1.0 -0.0598801419
C  C24  1  0.93880000  0.91520000  0.84810000  1.0 -0.0598801419
C  C25  1  0.39790000  0.92190000  0.62030000  1.0 0.1276804479
C  C26  1  0.92190000  0.39790000  0.87970000  1.0 0.1276804479
C  C27  1  0.60210000  0.07810000  0.37970000  1.0 0.1276804479
C  C28  1  0.07810000  0.60210000  0.12030000  1.0 0.1276804479
C  C29  1  0.35270000  0.91850000  0.52290000  1.0 -0.0797685635
C  C30  1  0.91850000  0.35270000  0.97710000  1.0 -0.0797685635
C  C31  1  0.64730000  0.08150000  0.47710000  1.0 -0.0797685635
C  C32  1  0.08150000  0.64730000  0.02290000  1.0 -0.0797685635
C  C33  1  0.43160000  0.91800000  0.56010000  1.0 -0.08578855
C  C34  1  0.91800000  0.43160000  0.93990000  1.0 -0.08578855
C  C35  1  0.56840000  0.08200000  0.43990000  1.0 -0.08578855
C  C36  1  0.08200000  0.56840000  0.06010000  1.0 -0.08578855
C  C37  1  0.91820000  0.26720000  0.21350000  1.0 0.1179425735
C  C38  1  0.26720000  0.91820000  0.28650000  1.0 0.1179425735
C  C39  1  0.08180000  0.73280000  0.78650000  1.0 0.1179425735
C  C40  1  0.73280000  0.08180000  0.71350000  1.0 0.1179425735
C  C41  1  0.82360000  0.28980000  0.10910000  1.0 -0.0797685635
C  C42  1  0.28980000  0.82360000  0.39090000  1.0 -0.0797685635
C  C43  1  0.17640000  0.71020000  0.89090000  1.0 -0.0797685635
C  C44  1  0.71020000  0.17640000  0.60910000  1.0 -0.0797685635
C  C45  1  0.89380000  0.36020000  0.10980000  1.0 -0.0598801419
C  C46  1  0.36020000  0.89380000  0.39020000  1.0 -0.0598801419
C  C47  1  0.10620000  0.63980000  0.89020000  1.0 -0.0598801419
C  C48  1  0.63980000  0.10620000  0.60980000  1.0 -0.0598801419
C  C49  1  0.09980000  0.58560000  0.37420000  1.0 0.1179425735
C  C50  1  0.58560000  0.09980000  0.12580000  1.0 0.1179425735
C  C51  1  0.90020000  0.41440000  0.62580000  1.0 0.1179425735
C  C52  1  0.41440000  0.90020000  0.87420000  1.0 0.1179425735
C  C53  1  0.08610000  0.61550000  0.43130000  1.0 -0.0797685635
C  C54  1  0.61550000  0.08610000  0.06870000  1.0 -0.0797685635
C  C55  1  0.91390000  0.38450000  0.56870000  1.0 -0.0797685635
C  C56  1  0.38450000  0.91390000  0.93130000  1.0 -0.0797685635
C  C57  1  0.08270000  0.53690000  0.46690000  1.0 -0.08578855
C  C58  1  0.53690000  0.08270000  0.03310000  1.0 -0.0797685635
C  C59  1  0.91730000  0.46310000  0.53310000  1.0 -0.08578855
C  C60  1  0.46310000  0.91730000  0.96690000  1.0 -0.08578855
C  C61  1  0.21140000  0.90040000  0.66370000  1.0 0.1276804479
C  C62  1  0.90040000  0.21140000  0.83630000  1.0 0.1276804479
C  C63  1  0.78860000  0.09960000  0.33630000  1.0 0.1276804479
C  C64  1  0.09960000  0.78860000  0.16370000  1.0 0.1276804479
C  C65  1  0.30940000  0.00800000  0.68670000  1.0 -0.0526311546
C  C66  1  0.00800000  0.30940000  0.81330000  1.0 -0.0526311546
C  C67  1  0.69060000  0.99200000  0.31330000  1.0 -0.0526311546
C  C68  1  0.99200000  0.69060000  0.18670000  1.0 -0.0526311546
C  C69  1  0.30680000  0.01380000  0.62990000  1.0 -0.08578855
C  C70  1  0.01380000  0.30680000  0.87010000  1.0 -0.08578855
C  C71  1  0.69320000  0.98620000  0.37010000  1.0 -0.08578855
C  C72  1  0.98620000  0.69320000  0.12990000  1.0 -0.08578855
C  C73  1  0.80570000  0.96910000  0.23900000  1.0 0.1276804479
C  C74  1  0.96910000  0.80570000  0.26100000  1.0 0.1276804479
C  C75  1  0.19430000  0.03090000  0.76100000  1.0 0.1276804479
C  C76  1  0.03090000  0.19430000  0.73900000  1.0 0.1276804479
C  C77  1  0.86670000  0.08390000  0.17640000  1.0 -0.0797685635
C  C78  1  0.08390000  0.86670000  0.32360000  1.0 -0.0797685635
C  C79  1  0.13330000  0.91610000  0.82360000  1.0 -0.0797685635
C  C80  1  0.91610000  0.13330000  0.67640000  1.0 -0.0797685635
C  C81  1  0.88530000  0.02430000  0.18840000  1.0 -0.0734558574
C  C82  1  0.02430000  0.88530000  0.31160000  1.0 -0.0797685635
C  C83  1  0.11470000  0.97570000  0.81160000  1.0 -0.0797685635
C  C84  1  0.97570000  0.11470000  0.68840000  1.0 -0.0797685635
C  C85  1  0.07470000  0.40910000  0.32790000  1.0 -0.0598801419
C  C86  1  0.40910000  0.07470000  0.17210000  1.0 -0.0598801419
C  C87  1  0.92530000  0.59090000  0.67210000  1.0 -0.0598801419
C  C88  1  0.59090000  0.92530000  0.82790000  1.0 -0.0598801419
C  C89  1  0.12910000  0.28590000  0.60170000  1.0 -0.0734558574
C  C90  1  0.28590000  0.12910000  0.89830000  1.0 -0.0734558574
C  C91  1  0.87090000  0.71410000  0.39830000  1.0 -0.0797685635
C  C92  1  0.71410000  0.87090000  0.10170000  1.0 -0.0797685635
C  C93  1  0.12260000  0.30260000  0.22070000  1.0 -0.0384509209
C  C94  1  0.30260000  0.12260000  0.27930000  1.0 -0.0384509209
C  C95  1  0.87740000  0.69740000  0.77930000  1.0 -0.0384509209
C  C96  1  0.69740000  0.87740000  0.72070000  1.0 -0.0384509209
C  C97  1  0.19940000  0.46260000  0.33220000  1.0 -0.0199950313
C  C98  1  0.46260000  0.19940000  0.16780000  1.0 -0.0199950313
C  C99  1  0.80060000  0.53740000  0.66780000  1.0 -0.0199950313
C  C100  1  0.53740000  0.80060000  0.83220000  1.0 -0.0199950313
C  C101  1  0.20320000  0.45500000  0.39050000  1.0 -0.0199950313
C  C102  1  0.45500000  0.20320000  0.10950000  1.0 -0.0199950313
C  C103  1  0.79680000  0.54500000  0.60950000  1.0 -0.0199950313
C  C104  1  0.54500000  0.79680000  0.89050000  1.0 -0.0199950313
C  C105  1  0.21200000  0.42440000  0.19730000  1.0 -0.0199950313
C  C106  1  0.42440000  0.21200000  0.30270000  1.0 -0.0199950313
C  C107  1  0.78800000  0.57560000  0.80270000  1.0 -0.0199950313
C  C108  1  0.57560000  0.78800000  0.69730000  1.0 -0.0199950313
C  C109  1  0.23510000  0.36910000  0.20540000  1.0 -0.0199950313
C  C110  1  0.36910000  0.23510000  0.29460000  1.0 -0.0199950313
C  C111  1  0.76490000  0.63090000  0.79460000  1.0 -0.0199950313
C  C112  1  0.63090000  0.76490000  0.70540000  1.0 -0.0199950313
C  C113  1  0.26230000  0.31990000  0.65500000  1.0 -0.0107974143
C  C114  1  0.31990000  0.26230000  0.84500000  1.0 -0.0107974143
C  C115  1  0.73770000  0.68010000  0.34500000  1.0 -0.0107974143
C  C116  1  0.68010000  0.73770000  0.15500000  1.0 -0.0107974143
C  C117  1  0.24590000  0.37970000  0.58730000  1.0 -0.0107974143
C  C118  1  0.37970000  0.24590000  0.91270000  1.0 -0.0107974143
C  C119  1  0.75410000  0.62030000  0.41270000  1.0 -0.0107974143
C  C120  1  0.62030000  0.75410000  0.08730000  1.0 -0.0107974143
C  C121  1  0.80990000  0.50310000  0.68670000  1.0 -0.0309011265
C  C122  1  0.50310000  0.80990000  0.81330000  1.0 -0.0309011265
C  C123  1  0.19010000  0.49690000  0.31330000  1.0 -0.0309011265
C  C124  1  0.49690000  0.19010000  0.18670000  1.0 -0.0309011265
C  C125  1  0.80490000  0.51130000  0.62760000  1.0 -0.0199950313
C  C126  1  0.51130000  0.80490000  0.87240000  1.0 -0.0199950313
C  C127  1  0.19510000  0.48870000  0.37240000  1.0 -0.0199950313
C  C128  1  0.48870000  0.19510000  0.12760000  1.0 -0.0199950313
C  C129  1  0.59420000  0.76960000  0.74410000  1.0 -0.0309011265
C  C130  1  0.76960000  0.59420000  0.75590000  1.0 -0.0309011265
C  C131  1  0.40580000  0.23040000  0.25590000  1.0 -0.0309011265
C  C132  1  0.23040000  0.40580000  0.24410000  1.0 -0.0309011265
C  C133  1  0.64990000  0.74470000  0.75460000  1.0 -0.0199950313
C  C134  1  0.74470000  0.64990000  0.74540000  1.0 -0.0199950313
C  C135  1  0.35010000  0.25530000  0.24540000  1.0 -0.0199950313
C  C136  1  0.25530000  0.35010000  0.25460000  1.0 -0.0199950313
C  C137  1  0.25630000  0.28870000  0.64890000  1.0 0.0019878231
C  C138  1  0.28870000  0.25630000  0.85110000  1.0 0.0019878231
C  C139  1  0.74370000  0.71130000  0.35110000  1.0 0.0019878231
C  C140  1  0.71130000  0.74370000  0.14890000  1.0 0.0019878231
C  C141  1  0.23910000  0.34750000  0.58030000  1.0 -0.0199950313
C  C142  1  0.34750000  0.23910000  0.91970000  1.0 -0.0199950313
C  C143  1  0.76090000  0.65250000  0.41970000  1.0 -0.0199950313
C  C144  1  0.65250000  0.76090000  0.08030000  1.0 -0.0199950313
N  N1  1  0.12280000  0.42800000  0.38440000  1.0 -0.2517283956
N  N2  1  0.42800000  0.12280000  0.11560000  1.0 -0.2517283956
N  N3  1  0.87720000  0.57200000  0.61560000  1.0 -0.2517283956
N  N4  1  0.57200000  0.87720000  0.88440000  1.0 -0.2517283956
N  N5  1  0.02950000  0.67370000  0.56000000  1.0 -0.2800917588
N  N6  1  0.67370000  0.02950000  0.94000000  1.0 -0.2800917588
N  N7  1  0.97050000  0.32630000  0.44000000  1.0 -0.2800917588
N  N8  1  0.32630000  0.97050000  0.06000000  1.0 -0.2800917588
N  N9  1  0.14190000  0.79350000  0.55480000  1.0 -0.2887495533
N  N10  1  0.79350000  0.14190000  0.94520000  1.0 -0.2887495533
N  N11  1  0.85810000  0.20650000  0.44520000  1.0 -0.2887495533
N  N12  1  0.20650000  0.85810000  0.05480000  1.0 -0.2887495533
N  N13  1  0.16920000  0.99140000  0.44570000  1.0 -0.2887495533
N  N14  1  0.99140000  0.16920000  0.05430000  1.0 -0.2887495533
N  N15  1  0.83080000  0.00860000  0.55430000  1.0 -0.2887495533
N  N16  1  0.00860000  0.83080000  0.94570000  1.0 -0.2887495533
N  N17  1  0.15266000  0.08874000  0.33620000  1.0 -0.2800917588
N  N18  1  0.08874000  0.15266000  0.16380000  1.0 -0.2800917588
N  N19  1  0.84734000  0.91126000  0.66380000  1.0 -0.2800917588
N  N20  1  0.91126000  0.84734000  0.83620000  1.0 -0.2800917588
N  N21  1  0.33000000  0.92100000  0.56170000  1.0 -0.2887495533
N  N22  1  0.92100000  0.33000000  0.93830000  1.0 -0.2887495533
N  N23  1  0.67000000  0.07900000  0.43830000  1.0 -0.2887495533
N  N24  1  0.07900000  0.67000000  0.06170000  1.0 -0.2887495533
N  N25  1  0.46180000  0.92080000  0.62340000  1.0 -0.2987777851
N  N26  1  0.92080000  0.46180000  0.87660000  1.0 -0.2987777851
N  N27  1  0.53820000  0.07920000  0.37660000  1.0 -0.2987777851
N  N28  1  0.07920000  0.53820000  0.12340000  1.0 -0.2987777851
N  N29  1  0.14320000  0.37840000  0.21530000  1.0 -0.2416038141
N  N30  1  0.37840000  0.14320000  0.28470000  1.0 -0.2416038141
N  N31  1  0.85680000  0.62160000  0.78470000  1.0 -0.2416038141
N  N32  1  0.62160000  0.85680000  0.71530000  1.0 -0.2416038141
N  N33  1  0.95470000  0.34670000  0.17580000  1.0 -0.2800917588
N  N34  1  0.34670000  0.95470000  0.32420000  1.0 -0.2800917588
N  N35  1  0.04530000  0.65330000  0.82420000  1.0 -0.2800917588
N  N36  1  0.65330000  0.04530000  0.67580000  1.0 -0.2800917588
N  N37  1  0.83870000  0.22870000  0.17700000  1.0 -0.2987777851
N  N38  1  0.22870000  0.83870000  0.32300000  1.0 -0.2987777851
N  N39  1  0.16130000  0.77130000  0.82300000  1.0 -0.2987777851
N  N40  1  0.77130000  0.16130000  0.67700000  1.0 -0.2987777851
N  N41  1  0.09770000  0.64930000  0.37110000  1.0 -0.2887495533
N  N42  1  0.64930000  0.09770000  0.12890000  1.0 -0.2887495533
N  N43  1  0.90230000  0.35070000  0.62890000  1.0 -0.2887495533
N  N44  1  0.35070000  0.90230000  0.87110000  1.0 -0.2887495533
N  N45  1  0.09300000  0.51560000  0.43150000  1.0 -0.2887495533
N  N46  1  0.51560000  0.09300000  0.06850000  1.0 -0.2887495533
N  N47  1  0.90700000  0.48440000  0.56850000  1.0 -0.2887495533
N  N48  1  0.48440000  0.90700000  0.93150000  1.0 -0.2887495533
N  N49  1  0.24880000  0.93680000  0.70780000  1.0 -0.2887495533
N  N50  1  0.93680000  0.24880000  0.79220000  1.0 -0.2887495533
N  N51  1  0.75120000  0.06320000  0.29220000  1.0 -0.2887495533
N  N52  1  0.06320000  0.75120000  0.20780000  1.0 -0.2887495533
N  N53  1  0.24180000  0.94300000  0.61490000  1.0 -0.2987777851
N  N54  1  0.94300000  0.24180000  0.88510000  1.0 -0.2987777851
N  N55  1  0.75820000  0.05700000  0.38510000  1.0 -0.2987777851
N  N56  1  0.05700000  0.75820000  0.11490000  1.0 -0.2987777851
N  N57  1  0.81590000  0.04870000  0.20910000  1.0 -0.2800917588
N  N58  1  0.04870000  0.81590000  0.29090000  1.0 -0.2800917588
N  N59  1  0.18410000  0.95130000  0.79090000  1.0 -0.2800917588
N  N60  1  0.95130000  0.18410000  0.70910000  1.0 -0.2800917588
N  N61  1  0.84460000  0.94760000  0.22810000  1.0 -0.2987777851
N  N62  1  0.94760000  0.84460000  0.27190000  1.0 -0.2987777851
N  N63  1  0.15540000  0.05240000  0.77190000  1.0 -0.2987777851
N  N64  1  0.05240000  0.15540000  0.72810000  1.0 -0.2987777851
N  N65  1  0.18860000  0.25760000  0.66410000  1.0 -0.2517283956
N  N66  1  0.25760000  0.18860000  0.83590000  1.0 -0.2517283956
N  N67  1  0.81140000  0.74240000  0.33590000  1.0 -0.2517283956
N  N68  1  0.74240000  0.81140000  0.16410000  1.0 -0.2517283956
N  N69  1  0.11580000  0.43780000  0.28890000  1.0 -0.2657549083
N  N70  1  0.43780000  0.11580000  0.21110000  1.0 -0.2657549083
N  N71  1  0.88420000  0.56220000  0.71110000  1.0 -0.2657549083
N  N72  1  0.56220000  0.88420000  0.78890000  1.0 -0.2657549083
N  N73  1  0.18440000  0.28720000  0.23280000  1.0 -0.2517283956
N  N74  1  0.28720000  0.18440000  0.26720000  1.0 -0.2517283956
N  N75  1  0.81560000  0.71280000  0.76720000  1.0 -0.2517283956
N  N76  1  0.71280000  0.81560000  0.73280000  1.0 -0.2517283956
N  N77  1  0.15950000  0.35030000  0.55100000  1.0 -0.2576440498
N  N78  1  0.35030000  0.15950000  0.94900000  1.0 -0.2576440498
N  N79  1  0.84050000  0.64970000  0.44900000  1.0 -0.2576440498
N  N80  1  0.64970000  0.84050000  0.05100000  1.0 -0.2576440498
