# DDEC6 charges by PACMAN v1.1 (https://github.com/mtap-research/PACMAN-charge/)
data_HICVUM_FSR_pacman
_symmetry_space_group_name_H-M   'P 1'
_cell_length_a   12.72130000
_cell_length_b   12.72130000
_cell_length_c   20.70900000
_cell_angle_alpha   84.16000000
_cell_angle_beta   95.84000000
_cell_angle_gamma   109.13000000
_symmetry_Int_Tables_number   1
_chemical_formula_structural   Cd2H9C19(NO)7
_chemical_formula_sum   'Cd8 H36 C76 N28 O28'
_cell_volume   3141.50975026
_cell_formula_units_Z   4
loop_
 _symmetry_equiv_pos_site_id
 _symmetry_equiv_pos_as_xyz
  1  'x, y, z'
loop_
 _atom_site_type_symbol
 _atom_site_label
 _atom_site_symmetry_multiplicity
 _atom_site_fract_x
 _atom_site_fract_y
 _atom_site_fract_z
 _atom_site_occupancy
 _atom_site_charge
Cd  Cd1  1  0.06901000  0.93381000  0.82079000  1.0 0.8706685228
Cd  Cd2  1  0.93381000  0.06901000  0.67921000  1.0 0.8706685228
Cd  Cd3  1  0.93099000  0.06619000  0.17921000  1.0 0.8706685228
Cd  Cd4  1  0.06619000  0.93099000  0.32079000  1.0 0.8706685228
Cd  Cd5  1  0.54618000  0.45380000  0.89882000  1.0 0.7762742562
Cd  Cd6  1  0.45380000  0.54618000  0.60118000  1.0 0.7737104419
Cd  Cd7  1  0.45382000  0.54620000  0.10118000  1.0 0.7737104419
Cd  Cd8  1  0.54620000  0.45382000  0.39882000  1.0 0.7737104419
H  H1  1  0.15490000  0.13690000  0.89640000  1.0 0.1381499542
H  H2  1  0.13690000  0.15490000  0.60360000  1.0 0.1381499542
H  H3  1  0.84510000  0.86310000  0.10360000  1.0 0.1381499542
H  H4  1  0.86310000  0.84510000  0.39640000  1.0 0.1381499542
H  H5  1  0.44700000  0.26820000  0.76970000  1.0 0.1457594222
H  H6  1  0.26820000  0.44700000  0.73030000  1.0 0.1457594222
H  H7  1  0.55300000  0.73180000  0.23030000  1.0 0.1457594222
H  H8  1  0.73180000  0.55300000  0.26970000  1.0 0.1457594222
H  H9  1  0.30430000  0.11290000  0.74440000  1.0 0.1381499542
H  H10  1  0.11290000  0.30430000  0.75560000  1.0 0.1381499542
H  H11  1  0.69570000  0.88710000  0.25560000  1.0 0.1381499542
H  H12  1  0.88710000  0.69570000  0.24440000  1.0 0.1381499542
H  H13  1  0.22000000  0.75820000  0.68900000  1.0 0.1323570701
H  H14  1  0.75820000  0.22000000  0.81100000  1.0 0.1323570701
H  H15  1  0.78000000  0.24180000  0.31100000  1.0 0.1323570701
H  H16  1  0.24180000  0.78000000  0.18900000  1.0 0.1323570701
H  H17  1  0.11180000  0.17800000  0.08880000  1.0 0.1381499542
H  H18  1  0.17800000  0.11180000  0.41120000  1.0 0.1381499542
H  H19  1  0.88820000  0.82200000  0.91120000  1.0 0.1381499542
H  H20  1  0.82200000  0.88820000  0.58880000  1.0 0.1381499542
H  H21  1  0.05410000  0.92250000  0.56360000  1.0 0.1381499542
H  H22  1  0.92250000  0.05410000  0.93640000  1.0 0.1381499542
H  H23  1  0.94590000  0.07750000  0.43640000  1.0 0.1381499542
H  H24  1  0.07750000  0.94590000  0.06360000  1.0 0.1381499542
H  H25  1  0.22210000  0.74130000  0.49700000  1.0 0.1381499542
H  H26  1  0.74130000  0.22210000  0.00300000  1.0 0.1381499542
H  H27  1  0.77790000  0.25870000  0.50300000  1.0 0.1381499542
H  H28  1  0.25870000  0.77790000  0.99700000  1.0 0.1381499542
H  H29  1  0.11520000  0.29780000  0.25440000  1.0 0.1323570701
H  H30  1  0.29780000  0.11520000  0.24560000  1.0 0.1323570701
H  H31  1  0.88480000  0.70220000  0.74560000  1.0 0.1323570701
H  H32  1  0.70220000  0.88480000  0.75440000  1.0 0.1323570701
H  H33  1  0.26810000  0.44490000  0.22910000  1.0 0.1381499542
H  H34  1  0.44490000  0.26810000  0.27090000  1.0 0.1381499542
H  H35  1  0.73190000  0.55510000  0.77090000  1.0 0.1381499542
H  H36  1  0.55510000  0.73190000  0.72910000  1.0 0.1381499542
C  C1  1  0.21540000  0.16140000  0.87070000  1.0 0.036788184
C  C2  1  0.16140000  0.21540000  0.62930000  1.0 0.036788184
C  C3  1  0.78460000  0.83860000  0.12930000  1.0 0.036788184
C  C4  1  0.83860000  0.78460000  0.37070000  1.0 0.036788184
C  C5  1  0.38850000  0.24130000  0.79680000  1.0 0.0621896421
C  C6  1  0.24130000  0.38850000  0.70320000  1.0 0.0621896421
C  C7  1  0.61150000  0.75870000  0.20320000  1.0 0.0621896421
C  C8  1  0.75870000  0.61150000  0.29680000  1.0 0.0621896421
C  C9  1  0.30250000  0.14850000  0.78110000  1.0 0.0082700823
C  C10  1  0.14850000  0.30250000  0.71890000  1.0 0.0082700823
C  C11  1  0.69750000  0.85150000  0.21890000  1.0 0.0082700823
C  C12  1  0.85150000  0.69750000  0.28110000  1.0 0.0082700823
C  C13  1  0.30560000  0.25400000  0.88740000  1.0 0.1122471968
C  C14  1  0.25400000  0.30560000  0.61260000  1.0 0.1122471968
C  C15  1  0.69440000  0.74600000  0.11260000  1.0 0.1122471968
C  C16  1  0.74600000  0.69440000  0.38740000  1.0 0.1122471968
C  C17  1  0.31170000  0.30450000  0.94720000  1.0 0.2250351531
C  C18  1  0.30450000  0.31170000  0.55280000  1.0 0.2250351531
C  C19  1  0.68830000  0.69550000  0.05280000  1.0 0.2250351531
C  C20  1  0.69550000  0.68830000  0.44720000  1.0 0.2250351531
C  C21  1  0.19800000  0.77740000  0.64650000  1.0 -0.1075960083
C  C22  1  0.77740000  0.19800000  0.85350000  1.0 -0.1075960083
C  C23  1  0.80200000  0.22260000  0.35350000  1.0 -0.1075960083
C  C24  1  0.22260000  0.80200000  0.14650000  1.0 -0.1075960083
C  C25  1  0.09780000  0.88960000  0.69320000  1.0 0.5663092358
C  C26  1  0.88960000  0.09780000  0.80680000  1.0 0.5663092358
C  C27  1  0.90220000  0.11040000  0.30680000  1.0 0.5663092358
C  C28  1  0.11040000  0.90220000  0.19320000  1.0 0.5663092358
C  C29  1  0.13030000  0.84670000  0.63470000  1.0 -0.0201913665
C  C30  1  0.84670000  0.13030000  0.86530000  1.0 -0.0201913665
C  C31  1  0.86970000  0.15330000  0.36530000  1.0 -0.0201913665
C  C32  1  0.15330000  0.86970000  0.13470000  1.0 -0.0201913665
C  C33  1  0.14130000  0.23310000  0.11810000  1.0 0.0296190361
C  C34  1  0.23310000  0.14130000  0.38190000  1.0 0.0296190361
C  C35  1  0.85870000  0.76690000  0.88190000  1.0 0.0296190361
C  C36  1  0.76690000  0.85870000  0.61810000  1.0 0.0296190361
C  C37  1  0.23250000  0.32290000  0.10200000  1.0 0.1170505712
C  C38  1  0.32290000  0.23250000  0.39800000  1.0 0.1170505712
C  C39  1  0.76750000  0.67710000  0.89800000  1.0 0.1170505712
C  C40  1  0.67710000  0.76750000  0.60200000  1.0 0.1170505712
C  C41  1  0.28010000  0.33230000  0.03930000  1.0 0.2374786212
C  C42  1  0.33230000  0.28010000  0.46070000  1.0 0.2374786212
C  C43  1  0.71990000  0.66770000  0.96070000  1.0 0.2374786212
C  C44  1  0.66770000  0.71990000  0.53930000  1.0 0.2374786212
C  C45  1  0.30890000  0.66790000  0.60630000  1.0 0.550548069
C  C46  1  0.66790000  0.30890000  0.89370000  1.0 0.550548069
C  C47  1  0.69110000  0.33210000  0.39370000  1.0 0.550548069
C  C48  1  0.33210000  0.69110000  0.10630000  1.0 0.550548069
C  C49  1  0.13280000  0.83720000  0.51920000  1.0 -0.0079292445
C  C50  1  0.83720000  0.13280000  0.98080000  1.0 -0.0079292445
C  C51  1  0.86720000  0.16280000  0.48080000  1.0 -0.0079292445
C  C52  1  0.16280000  0.86720000  0.01920000  1.0 -0.0079292445
C  C53  1  0.09830000  0.87650000  0.57140000  1.0 -0.1287080275
C  C54  1  0.87650000  0.09830000  0.92860000  1.0 -0.1287080275
C  C55  1  0.90170000  0.12350000  0.42860000  1.0 -0.1287080275
C  C56  1  0.12350000  0.90170000  0.07140000  1.0 -0.1287080275
C  C57  1  0.19950000  0.76770000  0.53160000  1.0 -0.0984545948
C  C58  1  0.76770000  0.19950000  0.96840000  1.0 -0.0984545948
C  C59  1  0.80050000  0.23230000  0.46840000  1.0 -0.0984545948
C  C60  1  0.23230000  0.80050000  0.03160000  1.0 -0.0984545948
C  C61  1  0.23180000  0.73780000  0.59510000  1.0 -0.0079292445
C  C62  1  0.73780000  0.23180000  0.90490000  1.0 -0.0079292445
C  C63  1  0.76820000  0.26220000  0.40490000  1.0 -0.0079292445
C  C64  1  0.26220000  0.76820000  0.09510000  1.0 -0.0079292445
C  C65  1  0.14420000  0.30260000  0.21440000  1.0 -0.0079292445
C  C66  1  0.30260000  0.14420000  0.28560000  1.0 -0.0079292445
C  C67  1  0.85580000  0.69740000  0.78560000  1.0 -0.0079292445
C  C68  1  0.69740000  0.85580000  0.71440000  1.0 -0.0079292445
C  C69  1  0.23670000  0.39130000  0.19920000  1.0 0.0652786715
C  C70  1  0.39130000  0.23670000  0.30080000  1.0 0.0652786715
C  C71  1  0.76330000  0.60870000  0.80080000  1.0 0.0621896421
C  C72  1  0.60870000  0.76330000  0.69920000  1.0 0.0621896421
C  C73  1  0.10330000  0.87150000  0.44960000  1.0 0.5421524567
C  C74  1  0.87150000  0.10330000  0.05040000  1.0 0.5421524567
C  C75  1  0.89670000  0.12850000  0.55040000  1.0 0.5421524567
C  C76  1  0.12850000  0.89670000  0.94960000  1.0 0.5421524567
N  N1  1  0.21410000  0.10710000  0.81860000  1.0 -0.1904783683
N  N2  1  0.10710000  0.21410000  0.68140000  1.0 -0.1904783683
N  N3  1  0.78590000  0.89290000  0.18140000  1.0 -0.1904783683
N  N4  1  0.89290000  0.78590000  0.31860000  1.0 -0.1904783683
N  N5  1  0.39230000  0.29530000  0.84940000  1.0 -0.1904783683
N  N6  1  0.29530000  0.39230000  0.65060000  1.0 -0.1904783683
N  N7  1  0.60770000  0.70470000  0.15060000  1.0 -0.1904783683
N  N8  1  0.70470000  0.60770000  0.34940000  1.0 -0.1904783683
N  N9  1  0.39560000  0.39400000  0.96480000  1.0 -0.1813180059
N  N10  1  0.39400000  0.39560000  0.53520000  1.0 -0.1813180059
N  N11  1  0.60440000  0.60600000  0.03520000  1.0 -0.1813180059
N  N12  1  0.60600000  0.60440000  0.46480000  1.0 -0.1813180059
N  N13  1  0.23520000  0.26220000  0.99170000  1.0 -0.3791050476
N  N14  1  0.26220000  0.23520000  0.50830000  1.0 -0.3791050476
N  N15  1  0.76480000  0.73780000  0.00830000  1.0 -0.3791050476
N  N16  1  0.73780000  0.76480000  0.49170000  1.0 -0.3791050476
N  N17  1  0.37660000  0.41120000  0.02550000  1.0 -0.1813180059
N  N18  1  0.41120000  0.37660000  0.47450000  1.0 -0.1904783683
N  N19  1  0.62340000  0.58880000  0.97450000  1.0 -0.1904783683
N  N20  1  0.58880000  0.62340000  0.52550000  1.0 -0.1904783683
N  N21  1  0.09410000  0.22190000  0.17300000  1.0 -0.1813180059
N  N22  1  0.22190000  0.09410000  0.32700000  1.0 -0.1813180059
N  N23  1  0.90590000  0.77810000  0.82700000  1.0 -0.1813180059
N  N24  1  0.77810000  0.90590000  0.67300000  1.0 -0.1813180059
N  N25  1  0.28250000  0.40270000  0.14250000  1.0 -0.1904783683
N  N26  1  0.40270000  0.28250000  0.35750000  1.0 -0.1904783683
N  N27  1  0.71750000  0.59730000  0.85750000  1.0 -0.1904783683
N  N28  1  0.59730000  0.71750000  0.64250000  1.0 -0.1904783683
O  O1  1  0.13940000  0.86360000  0.74750000  1.0 -0.4974737318
O  O2  1  0.86360000  0.13940000  0.75250000  1.0 -0.4974737318
O  O3  1  0.86060000  0.13640000  0.25250000  1.0 -0.4974737318
O  O4  1  0.13640000  0.86060000  0.24750000  1.0 -0.4974737318
O  O5  1  0.03550000  0.94670000  0.68590000  1.0 -0.5605796055
O  O6  1  0.94670000  0.03550000  0.81410000  1.0 -0.5605796055
O  O7  1  0.96450000  0.05330000  0.31410000  1.0 -0.5605796055
O  O8  1  0.05330000  0.96450000  0.18590000  1.0 -0.5605796055
O  O9  1  0.04970000  0.93790000  0.43670000  1.0 -0.5366192238
O  O10  1  0.93790000  0.04970000  0.06330000  1.0 -0.5366192238
O  O11  1  0.95030000  0.06210000  0.56330000  1.0 -0.5366192238
O  O12  1  0.06210000  0.95030000  0.93670000  1.0 -0.5366192238
O  O13  1  0.34440000  0.64720000  0.66340000  1.0 -0.5283816607
O  O14  1  0.64720000  0.34440000  0.83660000  1.0 -0.5283816607
O  O15  1  0.65560000  0.35280000  0.33660000  1.0 -0.5283816607
O  O16  1  0.35280000  0.65560000  0.16340000  1.0 -0.5283816607
O  O17  1  0.33420000  0.63340000  0.55720000  1.0 -0.5218629019
O  O18  1  0.63340000  0.33420000  0.94280000  1.0 -0.5218629019
O  O19  1  0.66580000  0.36660000  0.44280000  1.0 -0.5218629019
O  O20  1  0.36660000  0.66580000  0.05720000  1.0 -0.5218629019
O  O21  1  0.46570000  0.56150000  0.82810000  1.0 -0.3791050476
O  O22  1  0.56150000  0.46570000  0.67190000  1.0 -0.3791050476
O  O23  1  0.53430000  0.43850000  0.17190000  1.0 -0.3923434692
O  O24  1  0.43850000  0.53430000  0.32810000  1.0 -0.3791050476
O  O25  1  0.13600000  0.82980000  0.40480000  1.0 -0.5283816607
O  O26  1  0.82980000  0.13600000  0.09520000  1.0 -0.5283816607
O  O27  1  0.86400000  0.17020000  0.59520000  1.0 -0.5283816607
O  O28  1  0.17020000  0.86400000  0.90480000  1.0 -0.5283816607
