# DDEC6 charges by PACMAN v1.1 (https://github.com/mtap-research/PACMAN-charge/)
data_HICXOJ_ASR_pacman
_symmetry_space_group_name_H-M   'P 1'
_cell_length_a   6.65500000
_cell_length_b   16.68900000
_cell_length_c   12.62900000
_cell_angle_alpha   90.00000000
_cell_angle_beta   100.66000000
_cell_angle_gamma   90.00000000
_symmetry_Int_Tables_number   1
_chemical_formula_structural   Zn2CuH24C48(NO2)4
_chemical_formula_sum   'Zn2 Cu1 H24 C48 N4 O8'
_cell_volume   1378.43703515
_cell_formula_units_Z   1
loop_
 _symmetry_equiv_pos_site_id
 _symmetry_equiv_pos_as_xyz
  1  'x, y, z'
loop_
 _atom_site_type_symbol
 _atom_site_label
 _atom_site_symmetry_multiplicity
 _atom_site_fract_x
 _atom_site_fract_y
 _atom_site_fract_z
 _atom_site_occupancy
 _atom_site_charge
Zn  Zn1  1  0.14100000  0.50000000  0.42400000  1.0 0.7348237048
Zn  Zn2  1  0.85900000  0.50000000  0.57600000  1.0 0.7348237048
Cu  Cu1  1  0.00000000  0.00000000  0.00000000  1.0 0.5942060361
H  H1  1  0.63400000  0.07510000  0.26480000  1.0 0.1176897092
H  H2  1  0.11720000  0.29230000  0.08900000  1.0 0.1176897092
H  H3  1  0.66080000  0.21560000  0.11840000  1.0 0.1263920451
H  H4  1  0.85060000  0.31470000  0.22350000  1.0 0.1176897092
H  H5  1  0.42660000  0.32240000  0.41600000  1.0 0.1096510599
H  H6  1  0.23670000  0.22330000  0.31080000  1.0 0.1263920451
H  H7  1  0.36600000  0.07510000  0.73520000  1.0 0.1176897092
H  H8  1  0.88280000  0.29230000  0.91100000  1.0 0.1176897092
H  H9  1  0.33920000  0.21560000  0.88160000  1.0 0.1263920451
H  H10  1  0.14940000  0.31470000  0.77650000  1.0 0.1176897092
H  H11  1  0.57340000  0.32240000  0.58400000  1.0 0.1096510599
H  H12  1  0.76330000  0.22330000  0.68920000  1.0 0.1263920451
H  H13  1  0.36600000  0.92490000  0.73520000  1.0 0.1176897092
H  H14  1  0.88280000  0.70770000  0.91100000  1.0 0.1176897092
H  H15  1  0.33920000  0.78440000  0.88160000  1.0 0.1263920451
H  H16  1  0.14940000  0.68530000  0.77650000  1.0 0.1176897092
H  H17  1  0.57340000  0.67760000  0.58400000  1.0 0.1096510599
H  H18  1  0.76330000  0.77670000  0.68920000  1.0 0.1263920451
H  H19  1  0.63400000  0.92490000  0.26480000  1.0 0.1176897092
H  H20  1  0.11720000  0.70770000  0.08900000  1.0 0.1176897092
H  H21  1  0.66080000  0.78440000  0.11840000  1.0 0.1263920451
H  H22  1  0.85060000  0.68530000  0.22350000  1.0 0.1176897092
H  H23  1  0.42660000  0.67760000  0.41600000  1.0 0.1096510599
H  H24  1  0.23670000  0.77670000  0.31080000  1.0 0.1263920451
C  C1  1  0.38000000  0.06800000  0.15500000  1.0 0.1583247045
C  C2  1  0.31000000  0.14400000  0.13690000  1.0 -0.0789812495
C  C3  1  0.15100000  0.17600000  0.06900000  1.0 0.1500631879
C  C4  1  0.53400000  0.04200000  0.22200000  1.0 -0.1722578099
C  C5  1  0.07600000  0.24600000  0.04700000  1.0 -0.1850450625
C  C6  1  0.43100000  0.21010000  0.20500000  1.0 0.0969174887
C  C7  1  0.61300000  0.23700000  0.17900000  1.0 -0.1421714415
C  C8  1  0.72600000  0.29600000  0.24100000  1.0 -0.1069568833
C  C9  1  0.65600000  0.32790000  0.33000000  1.0 -0.0276658572
C  C10  1  0.47400000  0.30100000  0.35600000  1.0 -0.1167954196
C  C11  1  0.36100000  0.24200000  0.29300000  1.0 -0.1527927359
C  C12  1  0.78000000  0.39300000  0.39800000  1.0 0.5371732126
C  C13  1  0.62000000  0.06800000  0.84500000  1.0 0.1583247045
C  C14  1  0.69000000  0.14400000  0.86310000  1.0 -0.0789812495
C  C15  1  0.84900000  0.17600000  0.93100000  1.0 0.1500631879
C  C16  1  0.46600000  0.04200000  0.77800000  1.0 -0.1722578099
C  C17  1  0.92400000  0.24600000  0.95300000  1.0 -0.1850450625
C  C18  1  0.56900000  0.21010000  0.79500000  1.0 0.0969174887
C  C19  1  0.38700000  0.23700000  0.82100000  1.0 -0.1421714415
C  C20  1  0.27400000  0.29600000  0.75900000  1.0 -0.1069568833
C  C21  1  0.34400000  0.32790000  0.67000000  1.0 -0.0276658572
C  C22  1  0.52600000  0.30100000  0.64400000  1.0 -0.1167954196
C  C23  1  0.63900000  0.24200000  0.70700000  1.0 -0.1527927359
C  C24  1  0.22000000  0.39300000  0.60200000  1.0 0.5371732126
C  C25  1  0.62000000  0.93200000  0.84500000  1.0 0.1583247045
C  C26  1  0.69000000  0.85600000  0.86310000  1.0 -0.0789812495
C  C27  1  0.84900000  0.82400000  0.93100000  1.0 0.1500631879
C  C28  1  0.46600000  0.95800000  0.77800000  1.0 -0.1722578099
C  C29  1  0.92400000  0.75400000  0.95300000  1.0 -0.1850450625
C  C30  1  0.56900000  0.78990000  0.79500000  1.0 0.0969174887
C  C31  1  0.38700000  0.76300000  0.82100000  1.0 -0.1421714415
C  C32  1  0.27400000  0.70400000  0.75900000  1.0 -0.1069568833
C  C33  1  0.34400000  0.67210000  0.67000000  1.0 -0.0276658572
C  C34  1  0.52600000  0.69900000  0.64400000  1.0 -0.1167954196
C  C35  1  0.63900000  0.75800000  0.70700000  1.0 -0.1527927359
C  C36  1  0.22000000  0.60700000  0.60200000  1.0 0.5371732126
C  C37  1  0.38000000  0.93200000  0.15500000  1.0 0.1583247045
C  C38  1  0.31000000  0.85600000  0.13690000  1.0 -0.0789812495
C  C39  1  0.15100000  0.82400000  0.06900000  1.0 0.1500631879
C  C40  1  0.53400000  0.95800000  0.22200000  1.0 -0.1722578099
C  C41  1  0.07600000  0.75400000  0.04700000  1.0 -0.1850450625
C  C42  1  0.43100000  0.78990000  0.20500000  1.0 0.0969174887
C  C43  1  0.61300000  0.76300000  0.17900000  1.0 -0.1421714415
C  C44  1  0.72600000  0.70400000  0.24100000  1.0 -0.1069568833
C  C45  1  0.65600000  0.67210000  0.33000000  1.0 -0.0276658572
C  C46  1  0.47400000  0.69900000  0.35600000  1.0 -0.1167954196
C  C47  1  0.36100000  0.75800000  0.29300000  1.0 -0.1527927359
C  C48  1  0.78000000  0.60700000  0.39800000  1.0 0.5371732126
N  N1  1  0.24400000  0.00000000  0.11300000  1.0 -0.3996980106
N  N2  1  0.75600000  0.00000000  0.88700000  1.0 -0.3996980106
N  N3  1  0.00000000  0.11600000  0.00000000  1.0 -0.4133365144
N  N4  1  0.00000000  0.88400000  0.00000000  1.0 -0.4133365144
O  O1  1  0.73100000  0.42800000  0.46400000  1.0 -0.3996980106
O  O2  1  0.93100000  0.39800000  0.36900000  1.0 -0.3899423371
O  O3  1  0.26900000  0.42800000  0.53600000  1.0 -0.3996980106
O  O4  1  0.06900000  0.39800000  0.63100000  1.0 -0.3899423371
O  O5  1  0.26900000  0.57200000  0.53600000  1.0 -0.3899423371
O  O6  1  0.06900000  0.60200000  0.63100000  1.0 -0.3899423371
O  O7  1  0.73100000  0.57200000  0.46400000  1.0 -0.3899423371
O  O8  1  0.93100000  0.60200000  0.36900000  1.0 -0.3899423371
