# DDEC6 charges by PACMAN v1.1 (https://github.com/mtap-research/PACMAN-charge/)
data_HICZIE_ion_pacman
_symmetry_space_group_name_H-M   'P 1'
_cell_length_a   11.00810000
_cell_length_b   11.00810000
_cell_length_c   16.59230000
_cell_angle_alpha   90.00000000
_cell_angle_beta   90.00000000
_cell_angle_gamma   96.58200000
_symmetry_Int_Tables_number   1
_chemical_formula_structural   GdH18C20NO8
_chemical_formula_sum   'Gd4 H72 C80 N4 O32'
_cell_volume   1997.37374806
_cell_formula_units_Z   4
loop_
 _symmetry_equiv_pos_site_id
 _symmetry_equiv_pos_as_xyz
  1  'x, y, z'
loop_
 _atom_site_type_symbol
 _atom_site_label
 _atom_site_symmetry_multiplicity
 _atom_site_fract_x
 _atom_site_fract_y
 _atom_site_fract_z
 _atom_site_occupancy
 _atom_site_charge
Gd  Gd1  1  0.83793000  0.83793000  0.50000000  1.0 2.0085326885
Gd  Gd2  1  0.16207000  0.16207000  0.00000000  1.0 2.0085326885
Gd  Gd3  1  0.16786000  0.83214000  0.75000000  1.0 2.0283016418
Gd  Gd4  1  0.83214000  0.16786000  0.25000000  1.0 2.0283016418
H  H1  1  0.34410000  0.78470000  0.24000000  1.0 0.1210565516
H  H2  1  0.65590000  0.21530000  0.74000000  1.0 0.1210565516
H  H3  1  0.78470000  0.34410000  0.76000000  1.0 0.1210565516
H  H4  1  0.21530000  0.65590000  0.26000000  1.0 0.1210565516
H  H5  1  0.25080000  0.87800000  0.24010000  1.0 0.1366164354
H  H6  1  0.74920000  0.12200000  0.74010000  1.0 0.1366164354
H  H7  1  0.87800000  0.25080000  0.75990000  1.0 0.1366164354
H  H8  1  0.12200000  0.74920000  0.25990000  1.0 0.1366164354
H  H9  1  0.65090000  0.75410000  0.00160000  1.0 0.1210565516
H  H10  1  0.34910000  0.24590000  0.50160000  1.0 0.1210565516
H  H11  1  0.75410000  0.65090000  0.99840000  1.0 0.1210565516
H  H12  1  0.24590000  0.34910000  0.49840000  1.0 0.1210565516
H  H13  1  0.74590000  0.86350000  0.01740000  1.0 0.1366164354
H  H14  1  0.25410000  0.13650000  0.51740000  1.0 0.1366164354
H  H15  1  0.86350000  0.74590000  0.98260000  1.0 0.1366164354
H  H16  1  0.13650000  0.25410000  0.48260000  1.0 0.1366164354
H  H17  1  0.39070000  0.86150000  0.55880000  1.0 0.1290860658
H  H18  1  0.60930000  0.13850000  0.05880000  1.0 0.1290860658
H  H19  1  0.86150000  0.39070000  0.44120000  1.0 0.1290860658
H  H20  1  0.13850000  0.60930000  0.94120000  1.0 0.1290860658
H  H21  1  0.47350000  0.81790000  0.32700000  1.0 0.1290860658
H  H22  1  0.52650000  0.18210000  0.82700000  1.0 0.1290860658
H  H23  1  0.81790000  0.47350000  0.67300000  1.0 0.1290860658
H  H24  1  0.18210000  0.52650000  0.17300000  1.0 0.1290860658
H  H25  1  0.12680000  0.83280000  0.39000000  1.0 0.1290860658
H  H26  1  0.87320000  0.16720000  0.89000000  1.0 0.1290860658
H  H27  1  0.83280000  0.12680000  0.61000000  1.0 0.1290860658
H  H28  1  0.16720000  0.87320000  0.11000000  1.0 0.1290860658
H  H29  1  0.62460000  0.87600000  0.69410000  1.0 0.1366164354
H  H30  1  0.37540000  0.12400000  0.19410000  1.0 0.1366164354
H  H31  1  0.87600000  0.62460000  0.30590000  1.0 0.1366164354
H  H32  1  0.12400000  0.37540000  0.80590000  1.0 0.1366164354
H  H33  1  0.53710000  0.81690000  0.92180000  1.0 0.1290860658
H  H34  1  0.46290000  0.18310000  0.42180000  1.0 0.1290860658
H  H35  1  0.81690000  0.53710000  0.07820000  1.0 0.1290860658
H  H36  1  0.18310000  0.46290000  0.57820000  1.0 0.1290860658
H  H37  1  0.88260000  0.82560000  0.85790000  1.0 0.1290860658
H  H38  1  0.11740000  0.17440000  0.35790000  1.0 0.1290860658
H  H39  1  0.82560000  0.88260000  0.14210000  1.0 0.1290860658
H  H40  1  0.17440000  0.11740000  0.64210000  1.0 0.1290860658
H  H41  1  0.93830000  0.46330000  0.81720000  1.0 0.2518482362
H  H42  1  0.97980000  0.56700000  0.86870000  1.0 0.2644201447
H  H43  1  0.85500000  0.45700000  0.96570000  1.0 0.1105367732
H  H44  1  0.97970000  0.42110000  0.95660000  1.0 0.1366164354
H  H45  1  0.86970000  0.35590000  0.91820000  1.0 0.1105367732
H  H46  1  0.73980000  0.52700000  0.87670000  1.0 0.1210565516
H  H47  1  0.78340000  0.54600000  0.79030000  1.0 0.1290860658
H  H48  1  0.81380000  0.63980000  0.84880000  1.0 0.1210565516
H  H49  1  0.06170000  0.53670000  0.31720000  1.0 0.2518482362
H  H50  1  0.02020000  0.43300000  0.36870000  1.0 0.2644201447
H  H51  1  0.14500000  0.54300000  0.46570000  1.0 0.1105367732
H  H52  1  0.02030000  0.57890000  0.45660000  1.0 0.1366164354
H  H53  1  0.13030000  0.64410000  0.41820000  1.0 0.1105367732
H  H54  1  0.26020000  0.47300000  0.37670000  1.0 0.1210565516
H  H55  1  0.21660000  0.45400000  0.29030000  1.0 0.1290860658
H  H56  1  0.18620000  0.36020000  0.34880000  1.0 0.1210565516
H  H57  1  0.46330000  0.93830000  0.18280000  1.0 0.2518482362
H  H58  1  0.56700000  0.97980000  0.13130000  1.0 0.2644201447
H  H59  1  0.45700000  0.85500000  0.03430000  1.0 0.1105367732
H  H60  1  0.42110000  0.97970000  0.04340000  1.0 0.1366164354
H  H61  1  0.35590000  0.86970000  0.08180000  1.0 0.1105367732
H  H62  1  0.52700000  0.73980000  0.12330000  1.0 0.1210565516
H  H63  1  0.54600000  0.78340000  0.20970000  1.0 0.1290860658
H  H64  1  0.63980000  0.81380000  0.15120000  1.0 0.1210565516
H  H65  1  0.53670000  0.06170000  0.68280000  1.0 0.2518482362
H  H66  1  0.43300000  0.02020000  0.63130000  1.0 0.2644201447
H  H67  1  0.54300000  0.14500000  0.53430000  1.0 0.1105367732
H  H68  1  0.57890000  0.02030000  0.54340000  1.0 0.1366164354
H  H69  1  0.64410000  0.13030000  0.58180000  1.0 0.1105367732
H  H70  1  0.47300000  0.26020000  0.62330000  1.0 0.1210565516
H  H71  1  0.45400000  0.21660000  0.70970000  1.0 0.1290860658
H  H72  1  0.36020000  0.18620000  0.65120000  1.0 0.1210565516
C  C1  1  0.26820000  0.80220000  0.26340000  1.0 -0.1859037257
C  C2  1  0.73180000  0.19780000  0.76340000  1.0 -0.1859037257
C  C3  1  0.80220000  0.26820000  0.73660000  1.0 -0.1859037257
C  C4  1  0.19780000  0.73180000  0.23660000  1.0 -0.1859037257
C  C5  1  0.73080000  0.79020000  0.98580000  1.0 -0.1859037257
C  C6  1  0.26920000  0.20980000  0.48580000  1.0 -0.1859037257
C  C7  1  0.79020000  0.73080000  0.01420000  1.0 -0.1859037257
C  C8  1  0.20980000  0.26920000  0.51420000  1.0 -0.1859037257
C  C9  1  0.14940000  0.86760000  0.54540000  1.0 0.6446083043
C  C10  1  0.85060000  0.13240000  0.04540000  1.0 0.6446083043
C  C11  1  0.86760000  0.14940000  0.45460000  1.0 0.6446083043
C  C12  1  0.13240000  0.85060000  0.95460000  1.0 0.6446083043
C  C13  1  0.58150000  0.82070000  0.46600000  1.0 0.5307768439
C  C14  1  0.41850000  0.17930000  0.96600000  1.0 0.5307768439
C  C15  1  0.82070000  0.58150000  0.53400000  1.0 0.5307768439
C  C16  1  0.17930000  0.41850000  0.03400000  1.0 0.5307768439
C  C17  1  0.24430000  0.85470000  0.48360000  1.0 -0.0378262247
C  C18  1  0.75570000  0.14530000  0.98360000  1.0 -0.0378262247
C  C19  1  0.85470000  0.24430000  0.51640000  1.0 -0.0378262247
C  C20  1  0.14530000  0.75570000  0.01640000  1.0 -0.0378262247
C  C21  1  0.36680000  0.85220000  0.50520000  1.0 -0.1245293836
C  C22  1  0.63320000  0.14780000  0.00520000  1.0 -0.1245293836
C  C23  1  0.85220000  0.36680000  0.49480000  1.0 -0.1245293836
C  C24  1  0.14780000  0.63320000  0.99480000  1.0 -0.1245293836
C  C25  1  0.45320000  0.83560000  0.44550000  1.0 -0.0135711125
C  C26  1  0.54680000  0.16440000  0.94550000  1.0 -0.0135711125
C  C27  1  0.83560000  0.45320000  0.55450000  1.0 -0.0135711125
C  C28  1  0.16440000  0.54680000  0.05450000  1.0 -0.0135711125
C  C29  1  0.41620000  0.82700000  0.36710000  1.0 -0.1803029045
C  C30  1  0.58380000  0.17300000  0.86710000  1.0 -0.1803029045
C  C31  1  0.82700000  0.41620000  0.63290000  1.0 -0.1803029045
C  C32  1  0.17300000  0.58380000  0.13290000  1.0 -0.1803029045
C  C33  1  0.29360000  0.83180000  0.34540000  1.0 0.0535383676
C  C34  1  0.70640000  0.16820000  0.84540000  1.0 0.0535383676
C  C35  1  0.83180000  0.29360000  0.65460000  1.0 0.0535383676
C  C36  1  0.16820000  0.70640000  0.15460000  1.0 0.0535383676
C  C37  1  0.20920000  0.83880000  0.40360000  1.0 -0.1636459935
C  C38  1  0.79080000  0.16120000  0.90360000  1.0 -0.1636459935
C  C39  1  0.83880000  0.20920000  0.59640000  1.0 -0.1636459935
C  C40  1  0.16120000  0.79080000  0.09640000  1.0 -0.1636459935
C  C41  1  0.86310000  0.86690000  0.70390000  1.0 0.6528646801
C  C42  1  0.13690000  0.13310000  0.20390000  1.0 0.6528646801
C  C43  1  0.86690000  0.86310000  0.29610000  1.0 0.6528646801
C  C44  1  0.13310000  0.13690000  0.79610000  1.0 0.6528646801
C  C45  1  0.42040000  0.83440000  0.78680000  1.0 0.5367106799
C  C46  1  0.57960000  0.16560000  0.28680000  1.0 0.5367106799
C  C47  1  0.83440000  0.42040000  0.21320000  1.0 0.5367106799
C  C48  1  0.16560000  0.57960000  0.71320000  1.0 0.5367106799
C  C49  1  0.76520000  0.85780000  0.76790000  1.0 -0.0215993147
C  C50  1  0.23480000  0.14220000  0.26790000  1.0 -0.0215993147
C  C51  1  0.85780000  0.76520000  0.23210000  1.0 -0.0215993147
C  C52  1  0.14220000  0.23480000  0.73210000  1.0 -0.0215993147
C  C53  1  0.64590000  0.86210000  0.74730000  1.0 -0.1423924561
C  C54  1  0.35410000  0.13790000  0.24730000  1.0 -0.1423924561
C  C55  1  0.86210000  0.64590000  0.25270000  1.0 -0.1423924561
C  C56  1  0.13790000  0.35410000  0.75270000  1.0 -0.1423924561
C  C57  1  0.55650000  0.84550000  0.80690000  1.0 0.001281586
C  C58  1  0.44350000  0.15450000  0.30690000  1.0 0.001281586
C  C59  1  0.84550000  0.55650000  0.19310000  1.0 0.001281586
C  C60  1  0.15450000  0.44350000  0.69310000  1.0 0.001281586
C  C61  1  0.59020000  0.82920000  0.88720000  1.0 -0.1741979565
C  C62  1  0.40980000  0.17080000  0.38720000  1.0 -0.1741979565
C  C63  1  0.82920000  0.59020000  0.11280000  1.0 -0.1741979565
C  C64  1  0.17080000  0.40980000  0.61280000  1.0 -0.1741979565
C  C65  1  0.71180000  0.83380000  0.90890000  1.0 0.0329456604
C  C66  1  0.28820000  0.16620000  0.40890000  1.0 0.0329456604
C  C67  1  0.83380000  0.71180000  0.09110000  1.0 0.0329456604
C  C68  1  0.16620000  0.28820000  0.59110000  1.0 0.0329456604
C  C69  1  0.80200000  0.83700000  0.84640000  1.0 -0.1803029045
C  C70  1  0.19800000  0.16300000  0.34640000  1.0 -0.1803029045
C  C71  1  0.83700000  0.80200000  0.15360000  1.0 -0.1803029045
C  C72  1  0.16300000  0.19800000  0.65360000  1.0 -0.1803029045
C  C73  1  0.90140000  0.42660000  0.93220000  1.0 -0.2817048873
C  C74  1  0.80360000  0.56240000  0.84200000  1.0 -0.2882191236
C  C75  1  0.09860000  0.57340000  0.43220000  1.0 -0.2817048873
C  C76  1  0.19640000  0.43760000  0.34200000  1.0 -0.2882191236
C  C77  1  0.42660000  0.90140000  0.06780000  1.0 -0.2817048873
C  C78  1  0.56240000  0.80360000  0.15800000  1.0 -0.2882191236
C  C79  1  0.57340000  0.09860000  0.56780000  1.0 -0.2817048873
C  C80  1  0.43760000  0.19640000  0.65800000  1.0 -0.2882191236
N  N1  1  0.91820000  0.50740000  0.85990000  1.0 -0.1423924561
N  N2  1  0.08180000  0.49260000  0.35990000  1.0 -0.1423924561
N  N3  1  0.50740000  0.91820000  0.14010000  1.0 -0.1423924561
N  N4  1  0.49260000  0.08180000  0.64010000  1.0 -0.1423924561
O  O1  1  0.04120000  0.84800000  0.52450000  1.0 -0.6502486513
O  O2  1  0.95880000  0.15200000  0.02450000  1.0 -0.6502486513
O  O3  1  0.84800000  0.04120000  0.47550000  1.0 -0.6502486513
O  O4  1  0.15200000  0.95880000  0.97550000  1.0 -0.6502486513
O  O5  1  0.18720000  0.89980000  0.61560000  1.0 -0.6678199913
O  O6  1  0.81280000  0.10020000  0.11560000  1.0 -0.6678199913
O  O7  1  0.89980000  0.18720000  0.38440000  1.0 -0.6678199913
O  O8  1  0.10020000  0.81280000  0.88440000  1.0 -0.6678199913
O  O9  1  0.65270000  0.79490000  0.41640000  1.0 -0.5079715993
O  O10  1  0.34730000  0.20510000  0.91640000  1.0 -0.5079715993
O  O11  1  0.79490000  0.65270000  0.58360000  1.0 -0.5079715993
O  O12  1  0.20510000  0.34730000  0.08360000  1.0 -0.5079715993
O  O13  1  0.61850000  0.85130000  0.53480000  1.0 -0.5606049295
O  O14  1  0.38150000  0.14870000  0.03480000  1.0 -0.5606049295
O  O15  1  0.85130000  0.61850000  0.46520000  1.0 -0.5606049295
O  O16  1  0.14870000  0.38150000  0.96520000  1.0 -0.5606049295
O  O17  1  0.83500000  0.90240000  0.63530000  1.0 -0.6502486513
O  O18  1  0.16500000  0.09760000  0.13530000  1.0 -0.6502486513
O  O19  1  0.90240000  0.83500000  0.36470000  1.0 -0.6502486513
O  O20  1  0.09760000  0.16500000  0.86470000  1.0 -0.6502486513
O  O21  1  0.96380000  0.83180000  0.72280000  1.0 -0.6635161783
O  O22  1  0.03620000  0.16820000  0.22280000  1.0 -0.6635161783
O  O23  1  0.83180000  0.96380000  0.27720000  1.0 -0.6635161783
O  O24  1  0.16820000  0.03620000  0.77720000  1.0 -0.6635161783
O  O25  1  0.39070000  0.89550000  0.72420000  1.0 -0.6502486513
O  O26  1  0.60930000  0.10450000  0.22420000  1.0 -0.6502486513
O  O27  1  0.89550000  0.39070000  0.27580000  1.0 -0.6502486513
O  O28  1  0.10450000  0.60930000  0.77580000  1.0 -0.6502486513
O  O29  1  0.34520000  0.79040000  0.83290000  1.0 -0.5405427362
O  O30  1  0.65480000  0.20960000  0.33290000  1.0 -0.5405427362
O  O31  1  0.79040000  0.34520000  0.16710000  1.0 -0.5405427362
O  O32  1  0.20960000  0.65480000  0.66710000  1.0 -0.5405427362
