# DDEC6 charges by PACMAN v1.1 (https://github.com/mtap-research/PACMAN-charge/)
data_HICZEA_ion_pacman
_symmetry_space_group_name_H-M   'P 1'
_cell_length_a   11.14820000
_cell_length_b   11.14820000
_cell_length_c   16.72920000
_cell_angle_alpha   90.00000000
_cell_angle_beta   90.00000000
_cell_angle_gamma   97.74630000
_symmetry_Int_Tables_number   1
_chemical_formula_structural   PrH18C20NO8
_chemical_formula_sum   'Pr4 H72 C80 N4 O32'
_cell_volume   2060.17149331
_cell_formula_units_Z   4
loop_
 _symmetry_equiv_pos_site_id
 _symmetry_equiv_pos_as_xyz
  1  'x, y, z'
loop_
 _atom_site_type_symbol
 _atom_site_label
 _atom_site_symmetry_multiplicity
 _atom_site_fract_x
 _atom_site_fract_y
 _atom_site_fract_z
 _atom_site_occupancy
 _atom_site_charge
Pr  Pr1  1  0.66837000  0.33163000  0.25000000  1.0 2.10963974
Pr  Pr2  1  0.33163000  0.66837000  0.75000000  1.0 2.10963974
Pr  Pr3  1  0.33765000  0.33765000  0.00000000  1.0 2.0863023758
Pr  Pr4  1  0.66235000  0.66235000  0.50000000  1.0 2.0863023758
H  H1  1  0.82560000  0.29680000  0.74200000  1.0 0.1144526661
H  H2  1  0.17440000  0.70320000  0.24200000  1.0 0.1184793436
H  H3  1  0.29680000  0.82560000  0.25800000  1.0 0.1144526661
H  H4  1  0.70320000  0.17440000  0.75800000  1.0 0.1144526661
H  H5  1  0.74970000  0.38450000  0.73760000  1.0 0.1292791853
H  H6  1  0.25030000  0.61550000  0.23760000  1.0 0.1292791853
H  H7  1  0.38450000  0.74970000  0.26240000  1.0 0.1292791853
H  H8  1  0.61550000  0.25030000  0.76240000  1.0 0.1292791853
H  H9  1  0.17880000  0.29120000  0.51020000  1.0 0.1184793436
H  H10  1  0.82120000  0.70880000  0.01020000  1.0 0.1184793436
H  H11  1  0.29120000  0.17880000  0.48980000  1.0 0.1184793436
H  H12  1  0.70880000  0.82120000  0.98980000  1.0 0.1184793436
H  H13  1  0.27240000  0.39020000  0.51000000  1.0 0.1292791853
H  H14  1  0.72760000  0.60980000  0.01000000  1.0 0.1292791853
H  H15  1  0.39020000  0.27240000  0.49000000  1.0 0.1292791853
H  H16  1  0.60980000  0.72760000  0.99000000  1.0 0.1292791853
H  H17  1  0.88870000  0.35890000  0.05620000  1.0 0.1292791853
H  H18  1  0.11130000  0.64110000  0.55620000  1.0 0.1292791853
H  H19  1  0.35890000  0.88870000  0.94380000  1.0 0.1292791853
H  H20  1  0.64110000  0.11130000  0.44380000  1.0 0.1292791853
H  H21  1  0.96550000  0.30870000  0.82520000  1.0 0.1292791853
H  H22  1  0.03450000  0.69130000  0.32520000  1.0 0.1292791853
H  H23  1  0.30870000  0.96550000  0.17480000  1.0 0.1292791853
H  H24  1  0.69130000  0.03450000  0.67480000  1.0 0.1292791853
H  H25  1  0.62790000  0.33090000  0.89070000  1.0 0.1292791853
H  H26  1  0.37210000  0.66910000  0.39070000  1.0 0.1292791853
H  H27  1  0.33090000  0.62790000  0.10930000  1.0 0.1292791853
H  H28  1  0.66910000  0.37210000  0.60930000  1.0 0.1292791853
H  H29  1  0.12620000  0.37380000  0.19630000  1.0 0.1292791853
H  H30  1  0.87380000  0.62620000  0.69630000  1.0 0.1292791853
H  H31  1  0.37380000  0.12620000  0.80370000  1.0 0.1292791853
H  H32  1  0.62620000  0.87380000  0.30370000  1.0 0.1292791853
H  H33  1  0.04130000  0.32250000  0.42530000  1.0 0.1292791853
H  H34  1  0.95870000  0.67750000  0.92530000  1.0 0.1292791853
H  H35  1  0.32250000  0.04130000  0.57470000  1.0 0.1292791853
H  H36  1  0.67750000  0.95870000  0.07470000  1.0 0.1292791853
H  H37  1  0.38320000  0.33480000  0.36040000  1.0 0.1292791853
H  H38  1  0.61680000  0.66520000  0.86040000  1.0 0.1292791853
H  H39  1  0.33480000  0.38320000  0.63960000  1.0 0.1292791853
H  H40  1  0.66520000  0.61680000  0.13960000  1.0 0.1292791853
H  H41  1  0.58560000  0.05220000  0.82690000  1.0 0.1771150217
H  H42  1  0.50800000  0.96620000  0.85580000  1.0 0.2473437101
H  H43  1  0.59990000  0.02170000  0.97120000  1.0 0.1184793436
H  H44  1  0.52640000  0.11380000  0.94240000  1.0 0.1411638394
H  H45  1  0.66750000  0.12970000  0.93270000  1.0 0.1292791853
H  H46  1  0.65560000  0.89100000  0.79060000  1.0 0.1411638394
H  H47  1  0.66600000  0.87780000  0.87490000  1.0 0.1184793436
H  H48  1  0.75040000  0.97300000  0.84290000  1.0 0.1292791853
H  H49  1  0.41440000  0.94780000  0.32690000  1.0 0.1771150217
H  H50  1  0.49200000  0.03380000  0.35580000  1.0 0.2473437101
H  H51  1  0.40010000  0.97830000  0.47120000  1.0 0.1292791853
H  H52  1  0.47360000  0.88620000  0.44240000  1.0 0.1411638394
H  H53  1  0.33250000  0.87030000  0.43270000  1.0 0.1292791853
H  H54  1  0.34440000  0.10900000  0.29060000  1.0 0.1411638394
H  H55  1  0.33400000  0.12220000  0.37490000  1.0 0.1184793436
H  H56  1  0.24960000  0.02700000  0.34290000  1.0 0.1292791853
H  H57  1  0.05220000  0.58560000  0.17310000  1.0 0.1771150217
H  H58  1  0.96620000  0.50800000  0.14420000  1.0 0.2473437101
H  H59  1  0.02170000  0.59990000  0.02880000  1.0 0.1292791853
H  H60  1  0.11380000  0.52640000  0.05760000  1.0 0.1411638394
H  H61  1  0.12970000  0.66750000  0.06730000  1.0 0.1292791853
H  H62  1  0.89100000  0.65560000  0.20940000  1.0 0.1411638394
H  H63  1  0.87780000  0.66600000  0.12510000  1.0 0.1184793436
H  H64  1  0.97300000  0.75040000  0.15710000  1.0 0.1292791853
H  H65  1  0.94780000  0.41440000  0.67310000  1.0 0.1771150217
H  H66  1  0.03380000  0.49200000  0.64420000  1.0 0.2473437101
H  H67  1  0.97830000  0.40010000  0.52880000  1.0 0.1292791853
H  H68  1  0.88620000  0.47360000  0.55760000  1.0 0.1411638394
H  H69  1  0.87030000  0.33250000  0.56730000  1.0 0.1292791853
H  H70  1  0.10900000  0.34440000  0.70940000  1.0 0.1411638394
H  H71  1  0.12220000  0.33400000  0.62510000  1.0 0.1184793436
H  H72  1  0.02700000  0.24960000  0.65710000  1.0 0.1292791853
C  C1  1  0.76800000  0.31040000  0.76100000  1.0 -0.1880892381
C  C2  1  0.23200000  0.68960000  0.26100000  1.0 -0.1880892381
C  C3  1  0.31040000  0.76800000  0.23900000  1.0 -0.1880892381
C  C4  1  0.68960000  0.23200000  0.73900000  1.0 -0.1880892381
C  C5  1  0.24160000  0.31260000  0.48800000  1.0 -0.1880892381
C  C6  1  0.75840000  0.68740000  0.98800000  1.0 -0.1880892381
C  C7  1  0.31260000  0.24160000  0.51200000  1.0 -0.1880892381
C  C8  1  0.68740000  0.75840000  0.01200000  1.0 -0.1880892381
C  C9  1  0.65380000  0.36760000  0.04340000  1.0 0.6402729735
C  C10  1  0.34620000  0.63240000  0.54340000  1.0 0.6402729735
C  C11  1  0.36760000  0.65380000  0.95660000  1.0 0.6402729735
C  C12  1  0.63240000  0.34620000  0.45660000  1.0 0.6402729735
C  C13  1  0.07710000  0.32370000  0.96340000  1.0 0.531948483
C  C14  1  0.92290000  0.67630000  0.46340000  1.0 0.531948483
C  C15  1  0.32370000  0.07710000  0.03660000  1.0 0.531948483
C  C16  1  0.67630000  0.92290000  0.53660000  1.0 0.531948483
C  C17  1  0.74370000  0.35650000  0.98080000  1.0 -0.0483292561
C  C18  1  0.25630000  0.64350000  0.48080000  1.0 -0.0483292561
C  C19  1  0.35650000  0.74370000  0.01920000  1.0 -0.0483292561
C  C20  1  0.64350000  0.25630000  0.51920000  1.0 -0.0483292561
C  C21  1  0.86570000  0.35130000  0.00280000  1.0 -0.1026493847
C  C22  1  0.13430000  0.64870000  0.50280000  1.0 -0.1026493847
C  C23  1  0.35130000  0.86570000  0.99720000  1.0 -0.1026493847
C  C24  1  0.64870000  0.13430000  0.49720000  1.0 -0.1026493847
C  C25  1  0.95050000  0.33490000  0.94450000  1.0 -0.0228432096
C  C26  1  0.04950000  0.66510000  0.44450000  1.0 -0.0228432096
C  C27  1  0.33490000  0.95050000  0.05550000  1.0 -0.0228432096
C  C28  1  0.66510000  0.04950000  0.55550000  1.0 -0.0228432096
C  C29  1  0.91110000  0.32530000  0.86440000  1.0 -0.1779496684
C  C30  1  0.08890000  0.67470000  0.36440000  1.0 -0.1779496684
C  C31  1  0.32530000  0.91110000  0.13560000  1.0 -0.1779496684
C  C32  1  0.67470000  0.08890000  0.63560000  1.0 -0.1779496684
C  C33  1  0.79310000  0.33970000  0.84180000  1.0 0.0597045351
C  C34  1  0.20690000  0.66030000  0.34180000  1.0 0.0597045351
C  C35  1  0.33970000  0.79310000  0.15820000  1.0 0.0597045351
C  C36  1  0.66030000  0.20690000  0.65820000  1.0 0.0597045351
C  C37  1  0.71000000  0.34100000  0.90320000  1.0 -0.1545146085
C  C38  1  0.29000000  0.65900000  0.40320000  1.0 -0.1545146085
C  C39  1  0.34100000  0.71000000  0.09680000  1.0 -0.1545146085
C  C40  1  0.65900000  0.29000000  0.59680000  1.0 -0.1545146085
C  C41  1  0.35920000  0.36580000  0.20570000  1.0 0.6402729735
C  C42  1  0.64080000  0.63420000  0.70570000  1.0 0.6402729735
C  C43  1  0.36580000  0.35920000  0.79430000  1.0 0.6402729735
C  C44  1  0.63420000  0.64080000  0.29430000  1.0 0.6402729735
C  C45  1  0.92690000  0.33990000  0.28780000  1.0 0.5459561408
C  C46  1  0.07310000  0.66010000  0.78780000  1.0 0.5459561408
C  C47  1  0.33990000  0.92690000  0.71220000  1.0 0.5459561408
C  C48  1  0.66010000  0.07310000  0.21220000  1.0 0.5459561408
C  C49  1  0.26700000  0.35880000  0.26860000  1.0 -0.0483292561
C  C50  1  0.73300000  0.64120000  0.76860000  1.0 -0.0483292561
C  C51  1  0.35880000  0.26700000  0.73140000  1.0 -0.0483292561
C  C52  1  0.64120000  0.73300000  0.23140000  1.0 -0.0483292561
C  C53  1  0.14750000  0.36090000  0.24900000  1.0 -0.131144391
C  C54  1  0.85250000  0.63910000  0.74900000  1.0 -0.131144391
C  C55  1  0.36090000  0.14750000  0.75100000  1.0 -0.131144391
C  C56  1  0.63910000  0.85250000  0.25100000  1.0 -0.131144391
C  C57  1  0.05800000  0.34400000  0.30780000  1.0 -0.0113458797
C  C58  1  0.94200000  0.65600000  0.80780000  1.0 -0.0113458797
C  C59  1  0.34400000  0.05800000  0.69220000  1.0 -0.0113458797
C  C60  1  0.65600000  0.94200000  0.19220000  1.0 -0.0113458797
C  C61  1  0.09480000  0.33280000  0.38880000  1.0 -0.162091361
C  C62  1  0.90520000  0.66720000  0.88880000  1.0 -0.162091361
C  C63  1  0.33280000  0.09480000  0.61120000  1.0 -0.162091361
C  C64  1  0.66720000  0.90520000  0.11120000  1.0 -0.162091361
C  C65  1  0.21410000  0.33850000  0.40900000  1.0 0.0722558409
C  C66  1  0.78590000  0.66150000  0.90900000  1.0 0.0722558409
C  C67  1  0.33850000  0.21410000  0.59100000  1.0 0.0722558409
C  C68  1  0.66150000  0.78590000  0.09100000  1.0 0.0722558409
C  C69  1  0.30320000  0.34260000  0.34820000  1.0 -0.166036652
C  C70  1  0.69680000  0.65740000  0.84820000  1.0 -0.166036652
C  C71  1  0.34260000  0.30320000  0.65180000  1.0 -0.166036652
C  C72  1  0.65740000  0.69680000  0.15180000  1.0 -0.166036652
C  C73  1  0.59550000  0.07250000  0.93360000  1.0 -0.2959293365
C  C74  1  0.67040000  0.92760000  0.84210000  1.0 -0.2629798889
C  C75  1  0.40450000  0.92750000  0.43360000  1.0 -0.2959293365
C  C76  1  0.32960000  0.07240000  0.34210000  1.0 -0.2629798889
C  C77  1  0.07250000  0.59550000  0.06640000  1.0 -0.2949005901
C  C78  1  0.92760000  0.67040000  0.15790000  1.0 -0.2629798889
C  C79  1  0.92750000  0.40450000  0.56640000  1.0 -0.2959293365
C  C80  1  0.07240000  0.32960000  0.65790000  1.0 -0.2629798889
N  N1  1  0.58250000  0.00950000  0.85770000  1.0 -0.1222761642
N  N2  1  0.41750000  0.99050000  0.35770000  1.0 -0.1222761642
N  N3  1  0.00950000  0.58250000  0.14230000  1.0 -0.1222761642
N  N4  1  0.99050000  0.41750000  0.64230000  1.0 -0.1222761642
O  O1  1  0.54700000  0.35020000  0.02260000  1.0 -0.6460269034
O  O2  1  0.45300000  0.64980000  0.52260000  1.0 -0.6460269034
O  O3  1  0.35020000  0.54700000  0.97740000  1.0 -0.6460269034
O  O4  1  0.64980000  0.45300000  0.47740000  1.0 -0.6460269034
O  O5  1  0.69150000  0.40050000  0.11290000  1.0 -0.6719021737
O  O6  1  0.30850000  0.59950000  0.61290000  1.0 -0.6719021737
O  O7  1  0.40050000  0.69150000  0.88710000  1.0 -0.6719021737
O  O8  1  0.59950000  0.30850000  0.38710000  1.0 -0.6719021737
O  O9  1  0.11450000  0.34390000  0.03320000  1.0 -0.5734981536
O  O10  1  0.88550000  0.65610000  0.53320000  1.0 -0.5734981536
O  O11  1  0.34390000  0.11450000  0.96680000  1.0 -0.5734981536
O  O12  1  0.65610000  0.88550000  0.46680000  1.0 -0.5734981536
O  O13  1  0.14870000  0.29770000  0.91430000  1.0 -0.5194732338
O  O14  1  0.85130000  0.70230000  0.41430000  1.0 -0.5194732338
O  O15  1  0.29770000  0.14870000  0.08570000  1.0 -0.5194732338
O  O16  1  0.70230000  0.85130000  0.58570000  1.0 -0.5194732338
O  O17  1  0.33340000  0.40360000  0.13790000  1.0 -0.6603382468
O  O18  1  0.66666667  0.59640000  0.63790000  1.0 -0.6603382468
O  O19  1  0.40360000  0.33340000  0.86210000  1.0 -0.6603382468
O  O20  1  0.59640000  0.66666667  0.36210000  1.0 -0.6603382468
O  O21  1  0.45940000  0.33060000  0.22190000  1.0 -0.6755118012
O  O22  1  0.54060000  0.66940000  0.72190000  1.0 -0.6755118012
O  O23  1  0.33060000  0.45940000  0.77810000  1.0 -0.6755118012
O  O24  1  0.66940000  0.54060000  0.27810000  1.0 -0.6755118012
O  O25  1  0.84910000  0.29110000  0.33470000  1.0 -0.5959585845
O  O26  1  0.15090000  0.70890000  0.83470000  1.0 -0.5959585845
O  O27  1  0.29110000  0.84910000  0.66530000  1.0 -0.5959585845
O  O28  1  0.70890000  0.15090000  0.16530000  1.0 -0.5959585845
O  O29  1  0.89450000  0.39570000  0.22590000  1.0 -0.6419080734
O  O30  1  0.10550000  0.60430000  0.72590000  1.0 -0.6419080734
O  O31  1  0.39570000  0.89450000  0.77410000  1.0 -0.6419080734
O  O32  1  0.60430000  0.10550000  0.27410000  1.0 -0.6419080734
