# DDEC6 charges by PACMAN v1.1 (https://github.com/mtap-research/PACMAN-charge/)
data_HIDBIH_FSR_pacman
_symmetry_space_group_name_H-M   'P 1'
_cell_length_a   12.83040000
_cell_length_b   12.83040000
_cell_length_c   17.71350000
_cell_angle_alpha   58.29790000
_cell_angle_beta   121.70200000
_cell_angle_gamma   133.83800000
_symmetry_Int_Tables_number   1
_chemical_formula_structural   CdH9C14(N2O)3
_chemical_formula_sum   'Cd4 H36 C56 N24 O12'
_cell_volume   1726.37100058
_cell_formula_units_Z   4
loop_
 _symmetry_equiv_pos_site_id
 _symmetry_equiv_pos_as_xyz
  1  'x, y, z'
loop_
 _atom_site_type_symbol
 _atom_site_label
 _atom_site_symmetry_multiplicity
 _atom_site_fract_x
 _atom_site_fract_y
 _atom_site_fract_z
 _atom_site_occupancy
 _atom_site_charge
Cd  Cd1  1  0.23505000  0.96367000  0.62633000  1.0 0.8229623598
Cd  Cd2  1  0.96367000  0.23505000  0.87367000  1.0 0.8229623598
Cd  Cd3  1  0.76495000  0.03633000  0.37367000  1.0 0.8229623598
Cd  Cd4  1  0.03633000  0.76495000  0.12633000  1.0 0.8229623598
H  H1  1  0.97390000  0.37430000  0.67170000  1.0 0.1200781998
H  H2  1  0.37430000  0.97390000  0.82830000  1.0 0.1200781998
H  H3  1  0.02610000  0.62570000  0.32830000  1.0 0.1200781998
H  H4  1  0.62570000  0.02610000  0.17170000  1.0 0.1200781998
H  H5  1  0.23930000  0.51990000  0.53470000  1.0 0.1200781998
H  H6  1  0.51990000  0.23930000  0.96530000  1.0 0.1200781998
H  H7  1  0.76070000  0.48010000  0.46530000  1.0 0.1200781998
H  H8  1  0.48010000  0.76070000  0.03470000  1.0 0.1200781998
H  H9  1  0.41800000  0.73400000  0.58600000  1.0 0.1200781998
H  H10  1  0.73400000  0.41800000  0.91400000  1.0 0.1200781998
H  H11  1  0.58200000  0.26600000  0.41400000  1.0 0.1200781998
H  H12  1  0.26600000  0.58200000  0.08600000  1.0 0.1200781998
H  H13  1  0.37690000  0.77070000  0.67990000  1.0 0.1200781998
H  H14  1  0.77070000  0.37690000  0.82010000  1.0 0.1200781998
H  H15  1  0.62310000  0.22930000  0.32010000  1.0 0.1200781998
H  H16  1  0.22930000  0.62310000  0.17990000  1.0 0.1200781998
H  H17  1  0.05470000  0.30490000  0.48120000  1.0 0.136396454
H  H18  1  0.30490000  0.05470000  0.01880000  1.0 0.136396454
H  H19  1  0.94530000  0.69510000  0.51880000  1.0 0.136396454
H  H20  1  0.69510000  0.94530000  0.98120000  1.0 0.136396454
H  H21  1  0.66540000  0.98860000  0.53940000  1.0 0.1141612666
H  H22  1  0.98860000  0.66540000  0.96060000  1.0 0.1141612666
H  H23  1  0.33460000  0.01140000  0.46060000  1.0 0.1141612666
H  H24  1  0.01140000  0.33460000  0.03940000  1.0 0.1141612666
H  H25  1  0.57950000  0.57950000  0.75000000  1.0 0.1141612666
H  H26  1  0.42050000  0.42050000  0.25000000  1.0 0.1141612666
H  H27  1  0.74140000  0.64920000  0.68340000  1.0 0.1200781998
H  H28  1  0.64920000  0.74140000  0.81660000  1.0 0.1200781998
H  H29  1  0.25860000  0.35080000  0.31660000  1.0 0.1200781998
H  H30  1  0.35080000  0.25860000  0.18340000  1.0 0.1200781998
H  H31  1  0.04060000  0.04060000  0.75000000  1.0 0.1287828249
H  H32  1  0.95940000  0.95940000  0.25000000  1.0 0.1287828249
H  H33  1  0.80760000  0.17000000  0.61990000  1.0 0.2759843928
H  H34  1  0.17000000  0.80760000  0.88010000  1.0 0.2759843928
H  H35  1  0.19240000  0.83000000  0.38010000  1.0 0.2759843928
H  H36  1  0.83000000  0.19240000  0.11990000  1.0 0.2759843928
C  C1  1  0.17112000  0.57528000  0.68575000  1.0 0.0404606883
C  C2  1  0.57528000  0.17112000  0.81425000  1.0 0.0404606883
C  C3  1  0.82888000  0.42472000  0.31425000  1.0 0.0404606883
C  C4  1  0.42472000  0.82888000  0.18575000  1.0 0.0404606883
C  C5  1  0.06337000  0.44603000  0.65470000  1.0 -0.1619977194
C  C6  1  0.44603000  0.06337000  0.84530000  1.0 -0.1619977194
C  C7  1  0.93663000  0.55397000  0.34530000  1.0 -0.1619977194
C  C8  1  0.55397000  0.93663000  0.15470000  1.0 -0.1619977194
C  C9  1  0.08806000  0.42294000  0.59837000  1.0 0.0617896032
C  C10  1  0.42294000  0.08806000  0.90163000  1.0 0.0617896032
C  C11  1  0.91194000  0.57706000  0.40163000  1.0 0.0617896032
C  C12  1  0.57706000  0.91194000  0.09837000  1.0 0.0617896032
C  C13  1  0.22146000  0.53274000  0.57280000  1.0 -0.1306447834
C  C14  1  0.53274000  0.22146000  0.92720000  1.0 -0.1306447834
C  C15  1  0.77854000  0.46726000  0.42720000  1.0 -0.1306447834
C  C16  1  0.46726000  0.77854000  0.07280000  1.0 -0.1306447834
C  C17  1  0.32900000  0.66180000  0.60350000  1.0 -0.0864538538
C  C18  1  0.66180000  0.32900000  0.89650000  1.0 -0.0864538538
C  C19  1  0.67100000  0.33820000  0.39650000  1.0 -0.0864538538
C  C20  1  0.33820000  0.67100000  0.10350000  1.0 -0.0864538538
C  C21  1  0.30466000  0.68394000  0.65970000  1.0 -0.1306447834
C  C22  1  0.68394000  0.30466000  0.84030000  1.0 -0.1306447834
C  C23  1  0.69534000  0.31606000  0.34030000  1.0 -0.1306447834
C  C24  1  0.31606000  0.69534000  0.15970000  1.0 -0.1306447834
C  C25  1  0.14547000  0.59713000  0.74682000  1.0 0.2703232256
C  C26  1  0.59713000  0.14547000  0.75318000  1.0 0.2703232256
C  C27  1  0.85453000  0.40287000  0.25318000  1.0 0.2703232256
C  C28  1  0.40287000  0.85453000  0.24682000  1.0 0.2703232256
C  C29  1  0.97653000  0.28887000  0.56503000  1.0 0.1200781998
C  C30  1  0.28887000  0.97653000  0.93497000  1.0 0.1200781998
C  C31  1  0.02347000  0.71113000  0.43497000  1.0 0.1200781998
C  C32  1  0.71113000  0.02347000  0.06503000  1.0 0.1200781998
C  C33  1  0.97597000  0.24963000  0.50610000  1.0 -0.071407749
C  C34  1  0.24963000  0.97597000  0.99390000  1.0 -0.071407749
C  C35  1  0.02403000  0.75037000  0.49390000  1.0 -0.071407749
C  C36  1  0.75037000  0.02403000  0.00610000  1.0 -0.071407749
C  C37  1  0.76171000  0.07529000  0.53780000  1.0 0.148187415
C  C38  1  0.07529000  0.76171000  0.96220000  1.0 0.148187415
C  C39  1  0.23829000  0.92471000  0.46220000  1.0 0.148187415
C  C40  1  0.92471000  0.23829000  0.03780000  1.0 0.148187415
C  C41  1  0.67190000  0.67190000  0.75000000  1.0 -0.1083315997
C  C42  1  0.32810000  0.32810000  0.25000000  1.0 -0.1083315997
C  C43  1  0.76919000  0.71361000  0.71030000  1.0 -0.1083315997
C  C44  1  0.71361000  0.76919000  0.78970000  1.0 -0.1083315997
C  C45  1  0.23081000  0.28639000  0.28970000  1.0 -0.1083315997
C  C46  1  0.28639000  0.23081000  0.21030000  1.0 -0.1083315997
C  C47  1  0.90642000  0.85018000  0.71080000  1.0 -0.0314053569
C  C48  1  0.85018000  0.90642000  0.78920000  1.0 -0.0314053569
C  C49  1  0.09358000  0.14982000  0.28920000  1.0 -0.0314053569
C  C50  1  0.14982000  0.09358000  0.21080000  1.0 -0.0314053569
C  C51  1  0.94810000  0.94810000  0.75000000  1.0 -0.1201960433
C  C52  1  0.05190000  0.05190000  0.25000000  1.0 -0.1201960433
C  C53  1  0.01330000  0.89290000  0.67061000  1.0 0.5359727305
C  C54  1  0.89290000  0.01330000  0.82939000  1.0 0.5359727305
C  C55  1  0.98670000  0.10710000  0.32939000  1.0 0.5359727305
C  C56  1  0.10710000  0.98670000  0.17061000  1.0 0.5359727305
N  N1  1  0.18758000  0.72702000  0.74501000  1.0 -0.2803731698
N  N2  1  0.72702000  0.18758000  0.75499000  1.0 -0.2803731698
N  N3  1  0.81242000  0.27298000  0.25499000  1.0 -0.2803731698
N  N4  1  0.27298000  0.81242000  0.24501000  1.0 -0.2803731698
N  N5  1  0.14466000  0.69434000  0.81370000  1.0 -0.0570114243
N  N6  1  0.69434000  0.14466000  0.68630000  1.0 -0.0570114243
N  N7  1  0.85534000  0.30566000  0.18630000  1.0 -0.0570114243
N  N8  1  0.30566000  0.85534000  0.31370000  1.0 -0.0570114243
N  N9  1  0.07930000  0.55210000  0.85543000  1.0 -0.1201960433
N  N10  1  0.55210000  0.07930000  0.64457000  1.0 -0.1201960433
N  N11  1  0.92070000  0.44790000  0.14457000  1.0 -0.1201960433
N  N12  1  0.44790000  0.92070000  0.35543000  1.0 -0.1201960433
N  N13  1  0.07723000  0.48657000  0.81367000  1.0 -0.2803731698
N  N14  1  0.48657000  0.07723000  0.68633000  1.0 -0.2803731698
N  N15  1  0.92277000  0.51343000  0.18633000  1.0 -0.2803731698
N  N16  1  0.51343000  0.92277000  0.31367000  1.0 -0.2803731698
N  N17  1  0.83871000  0.17549000  0.58431000  1.0 -0.2305020529
N  N18  1  0.17549000  0.83871000  0.91569000  1.0 -0.2305020529
N  N19  1  0.16129000  0.82451000  0.41569000  1.0 -0.2305020529
N  N20  1  0.82451000  0.16129000  0.08431000  1.0 -0.2305020529
N  N21  1  0.84180000  0.11660000  0.48920000  1.0 -0.2921845156
N  N22  1  0.11660000  0.84180000  0.01080000  1.0 -0.2921845156
N  N23  1  0.15820000  0.88340000  0.51080000  1.0 -0.2921845156
N  N24  1  0.88340000  0.15820000  0.98920000  1.0 -0.2921845156
O  O1  1  0.96393000  0.82507000  0.61530000  1.0 -0.4926071975
O  O2  1  0.82507000  0.96393000  0.88470000  1.0 -0.4926071975
O  O3  1  0.03607000  0.17493000  0.38470000  1.0 -0.4926071975
O  O4  1  0.17493000  0.03607000  0.11530000  1.0 -0.4926071975
O  O5  1  0.14997000  0.99043000  0.69604000  1.0 -0.5291373569
O  O6  1  0.99043000  0.14997000  0.80396000  1.0 -0.5291373569
O  O7  1  0.85003000  0.00957000  0.30396000  1.0 -0.5291373569
O  O8  1  0.00957000  0.85003000  0.19604000  1.0 -0.5291373569
O  O9  1  0.28236000  0.19784000  0.52730000  1.0 -0.1306447834
O  O10  1  0.19784000  0.28236000  0.97270000  1.0 -0.1306447834
O  O11  1  0.71764000  0.80216000  0.47270000  1.0 -0.1306447834
O  O12  1  0.80216000  0.71764000  0.02730000  1.0 -0.1306447834
