# DDEC6 charges by PACMAN v1.1 (https://github.com/mtap-research/PACMAN-charge/)
data_HIDCUU_ion_pacman
_symmetry_space_group_name_H-M   'P 1'
_cell_length_a   11.03980000
_cell_length_b   11.03980000
_cell_length_c   16.63030000
_cell_angle_alpha   90.00000000
_cell_angle_beta   90.00000000
_cell_angle_gamma   97.15750000
_symmetry_Int_Tables_number   1
_chemical_formula_structural   EuH18C20NO8
_chemical_formula_sum   'Eu4 H72 C80 N4 O32'
_cell_volume   2011.05966245
_cell_formula_units_Z   4
loop_
 _symmetry_equiv_pos_site_id
 _symmetry_equiv_pos_as_xyz
  1  'x, y, z'
loop_
 _atom_site_type_symbol
 _atom_site_label
 _atom_site_symmetry_multiplicity
 _atom_site_fract_x
 _atom_site_fract_y
 _atom_site_fract_z
 _atom_site_occupancy
 _atom_site_charge
Eu  Eu1  1  0.66194000  0.66194000  0.50000000  1.0 2.0728760689
Eu  Eu2  1  0.33806000  0.33806000  0.00000000  1.0 2.0728760689
Eu  Eu3  1  0.33196000  0.66804000  0.75000000  1.0 2.1018391579
Eu  Eu4  1  0.66804000  0.33196000  0.25000000  1.0 2.1018391579
H  H1  1  0.84020000  0.72920000  0.01100000  1.0 0.1313363213
H  H2  1  0.15980000  0.27080000  0.51100000  1.0 0.1313363213
H  H3  1  0.72920000  0.84020000  0.98900000  1.0 0.1313363213
H  H4  1  0.27080000  0.15980000  0.48900000  1.0 0.1313363213
H  H5  1  0.73590000  0.62370000  0.01280000  1.0 0.1393199766
H  H6  1  0.26410000  0.37630000  0.51280000  1.0 0.1393199766
H  H7  1  0.62370000  0.73590000  0.98720000  1.0 0.1393199766
H  H8  1  0.37630000  0.26410000  0.48720000  1.0 0.1393199766
H  H9  1  0.37180000  0.66680000  0.38950000  1.0 0.1313363213
H  H10  1  0.62820000  0.33320000  0.88950000  1.0 0.1313363213
H  H11  1  0.66680000  0.37180000  0.61050000  1.0 0.1313363213
H  H12  1  0.33320000  0.62820000  0.11050000  1.0 0.1313363213
H  H13  1  0.02790000  0.67910000  0.32440000  1.0 0.1240715339
H  H14  1  0.97210000  0.32090000  0.82440000  1.0 0.1240715339
H  H15  1  0.67910000  0.02790000  0.67560000  1.0 0.1240715339
H  H16  1  0.32090000  0.97210000  0.17560000  1.0 0.1240715339
H  H17  1  0.11090000  0.64250000  0.55930000  1.0 0.1313363213
H  H18  1  0.88910000  0.35750000  0.05930000  1.0 0.1313363213
H  H19  1  0.64250000  0.11090000  0.44070000  1.0 0.1313363213
H  H20  1  0.35750000  0.88910000  0.94070000  1.0 0.1313363213
H  H21  1  0.87680000  0.62800000  0.69560000  1.0 0.1393199766
H  H22  1  0.12320000  0.37200000  0.19560000  1.0 0.1393199766
H  H23  1  0.62800000  0.87680000  0.30440000  1.0 0.1393199766
H  H24  1  0.37200000  0.12320000  0.80440000  1.0 0.1393199766
H  H25  1  0.61870000  0.66930000  0.85900000  1.0 0.1313363213
H  H26  1  0.38130000  0.33070000  0.35900000  1.0 0.1313363213
H  H27  1  0.66930000  0.61870000  0.14100000  1.0 0.1313363213
H  H28  1  0.33070000  0.38130000  0.64100000  1.0 0.1313363213
H  H29  1  0.96730000  0.67550000  0.92730000  1.0 0.1240715339
H  H30  1  0.03270000  0.32450000  0.42730000  1.0 0.1240715339
H  H31  1  0.67550000  0.96730000  0.07270000  1.0 0.1240715339
H  H32  1  0.32450000  0.03270000  0.57270000  1.0 0.1240715339
H  H33  1  0.15450000  0.71870000  0.24040000  1.0 0.1240715339
H  H34  1  0.84550000  0.28130000  0.74040000  1.0 0.1240715339
H  H35  1  0.71870000  0.15450000  0.75960000  1.0 0.1240715339
H  H36  1  0.28130000  0.84550000  0.25960000  1.0 0.1240715339
H  H37  1  0.24590000  0.62490000  0.23740000  1.0 0.1393199766
H  H38  1  0.75410000  0.37510000  0.73740000  1.0 0.1393199766
H  H39  1  0.62490000  0.24590000  0.76260000  1.0 0.1393199766
H  H40  1  0.37510000  0.75410000  0.26260000  1.0 0.1393199766
H  H41  1  0.56230000  0.04170000  0.81860000  1.0 0.2543965757
H  H42  1  0.52170000  0.93870000  0.87060000  1.0 0.2704519361
H  H43  1  0.69180000  0.91880000  0.78140000  1.0 0.1393199766
H  H44  1  0.69840000  0.87380000  0.86490000  1.0 0.1240715339
H  H45  1  0.76490000  0.99610000  0.84850000  1.0 0.1313363213
H  H46  1  0.56580000  0.03220000  0.97650000  1.0 0.1393199766
H  H47  1  0.56690000  0.15130000  0.92490000  1.0 0.1393199766
H  H48  1  0.68980000  0.10020000  0.94480000  1.0 0.1313363213
H  H49  1  0.43770000  0.95830000  0.31860000  1.0 0.2543965757
H  H50  1  0.47830000  0.06130000  0.37060000  1.0 0.2704519361
H  H51  1  0.30820000  0.08120000  0.28140000  1.0 0.1393199766
H  H52  1  0.30160000  0.12620000  0.36490000  1.0 0.1240715339
H  H53  1  0.23510000  0.00390000  0.34850000  1.0 0.1313363213
H  H54  1  0.43420000  0.96780000  0.47650000  1.0 0.1393199766
H  H55  1  0.43310000  0.84870000  0.42490000  1.0 0.1393199766
H  H56  1  0.31020000  0.89980000  0.44480000  1.0 0.1313363213
H  H57  1  0.04170000  0.56230000  0.18140000  1.0 0.2543965757
H  H58  1  0.93870000  0.52170000  0.12940000  1.0 0.2704519361
H  H59  1  0.91880000  0.69180000  0.21860000  1.0 0.1393199766
H  H60  1  0.87380000  0.69840000  0.13510000  1.0 0.1240715339
H  H61  1  0.99610000  0.76490000  0.15150000  1.0 0.1313363213
H  H62  1  0.03220000  0.56580000  0.02350000  1.0 0.1393199766
H  H63  1  0.15130000  0.56690000  0.07510000  1.0 0.1393199766
H  H64  1  0.10020000  0.68980000  0.05520000  1.0 0.1313363213
H  H65  1  0.95830000  0.43770000  0.68140000  1.0 0.2543965757
H  H66  1  0.06130000  0.47830000  0.62940000  1.0 0.2704519361
H  H67  1  0.08120000  0.30820000  0.71860000  1.0 0.1393199766
H  H68  1  0.12620000  0.30160000  0.63510000  1.0 0.1240715339
H  H69  1  0.00390000  0.23510000  0.65150000  1.0 0.1313363213
H  H70  1  0.96780000  0.43420000  0.52350000  1.0 0.1393199766
H  H71  1  0.84870000  0.43310000  0.57510000  1.0 0.1393199766
H  H72  1  0.89980000  0.31020000  0.55520000  1.0 0.1313363213
C  C1  1  0.76270000  0.70030000  0.98720000  1.0 -0.1815339781
C  C2  1  0.23730000  0.29970000  0.48720000  1.0 -0.1815339781
C  C3  1  0.70030000  0.76270000  0.01280000  1.0 -0.1815339781
C  C4  1  0.29970000  0.23730000  0.51280000  1.0 -0.1815339781
C  C5  1  0.34810000  0.63290000  0.54400000  1.0 0.6483835608
C  C6  1  0.65190000  0.36710000  0.04400000  1.0 0.6483835608
C  C7  1  0.63290000  0.34810000  0.45600000  1.0 0.6483835608
C  C8  1  0.36710000  0.65190000  0.95600000  1.0 0.6483835608
C  C9  1  0.91760000  0.67600000  0.46540000  1.0 0.541573438
C  C10  1  0.08240000  0.32400000  0.96540000  1.0 0.541573438
C  C11  1  0.67600000  0.91760000  0.53460000  1.0 0.541573438
C  C12  1  0.32400000  0.08240000  0.03460000  1.0 0.541573438
C  C13  1  0.25610000  0.64630000  0.48300000  1.0 -0.0595454768
C  C14  1  0.74390000  0.35370000  0.98300000  1.0 -0.0595454768
C  C15  1  0.64630000  0.25610000  0.51700000  1.0 -0.0595454768
C  C16  1  0.35370000  0.74390000  0.01700000  1.0 -0.0595454768
C  C17  1  0.28970000  0.66130000  0.40330000  1.0 -0.1693440606
C  C18  1  0.71030000  0.33870000  0.90330000  1.0 -0.1693440606
C  C19  1  0.66130000  0.28970000  0.59670000  1.0 -0.1693440606
C  C20  1  0.33870000  0.71030000  0.09670000  1.0 -0.1693440606
C  C21  1  0.20400000  0.66840000  0.34370000  1.0 0.0621616311
C  C22  1  0.79600000  0.33160000  0.84370000  1.0 0.0621616311
C  C23  1  0.66840000  0.20400000  0.65630000  1.0 0.0621616311
C  C24  1  0.33160000  0.79600000  0.15630000  1.0 0.0621616311
C  C25  1  0.08510000  0.67150000  0.36460000  1.0 -0.1870960489
C  C26  1  0.91490000  0.32850000  0.86460000  1.0 -0.1870960489
C  C27  1  0.67150000  0.08510000  0.63540000  1.0 -0.1870960489
C  C28  1  0.32850000  0.91490000  0.13540000  1.0 -0.1870960489
C  C29  1  0.04580000  0.66340000  0.44560000  1.0 -0.0127220851
C  C30  1  0.95420000  0.33660000  0.94560000  1.0 -0.0127220851
C  C31  1  0.66340000  0.04580000  0.55440000  1.0 -0.0127220851
C  C32  1  0.33660000  0.95420000  0.05440000  1.0 -0.0127220851
C  C33  1  0.13370000  0.64950000  0.50550000  1.0 -0.1299791902
C  C34  1  0.86630000  0.35050000  0.00550000  1.0 -0.1299791902
C  C35  1  0.64950000  0.13370000  0.49450000  1.0 -0.1299791902
C  C36  1  0.35050000  0.86630000  0.99450000  1.0 -0.1299791902
C  C37  1  0.07520000  0.66240000  0.78590000  1.0 0.56521115
C  C38  1  0.92480000  0.33760000  0.28590000  1.0 0.56521115
C  C39  1  0.66240000  0.07520000  0.21410000  1.0 0.56521115
C  C40  1  0.33760000  0.92480000  0.71410000  1.0 0.56521115
C  C41  1  0.63810000  0.63490000  0.70370000  1.0 0.66061351
C  C42  1  0.36190000  0.36510000  0.20370000  1.0 0.66061351
C  C43  1  0.63490000  0.63810000  0.29630000  1.0 0.66061351
C  C44  1  0.36510000  0.36190000  0.79630000  1.0 0.66061351
C  C45  1  0.94380000  0.65440000  0.80740000  1.0 -0.0127220851
C  C46  1  0.05620000  0.34560000  0.30740000  1.0 -0.0127220851
C  C47  1  0.65440000  0.94380000  0.19260000  1.0 -0.0127220851
C  C48  1  0.34560000  0.05620000  0.69260000  1.0 -0.0127220851
C  C49  1  0.85490000  0.63930000  0.74880000  1.0 -0.1299791902
C  C50  1  0.14510000  0.36070000  0.24880000  1.0 -0.1299791902
C  C51  1  0.63930000  0.85490000  0.25120000  1.0 -0.1299791902
C  C52  1  0.36070000  0.14510000  0.75120000  1.0 -0.1299791902
C  C53  1  0.73380000  0.64100000  0.76830000  1.0 -0.0222083599
C  C54  1  0.26620000  0.35900000  0.26830000  1.0 -0.0222083599
C  C55  1  0.64100000  0.73380000  0.23170000  1.0 -0.0222083599
C  C56  1  0.35900000  0.26620000  0.73170000  1.0 -0.0222083599
C  C57  1  0.69910000  0.65970000  0.84680000  1.0 -0.1693440606
C  C58  1  0.30090000  0.34030000  0.34680000  1.0 -0.1693440606
C  C59  1  0.65970000  0.69910000  0.15320000  1.0 -0.1693440606
C  C60  1  0.34030000  0.30090000  0.65320000  1.0 -0.1693440606
C  C61  1  0.78770000  0.66390000  0.90810000  1.0 0.0686300054
C  C62  1  0.21230000  0.33610000  0.40810000  1.0 0.0686300054
C  C63  1  0.66390000  0.78770000  0.09190000  1.0 0.0686300054
C  C64  1  0.33610000  0.21230000  0.59190000  1.0 0.0686300054
C  C65  1  0.90810000  0.66610000  0.88730000  1.0 -0.1693440606
C  C66  1  0.09190000  0.33390000  0.38730000  1.0 -0.1693440606
C  C67  1  0.66610000  0.90810000  0.11270000  1.0 -0.1693440606
C  C68  1  0.33390000  0.09190000  0.61270000  1.0 -0.1646039158
C  C69  1  0.23010000  0.69950000  0.26260000  1.0 -0.1870960489
C  C70  1  0.76990000  0.30050000  0.76260000  1.0 -0.1870960489
C  C71  1  0.69950000  0.23010000  0.73740000  1.0 -0.1870960489
C  C72  1  0.30050000  0.76990000  0.23740000  1.0 -0.1870960489
C  C73  1  0.69400000  0.93800000  0.83800000  1.0 -0.3074058265
C  C74  1  0.60520000  0.07880000  0.93300000  1.0 -0.3346491948
C  C75  1  0.30600000  0.06200000  0.33800000  1.0 -0.3074058265
C  C76  1  0.39480000  0.92120000  0.43300000  1.0 -0.3346491948
C  C77  1  0.93800000  0.69400000  0.16200000  1.0 -0.3074058265
C  C78  1  0.07880000  0.60520000  0.06700000  1.0 -0.3346491948
C  C79  1  0.06200000  0.30600000  0.66200000  1.0 -0.3074058265
C  C80  1  0.92120000  0.39480000  0.56700000  1.0 -0.3346491948
N  N1  1  0.58400000  0.99720000  0.86040000  1.0 -0.1175500907
N  N2  1  0.41600000  0.00280000  0.36040000  1.0 -0.1175500907
N  N3  1  0.99720000  0.58400000  0.13960000  1.0 -0.1175500907
N  N4  1  0.00280000  0.41600000  0.63960000  1.0 -0.1175500907
O  O1  1  0.45690000  0.65070000  0.52390000  1.0 -0.6599139542
O  O2  1  0.54310000  0.34930000  0.02390000  1.0 -0.6599139542
O  O3  1  0.65070000  0.45690000  0.47610000  1.0 -0.6599139542
O  O4  1  0.34930000  0.54310000  0.97610000  1.0 -0.6599139542
O  O5  1  0.31290000  0.60030000  0.61480000  1.0 -0.6806510061
O  O6  1  0.68710000  0.39970000  0.11480000  1.0 -0.6806510061
O  O7  1  0.60030000  0.31290000  0.38520000  1.0 -0.6806510061
O  O8  1  0.39970000  0.68710000  0.88520000  1.0 -0.6806510061
O  O9  1  0.88160000  0.65120000  0.53620000  1.0 -0.6084133804
O  O10  1  0.11840000  0.34880000  0.03620000  1.0 -0.6084133804
O  O11  1  0.65120000  0.88160000  0.46380000  1.0 -0.6084133804
O  O12  1  0.34880000  0.11840000  0.96380000  1.0 -0.6084133804
O  O13  1  0.84580000  0.69800000  0.41400000  1.0 -0.5534026742
O  O14  1  0.15420000  0.30200000  0.91400000  1.0 -0.5534026742
O  O15  1  0.69800000  0.84580000  0.58600000  1.0 -0.5534026742
O  O16  1  0.30200000  0.15420000  0.08600000  1.0 -0.5534026742
O  O17  1  0.10890000  0.60490000  0.72510000  1.0 -0.6457310885
O  O18  1  0.89110000  0.39510000  0.22510000  1.0 -0.6457310885
O  O19  1  0.60490000  0.10890000  0.27490000  1.0 -0.6457310885
O  O20  1  0.39510000  0.89110000  0.77490000  1.0 -0.6457310885
O  O21  1  0.15490000  0.71570000  0.83220000  1.0 -0.6084133804
O  O22  1  0.84510000  0.28430000  0.33220000  1.0 -0.6084133804
O  O23  1  0.71570000  0.15490000  0.16780000  1.0 -0.6084133804
O  O24  1  0.28430000  0.84510000  0.66780000  1.0 -0.6084133804
O  O25  1  0.66560000  0.59640000  0.63530000  1.0 -0.6599139542
O  O26  1  0.33440000  0.40360000  0.13530000  1.0 -0.6599139542
O  O27  1  0.59640000  0.66560000  0.36470000  1.0 -0.6599139542
O  O28  1  0.40360000  0.33440000  0.86470000  1.0 -0.6599139542
O  O29  1  0.53670000  0.66750000  0.72190000  1.0 -0.6732291848
O  O30  1  0.46330000  0.33250000  0.22190000  1.0 -0.6732291848
O  O31  1  0.66750000  0.53670000  0.27810000  1.0 -0.6732291848
O  O32  1  0.33250000  0.46330000  0.77810000  1.0 -0.6732291848
