# DDEC6 charges by PACMAN v1.1 (https://github.com/mtap-research/PACMAN-charge/)
data_HIDDAB_ion_pacman
_symmetry_space_group_name_H-M   'P 1'
_cell_length_a   10.99030000
_cell_length_b   10.99030000
_cell_length_c   16.57470000
_cell_angle_alpha   90.00000000
_cell_angle_beta   90.00000000
_cell_angle_gamma   96.26400000
_symmetry_Int_Tables_number   1
_chemical_formula_structural   TbH18C20NO8
_chemical_formula_sum   'Tb4 H72 C80 N4 O32'
_cell_volume   1990.05067344
_cell_formula_units_Z   4
loop_
 _symmetry_equiv_pos_site_id
 _symmetry_equiv_pos_as_xyz
  1  'x, y, z'
loop_
 _atom_site_type_symbol
 _atom_site_label
 _atom_site_symmetry_multiplicity
 _atom_site_fract_x
 _atom_site_fract_y
 _atom_site_fract_z
 _atom_site_occupancy
 _atom_site_charge
Tb  Tb1  1  0.66159000  0.66159000  0.50000000  1.0 2.0419117413
Tb  Tb2  1  0.33841000  0.33841000  0.00000000  1.0 2.0419117413
Tb  Tb3  1  0.66773000  0.33227000  0.75000000  1.0 2.0793670617
Tb  Tb4  1  0.33227000  0.66773000  0.25000000  1.0 2.0793670617
H  H1  1  0.62320000  0.25220000  0.23960000  1.0 0.1301423931
H  H2  1  0.37680000  0.74780000  0.73960000  1.0 0.1301423931
H  H3  1  0.25220000  0.62320000  0.76040000  1.0 0.1301423931
H  H4  1  0.74780000  0.37680000  0.26040000  1.0 0.1301423931
H  H5  1  0.71420000  0.16540000  0.23930000  1.0 0.1184963809
H  H6  1  0.28580000  0.83460000  0.73930000  1.0 0.1184963809
H  H7  1  0.16540000  0.71420000  0.76070000  1.0 0.1184963809
H  H8  1  0.83460000  0.28580000  0.26070000  1.0 0.1184963809
H  H9  1  0.64130000  0.10910000  0.55790000  1.0 0.1301423931
H  H10  1  0.35870000  0.89090000  0.05790000  1.0 0.1301423931
H  H11  1  0.10910000  0.64130000  0.44210000  1.0 0.1301423931
H  H12  1  0.89090000  0.35870000  0.94210000  1.0 0.1301423931
H  H13  1  0.66190000  0.35990000  0.39200000  1.0 0.1301423931
H  H14  1  0.33810000  0.64010000  0.89200000  1.0 0.1301423931
H  H15  1  0.35990000  0.66190000  0.60800000  1.0 0.1301423931
H  H16  1  0.64010000  0.33810000  0.10800000  1.0 0.1301423931
H  H17  1  0.67470000  0.02350000  0.32440000  1.0 0.1184963809
H  H18  1  0.32530000  0.97650000  0.82440000  1.0 0.1184963809
H  H19  1  0.02350000  0.67470000  0.67560000  1.0 0.1184963809
H  H20  1  0.97650000  0.32530000  0.17560000  1.0 0.1184963809
H  H21  1  0.66200000  0.61780000  0.85930000  1.0 0.1301423931
H  H22  1  0.33800000  0.38220000  0.35930000  1.0 0.1372855745
H  H23  1  0.61780000  0.66200000  0.14070000  1.0 0.1372855745
H  H24  1  0.38220000  0.33800000  0.64070000  1.0 0.1372855745
H  H25  1  0.66666667  0.95560000  0.92310000  1.0 0.1301423931
H  H26  1  0.33340000  0.04440000  0.42310000  1.0 0.1301423931
H  H27  1  0.95560000  0.66666667  0.07690000  1.0 0.1301423931
H  H28  1  0.04440000  0.33340000  0.57690000  1.0 0.1301423931
H  H29  1  0.62510000  0.87570000  0.69460000  1.0 0.1372855745
H  H30  1  0.37490000  0.12430000  0.19460000  1.0 0.1372855745
H  H31  1  0.87570000  0.62510000  0.30540000  1.0 0.1372855745
H  H32  1  0.12430000  0.37490000  0.80540000  1.0 0.1372855745
H  H33  1  0.62690000  0.73970000  0.01330000  1.0 0.1466468476
H  H34  1  0.37310000  0.26030000  0.51330000  1.0 0.1466468476
H  H35  1  0.73970000  0.62690000  0.98670000  1.0 0.1466468476
H  H36  1  0.26030000  0.37310000  0.48670000  1.0 0.1466468476
H  H37  1  0.74880000  0.82560000  0.99410000  1.0 0.1083855402
H  H38  1  0.25120000  0.17440000  0.49410000  1.0 0.1083855402
H  H39  1  0.82560000  0.74880000  0.00590000  1.0 0.1083855402
H  H40  1  0.17440000  0.25120000  0.50590000  1.0 0.1083855402
H  H41  1  0.94150000  0.51790000  0.87150000  1.0 0.2588011823
H  H42  1  0.03080000  0.56360000  0.81420000  1.0 0.2447369709
H  H43  1  0.90510000  0.69150000  0.78800000  1.0 0.1372855745
H  H44  1  0.00680000  0.76260000  0.84150000  1.0 0.1301423931
H  H45  1  0.88100000  0.71220000  0.87990000  1.0 0.1184963809
H  H46  1  0.14350000  0.64130000  0.91120000  1.0 0.1083855402
H  H47  1  0.09170000  0.52790000  0.95240000  1.0 0.1372855745
H  H48  1  0.04520000  0.64820000  0.96310000  1.0 0.1083855402
H  H49  1  0.05850000  0.48210000  0.37150000  1.0 0.2588011823
H  H50  1  0.96920000  0.43640000  0.31420000  1.0 0.2447369709
H  H51  1  0.09490000  0.30850000  0.28800000  1.0 0.1372855745
H  H52  1  0.99320000  0.23740000  0.34150000  1.0 0.1301423931
H  H53  1  0.11900000  0.28780000  0.37990000  1.0 0.1184963809
H  H54  1  0.85650000  0.35870000  0.41120000  1.0 0.1083855402
H  H55  1  0.90830000  0.47210000  0.45240000  1.0 0.1372855745
H  H56  1  0.95480000  0.35180000  0.46310000  1.0 0.1083855402
H  H57  1  0.51790000  0.94150000  0.12850000  1.0 0.2588011823
H  H58  1  0.56360000  0.03080000  0.18580000  1.0 0.2447369709
H  H59  1  0.69150000  0.90510000  0.21200000  1.0 0.1372855745
H  H60  1  0.76260000  0.00680000  0.15850000  1.0 0.1301423931
H  H61  1  0.71220000  0.88100000  0.12010000  1.0 0.1184963809
H  H62  1  0.64130000  0.14350000  0.08880000  1.0 0.1083855402
H  H63  1  0.52790000  0.09170000  0.04760000  1.0 0.1372855745
H  H64  1  0.64820000  0.04520000  0.03690000  1.0 0.1083855402
H  H65  1  0.48210000  0.05850000  0.62850000  1.0 0.2588011823
H  H66  1  0.43640000  0.96920000  0.68580000  1.0 0.2447369709
H  H67  1  0.30850000  0.09490000  0.71200000  1.0 0.1372855745
H  H68  1  0.23740000  0.99320000  0.65850000  1.0 0.1301423931
H  H69  1  0.28780000  0.11900000  0.62010000  1.0 0.1184963809
H  H70  1  0.35870000  0.85650000  0.58880000  1.0 0.1083855402
H  H71  1  0.47210000  0.90830000  0.54760000  1.0 0.1372855745
H  H72  1  0.35180000  0.95480000  0.53690000  1.0 0.1083855402
C  C1  1  0.69890000  0.23150000  0.26200000  1.0 -0.1811713673
C  C2  1  0.30110000  0.76850000  0.76200000  1.0 -0.1811713673
C  C3  1  0.23150000  0.69890000  0.73800000  1.0 -0.1811713673
C  C4  1  0.76850000  0.30110000  0.23800000  1.0 -0.1811713673
C  C5  1  0.67700000  0.91760000  0.46620000  1.0 0.5280592642
C  C6  1  0.32300000  0.08240000  0.96620000  1.0 0.5280592642
C  C7  1  0.91760000  0.67700000  0.53380000  1.0 0.5280592642
C  C8  1  0.08240000  0.32300000  0.03380000  1.0 0.5280592642
C  C9  1  0.63390000  0.35130000  0.54620000  1.0 0.637580385
C  C10  1  0.36610000  0.64870000  0.04620000  1.0 0.637580385
C  C11  1  0.35130000  0.63390000  0.45380000  1.0 0.637580385
C  C12  1  0.64870000  0.36610000  0.95380000  1.0 0.637580385
C  C13  1  0.66400000  0.04400000  0.44530000  1.0 -0.0324512407
C  C14  1  0.33600000  0.95600000  0.94530000  1.0 -0.0324512407
C  C15  1  0.04400000  0.66400000  0.55470000  1.0 -0.0324512407
C  C16  1  0.95600000  0.33600000  0.05470000  1.0 -0.0324512407
C  C17  1  0.64820000  0.13200000  0.50580000  1.0 -0.1072682314
C  C18  1  0.35180000  0.86800000  0.00580000  1.0 -0.1072682314
C  C19  1  0.13200000  0.64820000  0.49420000  1.0 -0.1072682314
C  C20  1  0.86800000  0.35180000  0.99420000  1.0 -0.1072682314
C  C21  1  0.64590000  0.25570000  0.48460000  1.0 -0.0481541877
C  C22  1  0.35410000  0.74430000  0.98460000  1.0 -0.0481541877
C  C23  1  0.25570000  0.64590000  0.51540000  1.0 -0.0481541877
C  C24  1  0.74430000  0.35410000  0.01540000  1.0 -0.0481541877
C  C25  1  0.66040000  0.28920000  0.40390000  1.0 -0.1581031796
C  C26  1  0.33960000  0.71080000  0.90390000  1.0 -0.1581031796
C  C27  1  0.28920000  0.66040000  0.59610000  1.0 -0.1581031796
C  C28  1  0.71080000  0.33960000  0.09610000  1.0 -0.1581031796
C  C29  1  0.67400000  0.20440000  0.34340000  1.0 0.0252910723
C  C30  1  0.32600000  0.79560000  0.84340000  1.0 0.0252910723
C  C31  1  0.20440000  0.67400000  0.65660000  1.0 0.0252910723
C  C32  1  0.79560000  0.32600000  0.15660000  1.0 0.0252910723
C  C33  1  0.67140000  0.08180000  0.36470000  1.0 -0.168274675
C  C34  1  0.32860000  0.91820000  0.86470000  1.0 -0.168274675
C  C35  1  0.08180000  0.67140000  0.63530000  1.0 -0.168274675
C  C36  1  0.91820000  0.32860000  0.13530000  1.0 -0.168274675
C  C37  1  0.63400000  0.63700000  0.70280000  1.0 0.6651906572
C  C38  1  0.36600000  0.36300000  0.20280000  1.0 0.6651906572
C  C39  1  0.63700000  0.63400000  0.29720000  1.0 0.6651906572
C  C40  1  0.36300000  0.36600000  0.79720000  1.0 0.6651906572
C  C41  1  0.66560000  0.07700000  0.78480000  1.0 0.5400663219
C  C42  1  0.33440000  0.92300000  0.28480000  1.0 0.5400663219
C  C43  1  0.07700000  0.66560000  0.21520000  1.0 0.5400663219
C  C44  1  0.92300000  0.33440000  0.71520000  1.0 0.5400663219
C  C45  1  0.64170000  0.73290000  0.76800000  1.0 -0.021500789
C  C46  1  0.35830000  0.26710000  0.26800000  1.0 -0.021500789
C  C47  1  0.73290000  0.64170000  0.23200000  1.0 -0.021500789
C  C48  1  0.26710000  0.35830000  0.73200000  1.0 -0.021500789
C  C49  1  0.65810000  0.69970000  0.84630000  1.0 -0.168274675
C  C50  1  0.34190000  0.30030000  0.34630000  1.0 -0.168274675
C  C51  1  0.69970000  0.65810000  0.15370000  1.0 -0.168274675
C  C52  1  0.30030000  0.34190000  0.65370000  1.0 -0.168274675
C  C53  1  0.66900000  0.78840000  0.90710000  1.0 0.0390558816
C  C54  1  0.33100000  0.21160000  0.40710000  1.0 0.0390558816
C  C55  1  0.78840000  0.66900000  0.09290000  1.0 0.0390558816
C  C56  1  0.21160000  0.33100000  0.59290000  1.0 0.0390558816
C  C57  1  0.66340000  0.90560000  0.88780000  1.0 -0.1581031796
C  C58  1  0.33660000  0.09440000  0.38780000  1.0 -0.1581031796
C  C59  1  0.90560000  0.66340000  0.11220000  1.0 -0.1581031796
C  C60  1  0.09440000  0.33660000  0.61220000  1.0 -0.1581031796
C  C61  1  0.65590000  0.94470000  0.80580000  1.0 -0.0131327132
C  C62  1  0.34410000  0.05530000  0.30580000  1.0 -0.0131327132
C  C63  1  0.94470000  0.65590000  0.19420000  1.0 -0.0131327132
C  C64  1  0.05530000  0.34410000  0.69420000  1.0 -0.0131327132
C  C65  1  0.63880000  0.85440000  0.74790000  1.0 -0.1296176057
C  C66  1  0.36120000  0.14560000  0.24790000  1.0 -0.1296176057
C  C67  1  0.85440000  0.63880000  0.25210000  1.0 -0.1296176057
C  C68  1  0.14560000  0.36120000  0.75210000  1.0 -0.1296176057
C  C69  1  0.70320000  0.76460000  0.98690000  1.0 -0.1811713673
C  C70  1  0.29680000  0.23540000  0.48690000  1.0 -0.1811713673
C  C71  1  0.76460000  0.70320000  0.01310000  1.0 -0.1811713673
C  C72  1  0.23540000  0.29680000  0.51310000  1.0 -0.1811713673
C  C73  1  0.94140000  0.69660000  0.84100000  1.0 -0.312062601
C  C74  1  0.07600000  0.60400000  0.92820000  1.0 -0.2649363376
C  C75  1  0.05860000  0.30340000  0.34100000  1.0 -0.312062601
C  C76  1  0.92400000  0.39600000  0.42820000  1.0 -0.2649363376
C  C77  1  0.69660000  0.94140000  0.15900000  1.0 -0.312062601
C  C78  1  0.60400000  0.07600000  0.07180000  1.0 -0.2649363376
C  C79  1  0.30340000  0.05860000  0.65900000  1.0 -0.312062601
C  C80  1  0.39600000  0.92400000  0.57180000  1.0 -0.2649363376
N  N1  1  0.99100000  0.58020000  0.85970000  1.0 -0.1296176057
N  N2  1  0.00900000  0.41980000  0.35970000  1.0 -0.1296176057
N  N3  1  0.58020000  0.99100000  0.14030000  1.0 -0.1296176057
N  N4  1  0.41980000  0.00900000  0.64030000  1.0 -0.1296176057
O  O1  1  0.64560000  0.87880000  0.53480000  1.0 -0.5678137191
O  O2  1  0.35440000  0.12120000  0.03480000  1.0 -0.5678137191
O  O3  1  0.87880000  0.64560000  0.46520000  1.0 -0.5678137191
O  O4  1  0.12120000  0.35440000  0.96520000  1.0 -0.5678137191
O  O5  1  0.70190000  0.84510000  0.41620000  1.0 -0.5173491783
O  O6  1  0.29810000  0.15490000  0.91620000  1.0 -0.5173491783
O  O7  1  0.84510000  0.70190000  0.58380000  1.0 -0.5173491783
O  O8  1  0.15490000  0.29810000  0.08380000  1.0 -0.5173491783
O  O9  1  0.60030000  0.31450000  0.61540000  1.0 -0.653106729
O  O10  1  0.39970000  0.68550000  0.11540000  1.0 -0.653106729
O  O11  1  0.31450000  0.60030000  0.38460000  1.0 -0.653106729
O  O12  1  0.68550000  0.39970000  0.88460000  1.0 -0.653106729
O  O13  1  0.65210000  0.45830000  0.52410000  1.0 -0.6432587006
O  O14  1  0.34790000  0.54170000  0.02410000  1.0 -0.6432587006
O  O15  1  0.45830000  0.65210000  0.47590000  1.0 -0.6432587006
O  O16  1  0.54170000  0.34790000  0.97590000  1.0 -0.6432587006
O  O17  1  0.66940000  0.53380000  0.72250000  1.0 -0.6982281603
O  O18  1  0.33060000  0.46620000  0.22250000  1.0 -0.6982281603
O  O19  1  0.53380000  0.66940000  0.27750000  1.0 -0.6982281603
O  O20  1  0.46620000  0.33060000  0.77750000  1.0 -0.6982281603
O  O21  1  0.59640000  0.66580000  0.63440000  1.0 -0.660113553
O  O22  1  0.40360000  0.33420000  0.13440000  1.0 -0.660113553
O  O23  1  0.66580000  0.59640000  0.36560000  1.0 -0.660113553
O  O24  1  0.33420000  0.40360000  0.86560000  1.0 -0.660113553
O  O25  1  0.60570000  0.11230000  0.72340000  1.0 -0.6432587006
O  O26  1  0.39430000  0.88770000  0.22340000  1.0 -0.6432587006
O  O27  1  0.11230000  0.60570000  0.27660000  1.0 -0.6432587006
O  O28  1  0.88770000  0.39430000  0.77660000  1.0 -0.6432587006
O  O29  1  0.71340000  0.15460000  0.83070000  1.0 -0.5678137191
O  O30  1  0.28660000  0.84540000  0.33070000  1.0 -0.5678137191
O  O31  1  0.15460000  0.71340000  0.16930000  1.0 -0.5678137191
O  O32  1  0.84540000  0.28660000  0.66930000  1.0 -0.5678137191
