# DDEC6 charges by PACMAN v1.1 (https://github.com/mtap-research/PACMAN-charge/)
data_HIFTUM_ASR_pacman
_symmetry_space_group_name_H-M   'P 1'
_cell_length_a   13.99850000
_cell_length_b   13.99850000
_cell_length_c   16.68800000
_cell_angle_alpha   80.95150000
_cell_angle_beta   99.04850000
_cell_angle_gamma   118.36500000
_symmetry_Int_Tables_number   1
_chemical_formula_structural   Fe2Ni3H52(C10N7)3
_chemical_formula_sum   'Fe4 Ni6 H104 C60 N42'
_cell_volume   2828.86846803
_cell_formula_units_Z   2
loop_
 _symmetry_equiv_pos_site_id
 _symmetry_equiv_pos_as_xyz
  1  'x, y, z'
loop_
 _atom_site_type_symbol
 _atom_site_label
 _atom_site_symmetry_multiplicity
 _atom_site_fract_x
 _atom_site_fract_y
 _atom_site_fract_z
 _atom_site_occupancy
 _atom_site_charge
Fe  Fe1  1  0.78031000  0.16089000  0.58160000  1.0 0.0099911533
Fe  Fe2  1  0.16089000  0.78031000  0.91840000  1.0 0.0099911533
Fe  Fe3  1  0.21969000  0.83911000  0.41840000  1.0 0.0099911533
Fe  Fe4  1  0.83911000  0.21969000  0.08160000  1.0 0.0099911533
Ni  Ni1  1  0.59122000  0.04634000  0.30657000  1.0 0.6766797457
Ni  Ni2  1  0.04634000  0.59122000  0.19343000  1.0 0.6766797457
Ni  Ni3  1  0.40878000  0.95366000  0.69343000  1.0 0.6766797457
Ni  Ni4  1  0.95366000  0.40878000  0.80657000  1.0 0.6766797457
Ni  Ni5  1  0.89291000  0.89291000  0.75000000  1.0 0.5607977811
Ni  Ni6  1  0.10709000  0.10709000  0.25000000  1.0 0.5607977811
H  H1  1  0.59100000  0.86480000  0.34760000  1.0 0.2890703044
H  H2  1  0.86480000  0.59100000  0.15240000  1.0 0.2890703044
H  H3  1  0.40900000  0.13520000  0.65240000  1.0 0.2890703044
H  H4  1  0.13520000  0.40900000  0.84760000  1.0 0.2890703044
H  H5  1  0.66810000  0.92250000  0.28530000  1.0 0.2792115845
H  H6  1  0.92250000  0.66810000  0.21470000  1.0 0.2792115845
H  H7  1  0.33190000  0.07750000  0.71470000  1.0 0.2792115845
H  H8  1  0.07750000  0.33190000  0.78530000  1.0 0.2792115845
H  H9  1  0.44750000  0.78230000  0.26050000  1.0 0.1098078563
H  H10  1  0.78230000  0.44750000  0.23950000  1.0 0.1098078563
H  H11  1  0.55250000  0.21770000  0.73950000  1.0 0.1098078563
H  H12  1  0.21770000  0.55250000  0.76050000  1.0 0.1098078563
H  H13  1  0.54120000  0.78280000  0.21940000  1.0 0.0916296621
H  H14  1  0.78280000  0.54120000  0.28060000  1.0 0.0916296621
H  H15  1  0.45880000  0.21720000  0.78060000  1.0 0.0916296621
H  H16  1  0.21720000  0.45880000  0.71940000  1.0 0.0916296621
H  H17  1  0.54510000  0.90550000  0.13540000  1.0 0.1475147013
H  H18  1  0.90550000  0.54510000  0.36460000  1.0 0.1475147013
H  H19  1  0.45490000  0.09450000  0.86460000  1.0 0.1475147013
H  H20  1  0.09450000  0.45490000  0.63540000  1.0 0.1475147013
H  H21  1  0.43130000  0.80090000  0.13740000  1.0 0.1356726889
H  H22  1  0.80090000  0.43130000  0.36260000  1.0 0.1356726889
H  H23  1  0.56870000  0.19910000  0.86260000  1.0 0.1356726889
H  H24  1  0.19910000  0.56870000  0.63740000  1.0 0.1356726889
H  H25  1  0.41080000  0.94700000  0.10200000  1.0 0.1182073595
H  H26  1  0.94700000  0.41080000  0.39800000  1.0 0.1182073595
H  H27  1  0.58920000  0.05300000  0.89800000  1.0 0.1182073595
H  H28  1  0.05300000  0.58920000  0.60200000  1.0 0.1182073595
H  H29  1  0.36080000  0.88920000  0.18530000  1.0 0.1098078563
H  H30  1  0.88920000  0.36080000  0.31470000  1.0 0.1098078563
H  H31  1  0.63920000  0.11080000  0.81470000  1.0 0.1098078563
H  H32  1  0.11080000  0.63920000  0.68530000  1.0 0.1098078563
H  H33  1  0.54400000  0.06460000  0.16080000  1.0 0.2346677039
H  H34  1  0.06460000  0.54400000  0.33920000  1.0 0.2346677039
H  H35  1  0.45600000  0.93540000  0.83920000  1.0 0.2346677039
H  H36  1  0.93540000  0.45600000  0.66080000  1.0 0.2346677039
H  H37  1  0.44880000  0.11620000  0.11670000  1.0 0.1098078563
H  H38  1  0.11620000  0.44880000  0.38330000  1.0 0.1098078563
H  H39  1  0.55120000  0.88380000  0.88330000  1.0 0.1098078563
H  H40  1  0.88380000  0.55120000  0.61670000  1.0 0.1098078563
H  H41  1  0.37240000  0.05900000  0.18680000  1.0 0.1098078563
H  H42  1  0.05900000  0.37240000  0.31320000  1.0 0.1098078563
H  H43  1  0.62760000  0.94100000  0.81320000  1.0 0.1098078563
H  H44  1  0.94100000  0.62760000  0.68680000  1.0 0.1098078563
H  H45  1  0.53330000  0.25190000  0.16500000  1.0 0.1283206944
H  H46  1  0.25190000  0.53330000  0.33500000  1.0 0.1283206944
H  H47  1  0.46670000  0.74810000  0.83500000  1.0 0.1283206944
H  H48  1  0.74810000  0.46670000  0.66500000  1.0 0.1283206944
H  H49  1  0.41750000  0.21110000  0.19250000  1.0 0.1098078563
H  H50  1  0.21110000  0.41750000  0.30750000  1.0 0.100853904
H  H51  1  0.58250000  0.78890000  0.80750000  1.0 0.100853904
H  H52  1  0.78890000  0.58250000  0.69250000  1.0 0.1098078563
H  H53  1  0.47700000  0.22560000  0.32270000  1.0 0.100853904
H  H54  1  0.22560000  0.47700000  0.17730000  1.0 0.100853904
H  H55  1  0.52300000  0.77440000  0.67730000  1.0 0.100853904
H  H56  1  0.77440000  0.52300000  0.82270000  1.0 0.100853904
H  H57  1  0.58030000  0.32030000  0.28220000  1.0 0.0739746313
H  H58  1  0.32030000  0.58030000  0.21780000  1.0 0.0739746313
H  H59  1  0.41970000  0.67970000  0.71780000  1.0 0.0739746313
H  H60  1  0.67970000  0.41970000  0.78220000  1.0 0.0739746313
H  H61  1  0.66930000  0.24270000  0.32300000  1.0 0.2792115845
H  H62  1  0.24270000  0.66930000  0.17700000  1.0 0.2792115845
H  H63  1  0.33070000  0.75730000  0.67700000  1.0 0.2792115845
H  H64  1  0.75730000  0.33070000  0.82300000  1.0 0.2792115845
H  H65  1  0.59010000  0.18390000  0.38240000  1.0 0.2792115845
H  H66  1  0.18390000  0.59010000  0.11760000  1.0 0.2890703044
H  H67  1  0.40990000  0.81610000  0.61760000  1.0 0.2890703044
H  H68  1  0.81610000  0.40990000  0.88240000  1.0 0.2890703044
H  H69  1  0.86920000  0.83520000  0.61050000  1.0 0.2656241734
H  H70  1  0.83520000  0.86920000  0.88950000  1.0 0.2656241734
H  H71  1  0.13080000  0.16480000  0.38950000  1.0 0.2656241734
H  H72  1  0.16480000  0.13080000  0.11050000  1.0 0.2656241734
H  H73  1  0.92090000  0.77730000  0.66510000  1.0 0.2480269079
H  H74  1  0.77730000  0.92090000  0.83490000  1.0 0.2480269079
H  H75  1  0.07910000  0.22270000  0.33490000  1.0 0.2447549109
H  H76  1  0.22270000  0.07910000  0.16510000  1.0 0.2447549109
H  H77  1  0.99420000  0.90680000  0.55460000  1.0 0.100853904
H  H78  1  0.90680000  0.99420000  0.94540000  1.0 0.100853904
H  H79  1  0.00580000  0.09320000  0.44540000  1.0 0.100853904
H  H80  1  0.09320000  0.00580000  0.05460000  1.0 0.100853904
H  H81  1  0.05500000  0.85840000  0.62180000  1.0 0.1098078563
H  H82  1  0.85840000  0.05500000  0.87820000  1.0 0.1098078563
H  H83  1  0.94500000  0.14160000  0.37820000  1.0 0.1098078563
H  H84  1  0.14160000  0.94500000  0.12180000  1.0 0.1098078563
H  H85  1  0.16130000  0.99850000  0.62820000  1.0 0.1283206944
H  H86  1  0.99850000  0.16130000  0.87180000  1.0 0.1283206944
H  H87  1  0.83870000  0.00150000  0.37180000  1.0 0.1283206944
H  H88  1  0.00150000  0.83870000  0.12820000  1.0 0.1283206944
H  H89  1  0.08830000  0.04650000  0.57610000  1.0 0.1182073595
H  H90  1  0.04650000  0.08830000  0.92390000  1.0 0.1182073595
H  H91  1  0.91170000  0.95350000  0.42390000  1.0 0.1182073595
H  H92  1  0.95350000  0.91170000  0.07610000  1.0 0.1182073595
H  H93  1  0.17990000  0.07710000  0.71640000  1.0 0.1098078563
H  H94  1  0.07710000  0.17990000  0.78360000  1.0 0.1098078563
H  H95  1  0.82010000  0.92290000  0.28360000  1.0 0.1098078563
H  H96  1  0.92290000  0.82010000  0.21640000  1.0 0.1098078563
H  H97  1  0.11810000  0.13490000  0.66030000  1.0 0.1182073595
H  H98  1  0.13490000  0.11810000  0.83970000  1.0 0.1182073595
H  H99  1  0.88190000  0.86510000  0.33970000  1.0 0.1182073595
H  H100  1  0.86510000  0.88190000  0.16030000  1.0 0.1182073595
H  H101  1  0.00470000  0.07530000  0.71750000  1.0 0.2480269079
H  H102  1  0.07530000  0.00470000  0.78250000  1.0 0.2480269079
H  H103  1  0.99530000  0.92470000  0.28250000  1.0 0.2480269079
H  H104  1  0.92470000  0.99530000  0.21750000  1.0 0.2480269079
C  C1  1  0.72800000  0.09820000  0.47820000  1.0 0.0739746313
C  C2  1  0.09820000  0.72800000  0.02180000  1.0 0.0739746313
C  C3  1  0.27200000  0.90180000  0.52180000  1.0 0.0739746313
C  C4  1  0.90180000  0.27200000  0.97820000  1.0 0.0739746313
C  C5  1  0.80130000  0.03970000  0.63530000  1.0 0.0457229861
C  C6  1  0.03970000  0.80130000  0.86470000  1.0 0.0457229861
C  C7  1  0.19870000  0.96030000  0.36470000  1.0 0.0457229861
C  C8  1  0.96030000  0.19870000  0.13530000  1.0 0.0457229861
C  C9  1  0.63260000  0.08520000  0.61250000  1.0 0.0916296621
C  C10  1  0.08520000  0.63260000  0.88750000  1.0 0.0916296621
C  C11  1  0.36740000  0.91480000  0.38750000  1.0 0.0916296621
C  C12  1  0.91480000  0.36740000  0.11250000  1.0 0.0916296621
C  C13  1  0.93100000  0.23360000  0.55520000  1.0 0.0003011566
C  C14  1  0.23360000  0.93100000  0.94480000  1.0 -0.001409482
C  C15  1  0.06900000  0.76640000  0.44480000  1.0 -0.001409482
C  C16  1  0.76640000  0.06900000  0.05520000  1.0 0.0003011566
C  C17  1  0.75510000  0.28410000  0.53500000  1.0 0.0099911533
C  C18  1  0.28410000  0.75510000  0.96500000  1.0 0.0099911533
C  C19  1  0.24490000  0.71590000  0.46500000  1.0 0.0099911533
C  C20  1  0.71590000  0.24490000  0.03500000  1.0 0.0099911533
C  C21  1  0.83160000  0.22840000  0.68240000  1.0 0.0408029067
C  C22  1  0.22840000  0.83160000  0.81760000  1.0 0.0408029067
C  C23  1  0.16840000  0.77160000  0.31760000  1.0 0.0408029067
C  C24  1  0.77160000  0.16840000  0.18240000  1.0 0.0408029067
C  C25  1  0.51300000  0.83000000  0.23250000  1.0 -0.0547668333
C  C26  1  0.83000000  0.51300000  0.26750000  1.0 -0.0547668333
C  C27  1  0.48700000  0.17000000  0.76750000  1.0 -0.0547668333
C  C28  1  0.17000000  0.48700000  0.73250000  1.0 -0.0547668333
C  C29  1  0.48130000  0.86490000  0.16650000  1.0 -0.2031037952
C  C30  1  0.86490000  0.48130000  0.33350000  1.0 -0.2031037952
C  C31  1  0.51870000  0.13510000  0.83350000  1.0 -0.2031037952
C  C32  1  0.13510000  0.51870000  0.66650000  1.0 -0.2031037952
C  C33  1  0.42940000  0.93120000  0.15990000  1.0 -0.1082681227
C  C34  1  0.93120000  0.42940000  0.34010000  1.0 -0.1082681227
C  C35  1  0.57060000  0.06880000  0.84010000  1.0 -0.1082681227
C  C36  1  0.06880000  0.57060000  0.65990000  1.0 -0.1082681227
C  C37  1  0.44920000  0.10140000  0.17610000  1.0 -0.0428611185
C  C38  1  0.10140000  0.44920000  0.32390000  1.0 -0.0428611185
C  C39  1  0.55080000  0.89860000  0.82390000  1.0 -0.0428611185
C  C40  1  0.89860000  0.55080000  0.67610000  1.0 -0.0428611185
C  C41  1  0.48240000  0.19960000  0.20320000  1.0 -0.2346949424
C  C42  1  0.19960000  0.48240000  0.29680000  1.0 -0.2346949424
C  C43  1  0.51760000  0.80040000  0.79680000  1.0 -0.2346949424
C  C44  1  0.80040000  0.51760000  0.70320000  1.0 -0.2346949424
C  C45  1  0.53470000  0.24110000  0.28880000  1.0 -0.001409482
C  C46  1  0.24110000  0.53470000  0.21120000  1.0 -0.001409482
C  C47  1  0.46530000  0.75890000  0.71120000  1.0 -0.001409482
C  C48  1  0.75890000  0.46530000  0.78880000  1.0 -0.001409482
C  C49  1  0.01720000  0.90340000  0.61310000  1.0 -0.0082828596
C  C50  1  0.90340000  0.01720000  0.88690000  1.0 -0.0082828596
C  C51  1  0.98280000  0.09660000  0.38690000  1.0 -0.0082828596
C  C52  1  0.09660000  0.98280000  0.11310000  1.0 -0.0082828596
C  C53  1  0.09230000  0.00150000  0.62640000  1.0 -0.2346949424
C  C54  1  0.00150000  0.09230000  0.87360000  1.0 -0.2346949424
C  C55  1  0.90770000  0.99850000  0.37360000  1.0 -0.2426481124
C  C56  1  0.99850000  0.90770000  0.12640000  1.0 -0.2346949424
C  C57  1  0.10870000  0.06410000  0.68780000  1.0 -0.0949404161
C  C58  1  0.06410000  0.10870000  0.81220000  1.0 -0.0949404161
C  C59  1  0.89130000  0.93590000  0.31220000  1.0 -0.095702007
C  C60  1  0.93590000  0.89130000  0.18780000  1.0 -0.095702007
N  N1  1  0.69100000  0.06380000  0.41670000  1.0 -0.4325427297
N  N2  1  0.06380000  0.69100000  0.08330000  1.0 -0.4325427297
N  N3  1  0.30900000  0.93620000  0.58330000  1.0 -0.4325427297
N  N4  1  0.93620000  0.30900000  0.91670000  1.0 -0.4325427297
N  N5  1  0.81850000  0.97190000  0.67200000  1.0 -0.4587421532
N  N6  1  0.97190000  0.81850000  0.82800000  1.0 -0.4587421532
N  N7  1  0.18150000  0.02810000  0.32800000  1.0 -0.4587421532
N  N8  1  0.02810000  0.18150000  0.17200000  1.0 -0.4587421532
N  N9  1  0.54750000  0.03930000  0.63320000  1.0 -0.3936149325
N  N10  1  0.03930000  0.54750000  0.86680000  1.0 -0.3936149325
N  N11  1  0.45250000  0.96070000  0.36680000  1.0 -0.3936149325
N  N12  1  0.96070000  0.45250000  0.13320000  1.0 -0.3936149325
N  N13  1  0.02050000  0.27490000  0.54310000  1.0 -0.4501084681
N  N14  1  0.27490000  0.02050000  0.95690000  1.0 -0.4501084681
N  N15  1  0.97950000  0.72510000  0.45690000  1.0 -0.4587421532
N  N16  1  0.72510000  0.97950000  0.04310000  1.0 -0.4501084681
N  N17  1  0.73310000  0.35190000  0.50970000  1.0 -0.4382548864
N  N18  1  0.35190000  0.73310000  0.99030000  1.0 -0.4382548864
N  N19  1  0.26690000  0.64810000  0.49030000  1.0 -0.4382548864
N  N20  1  0.64810000  0.26690000  0.00970000  1.0 -0.4382548864
N  N21  1  0.86630000  0.27410000  0.73970000  1.0 -0.4325427297
N  N22  1  0.27410000  0.86630000  0.76030000  1.0 -0.4325427297
N  N23  1  0.13370000  0.72590000  0.26030000  1.0 -0.4325427297
N  N24  1  0.72590000  0.13370000  0.23970000  1.0 -0.4325427297
N  N25  1  0.60020000  0.90420000  0.29800000  1.0 -0.5042315568
N  N26  1  0.90420000  0.60020000  0.20200000  1.0 -0.5042315568
N  N27  1  0.39980000  0.09580000  0.70200000  1.0 -0.5042315568
N  N28  1  0.09580000  0.39980000  0.79800000  1.0 -0.5042315568
N  N29  1  0.48960000  0.03200000  0.19540000  1.0 -0.2426481124
N  N30  1  0.03200000  0.48960000  0.30460000  1.0 -0.2426481124
N  N31  1  0.51040000  0.96800000  0.80460000  1.0 -0.2426481124
N  N32  1  0.96800000  0.51040000  0.69540000  1.0 -0.2426481124
N  N33  1  0.59900000  0.19160000  0.32860000  1.0 -0.4732609163
N  N34  1  0.19160000  0.59900000  0.17140000  1.0 -0.4732609163
N  N35  1  0.40100000  0.80840000  0.67140000  1.0 -0.4732609163
N  N36  1  0.80840000  0.40100000  0.82860000  1.0 -0.4732609163
N  N37  1  0.92530000  0.84450000  0.64960000  1.0 -0.4501084681
N  N38  1  0.84450000  0.92530000  0.85040000  1.0 -0.4501084681
N  N39  1  0.07470000  0.15550000  0.35040000  1.0 -0.4501084681
N  N40  1  0.15550000  0.07470000  0.14960000  1.0 -0.4382548864
N  N41  1  0.04000000  0.04000000  0.75000000  1.0 -0.2454903121
N  N42  1  0.96000000  0.96000000  0.25000000  1.0 -0.2454903121
