# DDEC6 charges by PACMAN v1.1 (https://github.com/mtap-research/PACMAN-charge/)
data_HIFVOI_ASR_pacman
_symmetry_space_group_name_H-M   'P 1'
_cell_length_a   19.07300000
_cell_length_b   19.07300000
_cell_length_c   17.05800000
_cell_angle_alpha   90.00000000
_cell_angle_beta   90.00000000
_cell_angle_gamma   90.00000000
_symmetry_Int_Tables_number   1
_chemical_formula_structural   ZnH10(C5N2)2
_chemical_formula_sum   'Zn16 H160 C160 N64'
_cell_volume   6205.34779408
_cell_formula_units_Z   16
loop_
 _symmetry_equiv_pos_site_id
 _symmetry_equiv_pos_as_xyz
  1  'x, y, z'
loop_
 _atom_site_type_symbol
 _atom_site_label
 _atom_site_symmetry_multiplicity
 _atom_site_fract_x
 _atom_site_fract_y
 _atom_site_fract_z
 _atom_site_occupancy
 _atom_site_charge
Zn  Zn1  1  0.66509000  0.11388000  0.17642000  1.0 0.5541082412
Zn  Zn2  1  0.61388000  0.83491000  0.67642000  1.0 0.5541082412
Zn  Zn3  1  0.38612000  0.16509000  0.67642000  1.0 0.5541082412
Zn  Zn4  1  0.11388000  0.66509000  0.82358000  1.0 0.5541082412
Zn  Zn5  1  0.33491000  0.88612000  0.17642000  1.0 0.5541082412
Zn  Zn6  1  0.16509000  0.38612000  0.32358000  1.0 0.5541082412
Zn  Zn7  1  0.83491000  0.61388000  0.32358000  1.0 0.5541082412
Zn  Zn8  1  0.88612000  0.33491000  0.82358000  1.0 0.5541082412
Zn  Zn9  1  0.33491000  0.88612000  0.82358000  1.0 0.5541082412
Zn  Zn10  1  0.38612000  0.16509000  0.32358000  1.0 0.5541082412
Zn  Zn11  1  0.61388000  0.83491000  0.32358000  1.0 0.5541082412
Zn  Zn12  1  0.88612000  0.33491000  0.17642000  1.0 0.5541082412
Zn  Zn13  1  0.66509000  0.11388000  0.82358000  1.0 0.5541082412
Zn  Zn14  1  0.83491000  0.61388000  0.67642000  1.0 0.5541082412
Zn  Zn15  1  0.16509000  0.38612000  0.67642000  1.0 0.5541082412
Zn  Zn16  1  0.11388000  0.66509000  0.17642000  1.0 0.5541082412
H  H1  1  0.69690000  0.06810000  0.00000000  1.0 0.0888923413
H  H2  1  0.56810000  0.80310000  0.50000000  1.0 0.0888923413
H  H3  1  0.43190000  0.19690000  0.50000000  1.0 0.0888923413
H  H4  1  0.06810000  0.69690000  0.00000000  1.0 0.0888923413
H  H5  1  0.30310000  0.93190000  0.00000000  1.0 0.0888923413
H  H6  1  0.19690000  0.43190000  0.50000000  1.0 0.0888923413
H  H7  1  0.80310000  0.56810000  0.50000000  1.0 0.0888923413
H  H8  1  0.93190000  0.30310000  0.00000000  1.0 0.0888923413
H  H9  1  0.75570000  0.24430000  0.12680000  1.0 0.1013706155
H  H10  1  0.74430000  0.74430000  0.62680000  1.0 0.1013706155
H  H11  1  0.25570000  0.25570000  0.62680000  1.0 0.1013706155
H  H12  1  0.24430000  0.75570000  0.87320000  1.0 0.1013706155
H  H13  1  0.24430000  0.75570000  0.12680000  1.0 0.1013706155
H  H14  1  0.25570000  0.25570000  0.37320000  1.0 0.1013706155
H  H15  1  0.74430000  0.74430000  0.37320000  1.0 0.1013706155
H  H16  1  0.75570000  0.24430000  0.87320000  1.0 0.1013706155
H  H17  1  0.59370000  0.22970000  0.07140000  1.0 0.0456168853
H  H18  1  0.72970000  0.90630000  0.57140000  1.0 0.0456168853
H  H19  1  0.27030000  0.09370000  0.57140000  1.0 0.0456168853
H  H20  1  0.22970000  0.59370000  0.92860000  1.0 0.0456168853
H  H21  1  0.40630000  0.77030000  0.07140000  1.0 0.0456168853
H  H22  1  0.09370000  0.27030000  0.42860000  1.0 0.0456168853
H  H23  1  0.90630000  0.72970000  0.42860000  1.0 0.0456168853
H  H24  1  0.77030000  0.40630000  0.92860000  1.0 0.0456168853
H  H25  1  0.40630000  0.77030000  0.92860000  1.0 0.0456168853
H  H26  1  0.27030000  0.09370000  0.42860000  1.0 0.0456168853
H  H27  1  0.72970000  0.90630000  0.42860000  1.0 0.0456168853
H  H28  1  0.77030000  0.40630000  0.07140000  1.0 0.0456168853
H  H29  1  0.59370000  0.22970000  0.92860000  1.0 0.0456168853
H  H30  1  0.90630000  0.72970000  0.57140000  1.0 0.0456168853
H  H31  1  0.09370000  0.27030000  0.57140000  1.0 0.0456168853
H  H32  1  0.22970000  0.59370000  0.07140000  1.0 0.0456168853
H  H33  1  0.78490000  0.12430000  0.30860000  1.0 0.0422586554
H  H34  1  0.62430000  0.71510000  0.80860000  1.0 0.0422586554
H  H35  1  0.37570000  0.28490000  0.80860000  1.0 0.0422586554
H  H36  1  0.12430000  0.78490000  0.69140000  1.0 0.0422586554
H  H37  1  0.21510000  0.87570000  0.30860000  1.0 0.0422586554
H  H38  1  0.28490000  0.37570000  0.19140000  1.0 0.0422586554
H  H39  1  0.71510000  0.62430000  0.19140000  1.0 0.0422586554
H  H40  1  0.87570000  0.21510000  0.69140000  1.0 0.0422586554
H  H41  1  0.21510000  0.87570000  0.69140000  1.0 0.0422586554
H  H42  1  0.37570000  0.28490000  0.19140000  1.0 0.0422586554
H  H43  1  0.62430000  0.71510000  0.19140000  1.0 0.0422586554
H  H44  1  0.87570000  0.21510000  0.30860000  1.0 0.0422586554
H  H45  1  0.78490000  0.12430000  0.69140000  1.0 0.0422586554
H  H46  1  0.71510000  0.62430000  0.80860000  1.0 0.0422586554
H  H47  1  0.28490000  0.37570000  0.80860000  1.0 0.0422586554
H  H48  1  0.12430000  0.78490000  0.30860000  1.0 0.0422586554
H  H49  1  0.76220000  0.97730000  0.14310000  1.0 0.0422586554
H  H50  1  0.47730000  0.73780000  0.64310000  1.0 0.0422586554
H  H51  1  0.52270000  0.26220000  0.64310000  1.0 0.0422586554
H  H52  1  0.97730000  0.76220000  0.85690000  1.0 0.0422586554
H  H53  1  0.23780000  0.02270000  0.14310000  1.0 0.0422586554
H  H54  1  0.26220000  0.52270000  0.35690000  1.0 0.0422586554
H  H55  1  0.73780000  0.47730000  0.35690000  1.0 0.0422586554
H  H56  1  0.02270000  0.23780000  0.85690000  1.0 0.0422586554
H  H57  1  0.23780000  0.02270000  0.85690000  1.0 0.0422586554
H  H58  1  0.52270000  0.26220000  0.35690000  1.0 0.0422586554
H  H59  1  0.47730000  0.73780000  0.35690000  1.0 0.0422586554
H  H60  1  0.02270000  0.23780000  0.14310000  1.0 0.0422586554
H  H61  1  0.76220000  0.97730000  0.85690000  1.0 0.0422586554
H  H62  1  0.73780000  0.47730000  0.64310000  1.0 0.0422586554
H  H63  1  0.26220000  0.52270000  0.64310000  1.0 0.0422586554
H  H64  1  0.97730000  0.76220000  0.14310000  1.0 0.0422586554
H  H65  1  0.63410000  0.24480000  0.28850000  1.0 0.0422586554
H  H66  1  0.74480000  0.86590000  0.78850000  1.0 0.0422586554
H  H67  1  0.25520000  0.13410000  0.78850000  1.0 0.0422586554
H  H68  1  0.24480000  0.63410000  0.71150000  1.0 0.0422586554
H  H69  1  0.36590000  0.75520000  0.28850000  1.0 0.0422586554
H  H70  1  0.13410000  0.25520000  0.21150000  1.0 0.0422586554
H  H71  1  0.86590000  0.74480000  0.21150000  1.0 0.0422586554
H  H72  1  0.75520000  0.36590000  0.71150000  1.0 0.0422586554
H  H73  1  0.36590000  0.75520000  0.71150000  1.0 0.0422586554
H  H74  1  0.25520000  0.13410000  0.21150000  1.0 0.0422586554
H  H75  1  0.74480000  0.86590000  0.21150000  1.0 0.0422586554
H  H76  1  0.75520000  0.36590000  0.28850000  1.0 0.0422586554
H  H77  1  0.63410000  0.24480000  0.71150000  1.0 0.0422586554
H  H78  1  0.86590000  0.74480000  0.78850000  1.0 0.0422586554
H  H79  1  0.13410000  0.25520000  0.78850000  1.0 0.0422586554
H  H80  1  0.24480000  0.63410000  0.28850000  1.0 0.0422586554
H  H81  1  0.60280000  0.99710000  0.28190000  1.0 0.1013706155
H  H82  1  0.49710000  0.89720000  0.78190000  1.0 0.1013706155
H  H83  1  0.50290000  0.10280000  0.78190000  1.0 0.1013706155
H  H84  1  0.99710000  0.60280000  0.71810000  1.0 0.1013706155
H  H85  1  0.39720000  0.00290000  0.28190000  1.0 0.1013706155
H  H86  1  0.10280000  0.50290000  0.21810000  1.0 0.1013706155
H  H87  1  0.89720000  0.49710000  0.21810000  1.0 0.1013706155
H  H88  1  0.00290000  0.39720000  0.71810000  1.0 0.1013706155
H  H89  1  0.39720000  0.00290000  0.71810000  1.0 0.1013706155
H  H90  1  0.50290000  0.10280000  0.21810000  1.0 0.1013706155
H  H91  1  0.49710000  0.89720000  0.21810000  1.0 0.1013706155
H  H92  1  0.00290000  0.39720000  0.28190000  1.0 0.1013706155
H  H93  1  0.60280000  0.99710000  0.71810000  1.0 0.1013706155
H  H94  1  0.89720000  0.49710000  0.78190000  1.0 0.1013706155
H  H95  1  0.10280000  0.50290000  0.78190000  1.0 0.1013706155
H  H96  1  0.99710000  0.60280000  0.28190000  1.0 0.1013706155
H  H97  1  0.55240000  0.19610000  0.07200000  1.0 0.0422586554
H  H98  1  0.69610000  0.94760000  0.57200000  1.0 0.0422586554
H  H99  1  0.30390000  0.05240000  0.57200000  1.0 0.0422586554
H  H100  1  0.19610000  0.55240000  0.92800000  1.0 0.0422586554
H  H101  1  0.44760000  0.80390000  0.07200000  1.0 0.0422586554
H  H102  1  0.05240000  0.30390000  0.42800000  1.0 0.0422586554
H  H103  1  0.94760000  0.69610000  0.42800000  1.0 0.0422586554
H  H104  1  0.80390000  0.44760000  0.92800000  1.0 0.0422586554
H  H105  1  0.44760000  0.80390000  0.92800000  1.0 0.0422586554
H  H106  1  0.30390000  0.05240000  0.42800000  1.0 0.0422586554
H  H107  1  0.69610000  0.94760000  0.42800000  1.0 0.0422586554
H  H108  1  0.80390000  0.44760000  0.07200000  1.0 0.0422586554
H  H109  1  0.55240000  0.19610000  0.92800000  1.0 0.0422586554
H  H110  1  0.94760000  0.69610000  0.57200000  1.0 0.0422586554
H  H111  1  0.05240000  0.30390000  0.57200000  1.0 0.0422586554
H  H112  1  0.19610000  0.55240000  0.07200000  1.0 0.0422586554
H  H113  1  0.81300000  0.09600000  0.26900000  1.0 0.0422586554
H  H114  1  0.59600000  0.68700000  0.76900000  1.0 0.0456168853
H  H115  1  0.40400000  0.31300000  0.76900000  1.0 0.0456168853
H  H116  1  0.09600000  0.81300000  0.73100000  1.0 0.0422586554
H  H117  1  0.18700000  0.90400000  0.26900000  1.0 0.0422586554
H  H118  1  0.31300000  0.40400000  0.23100000  1.0 0.0422586554
H  H119  1  0.68700000  0.59600000  0.23100000  1.0 0.0456168853
H  H120  1  0.90400000  0.18700000  0.73100000  1.0 0.0422586554
H  H121  1  0.18700000  0.90400000  0.73100000  1.0 0.0422586554
H  H122  1  0.40400000  0.31300000  0.23100000  1.0 0.0456168853
H  H123  1  0.59600000  0.68700000  0.23100000  1.0 0.0422586554
H  H124  1  0.90400000  0.18700000  0.26900000  1.0 0.0422586554
H  H125  1  0.81300000  0.09600000  0.73100000  1.0 0.0422586554
H  H126  1  0.68700000  0.59600000  0.76900000  1.0 0.0456168853
H  H127  1  0.31300000  0.40400000  0.76900000  1.0 0.0456168853
H  H128  1  0.09600000  0.81300000  0.26900000  1.0 0.0422586554
H  H129  1  0.72190000  0.96800000  0.10310000  1.0 0.0422586554
H  H130  1  0.46800000  0.77810000  0.60310000  1.0 0.0422586554
H  H131  1  0.53200000  0.22190000  0.60310000  1.0 0.0422586554
H  H132  1  0.96800000  0.72190000  0.89690000  1.0 0.0422586554
H  H133  1  0.27810000  0.03200000  0.10310000  1.0 0.0422586554
H  H134  1  0.22190000  0.53200000  0.39690000  1.0 0.0422586554
H  H135  1  0.77810000  0.46800000  0.39690000  1.0 0.0422586554
H  H136  1  0.03200000  0.27810000  0.89690000  1.0 0.0422586554
H  H137  1  0.27810000  0.03200000  0.89690000  1.0 0.0422586554
H  H138  1  0.53200000  0.22190000  0.39690000  1.0 0.0422586554
H  H139  1  0.46800000  0.77810000  0.39690000  1.0 0.0422586554
H  H140  1  0.03200000  0.27810000  0.10310000  1.0 0.0422586554
H  H141  1  0.72190000  0.96800000  0.89690000  1.0 0.0422586554
H  H142  1  0.77810000  0.46800000  0.60310000  1.0 0.0422586554
H  H143  1  0.22190000  0.53200000  0.60310000  1.0 0.0422586554
H  H144  1  0.96800000  0.72190000  0.10310000  1.0 0.0422586554
H  H145  1  0.70540000  0.85480000  0.16750000  1.0 0.0422586554
H  H146  1  0.35480000  0.79460000  0.66750000  1.0 0.0422586554
H  H147  1  0.64520000  0.20540000  0.66750000  1.0 0.0422586554
H  H148  1  0.85480000  0.70540000  0.83250000  1.0 0.0422586554
H  H149  1  0.29460000  0.14520000  0.16750000  1.0 0.0422586554
H  H150  1  0.20540000  0.64520000  0.33250000  1.0 0.0422586554
H  H151  1  0.79460000  0.35480000  0.33250000  1.0 0.0422586554
H  H152  1  0.14520000  0.29460000  0.83250000  1.0 0.0422586554
H  H153  1  0.29460000  0.14520000  0.83250000  1.0 0.0422586554
H  H154  1  0.64520000  0.20540000  0.33250000  1.0 0.0422586554
H  H155  1  0.35480000  0.79460000  0.33250000  1.0 0.0422586554
H  H156  1  0.14520000  0.29460000  0.16750000  1.0 0.0422586554
H  H157  1  0.70540000  0.85480000  0.83250000  1.0 0.0422586554
H  H158  1  0.79460000  0.35480000  0.66750000  1.0 0.0422586554
H  H159  1  0.20540000  0.64520000  0.66750000  1.0 0.0422586554
H  H160  1  0.85480000  0.70540000  0.16750000  1.0 0.0422586554
C  C1  1  0.66550000  0.10540000  0.00000000  1.0 -0.0640715201
C  C2  1  0.60540000  0.83450000  0.50000000  1.0 -0.0640715201
C  C3  1  0.39460000  0.16550000  0.50000000  1.0 -0.0640715201
C  C4  1  0.10540000  0.66550000  0.00000000  1.0 -0.0640715201
C  C5  1  0.33450000  0.89460000  0.00000000  1.0 -0.0640715201
C  C6  1  0.16550000  0.39460000  0.50000000  1.0 -0.0640715201
C  C7  1  0.83450000  0.60540000  0.50000000  1.0 -0.0640715201
C  C8  1  0.89460000  0.33450000  0.00000000  1.0 -0.0640715201
C  C9  1  0.77790000  0.22210000  0.16850000  1.0 -0.0926205333
C  C10  1  0.72210000  0.72210000  0.66850000  1.0 -0.0926205333
C  C11  1  0.27790000  0.27790000  0.66850000  1.0 -0.0926205333
C  C12  1  0.22210000  0.77790000  0.83150000  1.0 -0.0926205333
C  C13  1  0.22210000  0.77790000  0.16850000  1.0 -0.0926205333
C  C14  1  0.27790000  0.27790000  0.33150000  1.0 -0.0926205333
C  C15  1  0.72210000  0.72210000  0.33150000  1.0 -0.0926205333
C  C16  1  0.77790000  0.22210000  0.83150000  1.0 -0.0926205333
C  C17  1  0.61140000  0.19420000  0.03980000  1.0 0.0038644898
C  C18  1  0.69420000  0.88860000  0.53980000  1.0 0.0038644898
C  C19  1  0.30580000  0.11140000  0.53980000  1.0 0.0038644898
C  C20  1  0.19420000  0.61140000  0.96020000  1.0 0.0038644898
C  C21  1  0.38860000  0.80580000  0.03980000  1.0 0.0038644898
C  C22  1  0.11140000  0.30580000  0.46020000  1.0 0.0038644898
C  C23  1  0.88860000  0.69420000  0.46020000  1.0 0.0038644898
C  C24  1  0.80580000  0.38860000  0.96020000  1.0 0.0038644898
C  C25  1  0.38860000  0.80580000  0.96020000  1.0 0.0038644898
C  C26  1  0.30580000  0.11140000  0.46020000  1.0 0.0038644898
C  C27  1  0.69420000  0.88860000  0.46020000  1.0 0.0038644898
C  C28  1  0.80580000  0.38860000  0.03980000  1.0 0.0038644898
C  C29  1  0.61140000  0.19420000  0.96020000  1.0 0.0038644898
C  C30  1  0.88860000  0.69420000  0.53980000  1.0 0.0038644898
C  C31  1  0.11140000  0.30580000  0.53980000  1.0 0.0038644898
C  C32  1  0.19420000  0.61140000  0.03980000  1.0 0.0038644898
C  C33  1  0.79220000  0.15730000  0.26930000  1.0 -0.0043757208
C  C34  1  0.65730000  0.70780000  0.76930000  1.0 -0.0043757208
C  C35  1  0.34270000  0.29220000  0.76930000  1.0 -0.0043757208
C  C36  1  0.15730000  0.79220000  0.73070000  1.0 -0.0043757208
C  C37  1  0.20780000  0.84270000  0.26930000  1.0 -0.0043757208
C  C38  1  0.29220000  0.34270000  0.23070000  1.0 -0.0043757208
C  C39  1  0.70780000  0.65730000  0.23070000  1.0 -0.0043757208
C  C40  1  0.84270000  0.20780000  0.73070000  1.0 -0.0043757208
C  C41  1  0.20780000  0.84270000  0.73070000  1.0 -0.0043757208
C  C42  1  0.34270000  0.29220000  0.23070000  1.0 -0.0043757208
C  C43  1  0.65730000  0.70780000  0.23070000  1.0 -0.0043757208
C  C44  1  0.84270000  0.20780000  0.26930000  1.0 -0.0043757208
C  C45  1  0.79220000  0.15730000  0.73070000  1.0 -0.0043757208
C  C46  1  0.70780000  0.65730000  0.76930000  1.0 -0.0043757208
C  C47  1  0.29220000  0.34270000  0.76930000  1.0 -0.0043757208
C  C48  1  0.15730000  0.79220000  0.26930000  1.0 -0.0043757208
C  C49  1  0.72580000  0.96730000  0.17770000  1.0 0.0102163117
C  C50  1  0.46730000  0.77420000  0.67770000  1.0 0.0102163117
C  C51  1  0.53270000  0.22580000  0.67770000  1.0 0.0102163117
C  C52  1  0.96730000  0.72580000  0.82230000  1.0 0.0102163117
C  C53  1  0.27420000  0.03270000  0.17770000  1.0 0.0102163117
C  C54  1  0.22580000  0.53270000  0.32230000  1.0 0.0038644898
C  C55  1  0.77420000  0.46730000  0.32230000  1.0 0.0102163117
C  C56  1  0.03270000  0.27420000  0.82230000  1.0 0.0102163117
C  C57  1  0.27420000  0.03270000  0.82230000  1.0 0.0102163117
C  C58  1  0.53270000  0.22580000  0.32230000  1.0 0.0102163117
C  C59  1  0.46730000  0.77420000  0.32230000  1.0 0.0102163117
C  C60  1  0.03270000  0.27420000  0.17770000  1.0 0.0102163117
C  C61  1  0.72580000  0.96730000  0.82230000  1.0 0.0102163117
C  C62  1  0.77420000  0.46730000  0.67770000  1.0 0.0102163117
C  C63  1  0.22580000  0.53270000  0.67770000  1.0 0.0102163117
C  C64  1  0.96730000  0.72580000  0.17770000  1.0 0.0102163117
C  C65  1  0.59530000  0.21540000  0.28600000  1.0 -0.0067266779
C  C66  1  0.71540000  0.90470000  0.78600000  1.0 -0.0067266779
C  C67  1  0.28460000  0.09530000  0.78600000  1.0 -0.0067266779
C  C68  1  0.21540000  0.59530000  0.71400000  1.0 -0.0067266779
C  C69  1  0.40470000  0.78460000  0.28600000  1.0 -0.0067266779
C  C70  1  0.09530000  0.28460000  0.21400000  1.0 -0.0067266779
C  C71  1  0.90470000  0.71540000  0.21400000  1.0 -0.0067266779
C  C72  1  0.78460000  0.40470000  0.71400000  1.0 -0.0067266779
C  C73  1  0.40470000  0.78460000  0.71400000  1.0 -0.0067266779
C  C74  1  0.28460000  0.09530000  0.21400000  1.0 -0.0067266779
C  C75  1  0.71540000  0.90470000  0.21400000  1.0 -0.0067266779
C  C76  1  0.78460000  0.40470000  0.28600000  1.0 -0.0067266779
C  C77  1  0.59530000  0.21540000  0.71400000  1.0 -0.0067266779
C  C78  1  0.90470000  0.71540000  0.78600000  1.0 -0.0067266779
C  C79  1  0.09530000  0.28460000  0.78600000  1.0 -0.0067266779
C  C80  1  0.21540000  0.59530000  0.28600000  1.0 -0.0067266779
C  C81  1  0.63760000  0.97690000  0.25110000  1.0 -0.0654302746
C  C82  1  0.47690000  0.86240000  0.75110000  1.0 -0.0640715201
C  C83  1  0.52310000  0.13760000  0.75110000  1.0 -0.0640715201
C  C84  1  0.97690000  0.63760000  0.74890000  1.0 -0.0640715201
C  C85  1  0.36240000  0.02310000  0.25110000  1.0 -0.0640715201
C  C86  1  0.13760000  0.52310000  0.24890000  1.0 -0.0640715201
C  C87  1  0.86240000  0.47690000  0.24890000  1.0 -0.0640715201
C  C88  1  0.02310000  0.36240000  0.74890000  1.0 -0.0640715201
C  C89  1  0.36240000  0.02310000  0.74890000  1.0 -0.0640715201
C  C90  1  0.52310000  0.13760000  0.24890000  1.0 -0.0640715201
C  C91  1  0.47690000  0.86240000  0.24890000  1.0 -0.0640715201
C  C92  1  0.02310000  0.36240000  0.25110000  1.0 -0.0654302746
C  C93  1  0.63760000  0.97690000  0.74890000  1.0 -0.0640715201
C  C94  1  0.86240000  0.47690000  0.75110000  1.0 -0.0640715201
C  C95  1  0.13760000  0.52310000  0.75110000  1.0 -0.0640715201
C  C96  1  0.97690000  0.63760000  0.25110000  1.0 -0.0640715201
C  C97  1  0.58490000  0.17350000  0.04010000  1.0 0.0102163117
C  C98  1  0.67350000  0.91510000  0.54010000  1.0 0.0102163117
C  C99  1  0.32650000  0.08490000  0.54010000  1.0 0.0102163117
C  C100  1  0.17350000  0.58490000  0.95990000  1.0 0.0102163117
C  C101  1  0.41510000  0.82650000  0.04010000  1.0 0.0102163117
C  C102  1  0.08490000  0.32650000  0.45990000  1.0 0.0102163117
C  C103  1  0.91510000  0.67350000  0.45990000  1.0 0.0102163117
C  C104  1  0.82650000  0.41510000  0.95990000  1.0 0.0102163117
C  C105  1  0.41510000  0.82650000  0.95990000  1.0 0.0102163117
C  C106  1  0.32650000  0.08490000  0.45990000  1.0 0.0102163117
C  C107  1  0.67350000  0.91510000  0.45990000  1.0 0.0102163117
C  C108  1  0.82650000  0.41510000  0.04010000  1.0 0.0102163117
C  C109  1  0.58490000  0.17350000  0.95990000  1.0 0.0102163117
C  C110  1  0.91510000  0.67350000  0.54010000  1.0 0.0102163117
C  C111  1  0.08490000  0.32650000  0.54010000  1.0 0.0102163117
C  C112  1  0.17350000  0.58490000  0.04010000  1.0 0.0102163117
C  C113  1  0.81000000  0.13940000  0.24420000  1.0 0.0102163117
C  C114  1  0.63940000  0.69000000  0.74420000  1.0 0.0102163117
C  C115  1  0.36060000  0.31000000  0.74420000  1.0 0.0102163117
C  C116  1  0.13940000  0.81000000  0.75580000  1.0 0.0102163117
C  C117  1  0.19000000  0.86060000  0.24420000  1.0 0.0102163117
C  C118  1  0.31000000  0.36060000  0.25580000  1.0 0.0102163117
C  C119  1  0.69000000  0.63940000  0.25580000  1.0 0.0102163117
C  C120  1  0.86060000  0.19000000  0.75580000  1.0 0.0102163117
C  C121  1  0.19000000  0.86060000  0.75580000  1.0 0.0102163117
C  C122  1  0.36060000  0.31000000  0.25580000  1.0 0.0102163117
C  C123  1  0.63940000  0.69000000  0.25580000  1.0 0.0102163117
C  C124  1  0.86060000  0.19000000  0.24420000  1.0 0.0102163117
C  C125  1  0.81000000  0.13940000  0.75580000  1.0 0.0102163117
C  C126  1  0.69000000  0.63940000  0.74420000  1.0 0.0102163117
C  C127  1  0.31000000  0.36060000  0.74420000  1.0 0.0102163117
C  C128  1  0.13940000  0.81000000  0.24420000  1.0 0.0102163117
C  C129  1  0.70080000  0.96100000  0.15160000  1.0 0.0102163117
C  C130  1  0.46100000  0.79920000  0.65160000  1.0 0.0102163117
C  C131  1  0.53900000  0.20080000  0.65160000  1.0 0.0102163117
C  C132  1  0.96100000  0.70080000  0.84840000  1.0 0.0102163117
C  C133  1  0.29920000  0.03900000  0.15160000  1.0 0.0102163117
C  C134  1  0.20080000  0.53900000  0.34840000  1.0 0.0102163117
C  C135  1  0.79920000  0.46100000  0.34840000  1.0 0.0102163117
C  C136  1  0.03900000  0.29920000  0.84840000  1.0 0.0102163117
C  C137  1  0.29920000  0.03900000  0.84840000  1.0 0.0102163117
C  C138  1  0.53900000  0.20080000  0.34840000  1.0 0.0102163117
C  C139  1  0.46100000  0.79920000  0.34840000  1.0 0.0102163117
C  C140  1  0.03900000  0.29920000  0.15160000  1.0 0.0102163117
C  C141  1  0.70080000  0.96100000  0.84840000  1.0 0.0102163117
C  C142  1  0.79920000  0.46100000  0.65160000  1.0 0.0102163117
C  C143  1  0.20080000  0.53900000  0.65160000  1.0 0.0102163117
C  C144  1  0.96100000  0.70080000  0.15160000  1.0 0.0102163117
C  C145  1  0.69050000  0.89800000  0.18650000  1.0 -0.0067266779
C  C146  1  0.39800000  0.80950000  0.68650000  1.0 -0.0067266779
C  C147  1  0.60200000  0.19050000  0.68650000  1.0 -0.0067266779
C  C148  1  0.89800000  0.69050000  0.81350000  1.0 -0.0067266779
C  C149  1  0.30950000  0.10200000  0.18650000  1.0 -0.0067266779
C  C150  1  0.19050000  0.60200000  0.31350000  1.0 -0.0067266779
C  C151  1  0.80950000  0.39800000  0.31350000  1.0 -0.0067266779
C  C152  1  0.10200000  0.30950000  0.81350000  1.0 -0.0067266779
C  C153  1  0.30950000  0.10200000  0.81350000  1.0 -0.0067266779
C  C154  1  0.60200000  0.19050000  0.31350000  1.0 -0.0067266779
C  C155  1  0.39800000  0.80950000  0.31350000  1.0 -0.0067266779
C  C156  1  0.10200000  0.30950000  0.18650000  1.0 -0.0067266779
C  C157  1  0.69050000  0.89800000  0.81350000  1.0 -0.0067266779
C  C158  1  0.80950000  0.39800000  0.68650000  1.0 -0.0067266779
C  C159  1  0.19050000  0.60200000  0.68650000  1.0 -0.0067266779
C  C160  1  0.89800000  0.69050000  0.18650000  1.0 -0.0067266779
N  N1  1  0.64130000  0.13420000  0.06570000  1.0 -0.2408852596
N  N2  1  0.63420000  0.85870000  0.56570000  1.0 -0.2408852596
N  N3  1  0.36580000  0.14130000  0.56570000  1.0 -0.2408852596
N  N4  1  0.13420000  0.64130000  0.93430000  1.0 -0.2408852596
N  N5  1  0.35870000  0.86580000  0.06570000  1.0 -0.2408852596
N  N6  1  0.14130000  0.36580000  0.43430000  1.0 -0.2408852596
N  N7  1  0.85870000  0.63420000  0.43430000  1.0 -0.2408852596
N  N8  1  0.86580000  0.35870000  0.93430000  1.0 -0.2408852596
N  N9  1  0.35870000  0.86580000  0.93430000  1.0 -0.2408852596
N  N10  1  0.36580000  0.14130000  0.43430000  1.0 -0.2408852596
N  N11  1  0.63420000  0.85870000  0.43430000  1.0 -0.2408852596
N  N12  1  0.86580000  0.35870000  0.06570000  1.0 -0.2408852596
N  N13  1  0.64130000  0.13420000  0.93430000  1.0 -0.2408852596
N  N14  1  0.85870000  0.63420000  0.56570000  1.0 -0.2408852596
N  N15  1  0.14130000  0.36580000  0.56570000  1.0 -0.2408852596
N  N16  1  0.13420000  0.64130000  0.06570000  1.0 -0.2408852596
N  N17  1  0.75390000  0.16340000  0.20130000  1.0 -0.2545576453
N  N18  1  0.66340000  0.74610000  0.70130000  1.0 -0.2545576453
N  N19  1  0.33660000  0.25390000  0.70130000  1.0 -0.2545576453
N  N20  1  0.16340000  0.75390000  0.79870000  1.0 -0.2545576453
N  N21  1  0.24610000  0.83660000  0.20130000  1.0 -0.2545576453
N  N22  1  0.25390000  0.33660000  0.29870000  1.0 -0.2545576453
N  N23  1  0.74610000  0.66340000  0.29870000  1.0 -0.2545576453
N  N24  1  0.83660000  0.24610000  0.79870000  1.0 -0.2545576453
N  N25  1  0.24610000  0.83660000  0.79870000  1.0 -0.2545576453
N  N26  1  0.33660000  0.25390000  0.29870000  1.0 -0.2545576453
N  N27  1  0.66340000  0.74610000  0.29870000  1.0 -0.2545576453
N  N28  1  0.83660000  0.24610000  0.20130000  1.0 -0.2545576453
N  N29  1  0.75390000  0.16340000  0.79870000  1.0 -0.2545576453
N  N30  1  0.74610000  0.66340000  0.70130000  1.0 -0.2545576453
N  N31  1  0.25390000  0.33660000  0.70130000  1.0 -0.2545576453
N  N32  1  0.16340000  0.75390000  0.20130000  1.0 -0.2545576453
N  N33  1  0.67500000  0.01300000  0.19960000  1.0 -0.2408852596
N  N34  1  0.51300000  0.82500000  0.69960000  1.0 -0.2408852596
N  N35  1  0.48700000  0.17500000  0.69960000  1.0 -0.2408852596
N  N36  1  0.01300000  0.67500000  0.80040000  1.0 -0.2408852596
N  N37  1  0.32500000  0.98700000  0.19960000  1.0 -0.2408852596
N  N38  1  0.17500000  0.48700000  0.30040000  1.0 -0.2408852596
N  N39  1  0.82500000  0.51300000  0.30040000  1.0 -0.2408852596
N  N40  1  0.98700000  0.32500000  0.80040000  1.0 -0.2408852596
N  N41  1  0.32500000  0.98700000  0.80040000  1.0 -0.2408852596
N  N42  1  0.48700000  0.17500000  0.30040000  1.0 -0.2408852596
N  N43  1  0.51300000  0.82500000  0.30040000  1.0 -0.2408852596
N  N44  1  0.98700000  0.32500000  0.19960000  1.0 -0.2408852596
N  N45  1  0.67500000  0.01300000  0.80040000  1.0 -0.2408852596
N  N46  1  0.82500000  0.51300000  0.69960000  1.0 -0.2408852596
N  N47  1  0.17500000  0.48700000  0.69960000  1.0 -0.2408852596
N  N48  1  0.01300000  0.67500000  0.19960000  1.0 -0.2408852596
N  N49  1  0.59080000  0.15400000  0.24520000  1.0 -0.2408852596
N  N50  1  0.65400000  0.90920000  0.74520000  1.0 -0.2408852596
N  N51  1  0.34600000  0.09080000  0.74520000  1.0 -0.2408852596
N  N52  1  0.15400000  0.59080000  0.75480000  1.0 -0.2408852596
N  N53  1  0.40920000  0.84600000  0.24520000  1.0 -0.2408852596
N  N54  1  0.09080000  0.34600000  0.25480000  1.0 -0.2408852596
N  N55  1  0.90920000  0.65400000  0.25480000  1.0 -0.2408852596
N  N56  1  0.84600000  0.40920000  0.75480000  1.0 -0.2408852596
N  N57  1  0.40920000  0.84600000  0.75480000  1.0 -0.2408852596
N  N58  1  0.34600000  0.09080000  0.25480000  1.0 -0.2408852596
N  N59  1  0.65400000  0.90920000  0.25480000  1.0 -0.2408852596
N  N60  1  0.84600000  0.40920000  0.24520000  1.0 -0.2408852596
N  N61  1  0.59080000  0.15400000  0.75480000  1.0 -0.2408852596
N  N62  1  0.90920000  0.65400000  0.74520000  1.0 -0.2408852596
N  N63  1  0.09080000  0.34600000  0.74520000  1.0 -0.2408852596
N  N64  1  0.15400000  0.59080000  0.24520000  1.0 -0.2408852596
