# DDEC6 charges by PACMAN v1.1 (https://github.com/mtap-research/PACMAN-charge/)
data_HIFZEC_FSR_pacman
_symmetry_space_group_name_H-M   'P 1'
_cell_length_a   11.03140000
_cell_length_b   11.03140000
_cell_length_c   19.10340000
_cell_angle_alpha   77.12230000
_cell_angle_beta   102.87800000
_cell_angle_gamma   88.70460000
_symmetry_Int_Tables_number   1
_chemical_formula_structural   Cu3H20C28N12(OF2)6
_chemical_formula_sum   'Cu6 H40 C56 N24 O12 F24'
_cell_volume   2202.85263544
_cell_formula_units_Z   2
loop_
 _symmetry_equiv_pos_site_id
 _symmetry_equiv_pos_as_xyz
  1  'x, y, z'
loop_
 _atom_site_type_symbol
 _atom_site_label
 _atom_site_symmetry_multiplicity
 _atom_site_fract_x
 _atom_site_fract_y
 _atom_site_fract_z
 _atom_site_occupancy
 _atom_site_charge
Cu  Cu1  1  0.50000000  0.00000000  0.50000000  1.0 0.7091595712
Cu  Cu2  1  0.00000000  0.50000000  0.00000000  1.0 0.7091595712
Cu  Cu3  1  0.61302000  0.80498000  0.42281000  1.0 0.7266124072
Cu  Cu4  1  0.80498000  0.61302000  0.07719000  1.0 0.7266124072
Cu  Cu5  1  0.38698000  0.19502000  0.57719000  1.0 0.7266124072
Cu  Cu6  1  0.19502000  0.38698000  0.92281000  1.0 0.7266124072
H  H1  1  0.64680000  0.01620000  0.41990000  1.0 0.3657883289
H  H2  1  0.01620000  0.64680000  0.08010000  1.0 0.3657883289
H  H3  1  0.35320000  0.98380000  0.58010000  1.0 0.3657883289
H  H4  1  0.98380000  0.35320000  0.91990000  1.0 0.3657883289
H  H5  1  0.41210000  0.12830000  0.32330000  1.0 0.1057208436
H  H6  1  0.12830000  0.41210000  0.17670000  1.0 0.1057208436
H  H7  1  0.58790000  0.87170000  0.67670000  1.0 0.1057208436
H  H8  1  0.87170000  0.58790000  0.82330000  1.0 0.1057208436
H  H9  1  0.20600000  0.45240000  0.28670000  1.0 0.1165170329
H  H10  1  0.45240000  0.20600000  0.21330000  1.0 0.1165170329
H  H11  1  0.79400000  0.54760000  0.71330000  1.0 0.1165170329
H  H12  1  0.54760000  0.79400000  0.78670000  1.0 0.1165170329
H  H13  1  0.23830000  0.41870000  0.41540000  1.0 0.1011398849
H  H14  1  0.41870000  0.23830000  0.08460000  1.0 0.1011398849
H  H15  1  0.76170000  0.58130000  0.58460000  1.0 0.1011398849
H  H16  1  0.58130000  0.76170000  0.91540000  1.0 0.1011398849
H  H17  1  0.22130000  0.94150000  0.47150000  1.0 0.1011398849
H  H18  1  0.94150000  0.22130000  0.02850000  1.0 0.1011398849
H  H19  1  0.77870000  0.05850000  0.52850000  1.0 0.1011398849
H  H20  1  0.05850000  0.77870000  0.97150000  1.0 0.1011398849
H  H21  1  0.17700000  0.65900000  0.36630000  1.0 0.1333986628
H  H22  1  0.65900000  0.17700000  0.13370000  1.0 0.1333986628
H  H23  1  0.82300000  0.34100000  0.63370000  1.0 0.1333986628
H  H24  1  0.34100000  0.82300000  0.86630000  1.0 0.1333986628
H  H25  1  0.39110000  0.66090000  0.36940000  1.0 0.093133911
H  H26  1  0.66090000  0.39110000  0.13060000  1.0 0.093133911
H  H27  1  0.60890000  0.33910000  0.63060000  1.0 0.093133911
H  H28  1  0.33910000  0.60890000  0.86940000  1.0 0.093133911
H  H29  1  0.05560000  0.84620000  0.51850000  1.0 0.1011398849
H  H30  1  0.84620000  0.05560000  0.98150000  1.0 0.1011398849
H  H31  1  0.94440000  0.15380000  0.48150000  1.0 0.1011398849
H  H32  1  0.15380000  0.94440000  0.01850000  1.0 0.1011398849
H  H33  1  0.97720000  0.77180000  0.31580000  1.0 0.1333986628
H  H34  1  0.77180000  0.97720000  0.18420000  1.0 0.1333986628
H  H35  1  0.02280000  0.22820000  0.68420000  1.0 0.1333986628
H  H36  1  0.22820000  0.02280000  0.81580000  1.0 0.1333986628
H  H37  1  0.76850000  0.77790000  0.31770000  1.0 0.093133911
H  H38  1  0.77790000  0.76850000  0.18230000  1.0 0.093133911
H  H39  1  0.23150000  0.22210000  0.68230000  1.0 0.093133911
H  H40  1  0.22210000  0.23150000  0.81770000  1.0 0.093133911
C  C1  1  0.37552000  0.19132000  0.34150000  1.0 0.0008533238
C  C2  1  0.19132000  0.37552000  0.15850000  1.0 -0.0014206031
C  C3  1  0.62448000  0.80868000  0.65850000  1.0 -0.0014206031
C  C4  1  0.80868000  0.62448000  0.84150000  1.0 -0.0014206031
C  C5  1  0.30682000  0.29362000  0.29014000  1.0 0.051677071
C  C6  1  0.29362000  0.30682000  0.20986000  1.0 0.051677071
C  C7  1  0.69318000  0.70638000  0.70986000  1.0 0.051677071
C  C8  1  0.70638000  0.69318000  0.79014000  1.0 0.051677071
C  C9  1  0.25490000  0.37970000  0.31850000  1.0 -0.1706854073
C  C10  1  0.37970000  0.25490000  0.18150000  1.0 -0.1706854073
C  C11  1  0.74510000  0.62030000  0.68150000  1.0 -0.1706854073
C  C12  1  0.62030000  0.74510000  0.81850000  1.0 -0.1706854073
C  C13  1  0.27540000  0.35880000  0.39531000  1.0 0.0581365086
C  C14  1  0.35880000  0.27540000  0.10469000  1.0 0.0581365086
C  C15  1  0.72460000  0.64120000  0.60469000  1.0 0.0581365086
C  C16  1  0.64120000  0.72460000  0.89531000  1.0 0.0581365086
C  C17  1  0.25529000  0.88199000  0.44988000  1.0 0.0100490744
C  C18  1  0.88199000  0.25529000  0.05012000  1.0 0.0100490744
C  C19  1  0.74471000  0.11801000  0.55012000  1.0 0.0100490744
C  C20  1  0.11801000  0.74471000  0.94988000  1.0 0.0100490744
C  C21  1  0.17449000  0.80091000  0.41834000  1.0 0.0581365086
C  C22  1  0.80091000  0.17449000  0.08166000  1.0 0.0581365086
C  C23  1  0.82551000  0.19909000  0.58166000  1.0 0.0581365086
C  C24  1  0.19909000  0.82551000  0.91834000  1.0 0.0581365086
C  C25  1  0.22660000  0.71720000  0.38830000  1.0 -0.1396550504
C  C26  1  0.71720000  0.22660000  0.11170000  1.0 -0.1396550504
C  C27  1  0.77340000  0.28280000  0.61170000  1.0 -0.1396550504
C  C28  1  0.28280000  0.77340000  0.88830000  1.0 -0.1396550504
C  C29  1  0.35383000  0.71883000  0.39065000  1.0 0.051677071
C  C30  1  0.71883000  0.35383000  0.10935000  1.0 0.051677071
C  C31  1  0.64617000  0.28117000  0.60935000  1.0 0.051677071
C  C32  1  0.28117000  0.64617000  0.89065000  1.0 0.051677071
C  C33  1  0.99727000  0.83147000  0.47637000  1.0 -0.019763652
C  C34  1  0.83147000  0.99727000  0.02363000  1.0 -0.019763652
C  C35  1  0.00273000  0.16853000  0.52363000  1.0 -0.019763652
C  C36  1  0.16853000  0.00273000  0.97637000  1.0 -0.019763652
C  C37  1  0.04060000  0.80746000  0.41764000  1.0 0.0581365086
C  C38  1  0.80746000  0.04060000  0.08236000  1.0 0.0653065028
C  C39  1  0.95940000  0.19254000  0.58236000  1.0 0.0653065028
C  C40  1  0.19254000  0.95940000  0.91764000  1.0 0.0653065028
C  C41  1  0.95185000  0.78785000  0.35803000  1.0 -0.1592062866
C  C42  1  0.78785000  0.95185000  0.14197000  1.0 -0.1592062866
C  C43  1  0.04815000  0.21215000  0.64197000  1.0 -0.1592062866
C  C44  1  0.21215000  0.04815000  0.85803000  1.0 -0.1592062866
C  C45  1  0.82930000  0.79130000  0.35928000  1.0 0.0380030139
C  C46  1  0.79130000  0.82930000  0.14072000  1.0 0.0380030139
C  C47  1  0.17070000  0.20870000  0.64072000  1.0 0.0380030139
C  C48  1  0.20870000  0.17070000  0.85928000  1.0 0.0380030139
C  C49  1  0.68340000  0.55060000  0.41880000  1.0 0.1011398849
C  C50  1  0.55060000  0.68340000  0.08120000  1.0 0.1011398849
C  C51  1  0.31660000  0.44940000  0.58120000  1.0 0.1011398849
C  C52  1  0.44940000  0.31660000  0.91880000  1.0 0.1011398849
C  C53  1  0.65360000  0.45000000  0.37530000  1.0 0.3194502625
C  C54  1  0.45000000  0.65360000  0.12470000  1.0 0.3194502625
C  C55  1  0.34640000  0.55000000  0.62470000  1.0 0.3194502625
C  C56  1  0.55000000  0.34640000  0.87530000  1.0 0.3194502625
N  N1  1  0.39320000  0.17620000  0.41402000  1.0 -0.1797823911
N  N2  1  0.17620000  0.39320000  0.08598000  1.0 -0.1797823911
N  N3  1  0.60680000  0.82380000  0.58598000  1.0 -0.1797823911
N  N4  1  0.82380000  0.60680000  0.91402000  1.0 -0.1797823911
N  N5  1  0.34288000  0.26114000  0.44171000  1.0 -0.1897084829
N  N6  1  0.26114000  0.34288000  0.05829000  1.0 -0.1897084829
N  N7  1  0.65712000  0.73886000  0.55829000  1.0 -0.1897084829
N  N8  1  0.73886000  0.65712000  0.94171000  1.0 -0.1897084829
N  N9  1  0.37503000  0.87959000  0.45091000  1.0 -0.1468601679
N  N10  1  0.87959000  0.37503000  0.04909000  1.0 -0.1468601679
N  N11  1  0.62497000  0.12041000  0.54909000  1.0 -0.1468601679
N  N12  1  0.12041000  0.62497000  0.95091000  1.0 -0.1468601679
N  N13  1  0.42520000  0.79728000  0.42104000  1.0 -0.1592062866
N  N14  1  0.79728000  0.42520000  0.07896000  1.0 -0.1592062866
N  N15  1  0.57480000  0.20272000  0.57896000  1.0 -0.1592062866
N  N16  1  0.20272000  0.57480000  0.92104000  1.0 -0.1592062866
N  N17  1  0.79251000  0.81315000  0.41760000  1.0 -0.1138149281
N  N18  1  0.81315000  0.79251000  0.08240000  1.0 -0.1138149281
N  N19  1  0.20749000  0.18685000  0.58240000  1.0 -0.1138149281
N  N20  1  0.18685000  0.20749000  0.91760000  1.0 -0.1138149281
N  N21  1  0.87438000  0.83444000  0.47535000  1.0 -0.1267781039
N  N22  1  0.83444000  0.87438000  0.02465000  1.0 -0.1267781039
N  N23  1  0.12562000  0.16556000  0.52465000  1.0 -0.1267781039
N  N24  1  0.16556000  0.12562000  0.97535000  1.0 -0.1267781039
O  O1  1  0.59939000  0.96815000  0.43652000  1.0 -0.7623742488
O  O2  1  0.96815000  0.59939000  0.06348000  1.0 -0.7623742488
O  O3  1  0.40061000  0.03185000  0.56348000  1.0 -0.7623742488
O  O4  1  0.03185000  0.40061000  0.93652000  1.0 -0.7623742488
O  O5  1  0.60628000  0.64388000  0.39578000  1.0 -0.4690420893
O  O6  1  0.64388000  0.60628000  0.10422000  1.0 -0.4690420893
O  O7  1  0.39372000  0.35612000  0.60422000  1.0 -0.4690420893
O  O8  1  0.35612000  0.39372000  0.89578000  1.0 -0.4690420893
O  O9  1  0.77640000  0.53000000  0.46897000  1.0 -0.4178052065
O  O10  1  0.53000000  0.77640000  0.03103000  1.0 -0.4178052065
O  O11  1  0.22360000  0.47000000  0.53103000  1.0 -0.4178052065
O  O12  1  0.47000000  0.22360000  0.96897000  1.0 -0.4178052065
F  F1  1  0.53510000  0.44770000  0.34830000  1.0 -0.0080230294
F  F2  1  0.44770000  0.53510000  0.15170000  1.0 -0.0080230294
F  F3  1  0.46490000  0.55230000  0.65170000  1.0 -0.0014206031
F  F4  1  0.55230000  0.46490000  0.84830000  1.0 -0.0014206031
F  F5  1  0.69370000  0.48450000  0.31370000  1.0 -0.0557621825
F  F6  1  0.48450000  0.69370000  0.18630000  1.0 -0.0557621825
F  F7  1  0.30630000  0.51550000  0.68630000  1.0 -0.0557621825
F  F8  1  0.51550000  0.30630000  0.81370000  1.0 -0.0557621825
F  F9  1  0.71800000  0.34540000  0.40920000  1.0 -0.019763652
F  F10  1  0.34540000  0.71800000  0.09080000  1.0 -0.019763652
F  F11  1  0.28200000  0.65460000  0.59080000  1.0 -0.019763652
F  F12  1  0.65460000  0.28200000  0.90920000  1.0 -0.019763652
F  F13  1  0.55310000  0.47010000  0.32230000  1.0 -0.0014206031
F  F14  1  0.47010000  0.55310000  0.17770000  1.0 -0.0014206031
F  F15  1  0.44690000  0.52990000  0.67770000  1.0 -0.0014206031
F  F16  1  0.52990000  0.44690000  0.82230000  1.0 -0.0014206031
F  F17  1  0.74580000  0.41960000  0.34910000  1.0 -0.0080230294
F  F18  1  0.41960000  0.74580000  0.15090000  1.0 -0.0080230294
F  F19  1  0.25420000  0.58040000  0.65090000  1.0 -0.0080230294
F  F20  1  0.58040000  0.25420000  0.84910000  1.0 -0.0080230294
F  F21  1  0.62620000  0.34680000  0.41820000  1.0 -0.0322608934
F  F22  1  0.34680000  0.62620000  0.08180000  1.0 -0.0322608934
F  F23  1  0.37380000  0.65320000  0.58180000  1.0 -0.0322608934
F  F24  1  0.65320000  0.37380000  0.91820000  1.0 -0.0322608934
