# DDEC6 charges by PACMAN v1.1 (https://github.com/mtap-research/PACMAN-charge/)
data_HIFZAY_ion_pacman
_symmetry_space_group_name_H-M   'P 1'
_cell_length_a   12.08610000
_cell_length_b   14.65550000
_cell_length_c   21.56730000
_cell_angle_alpha   90.00000000
_cell_angle_beta   104.02500000
_cell_angle_gamma   90.00000000
_symmetry_Int_Tables_number   1
_chemical_formula_structural   Cu3B6H36C48N24(OF6)4
_chemical_formula_sum   'Cu6 B12 H72 C96 N48 O8 F48'
_cell_volume   3706.29027625
_cell_formula_units_Z   2
loop_
 _symmetry_equiv_pos_site_id
 _symmetry_equiv_pos_as_xyz
  1  'x, y, z'
loop_
 _atom_site_type_symbol
 _atom_site_label
 _atom_site_symmetry_multiplicity
 _atom_site_fract_x
 _atom_site_fract_y
 _atom_site_fract_z
 _atom_site_occupancy
 _atom_site_charge
Cu  Cu1  1  0.00000000  0.00000000  0.50000000  1.0 0.603162527
Cu  Cu2  1  0.00000000  0.00000000  0.00000000  1.0 0.603162527
Cu  Cu3  1  0.72527000  0.74124000  0.50477000  1.0 0.5842508971
Cu  Cu4  1  0.27473000  0.74124000  0.99523000  1.0 0.5842508971
Cu  Cu5  1  0.27473000  0.25876000  0.49523000  1.0 0.5842508971
Cu  Cu6  1  0.72527000  0.25876000  0.00477000  1.0 0.5868010819
B  B1  1  0.74040000  0.76930000  0.13140000  1.0 0.9799120426
B  B2  1  0.25960000  0.76930000  0.36860000  1.0 0.9799120426
B  B3  1  0.25960000  0.23070000  0.86860000  1.0 0.9799120426
B  B4  1  0.74040000  0.23070000  0.63140000  1.0 0.9799120426
B  B5  1  0.70350000  0.91020000  0.77820000  1.0 1.0002594888
B  B6  1  0.29650000  0.91020000  0.72180000  1.0 1.0002594888
B  B7  1  0.29650000  0.08980000  0.22180000  1.0 1.0002594888
B  B8  1  0.70350000  0.08980000  0.27820000  1.0 1.0002594888
B  B9  1  0.76310000  0.56040000  0.85520000  1.0 1.0758213699
B  B10  1  0.23690000  0.56040000  0.64480000  1.0 1.0748020112
B  B11  1  0.23690000  0.43960000  0.14480000  1.0 1.0748020112
B  B12  1  0.76310000  0.43960000  0.35520000  1.0 1.0748020112
H  H1  1  0.14430000  0.11000000  0.61370000  1.0 0.1262669201
H  H2  1  0.85570000  0.11000000  0.88630000  1.0 0.1262669201
H  H3  1  0.85570000  0.89000000  0.38630000  1.0 0.1262669201
H  H4  1  0.14430000  0.89000000  0.11370000  1.0 0.1262669201
H  H5  1  0.14330000  0.13160000  0.72050000  1.0 0.1486078202
H  H6  1  0.85670000  0.13160000  0.77950000  1.0 0.1486078202
H  H7  1  0.85670000  0.86840000  0.27950000  1.0 0.1486078202
H  H8  1  0.14330000  0.86840000  0.22050000  1.0 0.1486078202
H  H9  1  0.86200000  0.97840000  0.68670000  1.0 0.1207810789
H  H10  1  0.13800000  0.97840000  0.81330000  1.0 0.1207810789
H  H11  1  0.13800000  0.02160000  0.31330000  1.0 0.1207810789
H  H12  1  0.86200000  0.02160000  0.18670000  1.0 0.1207810789
H  H13  1  0.73540000  0.01220000  0.46710000  1.0 0.1262669201
H  H14  1  0.26460000  0.01220000  0.03290000  1.0 0.1262669201
H  H15  1  0.26460000  0.98780000  0.53290000  1.0 0.1262669201
H  H16  1  0.73540000  0.98780000  0.96710000  1.0 0.1262669201
H  H17  1  0.66740000  0.27990000  0.44070000  1.0 0.1486078202
H  H18  1  0.33260000  0.27990000  0.05930000  1.0 0.1486078202
H  H19  1  0.33260000  0.72010000  0.55930000  1.0 0.1486078202
H  H20  1  0.66740000  0.72010000  0.94070000  1.0 0.1486078202
H  H21  1  0.86200000  0.30060000  0.45230000  1.0 0.1207810789
H  H22  1  0.13800000  0.30060000  0.04770000  1.0 0.1207810789
H  H23  1  0.13800000  0.69940000  0.54770000  1.0 0.1207810789
H  H24  1  0.86200000  0.69940000  0.95230000  1.0 0.1207810789
H  H25  1  0.52340000  0.23700000  0.49150000  1.0 0.1262669201
H  H26  1  0.47660000  0.23700000  0.00850000  1.0 0.1262669201
H  H27  1  0.47660000  0.76300000  0.50850000  1.0 0.1262669201
H  H28  1  0.52340000  0.76300000  0.99150000  1.0 0.1262669201
H  H29  1  0.54580000  0.00090000  0.40100000  1.0 0.1422548461
H  H30  1  0.45420000  0.00090000  0.09900000  1.0 0.1422548461
H  H31  1  0.45420000  0.99910000  0.59900000  1.0 0.1422548461
H  H32  1  0.54580000  0.99910000  0.90100000  1.0 0.1422548461
H  H33  1  0.35190000  0.98110000  0.39490000  1.0 0.1207810789
H  H34  1  0.64810000  0.98110000  0.10510000  1.0 0.1207810789
H  H35  1  0.64810000  0.01890000  0.60510000  1.0 0.1207810789
H  H36  1  0.35190000  0.01890000  0.89490000  1.0 0.1207810789
H  H37  1  0.59880000  0.61970000  0.40750000  1.0 0.1486078202
H  H38  1  0.40120000  0.61970000  0.09250000  1.0 0.1486078202
H  H39  1  0.40120000  0.38030000  0.59250000  1.0 0.1486078202
H  H40  1  0.59880000  0.38030000  0.90750000  1.0 0.1486078202
H  H41  1  0.50600000  0.61620000  0.30080000  1.0 0.1486078202
H  H42  1  0.49400000  0.61620000  0.19920000  1.0 0.1486078202
H  H43  1  0.49400000  0.38380000  0.69920000  1.0 0.1486078202
H  H44  1  0.50600000  0.38380000  0.80080000  1.0 0.1486078202
H  H45  1  0.56770000  0.88260000  0.29680000  1.0 0.1262669201
H  H46  1  0.43230000  0.88260000  0.20320000  1.0 0.1262669201
H  H47  1  0.43230000  0.11740000  0.70320000  1.0 0.1262669201
H  H48  1  0.56770000  0.11740000  0.79680000  1.0 0.1262669201
H  H49  1  0.69710000  0.70640000  0.64110000  1.0 0.1422548461
H  H50  1  0.30290000  0.70640000  0.85890000  1.0 0.1422548461
H  H51  1  0.30290000  0.29360000  0.35890000  1.0 0.1422548461
H  H52  1  0.69710000  0.29360000  0.14110000  1.0 0.1422548461
H  H53  1  0.81250000  0.69980000  0.74470000  1.0 0.1422548461
H  H54  1  0.18750000  0.69980000  0.75530000  1.0 0.1422548461
H  H55  1  0.18750000  0.30020000  0.25530000  1.0 0.1422548461
H  H56  1  0.81250000  0.30020000  0.24470000  1.0 0.1422548461
H  H57  1  0.07490000  0.75410000  0.66780000  1.0 0.1262669201
H  H58  1  0.92510000  0.75410000  0.83220000  1.0 0.1262669201
H  H59  1  0.92510000  0.24590000  0.33220000  1.0 0.1262669201
H  H60  1  0.07490000  0.24590000  0.16780000  1.0 0.1262669201
H  H61  1  0.86100000  0.56640000  0.53600000  1.0 0.1262669201
H  H62  1  0.13900000  0.56640000  0.96400000  1.0 0.1262669201
H  H63  1  0.13900000  0.43360000  0.46400000  1.0 0.1262669201
H  H64  1  0.86100000  0.43360000  0.03600000  1.0 0.1262669201
H  H65  1  0.07220000  0.55430000  0.41950000  1.0 0.1422548461
H  H66  1  0.92780000  0.55430000  0.08050000  1.0 0.1422548461
H  H67  1  0.92780000  0.44570000  0.58050000  1.0 0.1422548461
H  H68  1  0.07220000  0.44570000  0.91950000  1.0 0.1422548461
H  H69  1  0.98740000  0.68710000  0.37310000  1.0 0.1262669201
H  H70  1  0.01260000  0.68710000  0.12690000  1.0 0.1262669201
H  H71  1  0.01260000  0.31290000  0.62690000  1.0 0.1262669201
H  H72  1  0.98740000  0.31290000  0.87310000  1.0 0.1262669201
C  C1  1  0.08680000  0.08250000  0.62980000  1.0 0.0703187128
C  C2  1  0.91320000  0.08250000  0.87020000  1.0 0.0703187128
C  C3  1  0.91320000  0.91750000  0.37020000  1.0 0.0703187128
C  C4  1  0.08680000  0.91750000  0.12980000  1.0 0.0703187128
C  C5  1  0.08670000  0.09600000  0.69370000  1.0 -0.1123443721
C  C6  1  0.91330000  0.09600000  0.80630000  1.0 -0.1123443721
C  C7  1  0.91330000  0.90400000  0.30630000  1.0 -0.1123443721
C  C8  1  0.08670000  0.90400000  0.19370000  1.0 -0.1123443721
C  C9  1  0.00210000  0.05600000  0.71620000  1.0 0.0703187128
C  C10  1  0.99790000  0.05600000  0.78380000  1.0 0.0703187128
C  C11  1  0.99790000  0.94400000  0.28380000  1.0 0.0703187128
C  C12  1  0.00210000  0.94400000  0.21620000  1.0 0.0703187128
C  C13  1  0.92200000  0.00530000  0.67250000  1.0 0.0274869492
C  C14  1  0.07800000  0.00530000  0.82750000  1.0 0.0274869492
C  C15  1  0.07800000  0.99470000  0.32750000  1.0 0.0274869492
C  C16  1  0.92200000  0.99470000  0.17250000  1.0 0.0274869492
C  C17  1  0.75970000  0.07290000  0.46530000  1.0 0.0212882752
C  C18  1  0.24030000  0.07290000  0.03470000  1.0 0.0212882752
C  C19  1  0.24030000  0.92710000  0.53470000  1.0 0.0212882752
C  C20  1  0.75970000  0.92710000  0.96530000  1.0 0.0212882752
C  C21  1  0.67860000  0.14270000  0.45320000  1.0 0.0703187128
C  C22  1  0.32140000  0.14270000  0.04680000  1.0 0.0703187128
C  C23  1  0.32140000  0.85730000  0.54680000  1.0 0.0703187128
C  C24  1  0.67860000  0.85730000  0.95320000  1.0 0.0703187128
C  C25  1  0.71770000  0.23000000  0.44880000  1.0 -0.1190594738
C  C26  1  0.28230000  0.23000000  0.05120000  1.0 -0.1190594738
C  C27  1  0.28230000  0.77000000  0.55120000  1.0 -0.1190594738
C  C28  1  0.71770000  0.77000000  0.94880000  1.0 -0.1190594738
C  C29  1  0.83460000  0.24160000  0.45690000  1.0 0.0703187128
C  C30  1  0.16540000  0.24160000  0.04310000  1.0 0.0703187128
C  C31  1  0.16540000  0.75840000  0.54310000  1.0 0.0703187128
C  C32  1  0.83460000  0.75840000  0.95690000  1.0 0.0703187128
C  C33  1  0.48950000  0.18380000  0.47110000  1.0 0.0212882752
C  C34  1  0.51050000  0.18380000  0.02890000  1.0 0.0212882752
C  C35  1  0.51050000  0.81620000  0.52890000  1.0 0.0212882752
C  C36  1  0.48950000  0.81620000  0.97110000  1.0 0.0212882752
C  C37  1  0.55680000  0.12230000  0.44700000  1.0 0.0703187128
C  C38  1  0.44320000  0.12230000  0.05300000  1.0 0.0703187128
C  C39  1  0.44320000  0.87770000  0.55300000  1.0 0.0703187128
C  C40  1  0.55680000  0.87770000  0.94700000  1.0 0.0703187128
C  C41  1  0.50480000  0.04490000  0.41800000  1.0 -0.1190594738
C  C42  1  0.49520000  0.04490000  0.08200000  1.0 -0.1190594738
C  C43  1  0.49520000  0.95510000  0.58200000  1.0 -0.1190594738
C  C44  1  0.50480000  0.95510000  0.91800000  1.0 -0.1190594738
C  C45  1  0.38850000  0.03390000  0.41460000  1.0 0.058878744
C  C46  1  0.61150000  0.03390000  0.08540000  1.0 0.058878744
C  C47  1  0.61150000  0.96610000  0.58540000  1.0 0.058878744
C  C48  1  0.38850000  0.96610000  0.91460000  1.0 0.058878744
C  C49  1  0.59180000  0.67400000  0.38380000  1.0 0.0703187128
C  C50  1  0.40820000  0.67400000  0.11620000  1.0 0.0703187128
C  C51  1  0.40820000  0.32600000  0.61620000  1.0 0.0703187128
C  C52  1  0.59180000  0.32600000  0.88380000  1.0 0.0703187128
C  C53  1  0.53680000  0.67120000  0.32000000  1.0 -0.1123443721
C  C54  1  0.46320000  0.67120000  0.18000000  1.0 -0.1123443721
C  C55  1  0.46320000  0.32880000  0.68000000  1.0 -0.1123443721
C  C56  1  0.53680000  0.32880000  0.82000000  1.0 -0.1123443721
C  C57  1  0.52780000  0.75030000  0.28470000  1.0 0.0703187128
C  C58  1  0.47220000  0.75030000  0.21530000  1.0 0.0703187128
C  C59  1  0.47220000  0.24970000  0.71530000  1.0 0.0703187128
C  C60  1  0.52780000  0.24970000  0.78470000  1.0 0.0703187128
C  C61  1  0.57280000  0.82690000  0.31890000  1.0 -0.004839543
C  C62  1  0.42720000  0.82690000  0.18110000  1.0 -0.004839543
C  C63  1  0.42720000  0.17310000  0.68110000  1.0 -0.004839543
C  C64  1  0.57280000  0.17310000  0.81890000  1.0 -0.004839543
C  C65  1  0.77610000  0.71500000  0.64760000  1.0 0.058878744
C  C66  1  0.22390000  0.71500000  0.85240000  1.0 0.058878744
C  C67  1  0.22390000  0.28500000  0.35240000  1.0 0.058878744
C  C68  1  0.77610000  0.28500000  0.14760000  1.0 0.058878744
C  C69  1  0.84420000  0.71150000  0.70980000  1.0 -0.1190594738
C  C70  1  0.15580000  0.71150000  0.79020000  1.0 -0.1190594738
C  C71  1  0.15580000  0.28850000  0.29020000  1.0 -0.1190594738
C  C72  1  0.84420000  0.28850000  0.20980000  1.0 -0.1190594738
C  C73  1  0.95970000  0.72590000  0.71820000  1.0 0.0703187128
C  C74  1  0.04030000  0.72590000  0.78180000  1.0 0.0703187128
C  C75  1  0.04030000  0.27410000  0.28180000  1.0 0.0703187128
C  C76  1  0.95970000  0.27410000  0.21820000  1.0 0.0703187128
C  C77  1  0.99680000  0.74270000  0.66320000  1.0 0.0274869492
C  C78  1  0.00320000  0.74270000  0.83680000  1.0 0.0274869492
C  C79  1  0.00320000  0.25730000  0.33680000  1.0 0.0274869492
C  C80  1  0.99680000  0.25730000  0.16320000  1.0 0.0274869492
C  C81  1  0.88900000  0.59010000  0.50230000  1.0 0.0404521915
C  C82  1  0.11100000  0.59010000  0.99770000  1.0 0.0404521915
C  C83  1  0.11100000  0.40990000  0.49770000  1.0 0.0404521915
C  C84  1  0.88900000  0.40990000  0.00230000  1.0 0.0404521915
C  C85  1  0.97680000  0.54250000  0.48400000  1.0 0.0703187128
C  C86  1  0.02320000  0.54250000  0.01600000  1.0 0.0703187128
C  C87  1  0.02320000  0.45750000  0.51600000  1.0 0.0703187128
C  C88  1  0.97680000  0.45750000  0.98400000  1.0 0.0703187128
C  C89  1  0.01320000  0.58140000  0.43460000  1.0 -0.1190594738
C  C90  1  0.98680000  0.58140000  0.06540000  1.0 -0.1190594738
C  C91  1  0.98680000  0.41860000  0.56540000  1.0 -0.1190594738
C  C92  1  0.01320000  0.41860000  0.93460000  1.0 -0.1190594738
C  C93  1  0.96170000  0.66130000  0.40700000  1.0 0.0703187128
C  C94  1  0.03830000  0.66130000  0.09300000  1.0 0.0703187128
C  C95  1  0.03830000  0.33870000  0.59300000  1.0 0.0703187128
C  C96  1  0.96170000  0.33870000  0.90700000  1.0 0.0703187128
N  N1  1  0.00910000  0.03260000  0.59115000  1.0 -0.0890653329
N  N2  1  0.99090000  0.03260000  0.90885000  1.0 -0.0890653329
N  N3  1  0.99090000  0.96740000  0.40885000  1.0 -0.0890653329
N  N4  1  0.00910000  0.96740000  0.09115000  1.0 -0.0890653329
N  N5  1  0.92540000  0.99290000  0.61280000  1.0 -0.0513886181
N  N6  1  0.07460000  0.99290000  0.88720000  1.0 -0.0513886181
N  N7  1  0.07460000  0.00710000  0.38720000  1.0 -0.0513886181
N  N8  1  0.92540000  0.00710000  0.11280000  1.0 -0.0513886181
N  N9  1  0.87010000  0.09020000  0.47440000  1.0 -0.0713127926
N  N10  1  0.12990000  0.09020000  0.02560000  1.0 -0.0713127926
N  N11  1  0.12990000  0.90980000  0.52560000  1.0 -0.0713127926
N  N12  1  0.87010000  0.90980000  0.97440000  1.0 -0.0713127926
N  N13  1  0.90870000  0.17460000  0.47050000  1.0 -0.0513886181
N  N14  1  0.09130000  0.17460000  0.02950000  1.0 -0.0513886181
N  N15  1  0.09130000  0.82540000  0.52950000  1.0 -0.0513886181
N  N16  1  0.90870000  0.82540000  0.97050000  1.0 -0.0513886181
N  N17  1  0.37890000  0.16960000  0.46602000  1.0 -0.0890653329
N  N18  1  0.62110000  0.16960000  0.03398000  1.0 -0.0890653329
N  N19  1  0.62110000  0.83040000  0.53398000  1.0 -0.0890653329
N  N20  1  0.37890000  0.83040000  0.96602000  1.0 -0.0890653329
N  N21  1  0.32740000  0.09400000  0.43774000  1.0 -0.0890653329
N  N22  1  0.67260000  0.09400000  0.06226000  1.0 -0.0890653329
N  N23  1  0.67260000  0.90600000  0.56226000  1.0 -0.0890653329
N  N24  1  0.32740000  0.90600000  0.93774000  1.0 -0.0890653329
N  N25  1  0.63420000  0.74830000  0.41260000  1.0 -0.0797763206
N  N26  1  0.36580000  0.74830000  0.08740000  1.0 -0.0797763206
N  N27  1  0.36580000  0.25170000  0.58740000  1.0 -0.0797763206
N  N28  1  0.63420000  0.25170000  0.91260000  1.0 -0.0797763206
N  N29  1  0.62320000  0.82700000  0.38150000  1.0 -0.1123443721
N  N30  1  0.37680000  0.82700000  0.11850000  1.0 -0.1123443721
N  N31  1  0.37680000  0.17300000  0.61850000  1.0 -0.1123443721
N  N32  1  0.62320000  0.17300000  0.88150000  1.0 -0.1123443721
N  N33  1  0.81810000  0.72970000  0.59762000  1.0 -0.0890653329
N  N34  1  0.18190000  0.72970000  0.90238000  1.0 -0.0890653329
N  N35  1  0.18190000  0.27030000  0.40238000  1.0 -0.0890653329
N  N36  1  0.81810000  0.27030000  0.09762000  1.0 -0.0890653329
N  N37  1  0.92980000  0.74370000  0.60467000  1.0 -0.0614045263
N  N38  1  0.07020000  0.74370000  0.89533000  1.0 -0.0614045263
N  N39  1  0.07020000  0.25630000  0.39533000  1.0 -0.0614045263
N  N40  1  0.92980000  0.25630000  0.10467000  1.0 -0.0614045263
N  N41  1  0.84390000  0.66590000  0.47502000  1.0 -0.0797763206
N  N42  1  0.15610000  0.66590000  0.02498000  1.0 -0.0797763206
N  N43  1  0.15610000  0.33410000  0.52498000  1.0 -0.0797763206
N  N44  1  0.84390000  0.33410000  0.97502000  1.0 -0.0797763206
N  N45  1  0.87840000  0.70300000  0.42600000  1.0 -0.1123443721
N  N46  1  0.12160000  0.70300000  0.07400000  1.0 -0.1123443721
N  N47  1  0.12160000  0.29700000  0.57400000  1.0 -0.1123443721
N  N48  1  0.87840000  0.29700000  0.92600000  1.0 -0.1123443721
O  O1  1  0.86021000  0.87720000  0.50374000  1.0 -0.4419112504
O  O2  1  0.13979000  0.87720000  0.99626000  1.0 -0.4419112504
O  O3  1  0.13979000  0.12280000  0.49626000  1.0 -0.4419112504
O  O4  1  0.86021000  0.12280000  0.00374000  1.0 -0.4419112504
O  O5  1  0.61970000  0.61370000  0.52260000  1.0 -0.3311129846
O  O6  1  0.38030000  0.61370000  0.97740000  1.0 -0.3311129846
O  O7  1  0.38030000  0.38630000  0.47740000  1.0 -0.3311129846
O  O8  1  0.61970000  0.38630000  0.02260000  1.0 -0.3311129846
F  F1  1  0.82110000  0.81150000  0.10870000  1.0 -0.4099396666
F  F2  1  0.75750000  0.75920000  0.19100000  1.0 -0.4099396666
F  F3  1  0.64660000  0.81350000  0.10510000  1.0 -0.3311129846
F  F4  1  0.70870000  0.69510000  0.09540000  1.0 -0.3459388912
F  F5  1  0.17890000  0.81150000  0.39130000  1.0 -0.4099396666
F  F6  1  0.24250000  0.75920000  0.30900000  1.0 -0.4099396666
F  F7  1  0.35340000  0.81350000  0.39490000  1.0 -0.3311129846
F  F8  1  0.29130000  0.69510000  0.40460000  1.0 -0.3459388912
F  F9  1  0.17890000  0.18850000  0.89130000  1.0 -0.4099396666
F  F10  1  0.24250000  0.24080000  0.80900000  1.0 -0.4099396666
F  F11  1  0.35340000  0.18650000  0.89490000  1.0 -0.3311129846
F  F12  1  0.29130000  0.30490000  0.90460000  1.0 -0.3459388912
F  F13  1  0.82110000  0.18850000  0.60870000  1.0 -0.4099396666
F  F14  1  0.75750000  0.24080000  0.69100000  1.0 -0.4099396666
F  F15  1  0.64660000  0.18650000  0.60510000  1.0 -0.3311129846
F  F16  1  0.70870000  0.30490000  0.59540000  1.0 -0.3459388912
F  F17  1  0.81490000  0.89260000  0.80070000  1.0 -0.4099396666
F  F18  1  0.66730000  0.96410000  0.81960000  1.0 -0.3819155097
F  F19  1  0.64480000  0.83430000  0.76790000  1.0 -0.3948525191
F  F20  1  0.69010000  0.96110000  0.72830000  1.0 -0.3566857651
F  F21  1  0.18510000  0.89260000  0.69930000  1.0 -0.4099396666
F  F22  1  0.33270000  0.96410000  0.68040000  1.0 -0.3819155097
F  F23  1  0.35520000  0.83430000  0.73210000  1.0 -0.3948525191
F  F24  1  0.30990000  0.96110000  0.77170000  1.0 -0.3566857651
F  F25  1  0.18510000  0.10740000  0.19930000  1.0 -0.4099396666
F  F26  1  0.33270000  0.03590000  0.18040000  1.0 -0.3819155097
F  F27  1  0.35520000  0.16570000  0.23210000  1.0 -0.3948525191
F  F28  1  0.30990000  0.03890000  0.27170000  1.0 -0.3566857651
F  F29  1  0.81490000  0.10740000  0.30070000  1.0 -0.4099396666
F  F30  1  0.66730000  0.03590000  0.31960000  1.0 -0.3819155097
F  F31  1  0.64480000  0.16570000  0.26790000  1.0 -0.3973528147
F  F32  1  0.69010000  0.03890000  0.22830000  1.0 -0.3566857651
F  F33  1  0.73860000  0.55150000  0.91470000  1.0 -0.4602256503
F  F34  1  0.70610000  0.63210000  0.82250000  1.0 -0.4419112504
F  F35  1  0.87730000  0.57870000  0.86500000  1.0 -0.4687151015
F  F36  1  0.73720000  0.47970000  0.82410000  1.0 -0.450085342
F  F37  1  0.26140000  0.55150000  0.58530000  1.0 -0.4602256503
F  F38  1  0.29390000  0.63210000  0.67750000  1.0 -0.4419112504
F  F39  1  0.12270000  0.57870000  0.63500000  1.0 -0.4602256503
F  F40  1  0.26280000  0.47970000  0.67590000  1.0 -0.450085342
F  F41  1  0.26140000  0.44850000  0.08530000  1.0 -0.4602256503
F  F42  1  0.29390000  0.36790000  0.17750000  1.0 -0.4419112504
F  F43  1  0.12270000  0.42130000  0.13500000  1.0 -0.4602256503
F  F44  1  0.26280000  0.52030000  0.17590000  1.0 -0.450085342
F  F45  1  0.73860000  0.44850000  0.41470000  1.0 -0.4602256503
F  F46  1  0.70610000  0.36790000  0.32250000  1.0 -0.4419112504
F  F47  1  0.87730000  0.42130000  0.36500000  1.0 -0.4602256503
F  F48  1  0.73720000  0.52030000  0.32410000  1.0 -0.450085342
