# DDEC6 charges by PACMAN v1.1 (https://github.com/mtap-research/PACMAN-charge/)
data_HIJMEU_ASR_pacman
_symmetry_space_group_name_H-M   'P 1'
_cell_length_a   13.34390000
_cell_length_b   13.34390000
_cell_length_c   13.34390000
_cell_angle_alpha   99.48140000
_cell_angle_beta   99.48140000
_cell_angle_gamma   132.10900000
_symmetry_Int_Tables_number   1
_chemical_formula_structural   Mn3Mo4(PO7)4
_chemical_formula_sum   'Mn6 Mo8 P8 O56'
_cell_volume   1610.98250454
_cell_formula_units_Z   2
loop_
 _symmetry_equiv_pos_site_id
 _symmetry_equiv_pos_as_xyz
  1  'x, y, z'
loop_
 _atom_site_type_symbol
 _atom_site_label
 _atom_site_symmetry_multiplicity
 _atom_site_fract_x
 _atom_site_fract_y
 _atom_site_fract_z
 _atom_site_occupancy
 _atom_site_charge
Mn  Mn1  1  0.00000000  0.00000000  0.00000000  1.0 1.3089579711
Mn  Mn2  1  0.25000000  0.75000000  0.50000000  1.0 1.3089579711
Mn  Mn3  1  0.62500000  0.37500000  0.25000000  1.0 1.3923556575
Mn  Mn4  1  0.62500000  0.37500000  0.75000000  1.0 1.397131738
Mn  Mn5  1  0.12500000  0.37500000  0.75000000  1.0 1.397131738
Mn  Mn6  1  0.62500000  0.87500000  0.25000000  1.0 1.397131738
Mo  Mo1  1  0.49196000  0.34535000  0.47011000  1.0 2.1807574656
Mo  Mo2  1  0.27185000  0.24196000  0.64661000  1.0 2.1807574656
Mo  Mo3  1  0.87524000  0.02185000  0.52989000  1.0 2.1735553512
Mo  Mo4  1  0.59535000  0.62524000  0.35339000  1.0 2.1807574656
Mo  Mo5  1  0.75804000  0.40465000  0.02989000  1.0 2.1807574656
Mo  Mo6  1  0.97815000  0.50804000  0.85339000  1.0 2.1807574656
Mo  Mo7  1  0.37476000  0.72815000  0.97011000  1.0 2.1807574656
Mo  Mo8  1  0.65465000  0.12476000  0.14661000  1.0 2.1807574656
P  P1  1  0.31260000  0.26400000  0.21960000  1.0 1.4901667604
P  P2  1  0.34300000  0.06260000  0.54860000  1.0 1.4901667604
P  P3  1  0.04440000  0.09300000  0.78040000  1.0 1.4901667604
P  P4  1  0.51400000  0.79440000  0.45140000  1.0 1.4901667604
P  P5  1  0.93740000  0.48600000  0.28040000  1.0 1.4901667604
P  P6  1  0.90700000  0.68740000  0.95140000  1.0 1.4901667604
P  P7  1  0.20560000  0.65700000  0.71960000  1.0 1.4901667604
P  P8  1  0.73600000  0.95560000  0.04860000  1.0 1.4901667604
O  O1  1  0.30650000  0.22290000  0.32260000  1.0 -0.6774374774
O  O2  1  0.23390000  0.05650000  0.58360000  1.0 -0.6774374774
O  O3  1  0.90030000  0.98390000  0.67740000  1.0 -0.6774374774
O  O4  1  0.47290000  0.65030000  0.41640000  1.0 -0.6774374774
O  O5  1  0.94350000  0.52710000  0.17740000  1.0 -0.6774374774
O  O6  1  0.01610000  0.69350000  0.91640000  1.0 -0.6774374774
O  O7  1  0.34970000  0.76610000  0.82260000  1.0 -0.6774374774
O  O8  1  0.77710000  0.09970000  0.08360000  1.0 -0.6774374774
O  O9  1  0.39920000  0.25050000  0.16790000  1.0 -0.6902419297
O  O10  1  0.48130000  0.14920000  0.64870000  1.0 -0.6902419297
O  O11  1  0.08260000  0.23130000  0.83210000  1.0 -0.6902419297
O  O12  1  0.50050000  0.83260000  0.35130000  1.0 -0.6902419297
O  O13  1  0.85080000  0.49950000  0.33210000  1.0 -0.6902419297
O  O14  1  0.76870000  0.60080000  0.85130000  1.0 -0.6902419297
O  O15  1  0.16740000  0.51870000  0.66790000  1.0 -0.6902419297
O  O16  1  0.74950000  0.91740000  0.14870000  1.0 -0.6902419297
O  O17  1  0.15720000  0.16710000  0.14210000  1.0 -0.6636527708
O  O18  1  0.26510000  0.90720000  0.49010000  1.0 -0.6636527708
O  O19  1  0.02500000  0.01510000  0.85790000  1.0 -0.6636527708
O  O20  1  0.41710000  0.77500000  0.50990000  1.0 -0.6636527708
O  O21  1  0.09280000  0.58290000  0.35790000  1.0 -0.6636527708
O  O22  1  0.98490000  0.84280000  0.00990000  1.0 -0.6636527708
O  O23  1  0.22500000  0.73490000  0.64210000  1.0 -0.6636527708
O  O24  1  0.83290000  0.97500000  0.99010000  1.0 -0.6636527708
O  O25  1  0.38340000  0.42170000  0.25470000  1.0 -0.6902419297
O  O26  1  0.37870000  0.13340000  0.46170000  1.0 -0.6902419297
O  O27  1  0.16700000  0.12870000  0.74530000  1.0 -0.6902419297
O  O28  1  0.67170000  0.91700000  0.53830000  1.0 -0.6902419297
O  O29  1  0.86660000  0.32830000  0.24530000  1.0 -0.6902419297
O  O30  1  0.87130000  0.61660000  0.03830000  1.0 -0.6902419297
O  O31  1  0.08300000  0.62130000  0.75470000  1.0 -0.6902419297
O  O32  1  0.57830000  0.83300000  0.96170000  1.0 -0.6902419297
O  O33  1  0.54510000  0.50930000  0.46500000  1.0 -0.6963933712
O  O34  1  0.33010000  0.29510000  0.53580000  1.0 -0.6963933712
O  O35  1  0.04430000  0.08010000  0.53500000  1.0 -0.6963933712
O  O36  1  0.75930000  0.79430000  0.46420000  1.0 -0.6963933712
O  O37  1  0.70490000  0.24070000  0.03500000  1.0 -0.6963933712
O  O38  1  0.91990000  0.45490000  0.96420000  1.0 -0.6963933712
O  O39  1  0.20570000  0.66990000  0.96500000  1.0 -0.6963933712
O  O40  1  0.49070000  0.95570000  0.03580000  1.0 -0.6963933712
O  O41  1  0.60760000  0.41770000  0.60490000  1.0 -0.6396988768
O  O42  1  0.25270000  0.35760000  0.68990000  1.0 -0.6396988768
O  O43  1  0.81280000  0.00270000  0.39510000  1.0 -0.6396988768
O  O44  1  0.66770000  0.56280000  0.31010000  1.0 -0.6396988768
O  O45  1  0.64240000  0.33230000  0.89510000  1.0 -0.6396988768
O  O46  1  0.99730000  0.39240000  0.81010000  1.0 -0.6396988768
O  O47  1  0.43720000  0.74730000  0.10490000  1.0 -0.6396988768
O  O48  1  0.58230000  0.18720000  0.18990000  1.0 -0.6396988768
O  O49  1  0.58640000  0.34010000  0.39550000  1.0 -0.6396988768
O  O50  1  0.44090000  0.33640000  0.74630000  1.0 -0.6396988768
O  O51  1  0.94460000  0.19090000  0.60450000  1.0 -0.6340110929
O  O52  1  0.59010000  0.69460000  0.25370000  1.0 -0.6340110929
O  O53  1  0.66360000  0.40990000  0.10450000  1.0 -0.6396988768
O  O54  1  0.80910000  0.41360000  0.75370000  1.0 -0.6396988768
O  O55  1  0.30540000  0.55910000  0.89550000  1.0 -0.6396988768
O  O56  1  0.65990000  0.05540000  0.24630000  1.0 -0.6340110929
