# DDEC6 charges by PACMAN v1.1 (https://github.com/mtap-research/PACMAN-charge/)
data_HIJSIG_ASR_pacman
_symmetry_space_group_name_H-M   'P 1'
_cell_length_a   11.69400000
_cell_length_b   11.69400000
_cell_length_c   11.69400000
_cell_angle_alpha   99.77550000
_cell_angle_beta   99.77550000
_cell_angle_gamma   131.33200000
_symmetry_Int_Tables_number   1
_chemical_formula_structural   ZnH9C9N4O5
_chemical_formula_sum   'Zn4 H36 C36 N16 O20'
_cell_volume   1094.11639999
_cell_formula_units_Z   4
loop_
 _symmetry_equiv_pos_site_id
 _symmetry_equiv_pos_as_xyz
  1  'x, y, z'
loop_
 _atom_site_type_symbol
 _atom_site_label
 _atom_site_symmetry_multiplicity
 _atom_site_fract_x
 _atom_site_fract_y
 _atom_site_fract_z
 _atom_site_occupancy
 _atom_site_charge
Zn  Zn1  1  0.47773000  0.14075000  0.02578000  1.0 0.5954817774
Zn  Zn2  1  0.11497000  0.45195000  0.97422000  1.0 0.5954817774
Zn  Zn3  1  0.54805000  0.52227000  0.66302000  1.0 0.5954817774
Zn  Zn4  1  0.85925000  0.88503000  0.33698000  1.0 0.5954817774
H  H1  1  0.50716000  0.67488000  0.17998000  1.0 0.1005909007
H  H2  1  0.49490000  0.32718000  0.82002000  1.0 0.1005909007
H  H3  1  0.67282000  0.49284000  0.16772000  1.0 0.1005909007
H  H4  1  0.32512000  0.50510000  0.83228000  1.0 0.1005909007
H  H5  1  0.20368000  0.75224000  0.93440000  1.0 0.1005909007
H  H6  1  0.81784000  0.26928000  0.06560000  1.0 0.1005909007
H  H7  1  0.73072000  0.79632000  0.54856000  1.0 0.1005909007
H  H8  1  0.24776000  0.18216000  0.45144000  1.0 0.1005909007
H  H9  1  0.89021000  0.15810000  0.32083000  1.0 0.1089625873
H  H10  1  0.83727000  0.56938000  0.67917000  1.0 0.1089625873
H  H11  1  0.43062000  0.10979000  0.26789000  1.0 0.1089625873
H  H12  1  0.84190000  0.16273000  0.73211000  1.0 0.1089625873
H  H13  1  0.97086000  0.92973000  0.84901000  1.0 0.0700811239
H  H14  1  0.08072000  0.12185000  0.15099000  1.0 0.0700811239
H  H15  1  0.87815000  0.02914000  0.95887000  1.0 0.0700811239
H  H16  1  0.07027000  0.91928000  0.04113000  1.0 0.0700811239
H  H17  1  0.05785000  0.07085000  0.79307000  1.0 0.0895590098
H  H18  1  0.27777000  0.26477000  0.20692000  1.0 0.0895590098
H  H19  1  0.73523000  0.94215000  0.01299000  1.0 0.0895590098
H  H20  1  0.92915000  0.72223000  0.98700000  1.0 0.0895590098
H  H21  1  0.00719000  0.90418000  0.72620000  1.0 0.1089625873
H  H22  1  0.17797000  0.28098000  0.27380000  1.0 0.1089625873
H  H23  1  0.71902000  0.99281000  0.89699000  1.0 0.1089625873
H  H24  1  0.09582000  0.82202000  0.10301000  1.0 0.1089625873
H  H25  1  0.97626000  0.89949000  0.78551000  1.0 0.0895590098
H  H26  1  0.11398000  0.19075000  0.21449000  1.0 0.0895590098
H  H27  1  0.80925000  0.02374000  0.92323000  1.0 0.0895590098
H  H28  1  0.10051000  0.88602000  0.07677000  1.0 0.0895590098
H  H29  1  0.10546000  0.08117000  0.78521000  1.0 0.1005909007
H  H30  1  0.29596000  0.32025000  0.21479000  1.0 0.1005909007
H  H31  1  0.67975000  0.89454000  0.97571000  1.0 0.1005909007
H  H32  1  0.91883000  0.70404000  0.02429000  1.0 0.1005909007
H  H33  1  0.04272000  0.92892000  0.67414000  1.0 0.1089625873
H  H34  1  0.25478000  0.36858000  0.32586000  1.0 0.1089625873
H  H35  1  0.63142000  0.95728000  0.88620000  1.0 0.1089625873
H  H36  1  0.07108000  0.74522000  0.11380000  1.0 0.1089625873
C  C1  1  0.54780000  0.96230000  0.12930000  1.0 0.2690552117
C  C2  1  0.83300000  0.41850000  0.87070000  1.0 0.2690552117
C  C3  1  0.58150000  0.45220000  0.41450000  1.0 0.2690552117
C  C4  1  0.03770000  0.16700000  0.58550000  1.0 0.2690552117
C  C5  1  0.55580000  0.78120000  0.18520000  1.0 -0.096913865
C  C6  1  0.59600000  0.37060000  0.81480000  1.0 -0.096913865
C  C7  1  0.62940000  0.44420000  0.22540000  1.0 -0.0918335376
C  C8  1  0.21880000  0.40400000  0.77460000  1.0 -0.096913865
C  C9  1  0.30060000  0.79310000  0.99410000  1.0 0.0895590098
C  C10  1  0.79900000  0.30650000  0.00590000  1.0 0.0895590098
C  C11  1  0.69350000  0.69940000  0.49250000  1.0 0.0895590098
C  C12  1  0.20690000  0.20100000  0.50750000  1.0 0.0895590098
C  C13  1  0.46600000  0.80000000  0.11600000  1.0 0.0398512612
C  C14  1  0.68400000  0.35000000  0.88400000  1.0 0.0398512612
C  C15  1  0.65000000  0.53400000  0.33400000  1.0 0.0398512612
C  C16  1  0.20000000  0.31600000  0.66600000  1.0 0.0398512612
C  C17  1  0.77820000  0.06560000  0.26640000  1.0 0.1595790329
C  C18  1  0.79920000  0.51180000  0.73360000  1.0 0.1595790329
C  C19  1  0.48820000  0.22180000  0.28740000  1.0 0.1595790329
C  C20  1  0.93440000  0.20080000  0.71260000  1.0 0.1595790329
C  C21  1  0.20870000  0.05880000  0.88550000  1.0 0.2917843702
C  C22  1  0.17330000  0.32320000  0.11450000  1.0 0.2917843702
C  C23  1  0.67680000  0.79130000  0.85010000  1.0 0.2917843702
C  C24  1  0.94120000  0.82670000  0.14990000  1.0 0.2917843702
C  C25  1  0.04810000  0.98500000  0.80710000  1.0 -0.2395557521
C  C26  1  0.17790000  0.24100000  0.19290000  1.0 -0.2395557521
C  C27  1  0.75900000  0.95190000  0.93690000  1.0 -0.2395557521
C  C28  1  0.01500000  0.82210000  0.06310000  1.0 -0.2395557521
C  C29  1  0.20960000  0.00240000  0.83600000  1.0 0.3160433712
C  C30  1  0.16640000  0.37360000  0.16400000  1.0 0.3160433712
C  C31  1  0.62640000  0.79040000  0.79280000  1.0 0.3160433712
C  C32  1  0.99760000  0.83360000  0.20720000  1.0 0.3160433712
C  C33  1  0.07220000  0.97600000  0.76420000  1.0 -0.2039947344
C  C34  1  0.21180000  0.30800000  0.23580000  1.0 -0.2039947344
C  C35  1  0.69200000  0.92780000  0.90380000  1.0 -0.2039947344
C  C36  1  0.02400000  0.78820000  0.09620000  1.0 -0.2039947344
N  N1  1  0.44060000  0.95530000  0.04990000  1.0 -0.4706079719
N  N2  1  0.90540000  0.39070000  0.95010000  1.0 -0.4706079719
N  N3  1  0.60930000  0.55940000  0.51470000  1.0 -0.4706079719
N  N4  1  0.04470000  0.09460000  0.48530000  1.0 -0.4706079719
N  N5  1  0.70290000  0.09640000  0.20510000  1.0 -0.3213382421
N  N6  1  0.89130000  0.49780000  0.79490000  1.0 -0.3213382421
N  N7  1  0.50220000  0.29710000  0.39350000  1.0 -0.3213382421
N  N8  1  0.90360000  0.10870000  0.60650000  1.0 -0.3213382421
N  N9  1  0.71380000  0.91610000  0.26050000  1.0 -0.3919114379
N  N10  1  0.65560000  0.45330000  0.73950000  1.0 -0.3919114379
N  N11  1  0.54670000  0.28620000  0.20230000  1.0 -0.3919114379
N  N12  1  0.08390000  0.34440000  0.79770000  1.0 -0.3919114379
N  N13  1  0.30770000  0.69430000  0.02860000  1.0 -0.3817721961
N  N14  1  0.66570000  0.27910000  0.97140000  1.0 -0.3817721961
N  N15  1  0.72090000  0.69230000  0.38660000  1.0 -0.3817721961
N  N16  1  0.30570000  0.33430000  0.61340000  1.0 -0.3817721961
O  O1  1  0.23170000  0.97490000  0.90660000  1.0 -0.0139881723
O  O2  1  0.06830000  0.32510000  0.09340000  1.0 -0.0139881723
O  O3  1  0.67490000  0.76830000  0.74320000  1.0 -0.0152787307
O  O4  1  0.02510000  0.93170000  0.25680000  1.0 -0.0152787307
O  O5  1  0.33370000  0.20690000  0.93860000  1.0 -0.1242731792
O  O6  1  0.26830000  0.39510000  0.06140000  1.0 -0.1242731792
O  O7  1  0.60490000  0.66630000  0.87320000  1.0 -0.1256179793
O  O8  1  0.79310000  0.73170000  0.12680000  1.0 -0.1256179793
O  O9  1  0.25860000  0.94950000  0.78210000  1.0 -0.3338658495
O  O10  1  0.16740000  0.47650000  0.21790000  1.0 -0.3338658495
O  O11  1  0.52350000  0.74140000  0.69090000  1.0 -0.3338658495
O  O12  1  0.05050000  0.83260000  0.30910000  1.0 -0.3338658495
O  O13  1  0.28680000  0.08430000  0.95310000  1.0 0.0107652499
O  O14  1  0.13120000  0.33370000  0.04690000  1.0 0.0107652499
O  O15  1  0.66630000  0.71320000  0.79750000  1.0 0.0107652499
O  O16  1  0.91570000  0.86880000  0.20250000  1.0 0.0107652499
O  O17  1  0.45400000  0.39860000  0.98860000  1.0 -0.0717098938
O  O18  1  0.41000000  0.46540000  0.01140000  1.0 -0.0717098938
O  O19  1  0.53460000  0.54600000  0.94460000  1.0 -0.0717098938
O  O20  1  0.60140000  0.59000000  0.05540000  1.0 -0.0717098938
