# DDEC6 charges by PACMAN v1.1 (https://github.com/mtap-research/PACMAN-charge/)
data_HIJSOK_ASR_pacman
_symmetry_space_group_name_H-M   'P 1'
_cell_length_a   18.27910000
_cell_length_b   18.27910000
_cell_length_c   17.58390000
_cell_angle_alpha   90.00000000
_cell_angle_beta   90.00000000
_cell_angle_gamma   90.00000000
_symmetry_Int_Tables_number   1
_chemical_formula_structural   CoH5C9N7
_chemical_formula_sum   'Co16 H80 C144 N112'
_cell_volume   5875.22932336
_cell_formula_units_Z   16
loop_
 _symmetry_equiv_pos_site_id
 _symmetry_equiv_pos_as_xyz
  1  'x, y, z'
loop_
 _atom_site_type_symbol
 _atom_site_label
 _atom_site_symmetry_multiplicity
 _atom_site_fract_x
 _atom_site_fract_y
 _atom_site_fract_z
 _atom_site_occupancy
 _atom_site_charge
Co  Co1  1  0.65928000  0.65928000  0.00000000  1.0 0.5937721579
Co  Co2  1  0.34072000  0.34072000  0.50000000  1.0 0.5937721579
Co  Co3  1  0.15928000  0.84072000  0.75000000  1.0 0.5937721579
Co  Co4  1  0.84072000  0.15928000  0.25000000  1.0 0.5937721579
Co  Co5  1  0.84633000  0.56646000  0.08471000  1.0 0.5676849855
Co  Co6  1  0.15367000  0.43354000  0.58471000  1.0 0.5676849855
Co  Co7  1  0.06646000  0.65367000  0.83471000  1.0 0.5676849855
Co  Co8  1  0.93354000  0.34633000  0.33471000  1.0 0.5676849855
Co  Co9  1  0.34633000  0.93354000  0.66529000  1.0 0.5676849855
Co  Co10  1  0.65367000  0.06646000  0.16529000  1.0 0.5676849855
Co  Co11  1  0.56646000  0.84633000  0.91529000  1.0 0.5676849855
Co  Co12  1  0.43354000  0.15367000  0.41529000  1.0 0.5676849855
Co  Co13  1  0.44319000  0.55681000  0.25000000  1.0 0.4098362325
Co  Co14  1  0.55681000  0.44319000  0.75000000  1.0 0.4098362325
Co  Co15  1  0.05681000  0.05681000  0.00000000  1.0 0.4098362325
Co  Co16  1  0.94319000  0.94319000  0.50000000  1.0 0.4098362325
H  H1  1  0.75750000  0.54870000  0.24820000  1.0 0.1022989301
H  H2  1  0.24250000  0.45130000  0.74820000  1.0 0.1022989301
H  H3  1  0.04870000  0.74250000  0.99820000  1.0 0.1022989301
H  H4  1  0.95130000  0.25750000  0.49820000  1.0 0.1022989301
H  H5  1  0.25750000  0.95130000  0.50180000  1.0 0.1022989301
H  H6  1  0.74250000  0.04870000  0.00180000  1.0 0.1022989301
H  H7  1  0.54870000  0.75750000  0.75180000  1.0 0.1022989301
H  H8  1  0.45130000  0.24250000  0.25180000  1.0 0.1022989301
H  H9  1  0.33360000  0.68770000  0.02610000  1.0 0.1408190316
H  H10  1  0.66640000  0.31230000  0.52610000  1.0 0.1408190316
H  H11  1  0.18770000  0.16640000  0.77610000  1.0 0.1408190316
H  H12  1  0.81230000  0.83360000  0.27610000  1.0 0.1408190316
H  H13  1  0.83360000  0.81230000  0.72390000  1.0 0.1408190316
H  H14  1  0.16640000  0.18770000  0.22390000  1.0 0.1408190316
H  H15  1  0.68770000  0.33360000  0.97390000  1.0 0.1408190316
H  H16  1  0.31230000  0.66640000  0.47390000  1.0 0.1408190316
H  H17  1  0.21290000  0.67680000  0.05020000  1.0 0.1282043722
H  H18  1  0.78710000  0.32320000  0.55020000  1.0 0.1282043722
H  H19  1  0.17680000  0.28710000  0.80020000  1.0 0.1282043722
H  H20  1  0.82320000  0.71290000  0.30020000  1.0 0.1282043722
H  H21  1  0.71290000  0.82320000  0.69980000  1.0 0.1282043722
H  H22  1  0.28710000  0.17680000  0.19980000  1.0 0.1282043722
H  H23  1  0.67680000  0.21290000  0.94980000  1.0 0.1282043722
H  H24  1  0.32320000  0.78710000  0.44980000  1.0 0.1282043722
H  H25  1  0.17960000  0.61570000  0.15210000  1.0 0.1408190316
H  H26  1  0.82040000  0.38430000  0.65210000  1.0 0.1408190316
H  H27  1  0.11570000  0.32040000  0.90210000  1.0 0.1408190316
H  H28  1  0.88430000  0.67960000  0.40210000  1.0 0.1408190316
H  H29  1  0.67960000  0.88430000  0.59790000  1.0 0.1408190316
H  H30  1  0.32040000  0.11570000  0.09790000  1.0 0.1408190316
H  H31  1  0.61570000  0.17960000  0.84790000  1.0 0.1408190316
H  H32  1  0.38430000  0.82040000  0.34790000  1.0 0.1408190316
H  H33  1  0.26210000  0.56300000  0.23480000  1.0 0.1091654895
H  H34  1  0.73790000  0.43700000  0.73480000  1.0 0.1091654895
H  H35  1  0.06300000  0.23790000  0.98480000  1.0 0.1091654895
H  H36  1  0.93700000  0.76210000  0.48480000  1.0 0.1091654895
H  H37  1  0.76210000  0.93700000  0.51520000  1.0 0.1091654895
H  H38  1  0.23790000  0.06300000  0.01520000  1.0 0.1091654895
H  H39  1  0.56300000  0.26210000  0.76520000  1.0 0.1091654895
H  H40  1  0.43700000  0.73790000  0.26520000  1.0 0.1091654895
H  H41  1  0.76280000  0.72600000  0.85920000  1.0 0.1022989301
H  H42  1  0.23720000  0.27400000  0.35920000  1.0 0.1022989301
H  H43  1  0.22600000  0.73720000  0.60920000  1.0 0.1022989301
H  H44  1  0.77400000  0.26280000  0.10920000  1.0 0.1022989301
H  H45  1  0.26280000  0.77400000  0.89080000  1.0 0.1022989301
H  H46  1  0.73720000  0.22600000  0.39080000  1.0 0.1022989301
H  H47  1  0.72600000  0.76280000  0.14080000  1.0 0.1022989301
H  H48  1  0.27400000  0.23720000  0.64080000  1.0 0.1022989301
H  H49  1  0.15520000  0.47640000  0.03130000  1.0 0.1408190316
H  H50  1  0.84480000  0.52360000  0.53130000  1.0 0.1408190316
H  H51  1  0.97640000  0.34480000  0.78130000  1.0 0.1408190316
H  H52  1  0.02360000  0.65520000  0.28130000  1.0 0.1408190316
H  H53  1  0.65520000  0.02360000  0.71870000  1.0 0.1408190316
H  H54  1  0.34480000  0.97640000  0.21870000  1.0 0.1408190316
H  H55  1  0.47640000  0.15520000  0.96870000  1.0 0.1408190316
H  H56  1  0.52360000  0.84480000  0.46870000  1.0 0.1408190316
H  H57  1  0.27430000  0.46750000  0.00190000  1.0 0.1282043722
H  H58  1  0.72570000  0.53250000  0.50190000  1.0 0.1282043722
H  H59  1  0.96750000  0.22570000  0.75190000  1.0 0.1282043722
H  H60  1  0.03250000  0.77430000  0.25190000  1.0 0.1282043722
H  H61  1  0.77430000  0.03250000  0.74810000  1.0 0.1282043722
H  H62  1  0.22570000  0.96750000  0.24810000  1.0 0.1282043722
H  H63  1  0.46750000  0.27430000  0.99810000  1.0 0.1282043722
H  H64  1  0.53250000  0.72570000  0.49810000  1.0 0.1282043722
H  H65  1  0.31670000  0.53110000  0.90280000  1.0 0.1498115055
H  H66  1  0.68330000  0.46890000  0.40280000  1.0 0.1498115055
H  H67  1  0.03110000  0.18330000  0.65280000  1.0 0.1498115055
H  H68  1  0.96890000  0.81670000  0.15280000  1.0 0.1498115055
H  H69  1  0.81670000  0.96890000  0.84720000  1.0 0.1498115055
H  H70  1  0.18330000  0.03110000  0.34720000  1.0 0.1498115055
H  H71  1  0.53110000  0.31670000  0.09720000  1.0 0.1498115055
H  H72  1  0.46890000  0.68330000  0.59720000  1.0 0.1498115055
H  H73  1  0.24310000  0.61350000  0.84020000  1.0 0.1091654895
H  H74  1  0.75690000  0.38650000  0.34020000  1.0 0.1091654895
H  H75  1  0.11350000  0.25690000  0.59020000  1.0 0.1091654895
H  H76  1  0.88650000  0.74310000  0.09020000  1.0 0.1091654895
H  H77  1  0.74310000  0.88650000  0.90980000  1.0 0.1091654895
H  H78  1  0.25690000  0.11350000  0.40980000  1.0 0.1091654895
H  H79  1  0.61350000  0.24310000  0.15980000  1.0 0.1091654895
H  H80  1  0.38650000  0.75690000  0.65980000  1.0 0.1091654895
C  C1  1  0.72670000  0.56680000  0.21050000  1.0 0.1282043722
C  C2  1  0.27330000  0.43320000  0.71050000  1.0 0.1282043722
C  C3  1  0.06680000  0.77330000  0.96050000  1.0 0.1282043722
C  C4  1  0.93320000  0.22670000  0.46050000  1.0 0.1282043722
C  C5  1  0.22670000  0.93320000  0.53950000  1.0 0.1282043722
C  C6  1  0.77330000  0.06680000  0.03950000  1.0 0.1282043722
C  C7  1  0.56680000  0.72670000  0.78950000  1.0 0.1282043722
C  C8  1  0.43320000  0.27330000  0.28950000  1.0 0.1282043722
C  C9  1  0.63340000  0.60150000  0.15370000  1.0 0.2383876851
C  C10  1  0.36660000  0.39850000  0.65370000  1.0 0.2383876851
C  C11  1  0.10150000  0.86660000  0.90370000  1.0 0.2383876851
C  C12  1  0.89850000  0.13340000  0.40370000  1.0 0.2383876851
C  C13  1  0.13340000  0.89850000  0.59630000  1.0 0.2383876851
C  C14  1  0.86660000  0.10150000  0.09630000  1.0 0.2383876851
C  C15  1  0.60150000  0.63340000  0.84630000  1.0 0.2383876851
C  C16  1  0.39850000  0.36660000  0.34630000  1.0 0.2383876851
C  C17  1  0.56120000  0.61980000  0.12600000  1.0 0.2383876851
C  C18  1  0.43880000  0.38020000  0.62600000  1.0 0.2383876851
C  C19  1  0.11980000  0.93880000  0.87600000  1.0 0.2383876851
C  C20  1  0.88020000  0.06120000  0.37600000  1.0 0.2383876851
C  C21  1  0.06120000  0.88020000  0.62400000  1.0 0.2383876851
C  C22  1  0.93880000  0.11980000  0.12400000  1.0 0.2383876851
C  C23  1  0.61980000  0.56120000  0.87400000  1.0 0.2383876851
C  C24  1  0.38020000  0.43880000  0.37400000  1.0 0.2383876851
C  C25  1  0.44940000  0.63490000  0.10470000  1.0 0.2259585707
C  C26  1  0.55060000  0.36510000  0.60470000  1.0 0.2259585707
C  C27  1  0.13490000  0.05060000  0.85470000  1.0 0.2229505448
C  C28  1  0.86510000  0.94940000  0.35470000  1.0 0.2259585707
C  C29  1  0.94940000  0.86510000  0.64530000  1.0 0.2259585707
C  C30  1  0.05060000  0.13490000  0.14530000  1.0 0.2259585707
C  C31  1  0.63490000  0.44940000  0.89530000  1.0 0.2229505448
C  C32  1  0.36510000  0.55060000  0.39530000  1.0 0.2259585707
C  C33  1  0.37070000  0.63090000  0.11560000  1.0 0.1498115055
C  C34  1  0.62930000  0.36910000  0.61560000  1.0 0.1498115055
C  C35  1  0.13090000  0.12930000  0.86560000  1.0 0.1498115055
C  C36  1  0.86910000  0.87070000  0.36560000  1.0 0.1498115055
C  C37  1  0.87070000  0.86910000  0.63440000  1.0 0.1498115055
C  C38  1  0.12930000  0.13090000  0.13440000  1.0 0.1498115055
C  C39  1  0.63090000  0.37070000  0.88440000  1.0 0.1498115055
C  C40  1  0.36910000  0.62930000  0.38440000  1.0 0.1498115055
C  C41  1  0.31840000  0.66180000  0.06880000  1.0 -0.1779432438
C  C42  1  0.68160000  0.33820000  0.56880000  1.0 -0.1779432438
C  C43  1  0.16180000  0.18160000  0.81880000  1.0 -0.1779432438
C  C44  1  0.83820000  0.81840000  0.31880000  1.0 -0.1779432438
C  C45  1  0.81840000  0.83820000  0.68120000  1.0 -0.1779432438
C  C46  1  0.18160000  0.16180000  0.18120000  1.0 -0.1779432438
C  C47  1  0.66180000  0.31840000  0.93120000  1.0 -0.1779432438
C  C48  1  0.33820000  0.68160000  0.43120000  1.0 -0.1779432438
C  C49  1  0.24760000  0.65600000  0.08230000  1.0 -0.056997304
C  C50  1  0.75240000  0.34400000  0.58230000  1.0 -0.056997304
C  C51  1  0.15600000  0.25240000  0.83230000  1.0 -0.056997304
C  C52  1  0.84400000  0.74760000  0.33230000  1.0 -0.056997304
C  C53  1  0.74760000  0.84400000  0.66770000  1.0 -0.056997304
C  C54  1  0.25240000  0.15600000  0.16770000  1.0 -0.056997304
C  C55  1  0.65600000  0.24760000  0.91770000  1.0 -0.056997304
C  C56  1  0.34400000  0.75240000  0.41770000  1.0 -0.056997304
C  C57  1  0.22920000  0.62050000  0.14160000  1.0 -0.1632465535
C  C58  1  0.77080000  0.37950000  0.64160000  1.0 -0.1632465535
C  C59  1  0.12050000  0.27080000  0.89160000  1.0 -0.1632465535
C  C60  1  0.87950000  0.72920000  0.39160000  1.0 -0.1632465535
C  C61  1  0.72920000  0.87950000  0.60840000  1.0 -0.1632465535
C  C62  1  0.27080000  0.12050000  0.10840000  1.0 -0.1632465535
C  C63  1  0.62050000  0.22920000  0.85840000  1.0 -0.1632465535
C  C64  1  0.37950000  0.77080000  0.35840000  1.0 -0.1632465535
C  C65  1  0.27890000  0.58810000  0.19220000  1.0 0.0717103797
C  C66  1  0.72110000  0.41190000  0.69220000  1.0 0.0717103797
C  C67  1  0.08810000  0.22110000  0.94220000  1.0 0.0717103797
C  C68  1  0.91190000  0.77890000  0.44220000  1.0 0.0717103797
C  C69  1  0.77890000  0.91190000  0.55780000  1.0 0.0717103797
C  C70  1  0.22110000  0.08810000  0.05780000  1.0 0.0717103797
C  C71  1  0.58810000  0.27890000  0.80780000  1.0 0.0717103797
C  C72  1  0.41190000  0.72110000  0.30780000  1.0 0.0717103797
C  C73  1  0.79060000  0.69710000  0.89170000  1.0 0.1216418611
C  C74  1  0.20940000  0.30290000  0.39170000  1.0 0.1216418611
C  C75  1  0.19710000  0.70940000  0.64170000  1.0 0.1216418611
C  C76  1  0.80290000  0.29060000  0.14170000  1.0 0.1216418611
C  C77  1  0.29060000  0.80290000  0.85830000  1.0 0.1216418611
C  C78  1  0.70940000  0.19710000  0.35830000  1.0 0.1216418611
C  C79  1  0.69710000  0.79060000  0.10830000  1.0 0.1216418611
C  C80  1  0.30290000  0.20940000  0.60830000  1.0 0.1216418611
C  C81  1  0.87800000  0.64070000  0.94000000  1.0 0.2259585707
C  C82  1  0.12200000  0.35930000  0.44000000  1.0 0.2259585707
C  C83  1  0.14070000  0.62200000  0.69000000  1.0 0.2259585707
C  C84  1  0.85930000  0.37800000  0.19000000  1.0 0.2259585707
C  C85  1  0.37800000  0.85930000  0.81000000  1.0 0.2259585707
C  C86  1  0.62200000  0.14070000  0.31000000  1.0 0.2259585707
C  C87  1  0.64070000  0.87800000  0.06000000  1.0 0.2259585707
C  C88  1  0.35930000  0.12200000  0.56000000  1.0 0.2259585707
C  C89  1  0.94580000  0.60400000  0.95980000  1.0 0.251558557
C  C90  1  0.05420000  0.39600000  0.45980000  1.0 0.251558557
C  C91  1  0.10400000  0.55420000  0.70980000  1.0 0.251558557
C  C92  1  0.89600000  0.44580000  0.20980000  1.0 0.251558557
C  C93  1  0.44580000  0.89600000  0.79020000  1.0 0.251558557
C  C94  1  0.55420000  0.10400000  0.29020000  1.0 0.251558557
C  C95  1  0.60400000  0.94580000  0.04020000  1.0 0.251558557
C  C96  1  0.39600000  0.05420000  0.54020000  1.0 0.251558557
C  C97  1  0.05080000  0.56350000  0.97140000  1.0 0.2229505448
C  C98  1  0.94920000  0.43650000  0.47140000  1.0 0.2229505448
C  C99  1  0.06350000  0.44920000  0.72140000  1.0 0.2229505448
C  C100  1  0.93650000  0.55080000  0.22140000  1.0 0.2229505448
C  C101  1  0.55080000  0.93650000  0.77860000  1.0 0.2229505448
C  C102  1  0.44920000  0.06350000  0.27860000  1.0 0.2229505448
C  C103  1  0.56350000  0.05080000  0.02860000  1.0 0.2229505448
C  C104  1  0.43650000  0.94920000  0.52860000  1.0 0.2229505448
C  C105  1  0.12820000  0.55280000  0.95480000  1.0 0.1498115055
C  C106  1  0.87180000  0.44720000  0.45480000  1.0 0.1498115055
C  C107  1  0.05280000  0.37180000  0.70480000  1.0 0.1498115055
C  C108  1  0.94720000  0.62820000  0.20480000  1.0 0.1498115055
C  C109  1  0.62820000  0.94720000  0.79520000  1.0 0.1498115055
C  C110  1  0.37180000  0.05280000  0.29520000  1.0 0.1498115055
C  C111  1  0.55280000  0.12820000  0.04520000  1.0 0.1498115055
C  C112  1  0.44720000  0.87180000  0.54520000  1.0 0.1498115055
C  C113  1  0.17410000  0.50500000  0.99230000  1.0 -0.1903804393
C  C114  1  0.82590000  0.49500000  0.49230000  1.0 -0.1903804393
C  C115  1  0.00500000  0.32590000  0.74230000  1.0 -0.1903804393
C  C116  1  0.99500000  0.67410000  0.24230000  1.0 -0.1903804393
C  C117  1  0.67410000  0.99500000  0.75770000  1.0 -0.1903804393
C  C118  1  0.32590000  0.00500000  0.25770000  1.0 -0.1903804393
C  C119  1  0.50500000  0.17410000  0.00770000  1.0 -0.1903804393
C  C120  1  0.49500000  0.82590000  0.50770000  1.0 -0.1903804393
C  C121  1  0.24370000  0.49850000  0.97460000  1.0 -0.056997304
C  C122  1  0.75630000  0.50150000  0.47460000  1.0 -0.056997304
C  C123  1  0.99850000  0.25630000  0.72460000  1.0 -0.056997304
C  C124  1  0.00150000  0.74370000  0.22460000  1.0 -0.056997304
C  C125  1  0.74370000  0.00150000  0.77540000  1.0 -0.0549424888
C  C126  1  0.25630000  0.99850000  0.27540000  1.0 -0.056997304
C  C127  1  0.49850000  0.24370000  0.02540000  1.0 -0.056997304
C  C128  1  0.50150000  0.75630000  0.52540000  1.0 -0.056997304
C  C129  1  0.26830000  0.53660000  0.91790000  1.0 -0.1705002339
C  C130  1  0.73170000  0.46340000  0.41790000  1.0 -0.1705002339
C  C131  1  0.03660000  0.23170000  0.66790000  1.0 -0.1705002339
C  C132  1  0.96340000  0.76830000  0.16790000  1.0 -0.1705002339
C  C133  1  0.76830000  0.96340000  0.83210000  1.0 -0.1705002339
C  C134  1  0.23170000  0.03660000  0.33210000  1.0 -0.1705002339
C  C135  1  0.53660000  0.26830000  0.08210000  1.0 -0.1705002339
C  C136  1  0.46340000  0.73170000  0.58210000  1.0 -0.1705002339
C  C137  1  0.22350000  0.58560000  0.87940000  1.0 0.0839883572
C  C138  1  0.77650000  0.41440000  0.37940000  1.0 0.0839883572
C  C139  1  0.08560000  0.27650000  0.62940000  1.0 0.0839883572
C  C140  1  0.91440000  0.72350000  0.12940000  1.0 0.0839883572
C  C141  1  0.72350000  0.91440000  0.87060000  1.0 0.0839883572
C  C142  1  0.27650000  0.08560000  0.37060000  1.0 0.0839883572
C  C143  1  0.58560000  0.22350000  0.12060000  1.0 0.0839883572
C  C144  1  0.41440000  0.77650000  0.62060000  1.0 0.0839883572
N  N1  1  0.75130000  0.58750000  0.14315000  1.0 -0.1992352209
N  N2  1  0.24870000  0.41250000  0.64315000  1.0 -0.1992352209
N  N3  1  0.08750000  0.74870000  0.89315000  1.0 -0.1992352209
N  N4  1  0.91250000  0.25130000  0.39315000  1.0 -0.1992352209
N  N5  1  0.25130000  0.91250000  0.60685000  1.0 -0.1992352209
N  N6  1  0.74870000  0.08750000  0.10685000  1.0 -0.1992352209
N  N7  1  0.58750000  0.75130000  0.85685000  1.0 -0.1992352209
N  N8  1  0.41250000  0.24870000  0.35685000  1.0 -0.1992352209
N  N9  1  0.68732000  0.61092000  0.10533000  1.0 -0.2175971395
N  N10  1  0.31268000  0.38908000  0.60533000  1.0 -0.2175971395
N  N11  1  0.11092000  0.81268000  0.85533000  1.0 -0.2175971395
N  N12  1  0.88908000  0.18732000  0.35533000  1.0 -0.2175971395
N  N13  1  0.18732000  0.88908000  0.64467000  1.0 -0.2175971395
N  N14  1  0.81268000  0.11092000  0.14467000  1.0 -0.2175971395
N  N15  1  0.61092000  0.68732000  0.89467000  1.0 -0.2175971395
N  N16  1  0.38908000  0.31268000  0.39467000  1.0 -0.2175971395
N  N17  1  0.65420000  0.57370000  0.22060000  1.0 -0.3810365031
N  N18  1  0.34580000  0.42630000  0.72060000  1.0 -0.3810365031
N  N19  1  0.07370000  0.84580000  0.97060000  1.0 -0.3852043302
N  N20  1  0.92630000  0.15420000  0.47060000  1.0 -0.3810365031
N  N21  1  0.15420000  0.92630000  0.52940000  1.0 -0.3810365031
N  N22  1  0.84580000  0.07370000  0.02940000  1.0 -0.3810365031
N  N23  1  0.57370000  0.65420000  0.77940000  1.0 -0.3852043302
N  N24  1  0.42630000  0.34580000  0.27940000  1.0 -0.3810365031
N  N25  1  0.55640000  0.64770000  0.05720000  1.0 -0.1992352209
N  N26  1  0.44360000  0.35230000  0.55720000  1.0 -0.1992352209
N  N27  1  0.14770000  0.94360000  0.80720000  1.0 -0.1992352209
N  N28  1  0.85230000  0.05640000  0.30720000  1.0 -0.1992352209
N  N29  1  0.05640000  0.85230000  0.69280000  1.0 -0.1992352209
N  N30  1  0.94360000  0.14770000  0.19280000  1.0 -0.1992352209
N  N31  1  0.64770000  0.55640000  0.94280000  1.0 -0.1992352209
N  N32  1  0.35230000  0.44360000  0.44280000  1.0 -0.1992352209
N  N33  1  0.48310000  0.65890000  0.04260000  1.0 -0.2400132922
N  N34  1  0.51690000  0.34110000  0.54260000  1.0 -0.2400132922
N  N35  1  0.15890000  0.01690000  0.79260000  1.0 -0.2400132922
N  N36  1  0.84110000  0.98310000  0.29260000  1.0 -0.2400132922
N  N37  1  0.98310000  0.84110000  0.70740000  1.0 -0.2400132922
N  N38  1  0.01690000  0.15890000  0.20740000  1.0 -0.2400132922
N  N39  1  0.65890000  0.48310000  0.95740000  1.0 -0.2400132922
N  N40  1  0.34110000  0.51690000  0.45740000  1.0 -0.2400132922
N  N41  1  0.49470000  0.61090000  0.15910000  1.0 -0.3662801945
N  N42  1  0.50530000  0.38910000  0.65910000  1.0 -0.3662801945
N  N43  1  0.11090000  0.00530000  0.90910000  1.0 -0.3662801945
N  N44  1  0.88910000  0.99470000  0.40910000  1.0 -0.3662801945
N  N45  1  0.99470000  0.88910000  0.59090000  1.0 -0.3662801945
N  N46  1  0.00530000  0.11090000  0.09090000  1.0 -0.3662801945
N  N47  1  0.61090000  0.49470000  0.84090000  1.0 -0.3662801945
N  N48  1  0.38910000  0.50530000  0.34090000  1.0 -0.3662801945
N  N49  1  0.35130000  0.59360000  0.17860000  1.0 -0.2137290034
N  N50  1  0.64870000  0.40640000  0.67860000  1.0 -0.2137290034
N  N51  1  0.09360000  0.14870000  0.92860000  1.0 -0.2137290034
N  N52  1  0.90640000  0.85130000  0.42860000  1.0 -0.2137290034
N  N53  1  0.85130000  0.90640000  0.57140000  1.0 -0.2137290034
N  N54  1  0.14870000  0.09360000  0.07140000  1.0 -0.2137290034
N  N55  1  0.59360000  0.35130000  0.82140000  1.0 -0.2137290034
N  N56  1  0.40640000  0.64870000  0.32140000  1.0 -0.2137290034
N  N57  1  0.82180000  0.63106000  0.98740000  1.0 -0.2256264092
N  N58  1  0.17820000  0.36894000  0.48740000  1.0 -0.2256264092
N  N59  1  0.13106000  0.67820000  0.73740000  1.0 -0.2256264092
N  N60  1  0.86894000  0.32180000  0.23740000  1.0 -0.2256264092
N  N61  1  0.32180000  0.86894000  0.76260000  1.0 -0.2256264092
N  N62  1  0.67820000  0.13106000  0.26260000  1.0 -0.2256264092
N  N63  1  0.63106000  0.82180000  0.01260000  1.0 -0.2175971395
N  N64  1  0.36894000  0.17820000  0.51260000  1.0 -0.2256264092
N  N65  1  0.76420000  0.66700000  0.95530000  1.0 -0.1779432438
N  N66  1  0.23580000  0.33300000  0.45530000  1.0 -0.1779432438
N  N67  1  0.16700000  0.73580000  0.70530000  1.0 -0.1779432438
N  N68  1  0.83300000  0.26420000  0.20530000  1.0 -0.1779432438
N  N69  1  0.26420000  0.83300000  0.79470000  1.0 -0.1779432438
N  N70  1  0.73580000  0.16700000  0.29470000  1.0 -0.1779432438
N  N71  1  0.66700000  0.76420000  0.04470000  1.0 -0.1779432438
N  N72  1  0.33300000  0.23580000  0.54470000  1.0 -0.1779432438
N  N73  1  0.86240000  0.68110000  0.87920000  1.0 -0.3810365031
N  N74  1  0.13760000  0.31890000  0.37920000  1.0 -0.3810365031
N  N75  1  0.18110000  0.63760000  0.62920000  1.0 -0.3810365031
N  N76  1  0.81890000  0.36240000  0.12920000  1.0 -0.3810365031
N  N77  1  0.36240000  0.81890000  0.87080000  1.0 -0.3810365031
N  N78  1  0.63760000  0.18110000  0.37080000  1.0 -0.3810365031
N  N79  1  0.68110000  0.86240000  0.12080000  1.0 -0.3810365031
N  N80  1  0.31890000  0.13760000  0.62080000  1.0 -0.3810365031
N  N81  1  0.94570000  0.56060000  0.02020000  1.0 -0.1992352209
N  N82  1  0.05430000  0.43940000  0.52020000  1.0 -0.1992352209
N  N83  1  0.06060000  0.55430000  0.77020000  1.0 -0.1992352209
N  N84  1  0.93940000  0.44570000  0.27020000  1.0 -0.1992352209
N  N85  1  0.44570000  0.93940000  0.72980000  1.0 -0.1992352209
N  N86  1  0.55430000  0.06060000  0.22980000  1.0 -0.1992352209
N  N87  1  0.56060000  0.94570000  0.97980000  1.0 -0.1992352209
N  N88  1  0.43940000  0.05430000  0.47980000  1.0 -0.1992352209
N  N89  1  0.01440000  0.53370000  0.02910000  1.0 -0.2484410667
N  N90  1  0.98560000  0.46630000  0.52910000  1.0 -0.2484410667
N  N91  1  0.03370000  0.48560000  0.77910000  1.0 -0.2484410667
N  N92  1  0.96630000  0.51440000  0.27910000  1.0 -0.2484410667
N  N93  1  0.51440000  0.96630000  0.72090000  1.0 -0.2484410667
N  N94  1  0.48560000  0.03370000  0.22090000  1.0 -0.2484410667
N  N95  1  0.53370000  0.01440000  0.97090000  1.0 -0.2484410667
N  N96  1  0.46630000  0.98560000  0.47090000  1.0 -0.2484410667
N  N97  1  0.01054000  0.60814000  0.92700000  1.0 -0.3482778558
N  N98  1  0.98946000  0.39186000  0.42700000  1.0 -0.3482778558
N  N99  1  0.10814000  0.48946000  0.67700000  1.0 -0.3482778558
N  N100  1  0.89186000  0.51054000  0.17700000  1.0 -0.3482778558
N  N101  1  0.51054000  0.89186000  0.82300000  1.0 -0.3482778558
N  N102  1  0.48946000  0.10814000  0.32300000  1.0 -0.3482778558
N  N103  1  0.60814000  0.01054000  0.07300000  1.0 -0.3482778558
N  N104  1  0.39186000  0.98946000  0.57300000  1.0 -0.3482778558
N  N105  1  0.15510000  0.59320000  0.89680000  1.0 -0.2175971395
N  N106  1  0.84490000  0.40680000  0.39680000  1.0 -0.2137290034
N  N107  1  0.09320000  0.34490000  0.64680000  1.0 -0.2175971395
N  N108  1  0.90680000  0.65510000  0.14680000  1.0 -0.2137290034
N  N109  1  0.65510000  0.90680000  0.85320000  1.0 -0.2137290034
N  N110  1  0.34490000  0.09320000  0.35320000  1.0 -0.2137290034
N  N111  1  0.59320000  0.15510000  0.10320000  1.0 -0.2137290034
N  N112  1  0.40680000  0.84490000  0.60320000  1.0 -0.2175971395
