# DDEC6 charges by PACMAN v1.1 (https://github.com/mtap-research/PACMAN-charge/)
data_HIQDUJ01_FSR_pacman
_symmetry_space_group_name_H-M   'P 1'
_cell_length_a   21.98000000
_cell_length_b   21.98000000
_cell_length_c   8.96000000
_cell_angle_alpha   90.00000000
_cell_angle_beta   90.00000000
_cell_angle_gamma   90.00000000
_symmetry_Int_Tables_number   1
_chemical_formula_structural   Co2NiP4H24C44(NO3)4
_chemical_formula_sum   'Co4 Ni2 P8 H48 C88 N8 O24'
_cell_volume   4328.75878400
_cell_formula_units_Z   2
loop_
 _symmetry_equiv_pos_site_id
 _symmetry_equiv_pos_as_xyz
  1  'x, y, z'
loop_
 _atom_site_type_symbol
 _atom_site_label
 _atom_site_symmetry_multiplicity
 _atom_site_fract_x
 _atom_site_fract_y
 _atom_site_fract_z
 _atom_site_occupancy
 _atom_site_charge
Co  Co1  1  0.00000000  0.50000000  0.92840000  1.0 1.2761305855
Co  Co2  1  0.50000000  0.00000000  0.07160000  1.0 1.2761305855
Co  Co3  1  0.00000000  0.50000000  0.42840000  1.0 1.2761305855
Co  Co4  1  0.50000000  0.00000000  0.57160000  1.0 1.2761305855
Ni  Ni1  1  0.50000000  0.50000000  0.00000000  1.0 0.3726756857
Ni  Ni2  1  0.50000000  0.50000000  0.50000000  1.0 0.3726756857
P  P1  1  0.92300000  0.58100000  0.18290000  1.0 1.3129532026
P  P2  1  0.07700000  0.41900000  0.18290000  1.0 1.3129532026
P  P3  1  0.41900000  0.92300000  0.81710000  1.0 1.3129532026
P  P4  1  0.58100000  0.07700000  0.81710000  1.0 1.3129532026
P  P5  1  0.92300000  0.41900000  0.68290000  1.0 1.3129532026
P  P6  1  0.07700000  0.58100000  0.68290000  1.0 1.3129532026
P  P7  1  0.41900000  0.07700000  0.31710000  1.0 1.3129532026
P  P8  1  0.58100000  0.92300000  0.31710000  1.0 1.3129532026
H  H1  1  0.57250000  0.71120000  0.87160000  1.0 0.137548341
H  H2  1  0.66940000  0.65650000  0.94480000  1.0 0.137548341
H  H3  1  0.75350000  0.49650000  0.89870000  1.0 0.1212157696
H  H4  1  0.85610000  0.51080000  0.96510000  1.0 0.1519345702
H  H5  1  0.80850000  0.63020000  0.28230000  1.0 0.137548341
H  H6  1  0.70480000  0.61270000  0.23830000  1.0 0.1212157696
H  H7  1  0.42750000  0.28880000  0.87160000  1.0 0.137548341
H  H8  1  0.33060000  0.34350000  0.94480000  1.0 0.137548341
H  H9  1  0.24650000  0.50350000  0.89870000  1.0 0.1212157696
H  H10  1  0.14390000  0.48920000  0.96510000  1.0 0.1519345702
H  H11  1  0.19150000  0.36980000  0.28230000  1.0 0.137548341
H  H12  1  0.29520000  0.38730000  0.23830000  1.0 0.1212157696
H  H13  1  0.28880000  0.57250000  0.12840000  1.0 0.137548341
H  H14  1  0.34350000  0.66940000  0.05520000  1.0 0.137548341
H  H15  1  0.50350000  0.75350000  0.10130000  1.0 0.1212157696
H  H16  1  0.48920000  0.85610000  0.03490000  1.0 0.1519345702
H  H17  1  0.36980000  0.80850000  0.71770000  1.0 0.137548341
H  H18  1  0.38730000  0.70480000  0.76170000  1.0 0.1212157696
H  H19  1  0.71120000  0.42750000  0.12840000  1.0 0.137548341
H  H20  1  0.65650000  0.33060000  0.05520000  1.0 0.137548341
H  H21  1  0.49650000  0.24650000  0.10130000  1.0 0.1212157696
H  H22  1  0.51080000  0.14390000  0.03490000  1.0 0.1519345702
H  H23  1  0.63020000  0.19150000  0.71770000  1.0 0.137548341
H  H24  1  0.61270000  0.29520000  0.76170000  1.0 0.1212157696
H  H25  1  0.57250000  0.28880000  0.37160000  1.0 0.137548341
H  H26  1  0.66940000  0.34350000  0.44480000  1.0 0.137548341
H  H27  1  0.75350000  0.50350000  0.39870000  1.0 0.1212157696
H  H28  1  0.85610000  0.48920000  0.46510000  1.0 0.1519345702
H  H29  1  0.80850000  0.36980000  0.78230000  1.0 0.137548341
H  H30  1  0.70480000  0.38730000  0.73830000  1.0 0.1212157696
H  H31  1  0.42750000  0.71120000  0.37160000  1.0 0.137548341
H  H32  1  0.33060000  0.65650000  0.44480000  1.0 0.137548341
H  H33  1  0.24650000  0.49650000  0.39870000  1.0 0.1212157696
H  H34  1  0.14390000  0.51080000  0.46510000  1.0 0.1519345702
H  H35  1  0.19150000  0.63020000  0.78230000  1.0 0.137548341
H  H36  1  0.29520000  0.61270000  0.73830000  1.0 0.1212157696
H  H37  1  0.28880000  0.42750000  0.62840000  1.0 0.137548341
H  H38  1  0.34350000  0.33060000  0.55520000  1.0 0.137548341
H  H39  1  0.50350000  0.24650000  0.60130000  1.0 0.1212157696
H  H40  1  0.48920000  0.14390000  0.53490000  1.0 0.1519345702
H  H41  1  0.36980000  0.19150000  0.21770000  1.0 0.137548341
H  H42  1  0.38730000  0.29520000  0.26170000  1.0 0.1212157696
H  H43  1  0.71120000  0.57250000  0.62840000  1.0 0.137548341
H  H44  1  0.65650000  0.66940000  0.55520000  1.0 0.137548341
H  H45  1  0.49650000  0.75350000  0.60130000  1.0 0.1212157696
H  H46  1  0.51080000  0.85610000  0.53490000  1.0 0.1519345702
H  H47  1  0.63020000  0.80850000  0.21770000  1.0 0.137548341
H  H48  1  0.61270000  0.70480000  0.26170000  1.0 0.1212157696
C  C1  1  0.52830000  0.63210000  0.95300000  1.0 0.1819539951
C  C2  1  0.57600000  0.67170000  0.91390000  1.0 -0.176567228
C  C3  1  0.62910000  0.64120000  0.95010000  1.0 -0.171967098
C  C4  1  0.61010000  0.58070000  0.99800000  1.0 0.1858009422
C  C5  1  0.65150000  0.53560000  0.04550000  1.0 -0.0302482522
C  C6  1  0.71680000  0.54950000  0.07020000  1.0 0.0984132425
C  C7  1  0.76380000  0.52160000  0.98120000  1.0 -0.1241409569
C  C8  1  0.82530000  0.53210000  0.01820000  1.0 -0.0611872202
C  C9  1  0.84200000  0.57190000  0.12810000  1.0 -0.1479724245
C  C10  1  0.79700000  0.60180000  0.20760000  1.0 -0.0700288102
C  C11  1  0.73470000  0.59160000  0.18160000  1.0 -0.1448401971
C  C12  1  0.47170000  0.36790000  0.95300000  1.0 0.1819539951
C  C13  1  0.42400000  0.32830000  0.91390000  1.0 -0.176567228
C  C14  1  0.37090000  0.35880000  0.95010000  1.0 -0.171967098
C  C15  1  0.38990000  0.41930000  0.99800000  1.0 0.1858009422
C  C16  1  0.34850000  0.46440000  0.04550000  1.0 -0.0302482522
C  C17  1  0.28320000  0.45050000  0.07020000  1.0 0.0984132425
C  C18  1  0.23620000  0.47840000  0.98120000  1.0 -0.1241409569
C  C19  1  0.17470000  0.46790000  0.01820000  1.0 -0.0611872202
C  C20  1  0.15800000  0.42810000  0.12810000  1.0 -0.1479724245
C  C21  1  0.20300000  0.39820000  0.20760000  1.0 -0.0700288102
C  C22  1  0.26530000  0.40840000  0.18160000  1.0 -0.1448401971
C  C23  1  0.36790000  0.52830000  0.04700000  1.0 0.1819539951
C  C24  1  0.32830000  0.57600000  0.08610000  1.0 -0.176567228
C  C25  1  0.35880000  0.62910000  0.04990000  1.0 -0.171967098
C  C26  1  0.41930000  0.61010000  0.00200000  1.0 0.1858009422
C  C27  1  0.46440000  0.65150000  0.95450000  1.0 -0.0302482522
C  C28  1  0.45050000  0.71680000  0.92980000  1.0 0.0984132425
C  C29  1  0.47840000  0.76380000  0.01880000  1.0 -0.1241409569
C  C30  1  0.46790000  0.82530000  0.98180000  1.0 -0.0611872202
C  C31  1  0.42810000  0.84200000  0.87190000  1.0 -0.1479724245
C  C32  1  0.39820000  0.79700000  0.79240000  1.0 -0.0700288102
C  C33  1  0.40840000  0.73470000  0.81840000  1.0 -0.1479724245
C  C34  1  0.63210000  0.47170000  0.04700000  1.0 0.1819539951
C  C35  1  0.67170000  0.42400000  0.08610000  1.0 -0.176567228
C  C36  1  0.64120000  0.37090000  0.04990000  1.0 -0.171967098
C  C37  1  0.58070000  0.38990000  0.00200000  1.0 0.1858009422
C  C38  1  0.53560000  0.34850000  0.95450000  1.0 -0.0302482522
C  C39  1  0.54950000  0.28320000  0.92980000  1.0 0.0984132425
C  C40  1  0.52160000  0.23620000  0.01880000  1.0 -0.1241409569
C  C41  1  0.53210000  0.17470000  0.98180000  1.0 -0.0611872202
C  C42  1  0.57190000  0.15800000  0.87190000  1.0 -0.1479724245
C  C43  1  0.60180000  0.20300000  0.79240000  1.0 -0.0700288102
C  C44  1  0.59160000  0.26530000  0.81840000  1.0 -0.1448401971
C  C45  1  0.52830000  0.36790000  0.45300000  1.0 0.1819539951
C  C46  1  0.57600000  0.32830000  0.41390000  1.0 -0.176567228
C  C47  1  0.62910000  0.35880000  0.45010000  1.0 -0.171967098
C  C48  1  0.61010000  0.41930000  0.49800000  1.0 0.1858009422
C  C49  1  0.65150000  0.46440000  0.54550000  1.0 -0.0302482522
C  C50  1  0.71680000  0.45050000  0.57020000  1.0 0.0984132425
C  C51  1  0.76380000  0.47840000  0.48120000  1.0 -0.1241409569
C  C52  1  0.82530000  0.46790000  0.51820000  1.0 -0.0611872202
C  C53  1  0.84200000  0.42810000  0.62810000  1.0 -0.1479724245
C  C54  1  0.79700000  0.39820000  0.70760000  1.0 -0.0700288102
C  C55  1  0.73470000  0.40840000  0.68160000  1.0 -0.1448401971
C  C56  1  0.47170000  0.63210000  0.45300000  1.0 0.1819539951
C  C57  1  0.42400000  0.67170000  0.41390000  1.0 -0.176567228
C  C58  1  0.37090000  0.64120000  0.45010000  1.0 -0.171967098
C  C59  1  0.38990000  0.58070000  0.49800000  1.0 0.1858009422
C  C60  1  0.34850000  0.53560000  0.54550000  1.0 -0.0302482522
C  C61  1  0.28320000  0.54950000  0.57020000  1.0 0.0984132425
C  C62  1  0.23620000  0.52160000  0.48120000  1.0 -0.1241409569
C  C63  1  0.17470000  0.53210000  0.51820000  1.0 -0.0611872202
C  C64  1  0.15800000  0.57190000  0.62810000  1.0 -0.1479724245
C  C65  1  0.20300000  0.60180000  0.70760000  1.0 -0.0700288102
C  C66  1  0.26530000  0.59160000  0.68160000  1.0 -0.1448401971
C  C67  1  0.36790000  0.47170000  0.54700000  1.0 0.1819539951
C  C68  1  0.32830000  0.42400000  0.58610000  1.0 -0.176567228
C  C69  1  0.35880000  0.37090000  0.54990000  1.0 -0.171967098
C  C70  1  0.41930000  0.38990000  0.50200000  1.0 0.1858009422
C  C71  1  0.46440000  0.34850000  0.45450000  1.0 -0.0302482522
C  C72  1  0.45050000  0.28320000  0.42980000  1.0 0.0984132425
C  C73  1  0.47840000  0.23620000  0.51880000  1.0 -0.1241409569
C  C74  1  0.46790000  0.17470000  0.48180000  1.0 -0.0611872202
C  C75  1  0.42810000  0.15800000  0.37190000  1.0 -0.1479724245
C  C76  1  0.39820000  0.20300000  0.29240000  1.0 -0.0700288102
C  C77  1  0.40840000  0.26530000  0.31840000  1.0 -0.1448401971
C  C78  1  0.63210000  0.52830000  0.54700000  1.0 0.1819539951
C  C79  1  0.67170000  0.57600000  0.58610000  1.0 -0.176567228
C  C80  1  0.64120000  0.62910000  0.54990000  1.0 -0.171967098
C  C81  1  0.58070000  0.61010000  0.50200000  1.0 0.1858009422
C  C82  1  0.53560000  0.65150000  0.45450000  1.0 -0.0302482522
C  C83  1  0.54950000  0.71680000  0.42980000  1.0 0.0984132425
C  C84  1  0.52160000  0.76380000  0.51880000  1.0 -0.1241409569
C  C85  1  0.53210000  0.82530000  0.48180000  1.0 -0.0611872202
C  C86  1  0.57190000  0.84200000  0.37190000  1.0 -0.1479724245
C  C87  1  0.60180000  0.79700000  0.29240000  1.0 -0.0700288102
C  C88  1  0.59160000  0.73470000  0.31840000  1.0 -0.1448401971
N  N1  1  0.54780000  0.57440000  0.98950000  1.0 -0.2945650531
N  N2  1  0.45220000  0.42560000  0.98950000  1.0 -0.2951382114
N  N3  1  0.42560000  0.54780000  0.01050000  1.0 -0.2945650531
N  N4  1  0.57440000  0.45220000  0.01050000  1.0 -0.2945650531
N  N5  1  0.54780000  0.42560000  0.48950000  1.0 -0.2945650531
N  N6  1  0.45220000  0.57440000  0.48950000  1.0 -0.2945650531
N  N7  1  0.42560000  0.45220000  0.51050000  1.0 -0.2945650531
N  N8  1  0.57440000  0.54780000  0.51050000  1.0 -0.2945650531
O  O1  1  0.96220000  0.56540000  0.03420000  1.0 -0.7547693564
O  O2  1  0.93470000  0.53300000  0.31140000  1.0 -0.7728368952
O  O3  1  0.93390000  0.64540000  0.23400000  1.0 -0.5675186826
O  O4  1  0.03780000  0.43460000  0.03420000  1.0 -0.7554663731
O  O5  1  0.06530000  0.46700000  0.31140000  1.0 -0.7728368952
O  O6  1  0.06610000  0.35460000  0.23400000  1.0 -0.5675186826
O  O7  1  0.43460000  0.96220000  0.96580000  1.0 -0.7547693564
O  O8  1  0.46700000  0.93470000  0.68860000  1.0 -0.7728368952
O  O9  1  0.35460000  0.93390000  0.76600000  1.0 -0.5675186826
O  O10  1  0.56540000  0.03780000  0.96580000  1.0 -0.7547693564
O  O11  1  0.53300000  0.06530000  0.68860000  1.0 -0.7728368952
O  O12  1  0.64540000  0.06610000  0.76600000  1.0 -0.5675186826
O  O13  1  0.96220000  0.43460000  0.53420000  1.0 -0.7547693564
O  O14  1  0.93470000  0.46700000  0.81140000  1.0 -0.7728368952
O  O15  1  0.93390000  0.35460000  0.73400000  1.0 -0.5675186826
O  O16  1  0.03780000  0.56540000  0.53420000  1.0 -0.7547693564
O  O17  1  0.06530000  0.53300000  0.81140000  1.0 -0.7728368952
O  O18  1  0.06610000  0.64540000  0.73400000  1.0 -0.5675186826
O  O19  1  0.43460000  0.03780000  0.46580000  1.0 -0.7554663731
O  O20  1  0.46700000  0.06530000  0.18860000  1.0 -0.7728368952
O  O21  1  0.35460000  0.06610000  0.26600000  1.0 -0.5675186826
O  O22  1  0.56540000  0.96220000  0.46580000  1.0 -0.7554663731
O  O23  1  0.53300000  0.93470000  0.18860000  1.0 -0.7728368952
O  O24  1  0.64540000  0.93390000  0.26600000  1.0 -0.5675186826
