# DDEC6 charges by PACMAN v1.1 (https://github.com/mtap-research/PACMAN-charge/)
data_HIQKID_ASR_pacman
_symmetry_space_group_name_H-M   'P 1'
_cell_length_a   10.66360000
_cell_length_b   13.32530000
_cell_length_c   20.08590000
_cell_angle_alpha   90.00000000
_cell_angle_beta   90.00000000
_cell_angle_gamma   90.00000000
_symmetry_Int_Tables_number   1
_chemical_formula_structural   U3H5(C3O5)4
_chemical_formula_sum   'U12 H20 C48 O80'
_cell_volume   2854.11939957
_cell_formula_units_Z   4
loop_
 _symmetry_equiv_pos_site_id
 _symmetry_equiv_pos_as_xyz
  1  'x, y, z'
loop_
 _atom_site_type_symbol
 _atom_site_label
 _atom_site_symmetry_multiplicity
 _atom_site_fract_x
 _atom_site_fract_y
 _atom_site_fract_z
 _atom_site_occupancy
 _atom_site_charge
U  U1  1  0.50000000  0.50000000  0.13779000  1.0 2.1690633393
U  U2  1  0.00000000  0.00000000  0.36221000  1.0 2.1794763899
U  U3  1  0.50000000  0.50000000  0.86221000  1.0 2.1690633393
U  U4  1  0.00000000  0.00000000  0.63779000  1.0 2.1794763899
U  U5  1  0.33732000  0.34711000  0.00000000  1.0 2.0877816773
U  U6  1  0.66268000  0.65289000  0.00000000  1.0 2.0817103084
U  U7  1  0.83732000  0.15289000  0.50000000  1.0 2.0877816773
U  U8  1  0.16268000  0.84711000  0.50000000  1.0 2.0715556638
U  U9  1  0.68772000  0.36737000  0.00000000  1.0 2.0817103084
U  U10  1  0.31228000  0.63263000  0.00000000  1.0 2.0817103084
U  U11  1  0.18772000  0.13263000  0.50000000  1.0 2.0715556638
U  U12  1  0.81228000  0.86737000  0.50000000  1.0 2.0715556638
H  H1  1  0.62920000  0.00430000  0.00000000  1.0 0.1408819898
H  H2  1  0.37080000  0.99570000  0.00000000  1.0 0.1408819898
H  H3  1  0.12920000  0.49570000  0.50000000  1.0 0.1408819898
H  H4  1  0.87080000  0.50430000  0.50000000  1.0 0.1408819898
H  H5  1  0.84900000  0.21370000  0.20940000  1.0 0.1408819898
H  H6  1  0.15100000  0.78630000  0.20940000  1.0 0.1408819898
H  H7  1  0.34900000  0.28630000  0.29060000  1.0 0.1408819898
H  H8  1  0.65100000  0.71370000  0.29060000  1.0 0.1408819898
H  H9  1  0.15100000  0.78630000  0.79060000  1.0 0.1408819898
H  H10  1  0.84900000  0.21370000  0.79060000  1.0 0.1408819898
H  H11  1  0.65100000  0.71370000  0.70940000  1.0 0.1408819898
H  H12  1  0.34900000  0.28630000  0.70940000  1.0 0.1408819898
H  H13  1  0.68020000  0.30810000  0.29130000  1.0 0.1408819898
H  H14  1  0.31980000  0.69190000  0.29130000  1.0 0.1408819898
H  H15  1  0.18020000  0.19190000  0.20870000  1.0 0.1408819898
H  H16  1  0.81980000  0.80810000  0.20870000  1.0 0.1408819898
H  H17  1  0.31980000  0.69190000  0.70870000  1.0 0.1408819898
H  H18  1  0.68020000  0.30810000  0.70870000  1.0 0.1408819898
H  H19  1  0.81980000  0.80810000  0.79130000  1.0 0.1408819898
H  H20  1  0.18020000  0.19190000  0.79130000  1.0 0.1408819898
C  C1  1  0.54860000  0.03100000  0.00000000  1.0 -0.1913054075
C  C2  1  0.45140000  0.96900000  0.00000000  1.0 -0.1956770324
C  C3  1  0.04860000  0.46900000  0.50000000  1.0 -0.1956770324
C  C4  1  0.95140000  0.53100000  0.50000000  1.0 -0.1913054075
C  C5  1  0.53280000  0.14300000  0.00000000  1.0 0.6720135695
C  C6  1  0.46720000  0.85700000  0.00000000  1.0 0.6720135695
C  C7  1  0.03280000  0.35700000  0.50000000  1.0 0.6720135695
C  C8  1  0.96720000  0.64300000  0.50000000  1.0 0.6720135695
C  C9  1  0.79740000  0.19920000  0.33510000  1.0 0.6720135695
C  C10  1  0.20260000  0.80080000  0.33510000  1.0 0.6720135695
C  C11  1  0.29740000  0.30080000  0.16490000  1.0 0.6720135695
C  C12  1  0.70260000  0.69920000  0.16490000  1.0 0.6720135695
C  C13  1  0.20260000  0.80080000  0.66490000  1.0 0.6720135695
C  C14  1  0.79740000  0.19920000  0.66490000  1.0 0.6720135695
C  C15  1  0.70260000  0.69920000  0.83510000  1.0 0.6720135695
C  C16  1  0.29740000  0.30080000  0.83510000  1.0 0.6720135695
C  C17  1  0.73130000  0.32330000  0.16520000  1.0 0.6720135695
C  C18  1  0.26870000  0.67670000  0.16520000  1.0 0.6720135695
C  C19  1  0.23130000  0.17670000  0.33480000  1.0 0.6720135695
C  C20  1  0.76870000  0.82330000  0.33480000  1.0 0.6720135695
C  C21  1  0.26870000  0.67670000  0.83480000  1.0 0.6720135695
C  C22  1  0.73130000  0.32330000  0.83480000  1.0 0.6720135695
C  C23  1  0.76870000  0.82330000  0.66520000  1.0 0.6720135695
C  C24  1  0.23130000  0.17670000  0.66520000  1.0 0.6720135695
C  C25  1  0.78500000  0.25850000  0.21970000  1.0 -0.1913054075
C  C26  1  0.21500000  0.74150000  0.21970000  1.0 -0.1913054075
C  C27  1  0.28500000  0.24150000  0.28030000  1.0 -0.1913054075
C  C28  1  0.71500000  0.75850000  0.28030000  1.0 -0.1913054075
C  C29  1  0.21500000  0.74150000  0.78030000  1.0 -0.1913054075
C  C30  1  0.78500000  0.25850000  0.78030000  1.0 -0.1913054075
C  C31  1  0.71500000  0.75850000  0.71970000  1.0 -0.1913054075
C  C32  1  0.28500000  0.24150000  0.71970000  1.0 -0.1913054075
C  C33  1  0.74420000  0.26330000  0.28100000  1.0 -0.1913054075
C  C34  1  0.25580000  0.73670000  0.28100000  1.0 -0.1913054075
C  C35  1  0.24420000  0.23670000  0.21900000  1.0 -0.1913054075
C  C36  1  0.75580000  0.76330000  0.21900000  1.0 -0.1913054075
C  C37  1  0.25580000  0.73670000  0.71900000  1.0 -0.1913054075
C  C38  1  0.74420000  0.26330000  0.71900000  1.0 -0.1913054075
C  C39  1  0.75580000  0.76330000  0.78100000  1.0 -0.1913054075
C  C40  1  0.24420000  0.23670000  0.78100000  1.0 -0.1913054075
C  C41  1  0.01100000  0.35600000  0.02350000  1.0 0.3463903724
C  C42  1  0.98900000  0.64400000  0.02350000  1.0 0.3463903724
C  C43  1  0.51100000  0.14400000  0.47650000  1.0 0.3463903724
C  C44  1  0.48900000  0.85600000  0.47650000  1.0 0.3463903724
C  C45  1  0.98900000  0.64400000  0.97650000  1.0 0.3463903724
C  C46  1  0.01100000  0.35600000  0.97650000  1.0 0.3463903724
C  C47  1  0.48900000  0.85600000  0.52350000  1.0 0.3463903724
C  C48  1  0.51100000  0.14400000  0.52350000  1.0 0.3463903724
O  O1  1  0.63270000  0.19250000  0.00000000  1.0 -0.6376916372
O  O2  1  0.36730000  0.80750000  0.00000000  1.0 -0.6376916372
O  O3  1  0.13270000  0.30750000  0.50000000  1.0 -0.6376916372
O  O4  1  0.86730000  0.69250000  0.50000000  1.0 -0.6376916372
O  O5  1  0.42500000  0.17840000  0.00000000  1.0 -0.6301291936
O  O6  1  0.57500000  0.82160000  0.00000000  1.0 -0.6301291936
O  O7  1  0.92500000  0.32160000  0.50000000  1.0 -0.6301291936
O  O8  1  0.07500000  0.67840000  0.50000000  1.0 -0.6301291936
O  O9  1  0.65760000  0.39170000  0.18400000  1.0 -0.6601002307
O  O10  1  0.34240000  0.60830000  0.18400000  1.0 -0.6601002307
O  O11  1  0.15760000  0.10830000  0.31600000  1.0 -0.6601002307
O  O12  1  0.84240000  0.89170000  0.31600000  1.0 -0.6601002307
O  O13  1  0.34240000  0.60830000  0.81600000  1.0 -0.6601002307
O  O14  1  0.65760000  0.39170000  0.81600000  1.0 -0.6601002307
O  O15  1  0.84240000  0.89170000  0.68400000  1.0 -0.6601002307
O  O16  1  0.15760000  0.10830000  0.68400000  1.0 -0.6601002307
O  O17  1  0.76680000  0.30530000  0.10640000  1.0 -0.6601002307
O  O18  1  0.23320000  0.69470000  0.10640000  1.0 -0.6601002307
O  O19  1  0.26680000  0.19470000  0.39360000  1.0 -0.6601002307
O  O20  1  0.73320000  0.80530000  0.39360000  1.0 -0.6601002307
O  O21  1  0.23320000  0.69470000  0.89360000  1.0 -0.6601002307
O  O22  1  0.76680000  0.30530000  0.89360000  1.0 -0.6601002307
O  O23  1  0.73320000  0.80530000  0.60640000  1.0 -0.6601002307
O  O24  1  0.26680000  0.19470000  0.60640000  1.0 -0.6601002307
O  O25  1  0.86290000  0.12660000  0.31580000  1.0 -0.6494246812
O  O26  1  0.13710000  0.87340000  0.31580000  1.0 -0.6494246812
O  O27  1  0.36290000  0.37340000  0.18420000  1.0 -0.6494246812
O  O28  1  0.63710000  0.62660000  0.18420000  1.0 -0.6494246812
O  O29  1  0.13710000  0.87340000  0.68420000  1.0 -0.6494246812
O  O30  1  0.86290000  0.12660000  0.68420000  1.0 -0.6494246812
O  O31  1  0.63710000  0.62660000  0.81580000  1.0 -0.6494246812
O  O32  1  0.36290000  0.37340000  0.81580000  1.0 -0.6494246812
O  O33  1  0.76800000  0.22080000  0.39390000  1.0 -0.6494246812
O  O34  1  0.23200000  0.77920000  0.39390000  1.0 -0.6494246812
O  O35  1  0.26800000  0.27920000  0.10610000  1.0 -0.6494246812
O  O36  1  0.73200000  0.72080000  0.10610000  1.0 -0.6494246812
O  O37  1  0.23200000  0.77920000  0.60610000  1.0 -0.6494246812
O  O38  1  0.76800000  0.22080000  0.60610000  1.0 -0.6494246812
O  O39  1  0.73200000  0.72080000  0.89390000  1.0 -0.6494246812
O  O40  1  0.26800000  0.27920000  0.89390000  1.0 -0.6494246812
O  O41  1  0.91190000  0.38460000  0.00000000  1.0 -0.382255418
O  O42  1  0.08810000  0.61540000  0.00000000  1.0 -0.382255418
O  O43  1  0.41190000  0.11540000  0.50000000  1.0 -0.382255418
O  O44  1  0.58810000  0.88460000  0.50000000  1.0 -0.382255418
O  O45  1  0.35400000  0.49100000  0.05620000  1.0 -0.409925861
O  O46  1  0.64600000  0.50900000  0.05620000  1.0 -0.409925861
O  O47  1  0.85400000  0.00900000  0.44380000  1.0 -0.409925861
O  O48  1  0.14600000  0.99100000  0.44380000  1.0 -0.409925861
O  O49  1  0.64600000  0.50900000  0.94380000  1.0 -0.409925861
O  O50  1  0.35400000  0.49100000  0.94380000  1.0 -0.409925861
O  O51  1  0.14600000  0.99100000  0.55620000  1.0 -0.409925861
O  O52  1  0.85400000  0.00900000  0.55620000  1.0 -0.409925861
O  O53  1  0.50950000  0.38540000  0.05400000  1.0 -0.4409546421
O  O54  1  0.49050000  0.61460000  0.05400000  1.0 -0.4409546421
O  O55  1  0.00950000  0.11460000  0.44600000  1.0 -0.4409546421
O  O56  1  0.99050000  0.88540000  0.44600000  1.0 -0.4409546421
O  O57  1  0.49050000  0.61460000  0.94600000  1.0 -0.4409546421
O  O58  1  0.50950000  0.38540000  0.94600000  1.0 -0.4409546421
O  O59  1  0.99050000  0.88540000  0.55400000  1.0 -0.4409546421
O  O60  1  0.00950000  0.11460000  0.55400000  1.0 -0.4409546421
O  O61  1  0.11360000  0.35890000  0.00000000  1.0 -0.3530474209
O  O62  1  0.88640000  0.64110000  0.00000000  1.0 -0.3530474209
O  O63  1  0.61360000  0.14110000  0.50000000  1.0 -0.3552233481
O  O64  1  0.38640000  0.85890000  0.50000000  1.0 -0.3530474209
O  O65  1  0.29770000  0.48780000  0.07080000  1.0 -0.2921855652
O  O66  1  0.70230000  0.51220000  0.07080000  1.0 -0.2921855652
O  O67  1  0.79770000  0.01220000  0.42920000  1.0 -0.2921855652
O  O68  1  0.20230000  0.98780000  0.42920000  1.0 -0.2921855652
O  O69  1  0.70230000  0.51220000  0.92920000  1.0 -0.2921855652
O  O70  1  0.29770000  0.48780000  0.92920000  1.0 -0.2921855652
O  O71  1  0.20230000  0.98780000  0.57080000  1.0 -0.2921855652
O  O72  1  0.79770000  0.01220000  0.57080000  1.0 -0.2921855652
O  O73  1  0.51360000  0.34060000  0.07700000  1.0 -0.3018782192
O  O74  1  0.48640000  0.65940000  0.07700000  1.0 -0.3018782192
O  O75  1  0.01360000  0.15940000  0.42300000  1.0 -0.3018782192
O  O76  1  0.98640000  0.84060000  0.42300000  1.0 -0.3018782192
O  O77  1  0.48640000  0.65940000  0.92300000  1.0 -0.3018782192
O  O78  1  0.51360000  0.34060000  0.92300000  1.0 -0.3018782192
O  O79  1  0.98640000  0.84060000  0.57700000  1.0 -0.3018782192
O  O80  1  0.01360000  0.15940000  0.57700000  1.0 -0.3018782192
