# DDEC6 charges by PACMAN v1.1 (https://github.com/mtap-research/PACMAN-charge/)
data_HISGIB_FSR_pacman
_symmetry_space_group_name_H-M   'P 1'
_cell_length_a   6.05440000
_cell_length_b   12.49910000
_cell_length_c   14.86880000
_cell_angle_alpha   110.96500000
_cell_angle_beta   101.71500000
_cell_angle_gamma   100.17700000
_symmetry_Int_Tables_number   1
_chemical_formula_structural   CsH10C14SO7
_chemical_formula_sum   'Cs2 H20 C28 S2 O14'
_cell_volume   989.82326757
_cell_formula_units_Z   2
loop_
 _symmetry_equiv_pos_site_id
 _symmetry_equiv_pos_as_xyz
  1  'x, y, z'
loop_
 _atom_site_type_symbol
 _atom_site_label
 _atom_site_symmetry_multiplicity
 _atom_site_fract_x
 _atom_site_fract_y
 _atom_site_fract_z
 _atom_site_occupancy
 _atom_site_charge
Cs  Cs1  1  0.35327000  0.43103000  0.12405000  1.0 0.8899963301
Cs  Cs2  1  0.64673000  0.56897000  0.87595000  1.0 0.8899963301
H  H1  1  0.82550000  0.48670000  0.06360000  1.0 0.3296668481
H  H2  1  0.17450000  0.51330000  0.93640000  1.0 0.3296668481
H  H3  1  0.97000000  0.60190000  0.10090000  1.0 0.3539973598
H  H4  1  0.03000000  0.39810000  0.89910000  1.0 0.3539973598
H  H5  1  0.16460000  0.91960000  0.06480000  1.0 0.1292211887
H  H6  1  0.83540000  0.08040000  0.93520000  1.0 0.1292211887
H  H7  1  0.75820000  0.82490000  0.12610000  1.0 0.139654572
H  H8  1  0.24180000  0.17510000  0.87390000  1.0 0.139654572
H  H9  1  0.37870000  0.11530000  0.11910000  1.0 0.139654572
H  H10  1  0.62130000  0.88470000  0.88090000  1.0 0.139654572
H  H11  1  0.97500000  0.02240000  0.18660000  1.0 0.1292211887
H  H12  1  0.02500000  0.97760000  0.81340000  1.0 0.1292211887
H  H13  1  0.58020000  0.34170000  0.32180000  1.0 0.139654572
H  H14  1  0.41980000  0.65830000  0.67820000  1.0 0.139654572
H  H15  1  0.60340000  0.40910000  0.49140000  1.0 0.1292211887
H  H16  1  0.39660000  0.59090000  0.50860000  1.0 0.1292211887
H  H17  1  0.20820000  0.32280000  0.54910000  1.0 0.139654572
H  H18  1  0.79180000  0.67720000  0.45090000  1.0 0.139654572
H  H19  1  0.18470000  0.25200000  0.37890000  1.0 0.1292211887
H  H20  1  0.81530000  0.74800000  0.62110000  1.0 0.1292211887
C  C1  1  0.29405000  0.72729000  0.06175000  1.0 0.5811266106
C  C2  1  0.70595000  0.27271000  0.93825000  1.0 0.5811266106
C  C3  1  0.43953000  0.85336000  0.09263000  1.0 0.0096032659
C  C4  1  0.56047000  0.14664000  0.90737000  1.0 0.0096032659
C  C5  1  0.32725000  0.94042000  0.08925000  1.0 -0.0915651767
C  C6  1  0.67275000  0.05958000  0.91075000  1.0 -0.0915651767
C  C7  1  0.68232000  0.88356000  0.12662000  1.0 -0.077931101
C  C8  1  0.31768000  0.11644000  0.87338000  1.0 -0.077931101
C  C9  1  0.45400000  0.05723000  0.12170000  1.0 -0.0915651767
C  C10  1  0.54600000  0.94277000  0.87830000  1.0 -0.0915651767
C  C11  1  0.69657000  0.08636000  0.15837000  1.0 -0.077931101
C  C12  1  0.30343000  0.91364000  0.84163000  1.0 -0.077931101
C  C13  1  0.81252000  0.00124000  0.16152000  1.0 -0.0915651767
C  C14  1  0.18748000  0.99876000  0.83848000  1.0 -0.0915651767
C  C15  1  0.88186000  0.29164000  0.33516000  1.0 -0.0616926897
C  C16  1  0.11814000  0.70836000  0.66484000  1.0 -0.0616926897
C  C17  1  0.70547000  0.33781000  0.36737000  1.0 -0.0975198198
C  C18  1  0.29453000  0.66219000  0.63263000  1.0 -0.0975198198
C  C19  1  0.71992000  0.37782000  0.46862000  1.0 -0.077931101
C  C20  1  0.28008000  0.62218000  0.53138000  1.0 -0.077931101
C  C21  1  0.90662000  0.37180000  0.53632000  1.0 0.002979003
C  C22  1  0.09338000  0.62820000  0.46368000  1.0 0.002979003
C  C23  1  0.08211000  0.32581000  0.50331000  1.0 -0.0685364317
C  C24  1  0.91789000  0.67419000  0.49669000  1.0 -0.0685364317
C  C25  1  0.06927000  0.28427000  0.40177000  1.0 -0.0975198198
C  C26  1  0.93073000  0.71573000  0.59823000  1.0 -0.0975198198
C  C27  1  0.90981000  0.41381000  0.64461000  1.0 0.5497690838
C  C28  1  0.09019000  0.58619000  0.35539000  1.0 0.5497690838
S  S1  1  0.86134000  0.23632000  0.20551000  1.0 0.9929905337
S  S2  1  0.13866000  0.76368000  0.79449000  1.0 0.9929905337
O  O1  1  0.09342000  0.23912000  0.19562000  1.0 -0.5325142343
O  O2  1  0.90658000  0.76088000  0.80438000  1.0 -0.5325142343
O  O3  1  0.72617000  0.29856000  0.16177000  1.0 -0.5090546209
O  O4  1  0.27383000  0.70144000  0.83823000  1.0 -0.5090546209
O  O5  1  0.39373000  0.64572000  0.04323000  1.0 -0.6008833248
O  O6  1  0.60627000  0.35428000  0.95677000  1.0 -0.6008833248
O  O7  1  0.08101000  0.71379000  0.05781000  1.0 -0.5781507093
O  O8  1  0.91899000  0.28621000  0.94219000  1.0 -0.5781507093
O  O9  1  0.09155000  0.40332000  0.70295000  1.0 -0.5034141142
O  O10  1  0.90845000  0.59668000  0.29705000  1.0 -0.5034141142
O  O11  1  0.75533000  0.45183000  0.67343000  1.0 -0.5364307958
O  O12  1  0.24467000  0.54817000  0.32657000  1.0 -0.5364307958
O  O13  1  0.91479000  0.54526000  0.11659000  1.0 -0.6914266843
O  O14  1  0.08521000  0.45474000  0.88341000  1.0 -0.6914266843
