# DDEC6 charges by PACMAN v1.1 (https://github.com/mtap-research/PACMAN-charge/)
data_HITXUE_FSR_pacman
_symmetry_space_group_name_H-M   'P 1'
_cell_length_a   9.41954000
_cell_length_b   9.41954000
_cell_length_c   18.81500000
_cell_angle_alpha   89.97000000
_cell_angle_beta   90.03000000
_cell_angle_gamma   94.15150000
_symmetry_Int_Tables_number   1
_chemical_formula_structural   AlPO4
_chemical_formula_sum   'Al12 P12 O48'
_cell_volume   1665.03153995
_cell_formula_units_Z   12
loop_
 _symmetry_equiv_pos_site_id
 _symmetry_equiv_pos_as_xyz
  1  'x, y, z'
loop_
 _atom_site_type_symbol
 _atom_site_label
 _atom_site_symmetry_multiplicity
 _atom_site_fract_x
 _atom_site_fract_y
 _atom_site_fract_z
 _atom_site_occupancy
 _atom_site_charge
Al  Al1  1  0.84910000  0.07010000  0.83450000  1.0 1.7481913144
Al  Al2  1  0.07010000  0.84910000  0.66550000  1.0 1.7481913144
Al  Al3  1  0.15090000  0.92990000  0.16550000  1.0 1.7481913144
Al  Al4  1  0.92990000  0.15090000  0.33450000  1.0 1.7481913144
Al  Al5  1  0.89180000  0.65740000  0.93850000  1.0 1.7383349414
Al  Al6  1  0.65740000  0.89180000  0.56150000  1.0 1.7331876035
Al  Al7  1  0.10820000  0.34260000  0.06150000  1.0 1.7383349414
Al  Al8  1  0.34260000  0.10820000  0.43850000  1.0 1.7383349414
Al  Al9  1  0.32280000  0.86940000  0.95050000  1.0 1.7481913144
Al  Al10  1  0.86940000  0.32280000  0.54950000  1.0 1.7481913144
Al  Al11  1  0.67720000  0.13060000  0.04950000  1.0 1.7481913144
Al  Al12  1  0.13060000  0.67720000  0.45050000  1.0 1.7481913144
P  P1  1  0.86850000  0.32410000  0.94460000  1.0 1.4425864095
P  P2  1  0.32410000  0.86850000  0.55540000  1.0 1.4468546981
P  P3  1  0.13150000  0.67590000  0.05540000  1.0 1.4468546981
P  P4  1  0.67590000  0.13150000  0.44460000  1.0 1.4425864095
P  P5  1  0.65630000  0.87890000  0.93820000  1.0 1.4468546981
P  P6  1  0.87890000  0.65630000  0.56180000  1.0 1.4468546981
P  P7  1  0.34370000  0.12110000  0.06180000  1.0 1.4468546981
P  P8  1  0.12110000  0.34370000  0.43820000  1.0 1.4468546981
P  P9  1  0.08300000  0.84560000  0.83330000  1.0 1.4594745512
P  P10  1  0.84560000  0.08300000  0.66666667  1.0 1.4594745512
P  P11  1  0.91700000  0.15440000  0.16670000  1.0 1.4594745512
P  P12  1  0.15440000  0.91700000  0.33333333  1.0 1.4594745512
O  O1  1  0.22770000  0.86710000  0.86940000  1.0 -0.7611803835
O  O2  1  0.86710000  0.22770000  0.63060000  1.0 -0.7611803835
O  O3  1  0.77230000  0.13290000  0.13060000  1.0 -0.7611803835
O  O4  1  0.13290000  0.77230000  0.36940000  1.0 -0.7611803835
O  O5  1  0.68350000  0.96450000  0.00610000  1.0 -0.8215185329
O  O6  1  0.96450000  0.68350000  0.49390000  1.0 -0.8215185329
O  O7  1  0.31650000  0.03550000  0.99390000  1.0 -0.8215185329
O  O8  1  0.03550000  0.31650000  0.50610000  1.0 -0.8215185329
O  O9  1  0.73320000  0.74380000  0.94220000  1.0 -0.7687837208
O  O10  1  0.74380000  0.73320000  0.55780000  1.0 -0.7611803835
O  O11  1  0.26680000  0.25620000  0.05780000  1.0 -0.7687837208
O  O12  1  0.25620000  0.26680000  0.44220000  1.0 -0.7611803835
O  O13  1  0.01130000  0.31810000  0.98220000  1.0 -0.8215185329
O  O14  1  0.31810000  0.01130000  0.51780000  1.0 -0.8303483332
O  O15  1  0.98870000  0.68190000  0.01780000  1.0 -0.8303483332
O  O16  1  0.68190000  0.98870000  0.48220000  1.0 -0.8303483332
O  O17  1  0.87060000  0.23700000  0.87640000  1.0 -0.7611803835
O  O18  1  0.23700000  0.87060000  0.62360000  1.0 -0.7611803835
O  O19  1  0.12940000  0.76300000  0.12360000  1.0 -0.7611803835
O  O20  1  0.76300000  0.12940000  0.37640000  1.0 -0.7611803835
O  O21  1  0.00730000  0.98250000  0.84180000  1.0 -0.8303483332
O  O22  1  0.98250000  0.00730000  0.65820000  1.0 -0.8303483332
O  O23  1  0.99270000  0.01750000  0.15820000  1.0 -0.8303483332
O  O24  1  0.01750000  0.99270000  0.34180000  1.0 -0.8303483332
O  O25  1  0.99600000  0.72060000  0.86650000  1.0 -0.8215185329
O  O26  1  0.72060000  0.99600000  0.63350000  1.0 -0.8215185329
O  O27  1  0.00400000  0.27940000  0.13350000  1.0 -0.8215185329
O  O28  1  0.27940000  0.00400000  0.36650000  1.0 -0.8215185329
O  O29  1  0.49970000  0.83590000  0.92980000  1.0 -0.7791704876
O  O30  1  0.83590000  0.49970000  0.57020000  1.0 -0.7791704876
O  O31  1  0.50030000  0.16410000  0.07020000  1.0 -0.7791704876
O  O32  1  0.16410000  0.50030000  0.42980000  1.0 -0.7791704876
O  O33  1  0.10610000  0.81190000  0.75510000  1.0 -0.7791704876
O  O34  1  0.81190000  0.10610000  0.74490000  1.0 -0.7791704876
O  O35  1  0.89390000  0.18810000  0.24490000  1.0 -0.7791704876
O  O36  1  0.18810000  0.89390000  0.25510000  1.0 -0.7791704876
O  O37  1  0.84380000  0.47640000  0.92420000  1.0 -0.7791704876
O  O38  1  0.47640000  0.84380000  0.57580000  1.0 -0.7791704876
O  O39  1  0.15620000  0.52360000  0.07580000  1.0 -0.7687837208
O  O40  1  0.52360000  0.15620000  0.42420000  1.0 -0.7791704876
O  O41  1  0.70640000  0.96640000  0.87330000  1.0 -0.8303483332
O  O42  1  0.96640000  0.70640000  0.62670000  1.0 -0.8303483332
O  O43  1  0.29360000  0.03360000  0.12670000  1.0 -0.8303483332
O  O44  1  0.03360000  0.29360000  0.37330000  1.0 -0.8303483332
O  O45  1  0.74910000  0.26910000  0.99290000  1.0 -0.8303483332
O  O46  1  0.26910000  0.74910000  0.50710000  1.0 -0.8303483332
O  O47  1  0.25090000  0.73090000  0.00710000  1.0 -0.8303483332
O  O48  1  0.73090000  0.25090000  0.49290000  1.0 -0.8303483332
