# DDEC6 charges by PACMAN v1.1 (https://github.com/mtap-research/PACMAN-charge/)
data_HIVSAI_FSR_pacman
_symmetry_space_group_name_H-M   'P 1'
_cell_length_a   14.35240000
_cell_length_b   14.35240000
_cell_length_c   14.35240000
_cell_angle_alpha   116.70600000
_cell_angle_beta   116.70600000
_cell_angle_gamma   95.80630000
_symmetry_Int_Tables_number   1
_chemical_formula_structural   ZnH20C16NO4
_chemical_formula_sum   'Zn4 H80 C64 N4 O16'
_cell_volume   2182.50232881
_cell_formula_units_Z   4
loop_
 _symmetry_equiv_pos_site_id
 _symmetry_equiv_pos_as_xyz
  1  'x, y, z'
loop_
 _atom_site_type_symbol
 _atom_site_label
 _atom_site_symmetry_multiplicity
 _atom_site_fract_x
 _atom_site_fract_y
 _atom_site_fract_z
 _atom_site_occupancy
 _atom_site_charge
Zn  Zn1  1  0.07668000  0.07668000  0.00000000  1.0 0.7124807829
Zn  Zn2  1  0.42332000  0.42332000  0.00000000  1.0 0.7124807829
Zn  Zn3  1  0.92332000  0.92332000  0.00000000  1.0 0.7124807829
Zn  Zn4  1  0.57668000  0.57668000  0.00000000  1.0 0.7124807829
H  H1  1  0.85960000  0.25100000  0.90420000  1.0 0.1366866672
H  H2  1  0.25100000  0.34680000  0.39140000  1.0 0.1366866672
H  H3  1  0.34680000  0.95540000  0.09580000  1.0 0.1366866672
H  H4  1  0.95540000  0.85960000  0.60860000  1.0 0.1366866672
H  H5  1  0.64040000  0.54460000  0.39140000  1.0 0.1366866672
H  H6  1  0.15320000  0.24900000  0.60860000  1.0 0.1366866672
H  H7  1  0.54460000  0.15320000  0.90420000  1.0 0.1366866672
H  H8  1  0.24900000  0.64040000  0.09580000  1.0 0.1366866672
H  H9  1  0.14040000  0.74900000  0.09580000  1.0 0.1366866672
H  H10  1  0.74900000  0.65320000  0.60860000  1.0 0.1366866672
H  H11  1  0.65320000  0.04460000  0.90420000  1.0 0.1366866672
H  H12  1  0.04460000  0.14040000  0.39140000  1.0 0.1366866672
H  H13  1  0.35960000  0.45540000  0.60860000  1.0 0.1366866672
H  H14  1  0.84680000  0.75100000  0.39140000  1.0 0.1366866672
H  H15  1  0.45540000  0.84680000  0.09580000  1.0 0.1366866672
H  H16  1  0.75100000  0.35960000  0.90420000  1.0 0.1366866672
H  H17  1  0.19000000  0.33600000  0.11180000  1.0 0.0932411434
H  H18  1  0.33600000  0.22420000  0.14600000  1.0 0.0932411434
H  H19  1  0.22420000  0.07820000  0.88820000  1.0 0.0932411434
H  H20  1  0.07820000  0.19000000  0.85400000  1.0 0.0932411434
H  H21  1  0.31000000  0.42180000  0.14600000  1.0 0.0932411434
H  H22  1  0.27580000  0.16400000  0.85400000  1.0 0.0932411434
H  H23  1  0.42180000  0.27580000  0.11180000  1.0 0.0932411434
H  H24  1  0.16400000  0.31000000  0.88820000  1.0 0.0932411434
H  H25  1  0.81000000  0.66400000  0.88820000  1.0 0.0932411434
H  H26  1  0.66400000  0.77580000  0.85400000  1.0 0.0932411434
H  H27  1  0.77580000  0.92180000  0.11180000  1.0 0.0932411434
H  H28  1  0.92180000  0.81000000  0.14600000  1.0 0.0932411434
H  H29  1  0.69000000  0.57820000  0.85400000  1.0 0.0932411434
H  H30  1  0.72420000  0.83600000  0.14600000  1.0 0.0932411434
H  H31  1  0.57820000  0.72420000  0.88820000  1.0 0.0932411434
H  H32  1  0.83600000  0.69000000  0.11180000  1.0 0.0932411434
H  H33  1  0.07780000  0.26500000  0.97640000  1.0 0.0667871305
H  H34  1  0.26500000  0.28860000  0.18720000  1.0 0.0667871305
H  H35  1  0.28860000  0.10140000  0.02360000  1.0 0.0667871305
H  H36  1  0.10140000  0.07780000  0.81280000  1.0 0.0667871305
H  H37  1  0.42220000  0.39860000  0.18720000  1.0 0.0667871305
H  H38  1  0.21140000  0.23500000  0.81280000  1.0 0.0667871305
H  H39  1  0.39860000  0.21140000  0.97640000  1.0 0.0667871305
H  H40  1  0.23500000  0.42220000  0.02360000  1.0 0.0667871305
H  H41  1  0.92220000  0.73500000  0.02360000  1.0 0.0667871305
H  H42  1  0.73500000  0.71140000  0.81280000  1.0 0.0667871305
H  H43  1  0.71140000  0.89860000  0.97640000  1.0 0.0667871305
H  H44  1  0.89860000  0.92220000  0.18720000  1.0 0.0667871305
H  H45  1  0.57780000  0.60140000  0.81280000  1.0 0.0667871305
H  H46  1  0.78860000  0.76500000  0.18720000  1.0 0.0667871305
H  H47  1  0.60140000  0.78860000  0.02360000  1.0 0.0667871305
H  H48  1  0.76500000  0.57780000  0.97640000  1.0 0.0667871305
H  H49  1  0.29050000  0.31180000  0.18230000  1.0 0.0765521856
H  H50  1  0.31180000  0.12950000  0.02130000  1.0 0.0765521856
H  H51  1  0.12950000  0.10820000  0.81770000  1.0 0.0765521856
H  H52  1  0.10820000  0.29050000  0.97870000  1.0 0.0765521856
H  H53  1  0.20950000  0.39180000  0.02130000  1.0 0.0765521856
H  H54  1  0.37050000  0.18820000  0.97870000  1.0 0.0765521856
H  H55  1  0.39180000  0.37050000  0.18230000  1.0 0.0765521856
H  H56  1  0.18820000  0.20950000  0.81770000  1.0 0.0765521856
H  H57  1  0.70950000  0.68820000  0.81770000  1.0 0.0765521856
H  H58  1  0.68820000  0.87050000  0.97870000  1.0 0.0765521856
H  H59  1  0.87050000  0.89180000  0.18230000  1.0 0.0765521856
H  H60  1  0.89180000  0.70950000  0.02130000  1.0 0.0765521856
H  H61  1  0.79050000  0.60820000  0.97870000  1.0 0.0765521856
H  H62  1  0.62950000  0.81180000  0.02130000  1.0 0.0765521856
H  H63  1  0.60820000  0.62950000  0.81770000  1.0 0.0765521856
H  H64  1  0.81180000  0.79050000  0.18230000  1.0 0.0765521856
H  H65  1  0.17050000  0.31750000  0.11980000  1.0 0.0765521856
H  H66  1  0.31750000  0.19770000  0.14700000  1.0 0.0765521856
H  H67  1  0.19770000  0.05070000  0.88020000  1.0 0.0765521856
H  H68  1  0.05070000  0.17050000  0.85300000  1.0 0.0765521856
H  H69  1  0.32950000  0.44930000  0.14700000  1.0 0.0765521856
H  H70  1  0.30230000  0.18250000  0.85300000  1.0 0.0765521856
H  H71  1  0.44930000  0.30230000  0.11980000  1.0 0.0765521856
H  H72  1  0.18250000  0.32950000  0.88020000  1.0 0.0765521856
H  H73  1  0.82950000  0.68250000  0.88020000  1.0 0.0765521856
H  H74  1  0.68250000  0.80230000  0.85300000  1.0 0.0765521856
H  H75  1  0.80230000  0.94930000  0.11980000  1.0 0.0765521856
H  H76  1  0.94930000  0.82950000  0.14700000  1.0 0.0765521856
H  H77  1  0.67050000  0.55070000  0.85300000  1.0 0.0765521856
H  H78  1  0.69770000  0.81750000  0.14700000  1.0 0.0765521856
H  H79  1  0.55070000  0.69770000  0.88020000  1.0 0.0765521856
H  H80  1  0.81750000  0.67050000  0.11980000  1.0 0.0765521856
C  C1  1  0.77070000  0.14030000  0.91100000  1.0 0.0010551755
C  C2  1  0.14030000  0.22930000  0.36960000  1.0 0.0010551755
C  C3  1  0.22930000  0.85970000  0.08900000  1.0 0.0010551755
C  C4  1  0.85970000  0.77070000  0.63040000  1.0 0.0010551755
C  C5  1  0.72930000  0.64030000  0.36960000  1.0 0.0010551755
C  C6  1  0.27070000  0.35970000  0.63040000  1.0 0.0010551755
C  C7  1  0.64030000  0.27070000  0.91100000  1.0 0.0010551755
C  C8  1  0.35970000  0.72930000  0.08900000  1.0 0.0010551755
C  C9  1  0.79740000  0.23210000  0.90690000  1.0 -0.135690902
C  C10  1  0.23210000  0.32520000  0.43470000  1.0 -0.135690902
C  C11  1  0.32520000  0.89050000  0.09310000  1.0 -0.135690902
C  C12  1  0.89050000  0.79740000  0.56530000  1.0 -0.135690902
C  C13  1  0.70260000  0.60950000  0.43470000  1.0 -0.135690902
C  C14  1  0.17480000  0.26790000  0.56530000  1.0 -0.135690902
C  C15  1  0.60950000  0.17480000  0.90690000  1.0 -0.135690902
C  C16  1  0.26790000  0.70260000  0.09310000  1.0 -0.135690902
C  C17  1  0.20260000  0.76790000  0.09310000  1.0 -0.135690902
C  C18  1  0.76790000  0.67480000  0.56530000  1.0 -0.135690902
C  C19  1  0.67480000  0.10950000  0.90690000  1.0 -0.135690902
C  C20  1  0.10950000  0.20260000  0.43470000  1.0 -0.135690902
C  C21  1  0.29740000  0.39050000  0.56530000  1.0 -0.135690902
C  C22  1  0.82520000  0.73210000  0.43470000  1.0 -0.135690902
C  C23  1  0.39050000  0.82520000  0.09310000  1.0 -0.135690902
C  C24  1  0.73210000  0.29740000  0.90690000  1.0 -0.135690902
C  C25  1  0.84800000  0.07830000  0.92630000  1.0 0.4925856062
C  C26  1  0.07830000  0.15200000  0.23030000  1.0 0.4925856062
C  C27  1  0.15200000  0.92170000  0.07370000  1.0 0.4925856062
C  C28  1  0.92170000  0.84800000  0.76970000  1.0 0.4925856062
C  C29  1  0.65200000  0.57830000  0.23030000  1.0 0.4925856062
C  C30  1  0.34800000  0.42170000  0.76970000  1.0 0.4925856062
C  C31  1  0.57830000  0.34800000  0.92630000  1.0 0.4925856062
C  C32  1  0.42170000  0.65200000  0.07370000  1.0 0.4925856062
C  C33  1  0.15860000  0.28430000  0.02310000  1.0 -0.0836952943
C  C34  1  0.28430000  0.26120000  0.12570000  1.0 -0.0836952943
C  C35  1  0.26120000  0.13550000  0.97690000  1.0 -0.0836952943
C  C36  1  0.13550000  0.15860000  0.87430000  1.0 -0.0836952943
C  C37  1  0.34140000  0.36450000  0.12570000  1.0 -0.0836952943
C  C38  1  0.23880000  0.21570000  0.87430000  1.0 -0.0836952943
C  C39  1  0.36450000  0.23880000  0.02310000  1.0 -0.0836952943
C  C40  1  0.21570000  0.34140000  0.97690000  1.0 -0.0836952943
C  C41  1  0.84140000  0.71570000  0.97690000  1.0 -0.0836952943
C  C42  1  0.71570000  0.73880000  0.87430000  1.0 -0.0836952943
C  C43  1  0.73880000  0.86450000  0.02310000  1.0 -0.0836952943
C  C44  1  0.86450000  0.84140000  0.12570000  1.0 -0.0836952943
C  C45  1  0.65860000  0.63550000  0.87430000  1.0 -0.0836952943
C  C46  1  0.76120000  0.78430000  0.12570000  1.0 -0.0836952943
C  C47  1  0.63550000  0.76120000  0.97690000  1.0 -0.0836952943
C  C48  1  0.78430000  0.65860000  0.02310000  1.0 -0.0836952943
C  C49  1  0.22870000  0.30020000  0.10630000  1.0 -0.0836952943
C  C50  1  0.30020000  0.19390000  0.07150000  1.0 -0.0836952943
C  C51  1  0.19390000  0.12240000  0.89370000  1.0 -0.0836952943
C  C52  1  0.12240000  0.22870000  0.92850000  1.0 -0.0836952943
C  C53  1  0.27130000  0.37760000  0.07150000  1.0 -0.0836952943
C  C54  1  0.30610000  0.19980000  0.92850000  1.0 -0.0836952943
C  C55  1  0.37760000  0.30610000  0.10630000  1.0 -0.0836952943
C  C56  1  0.19980000  0.27130000  0.89370000  1.0 -0.0836952943
C  C57  1  0.77130000  0.69980000  0.89370000  1.0 -0.0836952943
C  C58  1  0.69980000  0.80610000  0.92850000  1.0 -0.0836952943
C  C59  1  0.80610000  0.87760000  0.10630000  1.0 -0.0836952943
C  C60  1  0.87760000  0.77130000  0.07150000  1.0 -0.0836952943
C  C61  1  0.72870000  0.62240000  0.92850000  1.0 -0.0836952943
C  C62  1  0.69390000  0.80020000  0.07150000  1.0 -0.0836952943
C  C63  1  0.62240000  0.69390000  0.89370000  1.0 -0.0836952943
C  C64  1  0.80020000  0.72870000  0.10630000  1.0 -0.0836952943
N  N1  1  0.18350000  0.18350000  0.00000000  1.0 -0.1126411563
N  N2  1  0.31650000  0.31650000  0.00000000  1.0 -0.1126411563
N  N3  1  0.81650000  0.81650000  0.00000000  1.0 -0.1126411563
N  N4  1  0.68350000  0.68350000  0.00000000  1.0 -0.1126411563
O  O1  1  0.93581000  0.11261000  0.93340000  1.0 -0.5435181192
O  O2  1  0.11261000  0.17921000  0.17680000  1.0 -0.5435181192
O  O3  1  0.17921000  0.00241000  0.06660000  1.0 -0.5435181192
O  O4  1  0.00241000  0.93581000  0.82320000  1.0 -0.5435181192
O  O5  1  0.56419000  0.49759000  0.17680000  1.0 -0.5435181192
O  O6  1  0.32079000  0.38739000  0.82320000  1.0 -0.5435181192
O  O7  1  0.49759000  0.32079000  0.93340000  1.0 -0.5435181192
O  O8  1  0.38739000  0.56419000  0.06660000  1.0 -0.5435181192
O  O9  1  0.06419000  0.88739000  0.06660000  1.0 -0.5435181192
O  O10  1  0.88739000  0.82079000  0.82320000  1.0 -0.5435181192
O  O11  1  0.82079000  0.99759000  0.93340000  1.0 -0.5435181192
O  O12  1  0.99759000  0.06419000  0.17680000  1.0 -0.5435181192
O  O13  1  0.43581000  0.50241000  0.82320000  1.0 -0.5435181192
O  O14  1  0.67921000  0.61261000  0.17680000  1.0 -0.5435181192
O  O15  1  0.50241000  0.67921000  0.06660000  1.0 -0.5435181192
O  O16  1  0.61261000  0.43581000  0.93340000  1.0 -0.5435181192
