# DDEC6 charges by PACMAN v1.1 (https://github.com/mtap-research/PACMAN-charge/)
data_HIWLUW_ASR_pacman
_symmetry_space_group_name_H-M   'P 1'
_cell_length_a   8.55950000
_cell_length_b   13.57590000
_cell_length_c   9.32310000
_cell_angle_alpha   90.00000000
_cell_angle_beta   96.02400000
_cell_angle_gamma   90.00000000
_symmetry_Int_Tables_number   1
_chemical_formula_structural   Zn3P4(HO3)4
_chemical_formula_sum   'Zn6 P8 H8 O24'
_cell_volume   1077.38905500
_cell_formula_units_Z   2
loop_
 _symmetry_equiv_pos_site_id
 _symmetry_equiv_pos_as_xyz
  1  'x, y, z'
loop_
 _atom_site_type_symbol
 _atom_site_label
 _atom_site_symmetry_multiplicity
 _atom_site_fract_x
 _atom_site_fract_y
 _atom_site_fract_z
 _atom_site_occupancy
 _atom_site_charge
Zn  Zn1  1  0.64115000  0.98138000  0.70156000  1.0 1.1528477789
Zn  Zn2  1  0.35885000  0.48138000  0.29844000  1.0 1.1551581443
Zn  Zn3  1  0.40442000  0.86031000  0.09218000  1.0 1.1699378015
Zn  Zn4  1  0.59558000  0.36031000  0.90782000  1.0 1.1699378015
Zn  Zn5  1  0.14948000  0.24083000  0.77309000  1.0 1.1551581443
Zn  Zn6  1  0.85052000  0.74083000  0.22691000  1.0 1.1528477789
P  P1  1  0.35884000  0.04459000  0.87072000  1.0 1.1133524001
P  P2  1  0.64116000  0.54459000  0.12928000  1.0 1.1133524001
P  P3  1  0.70568000  0.79752000  0.92531000  1.0 1.1528477789
P  P4  1  0.29432000  0.29752000  0.07469000  1.0 1.1528477789
P  P5  1  0.78509000  0.20012000  0.74311000  1.0 1.1699378015
P  P6  1  0.21491000  0.70012000  0.25689000  1.0 1.1699378015
P  P7  1  0.61003000  0.87783000  0.40022000  1.0 1.1773029388
P  P8  1  0.38997000  0.37783000  0.59978000  1.0 1.1773029388
H  H1  1  0.46490000  0.09230000  0.93530000  1.0 -0.1371709734
H  H2  1  0.53510000  0.59230000  0.06470000  1.0 -0.1296643544
H  H3  1  0.72770000  0.71150000  0.87660000  1.0 -0.1296643544
H  H4  1  0.27230000  0.21150000  0.12340000  1.0 -0.1296643544
H  H5  1  0.65520000  0.21650000  0.65860000  1.0 -0.1608343253
H  H6  1  0.34480000  0.71650000  0.34140000  1.0 -0.1608343253
H  H7  1  0.52810000  0.81930000  0.47210000  1.0 -0.1608343253
H  H8  1  0.47190000  0.31930000  0.52790000  1.0 -0.1533726632
O  O1  1  0.30670000  0.96450000  0.97040000  1.0 -0.5707282006
O  O2  1  0.69330000  0.46450000  0.02960000  1.0 -0.5707282006
O  O3  1  0.42950000  0.00480000  0.74100000  1.0 -0.6445611894
O  O4  1  0.57050000  0.50480000  0.25900000  1.0 -0.6474604189
O  O5  1  0.21960000  0.11010000  0.83000000  1.0 -0.6108225961
O  O6  1  0.78040000  0.61010000  0.17000000  1.0 -0.6108225961
O  O7  1  0.72700000  0.86830000  0.80240000  1.0 -0.6204959034
O  O8  1  0.27300000  0.36830000  0.19760000  1.0 -0.6204959034
O  O9  1  0.84060000  0.81160000  0.04430000  1.0 -0.6204959034
O  O10  1  0.15940000  0.31160000  0.95570000  1.0 -0.6204959034
O  O11  1  0.54720000  0.79680000  0.98000000  1.0 -0.6856901824
O  O12  1  0.45280000  0.29680000  0.02000000  1.0 -0.6856901824
O  O13  1  0.93620000  0.22500000  0.67600000  1.0 -0.6299716114
O  O14  1  0.06380000  0.72500000  0.32400000  1.0 -0.6299716114
O  O15  1  0.75780000  0.26550000  0.86970000  1.0 -0.6299716114
O  O16  1  0.24220000  0.76550000  0.13030000  1.0 -0.6299716114
O  O17  1  0.77800000  0.09030000  0.77840000  1.0 -0.6108225961
O  O18  1  0.22200000  0.59030000  0.22160000  1.0 -0.6108225961
O  O19  1  0.66680000  0.96430000  0.49730000  1.0 -0.6108225961
O  O20  1  0.33320000  0.46430000  0.50270000  1.0 -0.6108225961
O  O21  1  0.49970000  0.91190000  0.27350000  1.0 -0.6299716114
O  O22  1  0.50030000  0.41190000  0.72650000  1.0 -0.6299716114
O  O23  1  0.74560000  0.81860000  0.35890000  1.0 -0.6445611894
O  O24  1  0.25440000  0.31860000  0.64110000  1.0 -0.6445611894
