# DDEC6 charges by PACMAN v1.1 (https://github.com/mtap-research/PACMAN-charge/)
data_HIWLOO_ASR_pacman
_symmetry_space_group_name_H-M   'P 1'
_cell_length_a   10.54290000
_cell_length_b   11.63450000
_cell_length_c   11.73030000
_cell_angle_alpha   110.11600000
_cell_angle_beta   100.44500000
_cell_angle_gamma   104.33900000
_symmetry_Int_Tables_number   1
_chemical_formula_structural   In2P3H12C15(NO4)3
_chemical_formula_sum   'In4 P6 H24 C30 N6 O24'
_cell_volume   1251.58293562
_cell_formula_units_Z   2
loop_
 _symmetry_equiv_pos_site_id
 _symmetry_equiv_pos_as_xyz
  1  'x, y, z'
loop_
 _atom_site_type_symbol
 _atom_site_label
 _atom_site_symmetry_multiplicity
 _atom_site_fract_x
 _atom_site_fract_y
 _atom_site_fract_z
 _atom_site_occupancy
 _atom_site_charge
In  In1  1  0.04631000  0.04462000  0.79474000  1.0 1.6290921275
In  In2  1  0.95369000  0.95538000  0.20526000  1.0 1.6290921275
In  In3  1  0.50000000  0.00000000  0.00000000  1.0 1.5283349458
In  In4  1  0.50000000  0.00000000  0.50000000  1.0 1.5382332508
P  P1  1  0.19360000  0.99740000  0.04980000  1.0 1.5742094223
P  P2  1  0.36760000  0.09770000  0.76350000  1.0 1.5541110937
P  P3  1  0.84540000  0.16210000  0.63330000  1.0 1.5382332508
P  P4  1  0.80640000  0.00260000  0.95020000  1.0 1.5755560104
P  P5  1  0.63240000  0.90230000  0.23650000  1.0 1.5541110937
P  P6  1  0.15460000  0.83790000  0.36670000  1.0 1.5382332508
H  H1  1  0.87509000  0.91282000  0.50150000  1.0 0.1090487477
H  H2  1  0.97727000  0.75325000  0.76733000  1.0 0.1090487477
H  H3  1  0.76125000  0.68797000  0.32342000  1.0 0.1485097375
H  H4  1  0.87053000  0.52316000  0.59778000  1.0 0.1317849368
H  H5  1  0.60522000  0.51632000  0.22226000  1.0 0.1413455192
H  H6  1  0.85534000  0.36709000  0.43932000  1.0 0.1317849368
H  H7  1  0.48567000  0.28702000  0.05718000  1.0 0.1210036803
H  H8  1  0.73956000  0.14361000  0.26129000  1.0 0.1040710662
H  H9  1  0.62870000  0.89290000  0.69181000  1.0 0.1210036803
H  H10  1  0.36549000  0.69743000  0.30631000  1.0 0.1210036803
H  H11  1  0.62938000  0.67807000  0.69739000  1.0 0.1413455192
H  H12  1  0.36579000  0.48015000  0.30366000  1.0 0.1317849368
H  H13  1  0.12491000  0.08718000  0.49850000  1.0 0.1090487477
H  H14  1  0.23875000  0.31203000  0.67658000  1.0 0.1485097375
H  H15  1  0.39478000  0.48368000  0.77774000  1.0 0.1413455192
H  H16  1  0.14466000  0.63291000  0.56068000  1.0 0.1317849368
H  H17  1  0.51433000  0.71298000  0.94282000  1.0 0.1210036803
H  H18  1  0.26044000  0.85639000  0.73871000  1.0 0.1040710662
H  H19  1  0.37130000  0.10710000  0.30819000  1.0 0.1210036803
H  H20  1  0.63451000  0.30257000  0.69369000  1.0 0.1210036803
H  H21  1  0.37062000  0.32193000  0.30261000  1.0 0.1413455192
H  H22  1  0.63421000  0.51985000  0.69634000  1.0 0.1317849368
H  H23  1  0.02273000  0.24675000  0.23267000  1.0 0.1090487477
H  H24  1  0.12947000  0.47684000  0.40222000  1.0 0.1317849368
C  C1  1  0.87220000  0.82320000  0.52160000  1.0 0.1606164281
C  C2  1  0.92770000  0.73540000  0.66520000  1.0 0.1413455192
C  C3  1  0.81010000  0.69950000  0.42350000  1.0 -0.0951051857
C  C4  1  0.86860000  0.60880000  0.57200000  1.0 -0.1460425179
C  C5  1  0.80670000  0.59030000  0.44550000  1.0 0.1090487477
C  C6  1  0.73920000  0.45800000  0.34540000  1.0 0.1090487477
C  C7  1  0.63510000  0.43290000  0.23520000  1.0 -0.1326006945
C  C8  1  0.77300000  0.35290000  0.35310000  1.0 -0.1233167048
C  C9  1  0.57070000  0.30770000  0.14440000  1.0 0.1317849368
C  C10  1  0.70720000  0.22860000  0.25600000  1.0 0.1413455192
C  C11  1  0.56850000  0.79850000  0.60480000  1.0 0.1485097375
C  C12  1  0.42540000  0.69160000  0.39420000  1.0 0.1413455192
C  C13  1  0.57010000  0.68080000  0.60740000  1.0 -0.1233167048
C  C14  1  0.42570000  0.57270000  0.39270000  1.0 -0.1362058516
C  C15  1  0.49930000  0.56450000  0.50010000  1.0 0.1090487477
C  C16  1  0.12780000  0.17680000  0.47840000  1.0 0.1606164281
C  C17  1  0.07230000  0.26460000  0.33480000  1.0 0.1413455192
C  C18  1  0.18990000  0.30050000  0.57650000  1.0 -0.0951051857
C  C19  1  0.13140000  0.39120000  0.42800000  1.0 -0.1460425179
C  C20  1  0.19330000  0.40970000  0.55450000  1.0 0.1090487477
C  C21  1  0.26080000  0.54200000  0.65460000  1.0 0.1090487477
C  C22  1  0.36490000  0.56710000  0.76480000  1.0 -0.1326006945
C  C23  1  0.22700000  0.64710000  0.64690000  1.0 -0.1233167048
C  C24  1  0.42930000  0.69230000  0.85560000  1.0 0.1317849368
C  C25  1  0.29280000  0.77140000  0.74400000  1.0 0.1413455192
C  C26  1  0.43150000  0.20150000  0.39520000  1.0 0.1485097375
C  C27  1  0.57460000  0.30840000  0.60580000  1.0 0.1413455192
C  C28  1  0.42990000  0.31920000  0.39260000  1.0 -0.1233167048
C  C29  1  0.57430000  0.42730000  0.60730000  1.0 -0.1362058516
C  C30  1  0.50070000  0.43550000  0.49990000  1.0 0.1090487477
N  N1  1  0.93010000  0.84080000  0.64180000  1.0 -0.2418287318
N  N2  1  0.60440000  0.20580000  0.15410000  1.0 -0.2418287318
N  N3  1  0.49550000  0.80450000  0.49900000  1.0 -0.2474964555
N  N4  1  0.06990000  0.15920000  0.35820000  1.0 -0.2418287318
N  N5  1  0.39560000  0.79420000  0.84590000  1.0 -0.2418287318
N  N6  1  0.50450000  0.19550000  0.50100000  1.0 -0.2474964555
O  O1  1  0.12130000  0.95770000  0.91100000  1.0 -0.8060439523
O  O2  1  0.10760000  0.93210000  0.11530000  1.0 -0.7509186264
O  O3  1  0.32780000  0.96850000  0.06790000  1.0 -0.7593506968
O  O4  1  0.22730000  0.15020000  0.12030000  1.0 -0.7509186264
O  O5  1  0.21110000  0.04100000  0.70610000  1.0 -0.7593506968
O  O6  1  0.41070000  0.08120000  0.88480000  1.0 -0.7971923645
O  O7  1  0.43540000  0.03990000  0.66650000  1.0 -0.7593506968
O  O8  1  0.41410000  0.25030000  0.80060000  1.0 -0.7331657108
O  O9  1  0.95930000  0.11070000  0.66430000  1.0 -0.7859419581
O  O10  1  0.70530000  0.07850000  0.61990000  1.0 -0.7747377451
O  O11  1  0.84510000  0.18120000  0.50610000  1.0 -0.6671487983
O  O12  1  0.87700000  0.30120000  0.73680000  1.0 -0.7015709277
O  O13  1  0.87870000  0.04230000  0.08900000  1.0 -0.8060439523
O  O14  1  0.89240000  0.06790000  0.88470000  1.0 -0.7509186264
O  O15  1  0.67220000  0.03150000  0.93210000  1.0 -0.7593506968
O  O16  1  0.77270000  0.84980000  0.87970000  1.0 -0.7509186264
O  O17  1  0.78890000  0.95900000  0.29390000  1.0 -0.7593506968
O  O18  1  0.58930000  0.91880000  0.11520000  1.0 -0.7971923645
O  O19  1  0.56460000  0.96010000  0.33350000  1.0 -0.7593506968
O  O20  1  0.58590000  0.74970000  0.19940000  1.0 -0.7331657108
O  O21  1  0.04070000  0.88930000  0.33570000  1.0 -0.7859419581
O  O22  1  0.29470000  0.92150000  0.38010000  1.0 -0.7747377451
O  O23  1  0.15490000  0.81880000  0.49390000  1.0 -0.6671487983
O  O24  1  0.12300000  0.69880000  0.26320000  1.0 -0.7015709277
