# DDEC6 charges by PACMAN v1.1 (https://github.com/mtap-research/PACMAN-charge/)
data_HIXDOH_ASR_pacman
_symmetry_space_group_name_H-M   'P 1'
_cell_length_a   6.88600000
_cell_length_b   6.88600000
_cell_length_c   8.30000000
_cell_angle_alpha   90.00000000
_cell_angle_beta   90.00000000
_cell_angle_gamma   90.00000000
_symmetry_Int_Tables_number   1
_chemical_formula_structural   CuWC8N4(OF)3
_chemical_formula_sum   'Cu1 W1 C8 N4 O3 F3'
_cell_volume   393.56106680
_cell_formula_units_Z   1
loop_
 _symmetry_equiv_pos_site_id
 _symmetry_equiv_pos_as_xyz
  1  'x, y, z'
loop_
 _atom_site_type_symbol
 _atom_site_label
 _atom_site_symmetry_multiplicity
 _atom_site_fract_x
 _atom_site_fract_y
 _atom_site_fract_z
 _atom_site_occupancy
 _atom_site_charge
Cu  Cu1  1  0.49918000  0.50000000  0.50000000  1.0 0.8693388294
W  W1  1  0.48822000  0.50000000  0.00000000  1.0 2.5103460144
C  C1  1  0.50002000  0.09439000  0.36495000  1.0 0.1526650964
C  C2  1  0.50002000  0.90561000  0.36495000  1.0 0.1526650964
C  C3  1  0.90439000  0.50000000  0.36588000  1.0 0.1526650964
C  C4  1  0.09446000  0.50000000  0.36459000  1.0 0.1616489779
C  C5  1  0.50002000  0.09439000  0.63505000  1.0 0.1526650964
C  C6  1  0.50002000  0.90561000  0.63505000  1.0 0.1526650964
C  C7  1  0.90439000  0.50000000  0.63412000  1.0 0.1526650964
C  C8  1  0.09446000  0.50000000  0.63541000  1.0 0.1616489779
N  N1  1  0.49993000  0.20503000  0.50000000  1.0 -0.1239678223
N  N2  1  0.49993000  0.79497000  0.50000000  1.0 -0.1239678223
N  N3  1  0.79466000  0.50000000  0.50000000  1.0 -0.1008676101
N  N4  1  0.20588000  0.50000000  0.50000000  1.0 -0.1347998042
O  O1  1  0.50155000  0.50000000  0.23538000  1.0 -1.0056056786
O  O2  1  0.50155000  0.50000000  0.76462000  1.0 -1.0056056786
O  O3  1  0.23046000  0.50000000  0.00000000  1.0 -0.7332301546
F  F1  1  0.50302000  0.22406000  0.00000000  1.0 -0.4656578112
F  F2  1  0.50302000  0.77594000  0.00000000  1.0 -0.4656578112
F  F3  1  0.77480000  0.50000000  0.00000000  1.0 -0.459613185
