# DDEC6 charges by PACMAN v1.1 (https://github.com/mtap-research/PACMAN-charge/)
data_HIXDEA_ASR_pacman
_symmetry_space_group_name_H-M   'P 1'
_cell_length_a   20.35000000
_cell_length_b   20.35000000
_cell_length_c   15.42900000
_cell_angle_alpha   90.00000000
_cell_angle_beta   90.00000000
_cell_angle_gamma   116.27800000
_symmetry_Int_Tables_number   1
_chemical_formula_structural   Zr3H20(C3O)16
_chemical_formula_sum   'Zr6 H40 C96 O32'
_cell_volume   5729.18311236
_cell_formula_units_Z   2
loop_
 _symmetry_equiv_pos_site_id
 _symmetry_equiv_pos_as_xyz
  1  'x, y, z'
loop_
 _atom_site_type_symbol
 _atom_site_label
 _atom_site_symmetry_multiplicity
 _atom_site_fract_x
 _atom_site_fract_y
 _atom_site_fract_z
 _atom_site_occupancy
 _atom_site_charge
Zr  Zr1  1  0.07059000  0.92941000  0.00000000  1.0 2.3743362611
Zr  Zr2  1  0.92941000  0.07059000  0.00000000  1.0 2.3788495248
Zr  Zr3  1  0.91745000  0.91745000  0.11398000  1.0 2.4524147695
Zr  Zr4  1  0.08255000  0.08255000  0.11398000  1.0 2.4524147695
Zr  Zr5  1  0.08255000  0.08255000  0.88602000  1.0 2.4524147695
Zr  Zr6  1  0.91745000  0.91745000  0.88602000  1.0 2.4524147695
H  H1  1  0.90430000  0.71950000  0.26400000  1.0 0.1307811983
H  H2  1  0.98940000  0.59320000  0.43670000  1.0 0.1112977097
H  H3  1  0.90470000  0.61870000  0.33460000  1.0 0.1184089749
H  H4  1  0.07830000  0.64170000  0.19300000  1.0 0.1307811983
H  H5  1  0.07960000  0.74340000  0.12360000  1.0 0.1307811983
H  H6  1  0.09570000  0.28050000  0.26400000  1.0 0.1307811983
H  H7  1  0.01060000  0.40680000  0.43670000  1.0 0.1112977097
H  H8  1  0.09530000  0.38130000  0.33460000  1.0 0.1184089749
H  H9  1  0.92170000  0.35830000  0.19300000  1.0 0.1307811983
H  H10  1  0.92040000  0.25660000  0.12360000  1.0 0.1307811983
H  H11  1  0.28050000  0.09570000  0.73600000  1.0 0.1307811983
H  H12  1  0.40680000  0.01060000  0.56330000  1.0 0.1112977097
H  H13  1  0.38130000  0.09530000  0.66540000  1.0 0.1184089749
H  H14  1  0.35830000  0.92170000  0.80700000  1.0 0.1307811983
H  H15  1  0.25660000  0.92040000  0.87640000  1.0 0.1352693325
H  H16  1  0.71950000  0.90430000  0.73600000  1.0 0.1307811983
H  H17  1  0.59320000  0.98940000  0.56330000  1.0 0.1112977097
H  H18  1  0.61870000  0.90470000  0.66540000  1.0 0.1184089749
H  H19  1  0.64170000  0.07830000  0.80700000  1.0 0.1307811983
H  H20  1  0.74340000  0.07960000  0.87640000  1.0 0.1352693325
H  H21  1  0.09570000  0.28050000  0.73600000  1.0 0.1307811983
H  H22  1  0.01060000  0.40680000  0.56330000  1.0 0.1112977097
H  H23  1  0.09530000  0.38130000  0.66540000  1.0 0.1184089749
H  H24  1  0.92170000  0.35830000  0.80700000  1.0 0.1307811983
H  H25  1  0.92040000  0.25660000  0.87640000  1.0 0.1307811983
H  H26  1  0.90430000  0.71950000  0.73600000  1.0 0.1307811983
H  H27  1  0.98940000  0.59320000  0.56330000  1.0 0.1112977097
H  H28  1  0.90470000  0.61870000  0.66540000  1.0 0.1184089749
H  H29  1  0.07830000  0.64170000  0.80700000  1.0 0.1307811983
H  H30  1  0.07960000  0.74340000  0.87640000  1.0 0.1307811983
H  H31  1  0.71950000  0.90430000  0.26400000  1.0 0.1307811983
H  H32  1  0.59320000  0.98940000  0.43670000  1.0 0.1112977097
H  H33  1  0.61870000  0.90470000  0.33460000  1.0 0.1184089749
H  H34  1  0.64170000  0.07830000  0.19300000  1.0 0.1307811983
H  H35  1  0.74340000  0.07960000  0.12360000  1.0 0.1307811983
H  H36  1  0.28050000  0.09570000  0.26400000  1.0 0.1307811983
H  H37  1  0.40680000  0.01060000  0.43670000  1.0 0.1112977097
H  H38  1  0.38130000  0.09530000  0.33460000  1.0 0.1184089749
H  H39  1  0.35830000  0.92170000  0.19300000  1.0 0.1307811983
H  H40  1  0.25660000  0.92040000  0.12360000  1.0 0.1307811983
C  C1  1  0.99112000  0.80568000  0.14160000  1.0 0.6420386022
C  C2  1  0.94027000  0.70373000  0.24900000  1.0 -0.0813683236
C  C3  1  0.99370000  0.55490000  0.40580000  1.0 -0.1796271766
C  C4  1  0.99021000  0.74099000  0.18680000  1.0 -0.0410605609
C  C5  1  0.99340000  0.55580000  0.31440000  1.0 -0.0288325975
C  C6  1  0.94018000  0.64362000  0.29120000  1.0 -0.1396726186
C  C7  1  0.99262000  0.62038000  0.26900000  1.0 0.1112977097
C  C8  1  0.04240000  0.65760000  0.20790000  1.0 -0.1219498759
C  C9  1  0.04329000  0.71791000  0.16600000  1.0 -0.0813683236
C  C10  1  0.00888000  0.19432000  0.14160000  1.0 0.6420386022
C  C11  1  0.05973000  0.29627000  0.24900000  1.0 -0.0813683236
C  C12  1  0.00630000  0.44510000  0.40580000  1.0 -0.1796271766
C  C13  1  0.00979000  0.25901000  0.18680000  1.0 -0.0410605609
C  C14  1  0.00660000  0.44420000  0.31440000  1.0 -0.0288325975
C  C15  1  0.05982000  0.35638000  0.29120000  1.0 -0.1396726186
C  C16  1  0.00738000  0.37962000  0.26900000  1.0 0.1112977097
C  C17  1  0.95760000  0.34240000  0.20790000  1.0 -0.1219498759
C  C18  1  0.95671000  0.28209000  0.16600000  1.0 -0.0813683236
C  C19  1  0.19432000  0.00888000  0.85840000  1.0 0.6420386022
C  C20  1  0.29627000  0.05973000  0.75100000  1.0 -0.0813683236
C  C21  1  0.44510000  0.00630000  0.59420000  1.0 -0.1796271766
C  C22  1  0.25901000  0.00979000  0.81320000  1.0 -0.0410605609
C  C23  1  0.44420000  0.00660000  0.68560000  1.0 -0.0288325975
C  C24  1  0.35638000  0.05982000  0.70880000  1.0 -0.1396726186
C  C25  1  0.37962000  0.00738000  0.73100000  1.0 0.1112977097
C  C26  1  0.34240000  0.95760000  0.79210000  1.0 -0.1219498759
C  C27  1  0.28209000  0.95671000  0.83400000  1.0 -0.0813683236
C  C28  1  0.80568000  0.99112000  0.85840000  1.0 0.6420386022
C  C29  1  0.70373000  0.94027000  0.75100000  1.0 -0.0813683236
C  C30  1  0.55490000  0.99370000  0.59420000  1.0 -0.1796271766
C  C31  1  0.74099000  0.99021000  0.81320000  1.0 -0.0410605609
C  C32  1  0.55580000  0.99340000  0.68560000  1.0 -0.0288325975
C  C33  1  0.64362000  0.94018000  0.70880000  1.0 -0.1396726186
C  C34  1  0.62038000  0.99262000  0.73100000  1.0 0.1112977097
C  C35  1  0.65760000  0.04240000  0.79210000  1.0 -0.1219498759
C  C36  1  0.71791000  0.04329000  0.83400000  1.0 -0.0813683236
C  C37  1  0.00888000  0.19432000  0.85840000  1.0 0.6420386022
C  C38  1  0.05973000  0.29627000  0.75100000  1.0 -0.0813683236
C  C39  1  0.00630000  0.44510000  0.59420000  1.0 -0.1796271766
C  C40  1  0.00979000  0.25901000  0.81320000  1.0 -0.0410605609
C  C41  1  0.00660000  0.44420000  0.68560000  1.0 -0.0288325975
C  C42  1  0.05982000  0.35638000  0.70880000  1.0 -0.1396726186
C  C43  1  0.00738000  0.37962000  0.73100000  1.0 0.1112977097
C  C44  1  0.95760000  0.34240000  0.79210000  1.0 -0.1219498759
C  C45  1  0.95671000  0.28209000  0.83400000  1.0 -0.0813683236
C  C46  1  0.99112000  0.80568000  0.85840000  1.0 0.6420386022
C  C47  1  0.94027000  0.70373000  0.75100000  1.0 -0.0813683236
C  C48  1  0.99370000  0.55490000  0.59420000  1.0 -0.1796271766
C  C49  1  0.99021000  0.74099000  0.81320000  1.0 -0.0410605609
C  C50  1  0.99340000  0.55580000  0.68560000  1.0 -0.0288325975
C  C51  1  0.94018000  0.64362000  0.70880000  1.0 -0.1396726186
C  C52  1  0.99262000  0.62038000  0.73100000  1.0 0.1112977097
C  C53  1  0.04240000  0.65760000  0.79210000  1.0 -0.1219498759
C  C54  1  0.04329000  0.71791000  0.83400000  1.0 -0.0813683236
C  C55  1  0.80568000  0.99112000  0.14160000  1.0 0.6420386022
C  C56  1  0.70373000  0.94027000  0.24900000  1.0 -0.0813683236
C  C57  1  0.55490000  0.99370000  0.40580000  1.0 -0.1796271766
C  C58  1  0.74099000  0.99021000  0.18680000  1.0 -0.0410605609
C  C59  1  0.55580000  0.99340000  0.31440000  1.0 -0.0288325975
C  C60  1  0.64362000  0.94018000  0.29120000  1.0 -0.1396726186
C  C61  1  0.62038000  0.99262000  0.26900000  1.0 0.1112977097
C  C62  1  0.65760000  0.04240000  0.20790000  1.0 -0.1219498759
C  C63  1  0.71791000  0.04329000  0.16600000  1.0 -0.0813683236
C  C64  1  0.19432000  0.00888000  0.14160000  1.0 0.6420386022
C  C65  1  0.29627000  0.05973000  0.24900000  1.0 -0.0813683236
C  C66  1  0.44510000  0.00630000  0.40580000  1.0 -0.1796271766
C  C67  1  0.25901000  0.00979000  0.18680000  1.0 -0.0410605609
C  C68  1  0.44420000  0.00660000  0.31440000  1.0 -0.0288325975
C  C69  1  0.35638000  0.05982000  0.29120000  1.0 -0.1396726186
C  C70  1  0.37962000  0.00738000  0.26900000  1.0 0.1112977097
C  C71  1  0.34240000  0.95760000  0.20790000  1.0 -0.1219498759
C  C72  1  0.28209000  0.95671000  0.16600000  1.0 -0.0813683236
C  C73  1  0.62620000  0.62620000  0.07910000  1.0 0.0096156428
C  C74  1  0.69090000  0.69090000  0.07870000  1.0 -0.0110241695
C  C75  1  0.37380000  0.37380000  0.07910000  1.0 -0.0110241695
C  C76  1  0.30910000  0.30910000  0.07870000  1.0 -0.0110241695
C  C77  1  0.37380000  0.37380000  0.92090000  1.0 -0.0288325975
C  C78  1  0.30910000  0.30910000  0.92130000  1.0 -0.0110241695
C  C79  1  0.62620000  0.62620000  0.92090000  1.0 -0.0110241695
C  C80  1  0.69090000  0.69090000  0.92130000  1.0 -0.0110241695
C  C81  1  0.00000000  0.50000000  0.45090000  1.0 0.089521054
C  C82  1  0.00000000  0.50000000  0.27000000  1.0 0.2257845586
C  C83  1  0.50000000  0.00000000  0.54910000  1.0 0.089521054
C  C84  1  0.50000000  0.00000000  0.73000000  1.0 0.2245384937
C  C85  1  0.00000000  0.50000000  0.54910000  1.0 0.089521054
C  C86  1  0.00000000  0.50000000  0.73000000  1.0 0.2257845586
C  C87  1  0.50000000  0.00000000  0.45090000  1.0 0.089521054
C  C88  1  0.50000000  0.00000000  0.27000000  1.0 0.2245384937
C  C89  1  0.72290000  0.72290000  0.00000000  1.0 0.004898468
C  C90  1  0.79430000  0.79430000  0.00000000  1.0 0.6487928217
C  C91  1  0.59290000  0.59290000  0.00000000  1.0 0.1307811983
C  C92  1  0.52670000  0.52670000  0.00000000  1.0 -0.0623539576
C  C93  1  0.27710000  0.27710000  0.00000000  1.0 0.0096156428
C  C94  1  0.20570000  0.20570000  0.00000000  1.0 0.6487928217
C  C95  1  0.40710000  0.40710000  0.00000000  1.0 0.1184089749
C  C96  1  0.47330000  0.47330000  0.00000000  1.0 -0.0410605609
O  O1  1  0.04092000  0.83528000  0.08630000  1.0 -0.5693170766
O  O2  1  0.94237000  0.82583000  0.16030000  1.0 -0.5693170766
O  O3  1  0.95908000  0.16472000  0.08630000  1.0 -0.5693170766
O  O4  1  0.05763000  0.17417000  0.16030000  1.0 -0.5693170766
O  O5  1  0.16472000  0.95908000  0.91370000  1.0 -0.5693170766
O  O6  1  0.17417000  0.05763000  0.83970000  1.0 -0.5693170766
O  O7  1  0.83528000  0.04092000  0.91370000  1.0 -0.5693170766
O  O8  1  0.82583000  0.94237000  0.83970000  1.0 -0.5693170766
O  O9  1  0.95908000  0.16472000  0.91370000  1.0 -0.5693170766
O  O10  1  0.05763000  0.17417000  0.83970000  1.0 -0.5693170766
O  O11  1  0.04092000  0.83528000  0.91370000  1.0 -0.5693170766
O  O12  1  0.94237000  0.82583000  0.83970000  1.0 -0.5693170766
O  O13  1  0.83528000  0.04092000  0.08630000  1.0 -0.5693170766
O  O14  1  0.82583000  0.94237000  0.16030000  1.0 -0.5693170766
O  O15  1  0.16472000  0.95908000  0.08630000  1.0 -0.5693170766
O  O16  1  0.17417000  0.05763000  0.16030000  1.0 -0.5693170766
O  O17  1  0.81870000  0.81870000  0.09580000  1.0 -0.7044571255
O  O18  1  0.18130000  0.18130000  0.09580000  1.0 -0.7058574969
O  O19  1  0.18130000  0.18130000  0.90420000  1.0 -0.7044571255
O  O20  1  0.81870000  0.81870000  0.90420000  1.0 -0.7044571255
O  O21  1  0.95300000  0.88400000  0.00000000  1.0 -1.1175146514
O  O22  1  0.04700000  0.11600000  0.00000000  1.0 -1.1128207261
O  O23  1  0.11600000  0.04700000  0.00000000  1.0 -1.1128207261
O  O24  1  0.88400000  0.95300000  0.00000000  1.0 -1.1175146514
O  O25  1  0.03403000  0.96597000  0.11530000  1.0 -1.129904212
O  O26  1  0.96597000  0.03403000  0.11530000  1.0 -1.129904212
O  O27  1  0.03403000  0.96597000  0.88470000  1.0 -1.129904212
O  O28  1  0.96597000  0.03403000  0.88470000  1.0 -1.1358027274
O  O29  1  0.00000000  0.50000000  0.18350000  1.0 -0.4761469925
O  O30  1  0.50000000  0.00000000  0.81650000  1.0 -0.4741698021
O  O31  1  0.00000000  0.50000000  0.81650000  1.0 -0.4741698021
O  O32  1  0.50000000  0.00000000  0.18350000  1.0 -0.4761469925
