# DDEC6 charges by PACMAN v1.1 (https://github.com/mtap-research/PACMAN-charge/)
data_HIXDAW_ASR_pacman
_symmetry_space_group_name_H-M   'P 1'
_cell_length_a   20.45640000
_cell_length_b   20.45640000
_cell_length_c   15.21700000
_cell_angle_alpha   90.00000000
_cell_angle_beta   90.00000000
_cell_angle_gamma   116.42000000
_symmetry_Int_Tables_number   1
_chemical_formula_structural   Zr3H34(C13O4)4
_chemical_formula_sum   'Zr6 H68 C104 O32'
_cell_volume   5702.69894113
_cell_formula_units_Z   2
loop_
 _symmetry_equiv_pos_site_id
 _symmetry_equiv_pos_as_xyz
  1  'x, y, z'
loop_
 _atom_site_type_symbol
 _atom_site_label
 _atom_site_symmetry_multiplicity
 _atom_site_fract_x
 _atom_site_fract_y
 _atom_site_fract_z
 _atom_site_occupancy
 _atom_site_charge
Zr  Zr1  1  0.06996000  0.93004000  0.50000000  1.0 2.3878075549
Zr  Zr2  1  0.93004000  0.06996000  0.50000000  1.0 2.3878075549
Zr  Zr3  1  0.91750000  0.91750000  0.38461000  1.0 2.4389684269
Zr  Zr4  1  0.08250000  0.08250000  0.38461000  1.0 2.4389684269
Zr  Zr5  1  0.08250000  0.08250000  0.61539000  1.0 2.4389684269
Zr  Zr6  1  0.91750000  0.91750000  0.61539000  1.0 2.4389684269
H  H1  1  0.90260000  0.71740000  0.23090000  1.0 0.1274158627
H  H2  1  0.90250000  0.61470000  0.16820000  1.0 0.1213980278
H  H3  1  0.07680000  0.64140000  0.31450000  1.0 0.1064380662
H  H4  1  0.07700000  0.74480000  0.37880000  1.0 0.1274158627
H  H5  1  0.99050000  0.59350000  0.06630000  1.0 0.1213980278
H  H6  1  0.93000000  0.48940000  0.42620000  1.0 0.1213980278
H  H7  1  0.88980000  0.43560000  0.34630000  1.0 0.1213980278
H  H8  1  0.91020000  0.52060000  0.33890000  1.0 0.1274158627
H  H9  1  0.09740000  0.28260000  0.23090000  1.0 0.1274158627
H  H10  1  0.09750000  0.38530000  0.16820000  1.0 0.1213980278
H  H11  1  0.92320000  0.35860000  0.31450000  1.0 0.1064380662
H  H12  1  0.92300000  0.25520000  0.37880000  1.0 0.1274158627
H  H13  1  0.00950000  0.40650000  0.06630000  1.0 0.1213980278
H  H14  1  0.07000000  0.51060000  0.42620000  1.0 0.1213980278
H  H15  1  0.11020000  0.56440000  0.34630000  1.0 0.1213980278
H  H16  1  0.08980000  0.47940000  0.33890000  1.0 0.1274158627
H  H17  1  0.28260000  0.09740000  0.76910000  1.0 0.1274158627
H  H18  1  0.38530000  0.09750000  0.83180000  1.0 0.1213980278
H  H19  1  0.35860000  0.92320000  0.68550000  1.0 0.1064380662
H  H20  1  0.25520000  0.92300000  0.62120000  1.0 0.1274158627
H  H21  1  0.40650000  0.00950000  0.93370000  1.0 0.1213980278
H  H22  1  0.51060000  0.07000000  0.57380000  1.0 0.1274158627
H  H23  1  0.56440000  0.11020000  0.65370000  1.0 0.1274158627
H  H24  1  0.47940000  0.08980000  0.66110000  1.0 0.1274158627
H  H25  1  0.71740000  0.90260000  0.76910000  1.0 0.1213980278
H  H26  1  0.61470000  0.90250000  0.83180000  1.0 0.1213980278
H  H27  1  0.64140000  0.07680000  0.68550000  1.0 0.1064380662
H  H28  1  0.74480000  0.07700000  0.62120000  1.0 0.1274158627
H  H29  1  0.59350000  0.99050000  0.93370000  1.0 0.1213980278
H  H30  1  0.48940000  0.93000000  0.57380000  1.0 0.1274158627
H  H31  1  0.43560000  0.88980000  0.65370000  1.0 0.1213980278
H  H32  1  0.52060000  0.91020000  0.66110000  1.0 0.1274158627
H  H33  1  0.09740000  0.28260000  0.76910000  1.0 0.1213980278
H  H34  1  0.09750000  0.38530000  0.83180000  1.0 0.1213980278
H  H35  1  0.92320000  0.35860000  0.68550000  1.0 0.1064380662
H  H36  1  0.92300000  0.25520000  0.62120000  1.0 0.1274158627
H  H37  1  0.00950000  0.40650000  0.93370000  1.0 0.1213980278
H  H38  1  0.07000000  0.51060000  0.57380000  1.0 0.1213980278
H  H39  1  0.11020000  0.56440000  0.65370000  1.0 0.1213980278
H  H40  1  0.08980000  0.47940000  0.66110000  1.0 0.1274158627
H  H41  1  0.90260000  0.71740000  0.76910000  1.0 0.1274158627
H  H42  1  0.90250000  0.61470000  0.83180000  1.0 0.1213980278
H  H43  1  0.07680000  0.64140000  0.68550000  1.0 0.1064380662
H  H44  1  0.07700000  0.74480000  0.62120000  1.0 0.1274158627
H  H45  1  0.99050000  0.59350000  0.93370000  1.0 0.1213980278
H  H46  1  0.93000000  0.48940000  0.57380000  1.0 0.1213980278
H  H47  1  0.88980000  0.43560000  0.65370000  1.0 0.1213980278
H  H48  1  0.91020000  0.52060000  0.66110000  1.0 0.1274158627
H  H49  1  0.71740000  0.90260000  0.23090000  1.0 0.1213980278
H  H50  1  0.61470000  0.90250000  0.16820000  1.0 0.1213980278
H  H51  1  0.64140000  0.07680000  0.31450000  1.0 0.1064380662
H  H52  1  0.74480000  0.07700000  0.37880000  1.0 0.1274158627
H  H53  1  0.59350000  0.99050000  0.06630000  1.0 0.1213980278
H  H54  1  0.48940000  0.93000000  0.42620000  1.0 0.1274158627
H  H55  1  0.43560000  0.88980000  0.34630000  1.0 0.1213980278
H  H56  1  0.52060000  0.91020000  0.33890000  1.0 0.1274158627
H  H57  1  0.28260000  0.09740000  0.23090000  1.0 0.1274158627
H  H58  1  0.38530000  0.09750000  0.16820000  1.0 0.1213980278
H  H59  1  0.35860000  0.92320000  0.31450000  1.0 0.1064380662
H  H60  1  0.25520000  0.92300000  0.37880000  1.0 0.1274158627
H  H61  1  0.40650000  0.00950000  0.06630000  1.0 0.1213980278
H  H62  1  0.51060000  0.07000000  0.42620000  1.0 0.1274158627
H  H63  1  0.56440000  0.11020000  0.34630000  1.0 0.1274158627
H  H64  1  0.47940000  0.08980000  0.33890000  1.0 0.1274158627
H  H65  1  0.59660000  0.59660000  0.35830000  1.0 0.1481994281
H  H66  1  0.40340000  0.40340000  0.35830000  1.0 0.1481994281
H  H67  1  0.40340000  0.40340000  0.64170000  1.0 0.1481994281
H  H68  1  0.59660000  0.59660000  0.64170000  1.0 0.1481994281
C  C1  1  0.98880000  0.80440000  0.35690000  1.0 0.6272320593
C  C2  1  0.98850000  0.74050000  0.31370000  1.0 -0.0666421774
C  C3  1  0.93780000  0.70180000  0.24880000  1.0 -0.0799341524
C  C4  1  0.93850000  0.64150000  0.21060000  1.0 -0.161677905
C  C5  1  0.99050000  0.61910000  0.23260000  1.0 0.0829992729
C  C6  1  0.04150000  0.65730000  0.29720000  1.0 -0.1678085034
C  C7  1  0.04100000  0.71820000  0.33620000  1.0 -0.086369353
C  C8  1  0.99360000  0.55520000  0.18740000  1.0 -0.0131758434
C  C9  1  0.99420000  0.55480000  0.09730000  1.0 -0.203000045
C  C10  1  0.92590000  0.48510000  0.36210000  1.0 -0.324805521
C  C11  1  0.01120000  0.19560000  0.35690000  1.0 0.6272320593
C  C12  1  0.01150000  0.25950000  0.31370000  1.0 -0.0666421774
C  C13  1  0.06220000  0.29820000  0.24880000  1.0 -0.0799341524
C  C14  1  0.06150000  0.35850000  0.21060000  1.0 -0.161677905
C  C15  1  0.00950000  0.38090000  0.23260000  1.0 0.0829992729
C  C16  1  0.95850000  0.34270000  0.29720000  1.0 -0.1678085034
C  C17  1  0.95900000  0.28180000  0.33620000  1.0 -0.086369353
C  C18  1  0.00640000  0.44480000  0.18740000  1.0 -0.0131758434
C  C19  1  0.00580000  0.44520000  0.09730000  1.0 -0.203000045
C  C20  1  0.07410000  0.51490000  0.36210000  1.0 -0.324805521
C  C21  1  0.19560000  0.01120000  0.64310000  1.0 0.6272320593
C  C22  1  0.25950000  0.01150000  0.68630000  1.0 -0.0666421774
C  C23  1  0.29820000  0.06220000  0.75120000  1.0 -0.0799341524
C  C24  1  0.35850000  0.06150000  0.78940000  1.0 -0.161677905
C  C25  1  0.38090000  0.00950000  0.76740000  1.0 0.0829992729
C  C26  1  0.34270000  0.95850000  0.70280000  1.0 -0.1678085034
C  C27  1  0.28180000  0.95900000  0.66380000  1.0 -0.086369353
C  C28  1  0.44480000  0.00640000  0.81260000  1.0 -0.0131758434
C  C29  1  0.44520000  0.00580000  0.90270000  1.0 -0.203000045
C  C30  1  0.51490000  0.07410000  0.63790000  1.0 -0.3252101174
C  C31  1  0.80440000  0.98880000  0.64310000  1.0 0.6272320593
C  C32  1  0.74050000  0.98850000  0.68630000  1.0 -0.0666421774
C  C33  1  0.70180000  0.93780000  0.75120000  1.0 -0.0799341524
C  C34  1  0.64150000  0.93850000  0.78940000  1.0 -0.161677905
C  C35  1  0.61910000  0.99050000  0.76740000  1.0 0.0829992729
C  C36  1  0.65730000  0.04150000  0.70280000  1.0 -0.1678085034
C  C37  1  0.71820000  0.04100000  0.66380000  1.0 -0.086369353
C  C38  1  0.55520000  0.99360000  0.81260000  1.0 -0.0131758434
C  C39  1  0.55480000  0.99420000  0.90270000  1.0 -0.203000045
C  C40  1  0.48510000  0.92590000  0.63790000  1.0 -0.3252101174
C  C41  1  0.01120000  0.19560000  0.64310000  1.0 0.6272320593
C  C42  1  0.01150000  0.25950000  0.68630000  1.0 -0.0666421774
C  C43  1  0.06220000  0.29820000  0.75120000  1.0 -0.0799341524
C  C44  1  0.06150000  0.35850000  0.78940000  1.0 -0.161677905
C  C45  1  0.00950000  0.38090000  0.76740000  1.0 0.0829992729
C  C46  1  0.95850000  0.34270000  0.70280000  1.0 -0.1678085034
C  C47  1  0.95900000  0.28180000  0.66380000  1.0 -0.086369353
C  C48  1  0.00640000  0.44480000  0.81260000  1.0 -0.0131758434
C  C49  1  0.00580000  0.44520000  0.90270000  1.0 -0.203000045
C  C50  1  0.07410000  0.51490000  0.63790000  1.0 -0.324805521
C  C51  1  0.98880000  0.80440000  0.64310000  1.0 0.6272320593
C  C52  1  0.98850000  0.74050000  0.68630000  1.0 -0.0666421774
C  C53  1  0.93780000  0.70180000  0.75120000  1.0 -0.0799341524
C  C54  1  0.93850000  0.64150000  0.78940000  1.0 -0.161677905
C  C55  1  0.99050000  0.61910000  0.76740000  1.0 0.0851875166
C  C56  1  0.04150000  0.65730000  0.70280000  1.0 -0.1678085034
C  C57  1  0.04100000  0.71820000  0.66380000  1.0 -0.086369353
C  C58  1  0.99360000  0.55520000  0.81260000  1.0 -0.0131758434
C  C59  1  0.99420000  0.55480000  0.90270000  1.0 -0.203000045
C  C60  1  0.92590000  0.48510000  0.63790000  1.0 -0.324805521
C  C61  1  0.80440000  0.98880000  0.35690000  1.0 0.6272320593
C  C62  1  0.74050000  0.98850000  0.31370000  1.0 -0.0666421774
C  C63  1  0.70180000  0.93780000  0.24880000  1.0 -0.0799341524
C  C64  1  0.64150000  0.93850000  0.21060000  1.0 -0.161677905
C  C65  1  0.61910000  0.99050000  0.23260000  1.0 0.0829992729
C  C66  1  0.65730000  0.04150000  0.29720000  1.0 -0.1678085034
C  C67  1  0.71820000  0.04100000  0.33620000  1.0 -0.086369353
C  C68  1  0.55520000  0.99360000  0.18740000  1.0 -0.0131758434
C  C69  1  0.55480000  0.99420000  0.09730000  1.0 -0.203000045
C  C70  1  0.48510000  0.92590000  0.36210000  1.0 -0.3252101174
C  C71  1  0.19560000  0.01120000  0.35690000  1.0 0.6272320593
C  C72  1  0.25950000  0.01150000  0.31370000  1.0 -0.0666421774
C  C73  1  0.29820000  0.06220000  0.24880000  1.0 -0.0799341524
C  C74  1  0.35850000  0.06150000  0.21060000  1.0 -0.161677905
C  C75  1  0.38090000  0.00950000  0.23260000  1.0 0.0829992729
C  C76  1  0.34270000  0.95850000  0.29720000  1.0 -0.1678085034
C  C77  1  0.28180000  0.95900000  0.33620000  1.0 -0.086369353
C  C78  1  0.44480000  0.00640000  0.18740000  1.0 -0.0131758434
C  C79  1  0.44520000  0.00580000  0.09730000  1.0 -0.203000045
C  C80  1  0.51490000  0.07410000  0.36210000  1.0 -0.324805521
C  C81  1  0.69500000  0.69500000  0.40380000  1.0 0.0988556681
C  C82  1  0.62200000  0.62200000  0.40940000  1.0 -0.1892828537
C  C83  1  0.30500000  0.30500000  0.40380000  1.0 0.0988556681
C  C84  1  0.37800000  0.37800000  0.40940000  1.0 -0.1892828537
C  C85  1  0.30500000  0.30500000  0.59620000  1.0 0.0988556681
C  C86  1  0.37800000  0.37800000  0.59060000  1.0 -0.1892828537
C  C87  1  0.69500000  0.69500000  0.59620000  1.0 0.0988556681
C  C88  1  0.62200000  0.62200000  0.59060000  1.0 -0.1892828537
C  C89  1  0.00000000  0.50000000  0.05090000  1.0 0.0829992729
C  C90  1  0.00000000  0.50000000  0.23060000  1.0 0.1064380662
C  C91  1  0.50000000  0.00000000  0.94910000  1.0 0.0829992729
C  C92  1  0.50000000  0.00000000  0.76940000  1.0 0.1064380662
C  C93  1  0.00000000  0.50000000  0.94910000  1.0 0.0829992729
C  C94  1  0.00000000  0.50000000  0.76940000  1.0 0.1064380662
C  C95  1  0.50000000  0.00000000  0.05090000  1.0 0.0829992729
C  C96  1  0.50000000  0.00000000  0.23060000  1.0 0.1064380662
C  C97  1  0.79200000  0.79200000  0.50000000  1.0 0.5906835267
C  C98  1  0.72400000  0.72400000  0.50000000  1.0 -0.1469690433
C  C99  1  0.59490000  0.59490000  0.50000000  1.0 0.1397351245
C  C100  1  0.52890000  0.52890000  0.50000000  1.0 -0.0666421774
C  C101  1  0.20800000  0.20800000  0.50000000  1.0 0.5906835267
C  C102  1  0.27600000  0.27600000  0.50000000  1.0 -0.1469690433
C  C103  1  0.40510000  0.40510000  0.50000000  1.0 0.1481994281
C  C104  1  0.47110000  0.47110000  0.50000000  1.0 -0.0977714961
O  O1  1  0.94143000  0.82517000  0.33810000  1.0 -0.5684959968
O  O2  1  0.04065000  0.83677000  0.41270000  1.0 -0.5855073264
O  O3  1  0.05857000  0.17483000  0.33810000  1.0 -0.5684959968
O  O4  1  0.95935000  0.16323000  0.41270000  1.0 -0.5855073264
O  O5  1  0.17483000  0.05857000  0.66190000  1.0 -0.5684959968
O  O6  1  0.16323000  0.95935000  0.58730000  1.0 -0.5855073264
O  O7  1  0.82517000  0.94143000  0.66190000  1.0 -0.5684959968
O  O8  1  0.83677000  0.04065000  0.58730000  1.0 -0.5840189835
O  O9  1  0.05857000  0.17483000  0.66190000  1.0 -0.5684959968
O  O10  1  0.95935000  0.16323000  0.58730000  1.0 -0.5840189835
O  O11  1  0.94143000  0.82517000  0.66190000  1.0 -0.5684959968
O  O12  1  0.04065000  0.83677000  0.58730000  1.0 -0.5840189835
O  O13  1  0.82517000  0.94143000  0.33810000  1.0 -0.5684959968
O  O14  1  0.83677000  0.04065000  0.41270000  1.0 -0.5840189835
O  O15  1  0.17483000  0.05857000  0.33810000  1.0 -0.5684959968
O  O16  1  0.16323000  0.95935000  0.41270000  1.0 -0.5855073264
O  O17  1  0.81870000  0.81870000  0.40830000  1.0 -0.6737751296
O  O18  1  0.18130000  0.18130000  0.40830000  1.0 -0.6737751296
O  O19  1  0.18130000  0.18130000  0.59170000  1.0 -0.6737751296
O  O20  1  0.81870000  0.81870000  0.59170000  1.0 -0.6737751296
O  O21  1  0.03380000  0.96620000  0.38290000  1.0 -1.1319269946
O  O22  1  0.96620000  0.03380000  0.38290000  1.0 -1.1382738879
O  O23  1  0.03380000  0.96620000  0.61710000  1.0 -1.1382738879
O  O24  1  0.96620000  0.03380000  0.61710000  1.0 -1.1382738879
O  O25  1  0.95410000  0.88530000  0.50000000  1.0 -1.1319269946
O  O26  1  0.04590000  0.11470000  0.50000000  1.0 -1.1319269946
O  O27  1  0.11470000  0.04590000  0.50000000  1.0 -1.1319269946
O  O28  1  0.88530000  0.95410000  0.50000000  1.0 -1.1319269946
O  O29  1  0.00000000  0.50000000  0.32280000  1.0 -0.0508598393
O  O30  1  0.50000000  0.00000000  0.67720000  1.0 -0.0508598393
O  O31  1  0.00000000  0.50000000  0.67720000  1.0 -0.0508598393
O  O32  1  0.50000000  0.00000000  0.32280000  1.0 -0.0508598393
