# DDEC6 charges by PACMAN v1.1 (https://github.com/mtap-research/PACMAN-charge/)
data_HIXDOH01_FSR_pacman
_symmetry_space_group_name_H-M   'P 1'
_cell_length_a   10.77420000
_cell_length_b   10.77420000
_cell_length_c   10.77420000
_cell_angle_alpha   126.22500000
_cell_angle_beta   126.22500000
_cell_angle_gamma   79.51860000
_symmetry_Int_Tables_number   1
_chemical_formula_structural   CuWC8N4(OF2)2
_chemical_formula_sum   'Cu2 W2 C16 N8 O4 F8'
_cell_volume   786.55965861
_cell_formula_units_Z   2
loop_
 _symmetry_equiv_pos_site_id
 _symmetry_equiv_pos_as_xyz
  1  'x, y, z'
loop_
 _atom_site_type_symbol
 _atom_site_label
 _atom_site_symmetry_multiplicity
 _atom_site_fract_x
 _atom_site_fract_y
 _atom_site_fract_z
 _atom_site_occupancy
 _atom_site_charge
Cu  Cu1  1  0.75000000  0.75000000  0.00000000  1.0 0.8357259579
Cu  Cu2  1  0.25000000  0.25000000  0.00000000  1.0 0.8341608591
W  W1  1  0.00000000  0.00000000  0.00000000  1.0 2.4624180742
W  W2  1  0.50000000  0.50000000  0.00000000  1.0 2.4624180742
C  C1  1  0.51710000  0.45670000  0.60180000  1.0 0.1460890308
C  C2  1  0.45670000  0.85490000  0.93960000  1.0 0.1460890308
C  C3  1  0.98290000  0.58470000  0.93960000  1.0 0.1460890308
C  C4  1  0.85490000  0.91530000  0.39820000  1.0 0.1460890308
C  C5  1  0.58470000  0.64510000  0.60180000  1.0 0.1460890308
C  C6  1  0.91530000  0.51710000  0.06040000  1.0 0.1460890308
C  C7  1  0.64510000  0.04330000  0.06040000  1.0 0.1460890308
C  C8  1  0.04330000  0.98290000  0.39820000  1.0 0.1460890308
C  C9  1  0.48290000  0.54330000  0.39820000  1.0 0.1460890308
C  C10  1  0.54330000  0.14510000  0.06040000  1.0 0.1460890308
C  C11  1  0.01710000  0.41530000  0.06040000  1.0 0.1460890308
C  C12  1  0.14510000  0.08470000  0.60180000  1.0 0.1460890308
C  C13  1  0.41530000  0.35490000  0.39820000  1.0 0.1460890308
C  C14  1  0.08470000  0.48290000  0.93960000  1.0 0.1460890308
C  C15  1  0.35490000  0.95670000  0.93960000  1.0 0.1460890308
C  C16  1  0.95670000  0.01710000  0.60180000  1.0 0.1460890308
N  N1  1  0.60040000  0.60040000  0.70080000  1.0 -0.0966432705
N  N2  1  0.60040000  0.89960000  0.00000000  1.0 -0.0966432705
N  N3  1  0.89960000  0.60040000  0.00000000  1.0 -0.0966432705
N  N4  1  0.89960000  0.89960000  0.29920000  1.0 -0.0966432705
N  N5  1  0.39960000  0.39960000  0.29920000  1.0 -0.0966432705
N  N6  1  0.39960000  0.10040000  0.00000000  1.0 -0.0966432705
N  N7  1  0.10040000  0.39960000  0.00000000  1.0 -0.0966432705
N  N8  1  0.10040000  0.10040000  0.70080000  1.0 -0.0966432705
O  O1  1  0.88570000  0.88570000  0.00000000  1.0 -1.042840784
O  O2  1  0.61430000  0.61430000  0.00000000  1.0 -1.042840784
O  O3  1  0.11430000  0.11430000  0.00000000  1.0 -1.0514415554
O  O4  1  0.38570000  0.38570000  0.00000000  1.0 -1.0514415554
F  F1  1  0.91170000  0.16870000  0.08040000  1.0 -0.4963045768
F  F2  1  0.16870000  0.08830000  0.25700000  1.0 -0.4963045768
F  F3  1  0.58830000  0.66870000  0.25700000  1.0 -0.4963045768
F  F4  1  0.08830000  0.83130000  0.91960000  1.0 -0.4963045768
F  F5  1  0.66870000  0.41170000  0.08040000  1.0 -0.4963045768
F  F6  1  0.83130000  0.91170000  0.74300000  1.0 -0.4963045768
F  F7  1  0.41170000  0.33130000  0.74300000  1.0 -0.4963045768
F  F8  1  0.33130000  0.58830000  0.91960000  1.0 -0.4963045768
