# DDEC6 charges by PACMAN v1.1 (https://github.com/mtap-research/PACMAN-charge/)
data_HIXDIE_ASR_pacman
_symmetry_space_group_name_H-M   'P 1'
_cell_length_a   20.63980000
_cell_length_b   20.63980000
_cell_length_c   14.87060000
_cell_angle_alpha   90.00000000
_cell_angle_beta   90.00000000
_cell_angle_gamma   111.43900000
_symmetry_Int_Tables_number   1
_chemical_formula_structural   Zr3H36(C29O8)2
_chemical_formula_sum   'Zr6 H72 C116 O32'
_cell_volume   5896.56665419
_cell_formula_units_Z   2
loop_
 _symmetry_equiv_pos_site_id
 _symmetry_equiv_pos_as_xyz
  1  'x, y, z'
loop_
 _atom_site_type_symbol
 _atom_site_label
 _atom_site_symmetry_multiplicity
 _atom_site_fract_x
 _atom_site_fract_y
 _atom_site_fract_z
 _atom_site_occupancy
 _atom_site_charge
Zr  Zr1  1  0.92371000  0.92371000  0.38225000  1.0 2.4460761055
Zr  Zr2  1  0.07629000  0.07629000  0.38225000  1.0 2.4460761055
Zr  Zr3  1  0.07629000  0.07629000  0.61775000  1.0 2.4460761055
Zr  Zr4  1  0.92371000  0.92371000  0.61775000  1.0 2.4460761055
Zr  Zr5  1  0.07163000  0.92837000  0.50000000  1.0 2.3874893292
Zr  Zr6  1  0.92837000  0.07163000  0.50000000  1.0 2.3874893292
H  H1  1  0.91290000  0.72930000  0.23370000  1.0 0.1287073925
H  H2  1  0.07610000  0.63470000  0.32030000  1.0 0.1117567714
H  H3  1  0.99040000  0.59340000  0.06640000  1.0 0.1117567714
H  H4  1  0.07700000  0.73720000  0.38670000  1.0 0.1287073925
H  H5  1  0.91250000  0.62570000  0.16840000  1.0 0.1194521264
H  H6  1  0.92810000  0.54070000  0.38850000  1.0 0.1287073925
H  H7  1  0.92080000  0.46740000  0.43150000  1.0 0.1287073925
H  H8  1  0.88940000  0.47040000  0.33390000  1.0 0.1287073925
H  H9  1  0.08710000  0.27070000  0.23370000  1.0 0.1287073925
H  H10  1  0.92390000  0.36530000  0.32030000  1.0 0.1117567714
H  H11  1  0.00960000  0.40660000  0.06640000  1.0 0.1117567714
H  H12  1  0.92300000  0.26280000  0.38670000  1.0 0.1287073925
H  H13  1  0.08750000  0.37430000  0.16840000  1.0 0.1194521264
H  H14  1  0.07190000  0.45930000  0.38850000  1.0 0.1287073925
H  H15  1  0.07920000  0.53260000  0.43150000  1.0 0.1287073925
H  H16  1  0.11060000  0.52960000  0.33390000  1.0 0.1287073925
H  H17  1  0.27070000  0.08710000  0.76630000  1.0 0.1287073925
H  H18  1  0.36530000  0.92390000  0.67970000  1.0 0.1117567714
H  H19  1  0.40660000  0.00960000  0.93360000  1.0 0.1117567714
H  H20  1  0.26280000  0.92300000  0.61330000  1.0 0.1287073925
H  H21  1  0.37430000  0.08750000  0.83160000  1.0 0.1194521264
H  H22  1  0.45930000  0.07190000  0.61150000  1.0 0.1287073925
H  H23  1  0.53260000  0.07920000  0.56850000  1.0 0.1287073925
H  H24  1  0.52960000  0.11060000  0.66610000  1.0 0.1287073925
H  H25  1  0.72930000  0.91290000  0.76630000  1.0 0.1287073925
H  H26  1  0.63470000  0.07610000  0.67970000  1.0 0.1117567714
H  H27  1  0.59340000  0.99040000  0.93360000  1.0 0.1117567714
H  H28  1  0.73720000  0.07700000  0.61330000  1.0 0.1287073925
H  H29  1  0.62570000  0.91250000  0.83160000  1.0 0.1194521264
H  H30  1  0.54070000  0.92810000  0.61150000  1.0 0.1287073925
H  H31  1  0.46740000  0.92080000  0.56850000  1.0 0.1287073925
H  H32  1  0.47040000  0.88940000  0.66610000  1.0 0.1287073925
H  H33  1  0.08710000  0.27070000  0.76630000  1.0 0.1287073925
H  H34  1  0.92390000  0.36530000  0.67970000  1.0 0.1117567714
H  H35  1  0.00960000  0.40660000  0.93360000  1.0 0.1117567714
H  H36  1  0.92300000  0.26280000  0.61330000  1.0 0.1287073925
H  H37  1  0.08750000  0.37430000  0.83160000  1.0 0.1194521264
H  H38  1  0.07190000  0.45930000  0.61150000  1.0 0.1287073925
H  H39  1  0.07920000  0.53260000  0.56850000  1.0 0.1287073925
H  H40  1  0.11060000  0.52960000  0.66610000  1.0 0.1287073925
H  H41  1  0.91290000  0.72930000  0.76630000  1.0 0.1287073925
H  H42  1  0.07610000  0.63470000  0.67970000  1.0 0.1117567714
H  H43  1  0.99040000  0.59340000  0.93360000  1.0 0.1117567714
H  H44  1  0.07700000  0.73720000  0.61330000  1.0 0.1287073925
H  H45  1  0.91250000  0.62570000  0.83160000  1.0 0.1194521264
H  H46  1  0.92810000  0.54070000  0.61150000  1.0 0.1287073925
H  H47  1  0.92080000  0.46740000  0.56850000  1.0 0.1287073925
H  H48  1  0.88940000  0.47040000  0.66610000  1.0 0.1287073925
H  H49  1  0.72930000  0.91290000  0.23370000  1.0 0.1287073925
H  H50  1  0.63470000  0.07610000  0.32030000  1.0 0.1117567714
H  H51  1  0.59340000  0.99040000  0.06640000  1.0 0.1117567714
H  H52  1  0.73720000  0.07700000  0.38670000  1.0 0.1287073925
H  H53  1  0.62570000  0.91250000  0.16840000  1.0 0.1194521264
H  H54  1  0.54070000  0.92810000  0.38850000  1.0 0.1287073925
H  H55  1  0.46740000  0.92080000  0.43150000  1.0 0.1287073925
H  H56  1  0.47040000  0.88940000  0.33390000  1.0 0.1287073925
H  H57  1  0.27070000  0.08710000  0.23370000  1.0 0.1287073925
H  H58  1  0.36530000  0.92390000  0.32030000  1.0 0.1117567714
H  H59  1  0.40660000  0.00960000  0.06640000  1.0 0.1117567714
H  H60  1  0.26280000  0.92300000  0.38670000  1.0 0.1287073925
H  H61  1  0.37430000  0.08750000  0.16840000  1.0 0.1194521264
H  H62  1  0.45930000  0.07190000  0.38850000  1.0 0.1287073925
H  H63  1  0.53260000  0.07920000  0.43150000  1.0 0.1287073925
H  H64  1  0.52960000  0.11060000  0.33390000  1.0 0.1287073925
H  H65  1  0.73430000  0.73430000  0.36450000  1.0 0.1287073925
H  H66  1  0.63510000  0.63510000  0.36460000  1.0 0.1194521264
H  H67  1  0.26570000  0.26570000  0.36450000  1.0 0.1287073925
H  H68  1  0.36490000  0.36490000  0.36460000  1.0 0.1194521264
H  H69  1  0.26570000  0.26570000  0.63550000  1.0 0.1287073925
H  H70  1  0.36490000  0.36490000  0.63540000  1.0 0.1194521264
H  H71  1  0.73430000  0.73430000  0.63550000  1.0 0.1287073925
H  H72  1  0.63510000  0.63510000  0.63540000  1.0 0.1194521264
C  C1  1  0.99519000  0.74325000  0.31433000  1.0 -0.0358585211
C  C2  1  0.99697000  0.80989000  0.35658000  1.0 0.6345473035
C  C3  1  0.94655000  0.71041000  0.25127000  1.0 -0.0910012041
C  C4  1  0.04297000  0.65403000  0.30210000  1.0 -0.1588436001
C  C5  1  0.99495000  0.55541000  0.09811000  1.0 -0.1949136172
C  C6  1  0.99640000  0.55696000  0.19187000  1.0 -0.0213614673
C  C7  1  0.04373000  0.71497000  0.34154000  1.0 -0.0910012041
C  C8  1  0.99544000  0.62122000  0.23765000  1.0 0.081987279
C  C9  1  0.94643000  0.64877000  0.21240000  1.0 -0.1588436001
C  C10  1  0.92760000  0.49400000  0.37550000  1.0 -0.3661793293
C  C11  1  0.55630000  0.50350000  0.44040000  1.0 -0.0027952729
C  C12  1  0.00481000  0.25675000  0.31433000  1.0 -0.0358585211
C  C13  1  0.00303000  0.19011000  0.35658000  1.0 0.6345473035
C  C14  1  0.05345000  0.28959000  0.25127000  1.0 -0.0910012041
C  C15  1  0.95703000  0.34597000  0.30210000  1.0 -0.1588436001
C  C16  1  0.00505000  0.44459000  0.09811000  1.0 -0.1949136172
C  C17  1  0.00360000  0.44304000  0.19187000  1.0 -0.0213614673
C  C18  1  0.95627000  0.28503000  0.34154000  1.0 -0.0910012041
C  C19  1  0.00456000  0.37878000  0.23765000  1.0 0.081987279
C  C20  1  0.05357000  0.35123000  0.21240000  1.0 -0.1588436001
C  C21  1  0.07240000  0.50600000  0.37550000  1.0 -0.3661793293
C  C22  1  0.44370000  0.49650000  0.44040000  1.0 -0.0027952729
C  C23  1  0.25675000  0.00481000  0.68567000  1.0 -0.0358585211
C  C24  1  0.19011000  0.00303000  0.64342000  1.0 0.6345473035
C  C25  1  0.28959000  0.05345000  0.74873000  1.0 -0.0910012041
C  C26  1  0.34597000  0.95703000  0.69790000  1.0 -0.1588436001
C  C27  1  0.44459000  0.00505000  0.90189000  1.0 -0.1949136172
C  C28  1  0.44304000  0.00360000  0.80813000  1.0 -0.0213614673
C  C29  1  0.28503000  0.95627000  0.65846000  1.0 -0.0910012041
C  C30  1  0.37878000  0.00456000  0.76235000  1.0 0.081987279
C  C31  1  0.35123000  0.05357000  0.78760000  1.0 -0.1588436001
C  C32  1  0.50600000  0.07240000  0.62450000  1.0 -0.3661793293
C  C33  1  0.49650000  0.44370000  0.55960000  1.0 -0.0027952729
C  C34  1  0.74325000  0.99519000  0.68567000  1.0 -0.0358585211
C  C35  1  0.80989000  0.99697000  0.64342000  1.0 0.6345473035
C  C36  1  0.71041000  0.94655000  0.74873000  1.0 -0.0910012041
C  C37  1  0.65403000  0.04297000  0.69790000  1.0 -0.1588436001
C  C38  1  0.55541000  0.99495000  0.90189000  1.0 -0.1949136172
C  C39  1  0.55696000  0.99640000  0.80813000  1.0 -0.0213614673
C  C40  1  0.71497000  0.04373000  0.65846000  1.0 -0.0910012041
C  C41  1  0.62122000  0.99544000  0.76235000  1.0 0.081987279
C  C42  1  0.64877000  0.94643000  0.78760000  1.0 -0.1588436001
C  C43  1  0.49400000  0.92760000  0.62450000  1.0 -0.3661793293
C  C44  1  0.50350000  0.55630000  0.55960000  1.0 -0.0027952729
C  C45  1  0.00481000  0.25675000  0.68567000  1.0 -0.0358585211
C  C46  1  0.00303000  0.19011000  0.64342000  1.0 0.6345473035
C  C47  1  0.05345000  0.28959000  0.74873000  1.0 -0.0910012041
C  C48  1  0.95703000  0.34597000  0.69790000  1.0 -0.1588436001
C  C49  1  0.00505000  0.44459000  0.90189000  1.0 -0.1949136172
C  C50  1  0.00360000  0.44304000  0.80813000  1.0 -0.0213614673
C  C51  1  0.95627000  0.28503000  0.65846000  1.0 -0.0910012041
C  C52  1  0.00456000  0.37878000  0.76235000  1.0 0.081987279
C  C53  1  0.05357000  0.35123000  0.78760000  1.0 -0.1588436001
C  C54  1  0.07240000  0.50600000  0.62450000  1.0 -0.3661793293
C  C55  1  0.44370000  0.49650000  0.55960000  1.0 -0.0027952729
C  C56  1  0.99519000  0.74325000  0.68567000  1.0 -0.0358585211
C  C57  1  0.99697000  0.80989000  0.64342000  1.0 0.6345473035
C  C58  1  0.94655000  0.71041000  0.74873000  1.0 -0.0910012041
C  C59  1  0.04297000  0.65403000  0.69790000  1.0 -0.1588436001
C  C60  1  0.99495000  0.55541000  0.90189000  1.0 -0.1949136172
C  C61  1  0.99640000  0.55696000  0.80813000  1.0 -0.0213614673
C  C62  1  0.04373000  0.71497000  0.65846000  1.0 -0.0910012041
C  C63  1  0.99544000  0.62122000  0.76235000  1.0 0.081987279
C  C64  1  0.94643000  0.64877000  0.78760000  1.0 -0.1588436001
C  C65  1  0.92760000  0.49400000  0.62450000  1.0 -0.3661793293
C  C66  1  0.55630000  0.50350000  0.55960000  1.0 -0.0027952729
C  C67  1  0.74325000  0.99519000  0.31433000  1.0 -0.0358585211
C  C68  1  0.80989000  0.99697000  0.35658000  1.0 0.6345473035
C  C69  1  0.71041000  0.94655000  0.25127000  1.0 -0.0910012041
C  C70  1  0.65403000  0.04297000  0.30210000  1.0 -0.1588436001
C  C71  1  0.55541000  0.99495000  0.09811000  1.0 -0.1949136172
C  C72  1  0.55696000  0.99640000  0.19187000  1.0 -0.0213614673
C  C73  1  0.71497000  0.04373000  0.34154000  1.0 -0.0910012041
C  C74  1  0.62122000  0.99544000  0.23765000  1.0 0.081987279
C  C75  1  0.64877000  0.94643000  0.21240000  1.0 -0.1588436001
C  C76  1  0.49400000  0.92760000  0.37550000  1.0 -0.3661793293
C  C77  1  0.50350000  0.55630000  0.44040000  1.0 -0.0027952729
C  C78  1  0.25675000  0.00481000  0.31433000  1.0 -0.0358585211
C  C79  1  0.19011000  0.00303000  0.35658000  1.0 0.6345473035
C  C80  1  0.28959000  0.05345000  0.25127000  1.0 -0.0910012041
C  C81  1  0.34597000  0.95703000  0.30210000  1.0 -0.1588436001
C  C82  1  0.44459000  0.00505000  0.09811000  1.0 -0.1949136172
C  C83  1  0.44304000  0.00360000  0.19187000  1.0 -0.0213614673
C  C84  1  0.28503000  0.95627000  0.34154000  1.0 -0.0910012041
C  C85  1  0.37878000  0.00456000  0.23765000  1.0 0.081987279
C  C86  1  0.35123000  0.05357000  0.21240000  1.0 -0.1588436001
C  C87  1  0.50600000  0.07240000  0.37550000  1.0 -0.3661793293
C  C88  1  0.49650000  0.44370000  0.44040000  1.0 -0.0027952729
C  C89  1  0.71400000  0.71400000  0.42000000  1.0 -0.0953589425
C  C90  1  0.65510000  0.65510000  0.42030000  1.0 -0.1588436001
C  C91  1  0.28600000  0.28600000  0.42000000  1.0 -0.0953589425
C  C92  1  0.34490000  0.34490000  0.42030000  1.0 -0.1588436001
C  C93  1  0.28600000  0.28600000  0.58000000  1.0 -0.0953589425
C  C94  1  0.34490000  0.34490000  0.57970000  1.0 -0.1588436001
C  C95  1  0.71400000  0.71400000  0.58000000  1.0 -0.0953589425
C  C96  1  0.65510000  0.65510000  0.57970000  1.0 -0.1588436001
C  C97  1  0.61500000  0.49300000  0.50000000  1.0 -0.1113386385
C  C98  1  0.38500000  0.50700000  0.50000000  1.0 -0.1113386385
C  C99  1  0.50700000  0.38500000  0.50000000  1.0 -0.1113386385
C  C100  1  0.49300000  0.61500000  0.50000000  1.0 -0.1113386385
C  C101  1  0.00000000  0.50000000  0.04990000  1.0 0.081987279
C  C102  1  0.00000000  0.50000000  0.23830000  1.0 0.1194521264
C  C103  1  0.50000000  0.00000000  0.95010000  1.0 0.081987279
C  C104  1  0.50000000  0.00000000  0.76170000  1.0 0.1194521264
C  C105  1  0.00000000  0.50000000  0.95010000  1.0 0.081987279
C  C106  1  0.00000000  0.50000000  0.76170000  1.0 0.1194521264
C  C107  1  0.50000000  0.00000000  0.04990000  1.0 0.081987279
C  C108  1  0.50000000  0.00000000  0.23830000  1.0 0.1194521264
C  C109  1  0.74380000  0.74380000  0.50000000  1.0 -0.0345112392
C  C110  1  0.80823000  0.80823000  0.50000000  1.0 0.6479942902
C  C111  1  0.62400000  0.62400000  0.50000000  1.0 0.081987279
C  C112  1  0.56000000  0.56000000  0.50000000  1.0 -0.0126091109
C  C113  1  0.25620000  0.25620000  0.50000000  1.0 -0.0345112392
C  C114  1  0.19177000  0.19177000  0.50000000  1.0 0.6479942902
C  C115  1  0.37600000  0.37600000  0.50000000  1.0 0.081987279
C  C116  1  0.44000000  0.44000000  0.50000000  1.0 -0.0126091109
O  O1  1  0.04728000  0.83852000  0.41008000  1.0 -0.5763877974
O  O2  1  0.95006000  0.83228000  0.33548000  1.0 -0.5863173873
O  O3  1  0.95272000  0.16148000  0.41008000  1.0 -0.5763877974
O  O4  1  0.04994000  0.16772000  0.33548000  1.0 -0.5863173873
O  O5  1  0.16148000  0.95272000  0.58992000  1.0 -0.5763877974
O  O6  1  0.16772000  0.04994000  0.66452000  1.0 -0.5863173873
O  O7  1  0.83852000  0.04728000  0.58992000  1.0 -0.5763877974
O  O8  1  0.83228000  0.95006000  0.66452000  1.0 -0.5863173873
O  O9  1  0.95272000  0.16148000  0.58992000  1.0 -0.5763877974
O  O10  1  0.04994000  0.16772000  0.66452000  1.0 -0.5863173873
O  O11  1  0.04728000  0.83852000  0.58992000  1.0 -0.5763877974
O  O12  1  0.95006000  0.83228000  0.66452000  1.0 -0.5863173873
O  O13  1  0.83852000  0.04728000  0.41008000  1.0 -0.5763877974
O  O14  1  0.83228000  0.95006000  0.33548000  1.0 -0.5863173873
O  O15  1  0.16148000  0.95272000  0.41008000  1.0 -0.5763877974
O  O16  1  0.16772000  0.04994000  0.33548000  1.0 -0.5863173873
O  O17  1  0.83238000  0.83238000  0.42135000  1.0 -0.619583045
O  O18  1  0.16762000  0.16762000  0.42135000  1.0 -0.619583045
O  O19  1  0.16762000  0.16762000  0.57865000  1.0 -0.619583045
O  O20  1  0.83238000  0.83238000  0.57865000  1.0 -0.619583045
O  O21  1  0.03496000  0.96504000  0.37970000  1.0 -1.1525480644
O  O22  1  0.96504000  0.03496000  0.37970000  1.0 -1.1525480644
O  O23  1  0.03496000  0.96504000  0.62030000  1.0 -1.1525480644
O  O24  1  0.96504000  0.03496000  0.62030000  1.0 -1.1525480644
O  O25  1  0.96122000  0.89048000  0.50000000  1.0 -1.1196373299
O  O26  1  0.03878000  0.10952000  0.50000000  1.0 -1.1196373299
O  O27  1  0.10952000  0.03878000  0.50000000  1.0 -1.1196373299
O  O28  1  0.89048000  0.96122000  0.50000000  1.0 -1.1196373299
O  O29  1  0.00000000  0.50000000  0.33079000  1.0 -0.0126091109
O  O30  1  0.50000000  0.00000000  0.66921000  1.0 -0.0126091109
O  O31  1  0.00000000  0.50000000  0.66921000  1.0 -0.0126091109
O  O32  1  0.50000000  0.00000000  0.33079000  1.0 -0.0126091109
