# DDEC6 charges by PACMAN v1.1 (https://github.com/mtap-research/PACMAN-charge/)
data_HIXMOT_ASR_pacman
_symmetry_space_group_name_H-M   'P 1'
_cell_length_a   18.20100000
_cell_length_b   18.20100000
_cell_length_c   18.20100000
_cell_angle_alpha   150.98600000
_cell_angle_beta   99.30660000
_cell_angle_gamma   87.92450000
_symmetry_Int_Tables_number   1
_chemical_formula_structural   CdH24C31(NO)4
_chemical_formula_sum   'Cd4 H96 C124 N16 O16'
_cell_volume   2815.40532636
_cell_formula_units_Z   4
loop_
 _symmetry_equiv_pos_site_id
 _symmetry_equiv_pos_as_xyz
  1  'x, y, z'
loop_
 _atom_site_type_symbol
 _atom_site_label
 _atom_site_symmetry_multiplicity
 _atom_site_fract_x
 _atom_site_fract_y
 _atom_site_fract_z
 _atom_site_occupancy
 _atom_site_charge
Cd  Cd1  1  0.39682000  0.22678000  0.17360000  1.0 0.8067515315
Cd  Cd2  1  0.05318000  0.22322000  0.82640000  1.0 0.8067515315
Cd  Cd3  1  0.55318000  0.72678000  0.82996000  1.0 0.8067515315
Cd  Cd4  1  0.89682000  0.72322000  0.17004000  1.0 0.8067515315
H  H1  1  0.09920000  0.10120000  0.59680000  1.0 0.2972209872
H  H2  1  0.16750000  0.14560000  0.68910000  1.0 0.2807784424
H  H3  1  0.19760000  0.41660000  0.42520000  1.0 0.1098568806
H  H4  1  0.13650000  0.59320000  0.61810000  1.0 0.1098568806
H  H5  1  0.14620000  0.82570000  0.76770000  1.0 0.1006678761
H  H6  1  0.23760000  0.90690000  0.76530000  1.0 0.1204183781
H  H7  1  0.47040000  0.02850000  0.77910000  1.0 0.1098568806
H  H8  1  0.46720000  0.85200000  0.52920000  1.0 0.1098568806
H  H9  1  0.38050000  0.61470000  0.31100000  1.0 0.1098568806
H  H10  1  0.29710000  0.55400000  0.34270000  1.0 0.1098568806
H  H11  1  0.39860000  0.91930000  0.99390000  1.0 0.1098568806
H  H12  1  0.34190000  0.76440000  0.94670000  1.0 0.1098568806
H  H13  1  0.15970000  0.95390000  0.07020000  1.0 0.1006678761
H  H14  1  0.22780000  0.14020000  0.16420000  1.0 0.0617418447
H  H15  1  0.06060000  0.28060000  0.66140000  1.0 0.1275095377
H  H16  1  0.10270000  0.47020000  0.75750000  1.0 0.1098568806
H  H17  1  0.30140000  0.56970000  0.98490000  1.0 0.1204183781
H  H18  1  0.25990000  0.36010000  0.86980000  1.0 0.1275095377
H  H19  1  0.15900000  0.71510000  0.95450000  1.0 0.1275095377
H  H20  1  0.42150000  0.07400000  0.21050000  1.0 0.1006678761
H  H21  1  0.35550000  0.91590000  0.15280000  1.0 0.1204183781
H  H22  1  0.16110000  0.87520000  0.97070000  1.0 0.1098568806
H  H23  1  0.22720000  0.03340000  0.02860000  1.0 0.0781548441
H  H24  1  0.15760000  0.69450000  0.92410000  1.0 0.1204183781
H  H25  1  0.50440000  0.50240000  0.40320000  1.0 0.2972209872
H  H26  1  0.45650000  0.47840000  0.31090000  1.0 0.2807784424
H  H27  1  0.99140000  0.77240000  0.57480000  1.0 0.1098568806
H  H28  1  0.97510000  0.51840000  0.38190000  1.0 0.1098568806
H  H29  1  0.05800000  0.37850000  0.23230000  1.0 0.1006678761
H  H30  1  0.14160000  0.47230000  0.23470000  1.0 0.1204183781
H  H31  1  0.24940000  0.69130000  0.22090000  1.0 0.1098568806
H  H32  1  0.32280000  0.93800000  0.47080000  1.0 0.1098568806
H  H33  1  0.30370000  0.06950000  0.68900000  1.0 0.1098568806
H  H34  1  0.21130000  0.95440000  0.65730000  1.0 0.1098568806
H  H35  1  0.92540000  0.40470000  0.00610000  1.0 0.1098568806
H  H36  1  0.81770000  0.39520000  0.05330000  1.0 0.1098568806
H  H37  1  0.88370000  0.08950000  0.92980000  1.0 0.1006678761
H  H38  1  0.97600000  0.06360000  0.83580000  1.0 0.0617418447
H  H39  1  0.61920000  0.39920000  0.33860000  1.0 0.1275095377
H  H40  1  0.71270000  0.34520000  0.24250000  1.0 0.1098568806
H  H41  1  0.58480000  0.31650000  0.01510000  1.0 0.1204183781
H  H42  1  0.49030000  0.39010000  0.13020000  1.0 0.1275095377
H  H43  1  0.76060000  0.20450000  0.04550000  1.0 0.1275095377
H  H44  1  0.86350000  0.21100000  0.78950000  1.0 0.1006678761
H  H45  1  0.76310000  0.20270000  0.84720000  1.0 0.1204183781
H  H46  1  0.90450000  0.19040000  0.02930000  1.0 0.1098568806
H  H47  1  0.00480000  0.19860000  0.97140000  1.0 0.0781548441
H  H48  1  0.77040000  0.23350000  0.07590000  1.0 0.1204183781
H  H49  1  0.00440000  0.60120000  0.00200000  1.0 0.2972209872
H  H50  1  0.95650000  0.64560000  0.97810000  1.0 0.2807784424
H  H51  1  0.49140000  0.91660000  0.21900000  1.0 0.1098568806
H  H52  1  0.47510000  0.09320000  0.45670000  1.0 0.1098568806
H  H53  1  0.55800000  0.32570000  0.67950000  1.0 0.1006678761
H  H54  1  0.64160000  0.40690000  0.66930000  1.0 0.1204183781
H  H55  1  0.74940000  0.52850000  0.55810000  1.0 0.1098568806
H  H56  1  0.82280000  0.35200000  0.38480000  1.0 0.1098568806
H  H57  1  0.80370000  0.11470000  0.23420000  1.0 0.1098568806
H  H58  1  0.71130000  0.05400000  0.25690000  1.0 0.1098568806
H  H59  1  0.42540000  0.41930000  0.52070000  1.0 0.1098568806
H  H60  1  0.31770000  0.26440000  0.42250000  1.0 0.1098568806
H  H61  1  0.38370000  0.45390000  0.79420000  1.0 0.1006678761
H  H62  1  0.47600000  0.64020000  0.91240000  1.0 0.0617418447
H  H63  1  0.11920000  0.78060000  0.22000000  1.0 0.1275095377
H  H64  1  0.21270000  0.97020000  0.36750000  1.0 0.1098568806
H  H65  1  0.08480000  0.06970000  0.26830000  1.0 0.1204183781
H  H66  1  0.99030000  0.86010000  0.10020000  1.0 0.1275095377
H  H67  1  0.26060000  0.21510000  0.55610000  1.0 0.1275095377
H  H68  1  0.36350000  0.57400000  0.65250000  1.0 0.1006678761
H  H69  1  0.26310000  0.41590000  0.56040000  1.0 0.1204183781
H  H70  1  0.40450000  0.37520000  0.71410000  1.0 0.1098568806
H  H71  1  0.50480000  0.53340000  0.80620000  1.0 0.0781548441
H  H72  1  0.27040000  0.19450000  0.53690000  1.0 0.1204183781
H  H73  1  0.59920000  0.00240000  0.99800000  1.0 0.2972209872
H  H74  1  0.66750000  0.97840000  0.02190000  1.0 0.2807784424
H  H75  1  0.69760000  0.27240000  0.78100000  1.0 0.1098568806
H  H76  1  0.63650000  0.01840000  0.54330000  1.0 0.1098568806
H  H77  1  0.64620000  0.87850000  0.32050000  1.0 0.1006678761
H  H78  1  0.73760000  0.97230000  0.33070000  1.0 0.1204183781
H  H79  1  0.97040000  0.19130000  0.44190000  1.0 0.1098568806
H  H80  1  0.96720000  0.43800000  0.61520000  1.0 0.1098568806
H  H81  1  0.88050000  0.56950000  0.76580000  1.0 0.1098568806
H  H82  1  0.79710000  0.45440000  0.74310000  1.0 0.1098568806
H  H83  1  0.89860000  0.90470000  0.47930000  1.0 0.1098568806
H  H84  1  0.84190000  0.89520000  0.57750000  1.0 0.1098568806
H  H85  1  0.65970000  0.58950000  0.20580000  1.0 0.1006678761
H  H86  1  0.72780000  0.56360000  0.08760000  1.0 0.0617418447
H  H87  1  0.56060000  0.89920000  0.78000000  1.0 0.1275095377
H  H88  1  0.60270000  0.84520000  0.63250000  1.0 0.1098568806
H  H89  1  0.80140000  0.81650000  0.73170000  1.0 0.1204183781
H  H90  1  0.75990000  0.89010000  0.89980000  1.0 0.1275095377
H  H91  1  0.65900000  0.70450000  0.44390000  1.0 0.1275095377
H  H92  1  0.92150000  0.71100000  0.34750000  1.0 0.1006678761
H  H93  1  0.85550000  0.70270000  0.43960000  1.0 0.1204183781
H  H94  1  0.66110000  0.69040000  0.28590000  1.0 0.1098568806
H  H95  1  0.72720000  0.69860000  0.19380000  1.0 0.0781548441
H  H96  1  0.65760000  0.73350000  0.46310000  1.0 0.1204183781
C  C1  1  0.31000000  0.44720000  0.37680000  1.0 0.5321820797
C  C2  1  0.26120000  0.55880000  0.49040000  1.0 -0.0525733033
C  C3  1  0.20810000  0.51730000  0.49680000  1.0 -0.1370944707
C  C4  1  0.16910000  0.62010000  0.60700000  1.0 -0.1210282209
C  C5  1  0.17710000  0.75940000  0.69970000  1.0 -0.1284966365
C  C6  1  0.23150000  0.80710000  0.69640000  1.0 -0.1536662533
C  C7  1  0.27880000  0.70830000  0.59050000  1.0 0.0670984881
C  C8  1  0.33380000  0.75490000  0.57990000  1.0 0.0441596033
C  C9  1  0.38560000  0.89700000  0.71060000  1.0 -0.0525733033
C  C10  1  0.43570000  0.93340000  0.69170000  1.0 -0.1284966365
C  C11  1  0.43370000  0.82770000  0.54200000  1.0 -0.1102829542
C  C12  1  0.38190000  0.68550000  0.41120000  1.0 -0.0998307942
C  C13  1  0.33180000  0.64910000  0.43010000  1.0 -0.1370944707
C  C14  1  0.39330000  0.01570000  0.87560000  1.0 0.5396199645
C  C15  1  0.35280000  0.93260000  0.01820000  1.0 0.0511877136
C  C16  1  0.31660000  0.83430000  0.98230000  1.0 -0.1102829542
C  C17  1  0.24470000  0.83940000  0.99930000  1.0 0.0856309486
C  C18  1  0.20920000  0.95110000  0.06210000  1.0 -0.1102829542
C  C19  1  0.24900000  0.05950000  0.11350000  1.0 0.0617418447
C  C20  1  0.15510000  0.29760000  0.75350000  1.0 0.225333062
C  C21  1  0.11050000  0.33680000  0.72370000  1.0 -0.1722440122
C  C22  1  0.13550000  0.44800000  0.77950000  1.0 -0.1625813445
C  C23  1  0.21070000  0.53880000  0.87390000  1.0 0.1204183781
C  C24  1  0.25370000  0.50540000  0.91230000  1.0 -0.1840219117
C  C25  1  0.22820000  0.38360000  0.84860000  1.0 -0.1891893624
C  C26  1  0.21030000  0.72950000  0.96280000  1.0 -0.0220336356
C  C27  1  0.36930000  0.03450000  0.16280000  1.0 0.024326358
C  C28  1  0.32970000  0.93960000  0.12810000  1.0 -0.1210282209
C  C29  1  0.25180000  0.87980000  0.05600000  1.0 0.1098568806
C  C30  1  0.21330000  0.91480000  0.01850000  1.0 -0.1210282209
C  C31  1  0.25290000  0.00970000  0.05320000  1.0 0.0856309486
C  C32  1  0.07040000  0.93320000  0.62320000  1.0 0.5321820797
C  C33  1  0.06840000  0.77080000  0.50960000  1.0 -0.0525733033
C  C34  1  0.02050000  0.71130000  0.50320000  1.0 -0.1284966365
C  C35  1  0.01310000  0.56210000  0.39300000  1.0 -0.1210282209
C  C36  1  0.05970000  0.47740000  0.30030000  1.0 -0.1284966365
C  C37  1  0.11070000  0.53510000  0.30360000  1.0 -0.1536662533
C  C38  1  0.11780000  0.68830000  0.40950000  1.0 0.0670984881
C  C39  1  0.17500000  0.75390000  0.42010000  1.0 0.0441596033
C  C40  1  0.18640000  0.67500000  0.28940000  1.0 -0.0525733033
C  C41  1  0.24170000  0.74400000  0.30830000  1.0 -0.1284966365
C  C42  1  0.28570000  0.89170000  0.45800000  1.0 -0.1102829542
C  C43  1  0.27430000  0.97070000  0.58880000  1.0 -0.0998307942
C  C44  1  0.21900000  0.90170000  0.56990000  1.0 -0.1370944707
C  C45  1  0.14010000  0.51770000  0.12440000  1.0 0.5396199645
C  C46  1  0.91440000  0.33460000  0.98180000  1.0 0.0511877136
C  C47  1  0.85200000  0.33430000  0.01770000  1.0 -0.1102829542
C  C48  1  0.84010000  0.24540000  0.00070000  1.0 0.0856309486
C  C49  1  0.88900000  0.14710000  0.93790000  1.0 -0.1102829542
C  C50  1  0.94600000  0.13550000  0.88650000  1.0 0.0617418447
C  C51  1  0.54410000  0.40160000  0.24650000  1.0 0.225333062
C  C52  1  0.61310000  0.38680000  0.27630000  1.0 -0.1722440122
C  C53  1  0.66850000  0.35600000  0.22050000  1.0 -0.1625813445
C  C54  1  0.66490000  0.33680000  0.12610000  1.0 0.1204183781
C  C55  1  0.59310000  0.34140000  0.08770000  1.0 -0.1840219117
C  C56  1  0.53500000  0.37960000  0.15140000  1.0 -0.1891893624
C  C57  1  0.76670000  0.24750000  0.03720000  1.0 -0.0220336356
C  C58  1  0.87170000  0.20650000  0.83720000  1.0 0.024326358
C  C59  1  0.81150000  0.20160000  0.87190000  1.0 -0.1284966365
C  C60  1  0.82380000  0.19580000  0.94400000  1.0 0.1098568806
C  C61  1  0.89630000  0.19480000  0.98150000  1.0 -0.1210282209
C  C62  1  0.95650000  0.19970000  0.94680000  1.0 0.0856309486
C  C63  1  0.57040000  0.94720000  0.13720000  1.0 0.5321820797
C  C64  1  0.56840000  0.05880000  0.29760000  1.0 -0.0525733033
C  C65  1  0.52050000  0.01730000  0.30920000  1.0 -0.1284966365
C  C66  1  0.51310000  0.12010000  0.45100000  1.0 -0.1210282209
C  C67  1  0.55970000  0.25940000  0.58230000  1.0 -0.1284966365
C  C68  1  0.61070000  0.30710000  0.57560000  1.0 -0.1536662533
C  C69  1  0.61780000  0.20830000  0.42950000  1.0 0.0670984881
C  C70  1  0.67500000  0.25490000  0.42110000  1.0 0.0441596033
C  C71  1  0.68640000  0.39700000  0.51140000  1.0 -0.0525733033
C  C72  1  0.74170000  0.43340000  0.49770000  1.0 -0.1284966365
C  C73  1  0.78570000  0.32770000  0.39400000  1.0 -0.1102829542
C  C74  1  0.77430000  0.18550000  0.30360000  1.0 -0.0998307942
C  C75  1  0.71900000  0.14910000  0.31730000  1.0 -0.1370944707
C  C76  1  0.64010000  0.51570000  0.62240000  1.0 0.5396199645
C  C77  1  0.41440000  0.43260000  0.57980000  1.0 0.0511877136
C  C78  1  0.35200000  0.33430000  0.51770000  1.0 -0.1102829542
C  C79  1  0.34010000  0.33940000  0.59470000  1.0 0.0856309486
C  C80  1  0.38900000  0.45110000  0.74190000  1.0 -0.1102829542
C  C81  1  0.44600000  0.55950000  0.81050000  1.0 0.0617418447
C  C82  1  0.04410000  0.79760000  0.14250000  1.0 0.225333062
C  C83  1  0.11310000  0.83680000  0.22630000  1.0 -0.1722440122
C  C84  1  0.16850000  0.94800000  0.31250000  1.0 -0.1625813445
C  C85  1  0.16490000  0.03880000  0.32810000  1.0 0.1204183781
C  C86  1  0.09310000  0.00540000  0.25170000  1.0 -0.1840219117
C  C87  1  0.03500000  0.88360000  0.15540000  1.0 -0.1891893624
C  C88  1  0.26670000  0.22950000  0.51920000  1.0 -0.0220336356
C  C89  1  0.37170000  0.53450000  0.66520000  1.0 0.024326358
C  C90  1  0.31150000  0.43960000  0.60990000  1.0 -0.1284966365
C  C91  1  0.32380000  0.37980000  0.62800000  1.0 0.1098568806
C  C92  1  0.39630000  0.41480000  0.70150000  1.0 -0.1210282209
C  C93  1  0.45650000  0.50970000  0.75680000  1.0 0.0856309486
C  C94  1  0.81000000  0.43320000  0.86280000  1.0 0.5321820797
C  C95  1  0.76120000  0.27080000  0.70240000  1.0 -0.0525733033
C  C96  1  0.70810000  0.21130000  0.69080000  1.0 -0.1370944707
C  C97  1  0.66910000  0.06210000  0.54900000  1.0 -0.1210282209
C  C98  1  0.67710000  0.97740000  0.41770000  1.0 -0.1284966365
C  C99  1  0.73150000  0.03510000  0.42440000  1.0 -0.1536662533
C  C100  1  0.77880000  0.18830000  0.57050000  1.0 0.0670984881
C  C101  1  0.83380000  0.25390000  0.57890000  1.0 0.0441596033
C  C102  1  0.88560000  0.17500000  0.48860000  1.0 -0.0525733033
C  C103  1  0.93570000  0.24400000  0.50230000  1.0 -0.1284966365
C  C104  1  0.93370000  0.39170000  0.60600000  1.0 -0.1102829542
C  C105  1  0.88190000  0.47070000  0.69640000  1.0 -0.0998307942
C  C106  1  0.83180000  0.40170000  0.68270000  1.0 -0.1370944707
C  C107  1  0.89330000  0.01770000  0.37760000  1.0 0.5396199645
C  C108  1  0.85280000  0.83460000  0.42020000  1.0 0.0511877136
C  C109  1  0.81660000  0.83430000  0.48230000  1.0 -0.1102829542
C  C110  1  0.74470000  0.74540000  0.40530000  1.0 0.0856309486
C  C111  1  0.70920000  0.64710000  0.25810000  1.0 -0.1102829542
C  C112  1  0.74900000  0.63550000  0.18950000  1.0 0.0617418447
C  C113  1  0.65510000  0.90160000  0.85750000  1.0 0.225333062
C  C114  1  0.61050000  0.88680000  0.77370000  1.0 -0.1722440122
C  C115  1  0.63550000  0.85600000  0.68750000  1.0 -0.1625813445
C  C116  1  0.71070000  0.83680000  0.67190000  1.0 0.1204183781
C  C117  1  0.75370000  0.84140000  0.74830000  1.0 -0.1840219117
C  C118  1  0.72820000  0.87960000  0.84460000  1.0 -0.1891893624
C  C119  1  0.71030000  0.74750000  0.48080000  1.0 -0.0220336356
C  C120  1  0.86930000  0.70650000  0.33480000  1.0 0.024326358
C  C121  1  0.82970000  0.70160000  0.39010000  1.0 -0.1284966365
C  C122  1  0.75180000  0.69580000  0.37200000  1.0 0.1098568806
C  C123  1  0.71330000  0.69480000  0.29850000  1.0 -0.1210282209
C  C124  1  0.75290000  0.69970000  0.24320000  1.0 0.0856309486
N  N1  1  0.12740000  0.17910000  0.69490000  1.0 -0.5580671756
N  N2  1  0.24970000  0.66710000  0.94580000  1.0 -0.319271627
N  N3  1  0.32000000  0.04600000  0.08800000  1.0 -0.1625813445
N  N4  1  0.33050000  0.06950000  0.12500000  1.0 -0.2136902726
N  N5  1  0.48420000  0.43250000  0.30510000  1.0 -0.5580671756
N  N6  1  0.72130000  0.30390000  0.05420000  1.0 -0.319271627
N  N7  1  0.95800000  0.23200000  0.91200000  1.0 -0.1722440122
N  N8  1  0.94450000  0.20550000  0.87500000  1.0 -0.2136902726
N  N9  1  0.98420000  0.67910000  0.05170000  1.0 -0.5580671756
N  N10  1  0.22130000  0.16710000  0.41740000  1.0 -0.319271627
N  N11  1  0.45800000  0.54600000  0.72600000  1.0 -0.1625813445
N  N12  1  0.44450000  0.56950000  0.73900000  1.0 -0.2136902726
N  N13  1  0.62740000  0.93250000  0.94830000  1.0 -0.5580671756
N  N14  1  0.74970000  0.80390000  0.58260000  1.0 -0.319271627
N  N15  1  0.82000000  0.73200000  0.27400000  1.0 -0.1625813445
N  N16  1  0.83050000  0.70550000  0.26100000  1.0 -0.2136902726
O  O1  1  0.37910000  0.46530000  0.43240000  1.0 -0.5874641417
O  O2  1  0.28060000  0.32440000  0.23500000  1.0 -0.494194883
O  O3  1  0.42010000  0.99200000  0.91950000  1.0 -0.5254660575
O  O4  1  0.36410000  0.13730000  0.96700000  1.0 -0.5580671756
O  O5  1  0.03290000  0.94670000  0.56760000  1.0 -0.5874641417
O  O6  1  0.08940000  0.04560000  0.76500000  1.0 -0.494194883
O  O7  1  0.07250000  0.50060000  0.08050000  1.0 -0.5254660575
O  O8  1  0.17030000  0.39710000  0.03300000  1.0 -0.5580671756
O  O9  1  0.53290000  0.96530000  0.08620000  1.0 -0.5874641417
O  O10  1  0.58940000  0.82440000  0.04380000  1.0 -0.494194883
O  O11  1  0.57250000  0.49200000  0.57190000  1.0 -0.5254660575
O  O12  1  0.67030000  0.63730000  0.77320000  1.0 -0.5580671756
O  O13  1  0.87910000  0.44670000  0.91380000  1.0 -0.5874641417
O  O14  1  0.78060000  0.54560000  0.95620000  1.0 -0.4952272056
O  O15  1  0.92010000  0.00060000  0.42810000  1.0 -0.5254660575
O  O16  1  0.86410000  0.89710000  0.22680000  1.0 -0.5580671756
