# DDEC6 charges by PACMAN v1.1 (https://github.com/mtap-research/PACMAN-charge/)
data_HIYHIJ_FSR_pacman
_symmetry_space_group_name_H-M   'P 1'
_cell_length_a   31.19900000
_cell_length_b   31.19900000
_cell_length_c   10.19600000
_cell_angle_alpha   90.00000000
_cell_angle_beta   90.00000000
_cell_angle_gamma   90.00000000
_symmetry_Int_Tables_number   1
_chemical_formula_structural   Zn2H17C14N12O5
_chemical_formula_sum   'Zn16 H136 C112 N96 O40'
_cell_volume   9924.55801980
_cell_formula_units_Z   8
loop_
 _symmetry_equiv_pos_site_id
 _symmetry_equiv_pos_as_xyz
  1  'x, y, z'
loop_
 _atom_site_type_symbol
 _atom_site_label
 _atom_site_symmetry_multiplicity
 _atom_site_fract_x
 _atom_site_fract_y
 _atom_site_fract_z
 _atom_site_occupancy
 _atom_site_charge
Zn  Zn1  1  0.17528000  0.59846000  0.02624000  1.0 0.7321181229
Zn  Zn2  1  0.82472000  0.40154000  0.02624000  1.0 0.7321181229
Zn  Zn3  1  0.09846000  0.32472000  0.52624000  1.0 0.7321181229
Zn  Zn4  1  0.90154000  0.67528000  0.52624000  1.0 0.7321181229
Zn  Zn5  1  0.67528000  0.90154000  0.47376000  1.0 0.7321181229
Zn  Zn6  1  0.32472000  0.09846000  0.47376000  1.0 0.7321181229
Zn  Zn7  1  0.59846000  0.17528000  0.97376000  1.0 0.7321181229
Zn  Zn8  1  0.40154000  0.82472000  0.97376000  1.0 0.7321181229
Zn  Zn9  1  0.32472000  0.90154000  0.47376000  1.0 0.7321181229
Zn  Zn10  1  0.67528000  0.09846000  0.47376000  1.0 0.7321181229
Zn  Zn11  1  0.40154000  0.17528000  0.97376000  1.0 0.7321181229
Zn  Zn12  1  0.59846000  0.82472000  0.97376000  1.0 0.7321181229
Zn  Zn13  1  0.82472000  0.59846000  0.02624000  1.0 0.7321181229
Zn  Zn14  1  0.17528000  0.40154000  0.02624000  1.0 0.7321181229
Zn  Zn15  1  0.90154000  0.32472000  0.52624000  1.0 0.7321181229
Zn  Zn16  1  0.09846000  0.67528000  0.52624000  1.0 0.7321181229
H  H1  1  0.11665000  0.68732000  0.11141000  1.0 0.1619114909
H  H2  1  0.11255000  0.70909000  0.24942000  1.0 0.1481448375
H  H3  1  0.15772000  0.70391000  0.18400000  1.0 0.1689266727
H  H4  1  0.31433000  0.59315000  0.99826000  1.0 0.1481448375
H  H5  1  0.22068000  0.52848000  0.19042000  1.0 0.0421422714
H  H6  1  0.20921000  0.48098000  0.22624000  1.0 0.0421422714
H  H7  1  0.24374000  0.49054000  0.11842000  1.0 0.0492000021
H  H8  1  0.42262000  0.61242000  0.99816000  1.0 0.3291847701
H  H9  1  0.88335000  0.31268000  0.11141000  1.0 0.1619114909
H  H10  1  0.88745000  0.29091000  0.24942000  1.0 0.1481448375
H  H11  1  0.84228000  0.29609000  0.18400000  1.0 0.1689266727
H  H12  1  0.68567000  0.40685000  0.99826000  1.0 0.1481448375
H  H13  1  0.77932000  0.47152000  0.19042000  1.0 0.0421422714
H  H14  1  0.79079000  0.51902000  0.22624000  1.0 0.0421422714
H  H15  1  0.75626000  0.50946000  0.11842000  1.0 0.0492000021
H  H16  1  0.57738000  0.38758000  0.99816000  1.0 0.3291847701
H  H17  1  0.18732000  0.38335000  0.61141000  1.0 0.1619114909
H  H18  1  0.20909000  0.38745000  0.74942000  1.0 0.1481448375
H  H19  1  0.20391000  0.34228000  0.68400000  1.0 0.1689266727
H  H20  1  0.09315000  0.18567000  0.49826000  1.0 0.1481448375
H  H21  1  0.02848000  0.27932000  0.69042000  1.0 0.0421422714
H  H22  1  0.98098000  0.29079000  0.72624000  1.0 0.0421422714
H  H23  1  0.99054000  0.25626000  0.61842000  1.0 0.0492000021
H  H24  1  0.11242000  0.07738000  0.49816000  1.0 0.3399219444
H  H25  1  0.81268000  0.61665000  0.61141000  1.0 0.1619114909
H  H26  1  0.79091000  0.61255000  0.74942000  1.0 0.1481448375
H  H27  1  0.79609000  0.65772000  0.68400000  1.0 0.1689266727
H  H28  1  0.90685000  0.81433000  0.49826000  1.0 0.1481448375
H  H29  1  0.97152000  0.72068000  0.69042000  1.0 0.0421422714
H  H30  1  0.01902000  0.70921000  0.72624000  1.0 0.0492000021
H  H31  1  0.00946000  0.74374000  0.61842000  1.0 0.0492000021
H  H32  1  0.88758000  0.92262000  0.49816000  1.0 0.3291847701
H  H33  1  0.61665000  0.81268000  0.38859000  1.0 0.1619114909
H  H34  1  0.61255000  0.79091000  0.25058000  1.0 0.1481448375
H  H35  1  0.65772000  0.79609000  0.31600000  1.0 0.1689266727
H  H36  1  0.81433000  0.90685000  0.50174000  1.0 0.1481448375
H  H37  1  0.72068000  0.97152000  0.30958000  1.0 0.0421422714
H  H38  1  0.70921000  0.01902000  0.27376000  1.0 0.0492000021
H  H39  1  0.74374000  0.00946000  0.38158000  1.0 0.0492000021
H  H40  1  0.92262000  0.88758000  0.50184000  1.0 0.3291847701
H  H41  1  0.38335000  0.18732000  0.38859000  1.0 0.1619114909
H  H42  1  0.38745000  0.20909000  0.25058000  1.0 0.1481448375
H  H43  1  0.34228000  0.20391000  0.31600000  1.0 0.1689266727
H  H44  1  0.18567000  0.09315000  0.50174000  1.0 0.1481448375
H  H45  1  0.27932000  0.02848000  0.30958000  1.0 0.0421422714
H  H46  1  0.29079000  0.98098000  0.27376000  1.0 0.0421422714
H  H47  1  0.25626000  0.99054000  0.38158000  1.0 0.0492000021
H  H48  1  0.07738000  0.11242000  0.50184000  1.0 0.3399219444
H  H49  1  0.68732000  0.11665000  0.88859000  1.0 0.1619114909
H  H50  1  0.70909000  0.11255000  0.75058000  1.0 0.1481448375
H  H51  1  0.70391000  0.15772000  0.81600000  1.0 0.1689266727
H  H52  1  0.59315000  0.31433000  0.00174000  1.0 0.1481448375
H  H53  1  0.52848000  0.22068000  0.80958000  1.0 0.0421422714
H  H54  1  0.48098000  0.20921000  0.77376000  1.0 0.0421422714
H  H55  1  0.49054000  0.24374000  0.88158000  1.0 0.0492000021
H  H56  1  0.61242000  0.42262000  0.00184000  1.0 0.3291847701
H  H57  1  0.31268000  0.88335000  0.88859000  1.0 0.1619114909
H  H58  1  0.29091000  0.88745000  0.75058000  1.0 0.1481448375
H  H59  1  0.29609000  0.84228000  0.81600000  1.0 0.1689266727
H  H60  1  0.40685000  0.68567000  0.00174000  1.0 0.1481448375
H  H61  1  0.47152000  0.77932000  0.80958000  1.0 0.0421422714
H  H62  1  0.51902000  0.79079000  0.77376000  1.0 0.0421422714
H  H63  1  0.50946000  0.75626000  0.88158000  1.0 0.0492000021
H  H64  1  0.38758000  0.57738000  0.00184000  1.0 0.3291847701
H  H65  1  0.38335000  0.81268000  0.38859000  1.0 0.1619114909
H  H66  1  0.38745000  0.79091000  0.25058000  1.0 0.1481448375
H  H67  1  0.34228000  0.79609000  0.31600000  1.0 0.1689266727
H  H68  1  0.18567000  0.90685000  0.50174000  1.0 0.1481448375
H  H69  1  0.27932000  0.97152000  0.30958000  1.0 0.0421422714
H  H70  1  0.29079000  0.01902000  0.27376000  1.0 0.0421422714
H  H71  1  0.25626000  0.00946000  0.38158000  1.0 0.0492000021
H  H72  1  0.07738000  0.88758000  0.50184000  1.0 0.3291847701
H  H73  1  0.61665000  0.18732000  0.38859000  1.0 0.1619114909
H  H74  1  0.61255000  0.20909000  0.25058000  1.0 0.1481448375
H  H75  1  0.65772000  0.20391000  0.31600000  1.0 0.1689266727
H  H76  1  0.81433000  0.09315000  0.50174000  1.0 0.1481448375
H  H77  1  0.72068000  0.02848000  0.30958000  1.0 0.0421422714
H  H78  1  0.70921000  0.98098000  0.27376000  1.0 0.0492000021
H  H79  1  0.74374000  0.99054000  0.38158000  1.0 0.0492000021
H  H80  1  0.92262000  0.11242000  0.50184000  1.0 0.3291847701
H  H81  1  0.31268000  0.11665000  0.88859000  1.0 0.1619114909
H  H82  1  0.29091000  0.11255000  0.75058000  1.0 0.1481448375
H  H83  1  0.29609000  0.15772000  0.81600000  1.0 0.1689266727
H  H84  1  0.40685000  0.31433000  0.00174000  1.0 0.1481448375
H  H85  1  0.47152000  0.22068000  0.80958000  1.0 0.0421422714
H  H86  1  0.51902000  0.20921000  0.77376000  1.0 0.0421422714
H  H87  1  0.50946000  0.24374000  0.88158000  1.0 0.0492000021
H  H88  1  0.38758000  0.42262000  0.00184000  1.0 0.3399219444
H  H89  1  0.68732000  0.88335000  0.88859000  1.0 0.1619114909
H  H90  1  0.70909000  0.88745000  0.75058000  1.0 0.1481448375
H  H91  1  0.70391000  0.84228000  0.81600000  1.0 0.1689266727
H  H92  1  0.59315000  0.68567000  0.00174000  1.0 0.1481448375
H  H93  1  0.52848000  0.77932000  0.80958000  1.0 0.0421422714
H  H94  1  0.48098000  0.79079000  0.77376000  1.0 0.0492000021
H  H95  1  0.49054000  0.75626000  0.88158000  1.0 0.0492000021
H  H96  1  0.61242000  0.57738000  0.00184000  1.0 0.3291847701
H  H97  1  0.88335000  0.68732000  0.11141000  1.0 0.1619114909
H  H98  1  0.88745000  0.70909000  0.24942000  1.0 0.1481448375
H  H99  1  0.84228000  0.70391000  0.18400000  1.0 0.1689266727
H  H100  1  0.68567000  0.59315000  0.99826000  1.0 0.1481448375
H  H101  1  0.77932000  0.52848000  0.19042000  1.0 0.0421422714
H  H102  1  0.79079000  0.48098000  0.22624000  1.0 0.0421422714
H  H103  1  0.75626000  0.49054000  0.11842000  1.0 0.0492000021
H  H104  1  0.57738000  0.61242000  0.99816000  1.0 0.3291847701
H  H105  1  0.11665000  0.31268000  0.11141000  1.0 0.1619114909
H  H106  1  0.11255000  0.29091000  0.24942000  1.0 0.1481448375
H  H107  1  0.15772000  0.29609000  0.18400000  1.0 0.1689266727
H  H108  1  0.31433000  0.40685000  0.99826000  1.0 0.1481448375
H  H109  1  0.22068000  0.47152000  0.19042000  1.0 0.0421422714
H  H110  1  0.20921000  0.51902000  0.22624000  1.0 0.0421422714
H  H111  1  0.24374000  0.50946000  0.11842000  1.0 0.0492000021
H  H112  1  0.42262000  0.38758000  0.99816000  1.0 0.3399219444
H  H113  1  0.81268000  0.38335000  0.61141000  1.0 0.1619114909
H  H114  1  0.79091000  0.38745000  0.74942000  1.0 0.1481448375
H  H115  1  0.79609000  0.34228000  0.68400000  1.0 0.1689266727
H  H116  1  0.90685000  0.18567000  0.49826000  1.0 0.1481448375
H  H117  1  0.97152000  0.27932000  0.69042000  1.0 0.0421422714
H  H118  1  0.01902000  0.29079000  0.72624000  1.0 0.0421422714
H  H119  1  0.00946000  0.25626000  0.61842000  1.0 0.0492000021
H  H120  1  0.88758000  0.07738000  0.49816000  1.0 0.3291847701
H  H121  1  0.18732000  0.61665000  0.61141000  1.0 0.1619114909
H  H122  1  0.20909000  0.61255000  0.74942000  1.0 0.1481448375
H  H123  1  0.20391000  0.65772000  0.68400000  1.0 0.1689266727
H  H124  1  0.09315000  0.81433000  0.49826000  1.0 0.1481448375
H  H125  1  0.02848000  0.72068000  0.69042000  1.0 0.0421422714
H  H126  1  0.98098000  0.70921000  0.72624000  1.0 0.0492000021
H  H127  1  0.99054000  0.74374000  0.61842000  1.0 0.0492000021
H  H128  1  0.11242000  0.92262000  0.49816000  1.0 0.3291847701
H  H129  1  0.28473000  0.71527000  0.00000000  1.0 0.1689266727
H  H130  1  0.71527000  0.28473000  0.00000000  1.0 0.1689266727
H  H131  1  0.21527000  0.21527000  0.50000000  1.0 0.1762645821
H  H132  1  0.78473000  0.78473000  0.50000000  1.0 0.1689266727
H  H133  1  0.21527000  0.78473000  0.50000000  1.0 0.1762645821
H  H134  1  0.78473000  0.21527000  0.50000000  1.0 0.1762645821
H  H135  1  0.28473000  0.28473000  0.00000000  1.0 0.1689266727
H  H136  1  0.71527000  0.71527000  0.00000000  1.0 0.1689266727
C  C1  1  0.24600000  0.63970000  0.01210000  1.0 0.5281857816
C  C2  1  0.29370000  0.65260000  0.00510000  1.0 0.0133370497
C  C3  1  0.13516000  0.64814000  0.26010000  1.0 0.3291847701
C  C4  1  0.13010000  0.69100000  0.19540000  1.0 -0.501161437
C  C5  1  0.32280000  0.62170000  0.00080000  1.0 -0.222053726
C  C6  1  0.75400000  0.36030000  0.01210000  1.0 0.5281857816
C  C7  1  0.70630000  0.34740000  0.00510000  1.0 0.0133370497
C  C8  1  0.86484000  0.35186000  0.26010000  1.0 0.3291847701
C  C9  1  0.86990000  0.30900000  0.19540000  1.0 -0.501161437
C  C10  1  0.67720000  0.37830000  0.00080000  1.0 -0.222053726
C  C11  1  0.13970000  0.25400000  0.51210000  1.0 0.5281857816
C  C12  1  0.15260000  0.20630000  0.50510000  1.0 0.0133370497
C  C13  1  0.14814000  0.36484000  0.76010000  1.0 0.3291847701
C  C14  1  0.19100000  0.36990000  0.69540000  1.0 -0.501161437
C  C15  1  0.12170000  0.17720000  0.50080000  1.0 -0.222053726
C  C16  1  0.86030000  0.74600000  0.51210000  1.0 0.5281857816
C  C17  1  0.84740000  0.79370000  0.50510000  1.0 0.0133370497
C  C18  1  0.85186000  0.63516000  0.76010000  1.0 0.3291847701
C  C19  1  0.80900000  0.63010000  0.69540000  1.0 -0.501161437
C  C20  1  0.87830000  0.82280000  0.50080000  1.0 -0.222053726
C  C21  1  0.74600000  0.86030000  0.48790000  1.0 0.5281857816
C  C22  1  0.79370000  0.84740000  0.49490000  1.0 0.0133370497
C  C23  1  0.63516000  0.85186000  0.23990000  1.0 0.3291847701
C  C24  1  0.63010000  0.80900000  0.30460000  1.0 -0.501161437
C  C25  1  0.82280000  0.87830000  0.49920000  1.0 -0.222053726
C  C26  1  0.25400000  0.13970000  0.48790000  1.0 0.5281857816
C  C27  1  0.20630000  0.15260000  0.49490000  1.0 0.0133370497
C  C28  1  0.36484000  0.14814000  0.23990000  1.0 0.3291847701
C  C29  1  0.36990000  0.19100000  0.30460000  1.0 -0.501161437
C  C30  1  0.17720000  0.12170000  0.49920000  1.0 -0.222053726
C  C31  1  0.63970000  0.24600000  0.98790000  1.0 0.5281857816
C  C32  1  0.65260000  0.29370000  0.99490000  1.0 0.0133370497
C  C33  1  0.64814000  0.13516000  0.73990000  1.0 0.3291847701
C  C34  1  0.69100000  0.13010000  0.80460000  1.0 -0.501161437
C  C35  1  0.62170000  0.32280000  0.99920000  1.0 -0.222053726
C  C36  1  0.36030000  0.75400000  0.98790000  1.0 0.5281857816
C  C37  1  0.34740000  0.70630000  0.99490000  1.0 0.0133370497
C  C38  1  0.35186000  0.86484000  0.73990000  1.0 0.3291847701
C  C39  1  0.30900000  0.86990000  0.80460000  1.0 -0.501161437
C  C40  1  0.37830000  0.67720000  0.99920000  1.0 -0.222053726
C  C41  1  0.25400000  0.86030000  0.48790000  1.0 0.5281857816
C  C42  1  0.20630000  0.84740000  0.49490000  1.0 0.0133370497
C  C43  1  0.36484000  0.85186000  0.23990000  1.0 0.3291847701
C  C44  1  0.36990000  0.80900000  0.30460000  1.0 -0.501161437
C  C45  1  0.17720000  0.87830000  0.49920000  1.0 -0.222053726
C  C46  1  0.74600000  0.13970000  0.48790000  1.0 0.5281857816
C  C47  1  0.79370000  0.15260000  0.49490000  1.0 0.0133370497
C  C48  1  0.63516000  0.14814000  0.23990000  1.0 0.3291847701
C  C49  1  0.63010000  0.19100000  0.30460000  1.0 -0.501161437
C  C50  1  0.82280000  0.12170000  0.49920000  1.0 -0.222053726
C  C51  1  0.36030000  0.24600000  0.98790000  1.0 0.5281857816
C  C52  1  0.34740000  0.29370000  0.99490000  1.0 0.0133370497
C  C53  1  0.35186000  0.13516000  0.73990000  1.0 0.3291847701
C  C54  1  0.30900000  0.13010000  0.80460000  1.0 -0.501161437
C  C55  1  0.37830000  0.32280000  0.99920000  1.0 -0.222053726
C  C56  1  0.63970000  0.75400000  0.98790000  1.0 0.5281857816
C  C57  1  0.65260000  0.70630000  0.99490000  1.0 0.0133370497
C  C58  1  0.64814000  0.86484000  0.73990000  1.0 0.3291847701
C  C59  1  0.69100000  0.86990000  0.80460000  1.0 -0.501161437
C  C60  1  0.62170000  0.67720000  0.99920000  1.0 -0.222053726
C  C61  1  0.75400000  0.63970000  0.01210000  1.0 0.5281857816
C  C62  1  0.70630000  0.65260000  0.00510000  1.0 0.0133370497
C  C63  1  0.86484000  0.64814000  0.26010000  1.0 0.3291847701
C  C64  1  0.86990000  0.69100000  0.19540000  1.0 -0.501161437
C  C65  1  0.67720000  0.62170000  0.00080000  1.0 -0.222053726
C  C66  1  0.24600000  0.36030000  0.01210000  1.0 0.5281857816
C  C67  1  0.29370000  0.34740000  0.00510000  1.0 0.0133370497
C  C68  1  0.13516000  0.35186000  0.26010000  1.0 0.3291847701
C  C69  1  0.13010000  0.30900000  0.19540000  1.0 -0.501161437
C  C70  1  0.32280000  0.37830000  0.00080000  1.0 -0.222053726
C  C71  1  0.86030000  0.25400000  0.51210000  1.0 0.5281857816
C  C72  1  0.84740000  0.20630000  0.50510000  1.0 0.0133370497
C  C73  1  0.85186000  0.36484000  0.76010000  1.0 0.3291847701
C  C74  1  0.80900000  0.36990000  0.69540000  1.0 -0.501161437
C  C75  1  0.87830000  0.17720000  0.50080000  1.0 -0.222053726
C  C76  1  0.13970000  0.74600000  0.51210000  1.0 0.5281857816
C  C77  1  0.15260000  0.79370000  0.50510000  1.0 0.0133370497
C  C78  1  0.14814000  0.63516000  0.76010000  1.0 0.3291847701
C  C79  1  0.19100000  0.63010000  0.69540000  1.0 -0.501161437
C  C80  1  0.12170000  0.82280000  0.50080000  1.0 -0.222053726
C  C81  1  0.30580000  0.69420000  0.00000000  1.0 -0.130823296
C  C82  1  0.36730000  0.63270000  0.00000000  1.0 0.2692702631
C  C83  1  0.69420000  0.30580000  0.00000000  1.0 -0.130823296
C  C84  1  0.63270000  0.36730000  0.00000000  1.0 0.2692702631
C  C85  1  0.19420000  0.19420000  0.50000000  1.0 -0.130823296
C  C86  1  0.13270000  0.13270000  0.50000000  1.0 0.2692702631
C  C87  1  0.80580000  0.80580000  0.50000000  1.0 -0.130823296
C  C88  1  0.86730000  0.86730000  0.50000000  1.0 0.2692702631
C  C89  1  0.19420000  0.80580000  0.50000000  1.0 -0.130823296
C  C90  1  0.13270000  0.86730000  0.50000000  1.0 0.2692702631
C  C91  1  0.80580000  0.19420000  0.50000000  1.0 -0.130823296
C  C92  1  0.86730000  0.13270000  0.50000000  1.0 0.2692702631
C  C93  1  0.30580000  0.30580000  0.00000000  1.0 -0.130823296
C  C94  1  0.36730000  0.36730000  0.00000000  1.0 0.2641945859
C  C95  1  0.69420000  0.69420000  0.00000000  1.0 -0.130823296
C  C96  1  0.63270000  0.63270000  0.00000000  1.0 0.2692702631
C  C97  1  0.18340000  0.50000000  0.05500000  1.0 0.2692702631
C  C98  1  0.21720000  0.50000000  0.15640000  1.0 -0.2109964659
C  C99  1  0.81660000  0.50000000  0.05500000  1.0 0.2692702631
C  C100  1  0.78280000  0.50000000  0.15640000  1.0 -0.2109964659
C  C101  1  0.00000000  0.31660000  0.55500000  1.0 0.2692702631
C  C102  1  0.00000000  0.28280000  0.65640000  1.0 -0.2109964659
C  C103  1  0.00000000  0.68340000  0.55500000  1.0 0.2692702631
C  C104  1  0.00000000  0.71720000  0.65640000  1.0 -0.222053726
C  C105  1  0.68340000  0.00000000  0.44500000  1.0 0.2692702631
C  C106  1  0.71720000  0.00000000  0.34360000  1.0 -0.222053726
C  C107  1  0.31660000  0.00000000  0.44500000  1.0 0.2692702631
C  C108  1  0.28280000  0.00000000  0.34360000  1.0 -0.2109964659
C  C109  1  0.50000000  0.18340000  0.94500000  1.0 0.2692702631
C  C110  1  0.50000000  0.21720000  0.84360000  1.0 -0.2109964659
C  C111  1  0.50000000  0.81660000  0.94500000  1.0 0.2692702631
C  C112  1  0.50000000  0.78280000  0.84360000  1.0 -0.2109964659
N  N1  1  0.16500000  0.53493000  0.00550000  1.0 -0.2928416444
N  N2  1  0.15082000  0.61305000  0.20340000  1.0 -0.272778165
N  N3  1  0.12481000  0.64012000  0.38180000  1.0 -0.272778165
N  N4  1  0.13440000  0.59893000  0.40340000  1.0 -0.0607401509
N  N5  1  0.13280000  0.52069000  0.92590000  1.0 -0.0607401509
N  N6  1  0.14946000  0.58220000  0.29720000  1.0 -0.0674323628
N  N7  1  0.83500000  0.46507000  0.00550000  1.0 -0.2928416444
N  N8  1  0.84918000  0.38695000  0.20340000  1.0 -0.272778165
N  N9  1  0.87519000  0.35988000  0.38180000  1.0 -0.272778165
N  N10  1  0.86560000  0.40107000  0.40340000  1.0 -0.0607401509
N  N11  1  0.86720000  0.47931000  0.92590000  1.0 -0.0607401509
N  N12  1  0.85054000  0.41780000  0.29720000  1.0 -0.0674323628
N  N13  1  0.03493000  0.33500000  0.50550000  1.0 -0.2928416444
N  N14  1  0.11305000  0.34918000  0.70340000  1.0 -0.272778165
N  N15  1  0.14012000  0.37519000  0.88180000  1.0 -0.272778165
N  N16  1  0.09893000  0.36560000  0.90340000  1.0 -0.0607401509
N  N17  1  0.02069000  0.36720000  0.42590000  1.0 -0.0607401509
N  N18  1  0.08220000  0.35054000  0.79720000  1.0 -0.0674323628
N  N19  1  0.96507000  0.66500000  0.50550000  1.0 -0.2928416444
N  N20  1  0.88695000  0.65082000  0.70340000  1.0 -0.272778165
N  N21  1  0.85988000  0.62481000  0.88180000  1.0 -0.272778165
N  N22  1  0.90107000  0.63440000  0.90340000  1.0 -0.0607401509
N  N23  1  0.97931000  0.63280000  0.42590000  1.0 -0.0607401509
N  N24  1  0.91780000  0.64946000  0.79720000  1.0 -0.0674323628
N  N25  1  0.66500000  0.96507000  0.49450000  1.0 -0.2928416444
N  N26  1  0.65082000  0.88695000  0.29660000  1.0 -0.272778165
N  N27  1  0.62481000  0.85988000  0.11820000  1.0 -0.272778165
N  N28  1  0.63440000  0.90107000  0.09660000  1.0 -0.0607401509
N  N29  1  0.63280000  0.97931000  0.57410000  1.0 -0.0607401509
N  N30  1  0.64946000  0.91780000  0.20280000  1.0 -0.0674323628
N  N31  1  0.33500000  0.03493000  0.49450000  1.0 -0.2928416444
N  N32  1  0.34918000  0.11305000  0.29660000  1.0 -0.272778165
N  N33  1  0.37519000  0.14012000  0.11820000  1.0 -0.272778165
N  N34  1  0.36560000  0.09893000  0.09660000  1.0 -0.0607401509
N  N35  1  0.36720000  0.02069000  0.57410000  1.0 -0.0607401509
N  N36  1  0.35054000  0.08220000  0.20280000  1.0 -0.0674323628
N  N37  1  0.53493000  0.16500000  0.99450000  1.0 -0.2928416444
N  N38  1  0.61305000  0.15082000  0.79660000  1.0 -0.272778165
N  N39  1  0.64012000  0.12481000  0.61820000  1.0 -0.272778165
N  N40  1  0.59893000  0.13440000  0.59660000  1.0 -0.0607401509
N  N41  1  0.52069000  0.13280000  0.07410000  1.0 -0.0607401509
N  N42  1  0.58220000  0.14946000  0.70280000  1.0 -0.0674323628
N  N43  1  0.46507000  0.83500000  0.99450000  1.0 -0.2928416444
N  N44  1  0.38695000  0.84918000  0.79660000  1.0 -0.272778165
N  N45  1  0.35988000  0.87519000  0.61820000  1.0 -0.272778165
N  N46  1  0.40107000  0.86560000  0.59660000  1.0 -0.0607401509
N  N47  1  0.47931000  0.86720000  0.07410000  1.0 -0.0607401509
N  N48  1  0.41780000  0.85054000  0.70280000  1.0 -0.0674323628
N  N49  1  0.33500000  0.96507000  0.49450000  1.0 -0.2928416444
N  N50  1  0.34918000  0.88695000  0.29660000  1.0 -0.272778165
N  N51  1  0.37519000  0.85988000  0.11820000  1.0 -0.272778165
N  N52  1  0.36560000  0.90107000  0.09660000  1.0 -0.0607401509
N  N53  1  0.36720000  0.97931000  0.57410000  1.0 -0.0607401509
N  N54  1  0.35054000  0.91780000  0.20280000  1.0 -0.0674323628
N  N55  1  0.66500000  0.03493000  0.49450000  1.0 -0.2928416444
N  N56  1  0.65082000  0.11305000  0.29660000  1.0 -0.272778165
N  N57  1  0.62481000  0.14012000  0.11820000  1.0 -0.272778165
N  N58  1  0.63440000  0.09893000  0.09660000  1.0 -0.0607401509
N  N59  1  0.63280000  0.02069000  0.57410000  1.0 -0.0607401509
N  N60  1  0.64946000  0.08220000  0.20280000  1.0 -0.0674323628
N  N61  1  0.46507000  0.16500000  0.99450000  1.0 -0.2928416444
N  N62  1  0.38695000  0.15082000  0.79660000  1.0 -0.272778165
N  N63  1  0.35988000  0.12481000  0.61820000  1.0 -0.272778165
N  N64  1  0.40107000  0.13440000  0.59660000  1.0 -0.0607401509
N  N65  1  0.47931000  0.13280000  0.07410000  1.0 -0.0607401509
N  N66  1  0.41780000  0.14946000  0.70280000  1.0 -0.0674323628
N  N67  1  0.53493000  0.83500000  0.99450000  1.0 -0.2928416444
N  N68  1  0.61305000  0.84918000  0.79660000  1.0 -0.272778165
N  N69  1  0.64012000  0.87519000  0.61820000  1.0 -0.272778165
N  N70  1  0.59893000  0.86560000  0.59660000  1.0 -0.0607401509
N  N71  1  0.52069000  0.86720000  0.07410000  1.0 -0.0607401509
N  N72  1  0.58220000  0.85054000  0.70280000  1.0 -0.0674323628
N  N73  1  0.83500000  0.53493000  0.00550000  1.0 -0.2928416444
N  N74  1  0.84918000  0.61305000  0.20340000  1.0 -0.272778165
N  N75  1  0.87519000  0.64012000  0.38180000  1.0 -0.272778165
N  N76  1  0.86560000  0.59893000  0.40340000  1.0 -0.0607401509
N  N77  1  0.86720000  0.52069000  0.92590000  1.0 -0.0607401509
N  N78  1  0.85054000  0.58220000  0.29720000  1.0 -0.0674323628
N  N79  1  0.16500000  0.46507000  0.00550000  1.0 -0.2928416444
N  N80  1  0.15082000  0.38695000  0.20340000  1.0 -0.272778165
N  N81  1  0.12481000  0.35988000  0.38180000  1.0 -0.272778165
N  N82  1  0.13440000  0.40107000  0.40340000  1.0 -0.0607401509
N  N83  1  0.13280000  0.47931000  0.92590000  1.0 -0.0607401509
N  N84  1  0.14946000  0.41780000  0.29720000  1.0 -0.0674323628
N  N85  1  0.96507000  0.33500000  0.50550000  1.0 -0.2928416444
N  N86  1  0.88695000  0.34918000  0.70340000  1.0 -0.272778165
N  N87  1  0.85988000  0.37519000  0.88180000  1.0 -0.272778165
N  N88  1  0.90107000  0.36560000  0.90340000  1.0 -0.0607401509
N  N89  1  0.97931000  0.36720000  0.42590000  1.0 -0.0607401509
N  N90  1  0.91780000  0.35054000  0.79720000  1.0 -0.0674323628
N  N91  1  0.03493000  0.66500000  0.50550000  1.0 -0.2928416444
N  N92  1  0.11305000  0.65082000  0.70340000  1.0 -0.272778165
N  N93  1  0.14012000  0.62481000  0.88180000  1.0 -0.272778165
N  N94  1  0.09893000  0.63440000  0.90340000  1.0 -0.0607401509
N  N95  1  0.02069000  0.63280000  0.42590000  1.0 -0.0607401509
N  N96  1  0.08220000  0.64946000  0.79720000  1.0 -0.0674323628
O  O1  1  0.23700000  0.60144000  0.01070000  1.0 -0.4763497183
O  O2  1  0.22049000  0.66911000  0.02640000  1.0 -0.4596424824
O  O3  1  0.76300000  0.39856000  0.01070000  1.0 -0.4763497183
O  O4  1  0.77951000  0.33089000  0.02640000  1.0 -0.4596424824
O  O5  1  0.10144000  0.26300000  0.51070000  1.0 -0.4763497183
O  O6  1  0.16911000  0.27951000  0.52640000  1.0 -0.4596424824
O  O7  1  0.89856000  0.73700000  0.51070000  1.0 -0.4763497183
O  O8  1  0.83089000  0.72049000  0.52640000  1.0 -0.4596424824
O  O9  1  0.73700000  0.89856000  0.48930000  1.0 -0.4763497183
O  O10  1  0.72049000  0.83089000  0.47360000  1.0 -0.4596424824
O  O11  1  0.26300000  0.10144000  0.48930000  1.0 -0.4763497183
O  O12  1  0.27951000  0.16911000  0.47360000  1.0 -0.4596424824
O  O13  1  0.60144000  0.23700000  0.98930000  1.0 -0.4763497183
O  O14  1  0.66911000  0.22049000  0.97360000  1.0 -0.4596424824
O  O15  1  0.39856000  0.76300000  0.98930000  1.0 -0.4763497183
O  O16  1  0.33089000  0.77951000  0.97360000  1.0 -0.4596424824
O  O17  1  0.26300000  0.89856000  0.48930000  1.0 -0.4763497183
O  O18  1  0.27951000  0.83089000  0.47360000  1.0 -0.4596424824
O  O19  1  0.73700000  0.10144000  0.48930000  1.0 -0.4763497183
O  O20  1  0.72049000  0.16911000  0.47360000  1.0 -0.4596424824
O  O21  1  0.39856000  0.23700000  0.98930000  1.0 -0.4763497183
O  O22  1  0.33089000  0.22049000  0.97360000  1.0 -0.4596424824
O  O23  1  0.60144000  0.76300000  0.98930000  1.0 -0.4763497183
O  O24  1  0.66911000  0.77951000  0.97360000  1.0 -0.4596424824
O  O25  1  0.76300000  0.60144000  0.01070000  1.0 -0.4763497183
O  O26  1  0.77951000  0.66911000  0.02640000  1.0 -0.4596424824
O  O27  1  0.23700000  0.39856000  0.01070000  1.0 -0.4763497183
O  O28  1  0.22049000  0.33089000  0.02640000  1.0 -0.4596424824
O  O29  1  0.89856000  0.26300000  0.51070000  1.0 -0.4763497183
O  O30  1  0.83089000  0.27951000  0.52640000  1.0 -0.4596424824
O  O31  1  0.10144000  0.73700000  0.51070000  1.0 -0.4763497183
O  O32  1  0.16911000  0.72049000  0.52640000  1.0 -0.4596424824
O  O33  1  0.39890000  0.60110000  0.00000000  1.0 -0.3869897979
O  O34  1  0.60110000  0.39890000  0.00000000  1.0 -0.3869897979
O  O35  1  0.10110000  0.10110000  0.50000000  1.0 -0.3869897979
O  O36  1  0.89890000  0.89890000  0.50000000  1.0 -0.3869897979
O  O37  1  0.10110000  0.89890000  0.50000000  1.0 -0.3869897979
O  O38  1  0.89890000  0.10110000  0.50000000  1.0 -0.3869897979
O  O39  1  0.39890000  0.39890000  0.00000000  1.0 -0.3869897979
O  O40  1  0.60110000  0.60110000  0.00000000  1.0 -0.3869897979
