# DDEC6 charges by PACMAN v1.1 (https://github.com/mtap-research/PACMAN-charge/)
data_HIYHOP_FSR_pacman
_symmetry_space_group_name_H-M   'P 1'
_cell_length_a   30.74750000
_cell_length_b   30.74750000
_cell_length_c   9.91330000
_cell_angle_alpha   90.00000000
_cell_angle_beta   90.00000000
_cell_angle_gamma   90.00000000
_symmetry_Int_Tables_number   1
_chemical_formula_structural   ZnH8C7(N3O)2
_chemical_formula_sum   'Zn16 H128 C112 N96 O32'
_cell_volume   9372.12062333
_cell_formula_units_Z   16
loop_
 _symmetry_equiv_pos_site_id
 _symmetry_equiv_pos_as_xyz
  1  'x, y, z'
loop_
 _atom_site_type_symbol
 _atom_site_label
 _atom_site_symmetry_multiplicity
 _atom_site_fract_x
 _atom_site_fract_y
 _atom_site_fract_z
 _atom_site_occupancy
 _atom_site_charge
Zn  Zn1  1  0.30239000  0.05733000  0.19481000  1.0 0.722645878
Zn  Zn2  1  0.69761000  0.94267000  0.19481000  1.0 0.722645878
Zn  Zn3  1  0.55733000  0.19761000  0.69481000  1.0 0.722645878
Zn  Zn4  1  0.44267000  0.80239000  0.69481000  1.0 0.722645878
Zn  Zn5  1  0.80239000  0.44267000  0.80519000  1.0 0.722645878
Zn  Zn6  1  0.19761000  0.55733000  0.80519000  1.0 0.722645878
Zn  Zn7  1  0.05733000  0.30239000  0.30519000  1.0 0.722645878
Zn  Zn8  1  0.94267000  0.69761000  0.30519000  1.0 0.722645878
Zn  Zn9  1  0.19761000  0.44267000  0.30519000  1.0 0.722645878
Zn  Zn10  1  0.80239000  0.55733000  0.30519000  1.0 0.722645878
Zn  Zn11  1  0.94267000  0.30239000  0.80519000  1.0 0.722645878
Zn  Zn12  1  0.05733000  0.69761000  0.80519000  1.0 0.722645878
Zn  Zn13  1  0.69761000  0.05733000  0.69481000  1.0 0.722645878
Zn  Zn14  1  0.30239000  0.94267000  0.69481000  1.0 0.722645878
Zn  Zn15  1  0.44267000  0.19761000  0.19481000  1.0 0.722645878
Zn  Zn16  1  0.55733000  0.80239000  0.19481000  1.0 0.722645878
H  H1  1  0.22395000  0.17285000  0.25469000  1.0 0.1540106061
H  H2  1  0.24187000  0.05087000  0.46988000  1.0 0.1679018072
H  H3  1  0.24572000  0.02111000  0.59774000  1.0 0.1679018072
H  H4  1  0.27909000  0.05895000  0.57499000  1.0 0.1679018072
H  H5  1  0.13569000  0.08280000  0.24612000  1.0 0.1346155173
H  H6  1  0.33452000  0.18631000  0.12025000  1.0 0.069195682
H  H7  1  0.35675000  0.16405000  0.99581000  1.0 0.069195682
H  H8  1  0.31440000  0.14397000  0.05809000  1.0 0.069195682
H  H9  1  0.77605000  0.82715000  0.25469000  1.0 0.1540106061
H  H10  1  0.75813000  0.94913000  0.46988000  1.0 0.1645912445
H  H11  1  0.75428000  0.97889000  0.59774000  1.0 0.1679018072
H  H12  1  0.72091000  0.94105000  0.57499000  1.0 0.1679018072
H  H13  1  0.86431000  0.91720000  0.24612000  1.0 0.1355350978
H  H14  1  0.66548000  0.81369000  0.12025000  1.0 0.069195682
H  H15  1  0.64325000  0.83595000  0.99581000  1.0 0.069195682
H  H16  1  0.68560000  0.85603000  0.05809000  1.0 0.069195682
H  H17  1  0.67285000  0.27605000  0.75469000  1.0 0.1540106061
H  H18  1  0.55087000  0.25813000  0.96988000  1.0 0.1679018072
H  H19  1  0.52111000  0.25428000  0.09774000  1.0 0.1679018072
H  H20  1  0.55895000  0.22091000  0.07499000  1.0 0.1679018072
H  H21  1  0.58280000  0.36431000  0.74612000  1.0 0.1355350978
H  H22  1  0.68631000  0.16548000  0.62025000  1.0 0.069195682
H  H23  1  0.66405000  0.14325000  0.49581000  1.0 0.069195682
H  H24  1  0.64397000  0.18560000  0.55809000  1.0 0.069195682
H  H25  1  0.32715000  0.72395000  0.75469000  1.0 0.1540106061
H  H26  1  0.44913000  0.74187000  0.96988000  1.0 0.1645912445
H  H27  1  0.47889000  0.74572000  0.09774000  1.0 0.1679018072
H  H28  1  0.44105000  0.77909000  0.07499000  1.0 0.1679018072
H  H29  1  0.41720000  0.63569000  0.74612000  1.0 0.1355350978
H  H30  1  0.31369000  0.83452000  0.62025000  1.0 0.069195682
H  H31  1  0.33595000  0.85675000  0.49581000  1.0 0.069195682
H  H32  1  0.35603000  0.81440000  0.55809000  1.0 0.069195682
H  H33  1  0.72395000  0.32715000  0.74531000  1.0 0.1540106061
H  H34  1  0.74187000  0.44913000  0.53012000  1.0 0.1645912445
H  H35  1  0.74572000  0.47889000  0.40226000  1.0 0.1679018072
H  H36  1  0.77909000  0.44105000  0.42501000  1.0 0.1679018072
H  H37  1  0.63569000  0.41720000  0.75388000  1.0 0.1355350978
H  H38  1  0.83452000  0.31369000  0.87975000  1.0 0.069195682
H  H39  1  0.85675000  0.33595000  0.00419000  1.0 0.069195682
H  H40  1  0.81440000  0.35603000  0.94191000  1.0 0.069195682
H  H41  1  0.27605000  0.67285000  0.74531000  1.0 0.1540106061
H  H42  1  0.25813000  0.55087000  0.53012000  1.0 0.1679018072
H  H43  1  0.25428000  0.52111000  0.40226000  1.0 0.1679018072
H  H44  1  0.22091000  0.55895000  0.42501000  1.0 0.1679018072
H  H45  1  0.36431000  0.58280000  0.75388000  1.0 0.1355350978
H  H46  1  0.16548000  0.68631000  0.87975000  1.0 0.069195682
H  H47  1  0.14325000  0.66405000  0.00419000  1.0 0.069195682
H  H48  1  0.18560000  0.64397000  0.94191000  1.0 0.069195682
H  H49  1  0.17285000  0.22395000  0.24531000  1.0 0.1540106061
H  H50  1  0.05087000  0.24187000  0.03012000  1.0 0.1645912445
H  H51  1  0.02111000  0.24572000  0.90226000  1.0 0.1679018072
H  H52  1  0.05895000  0.27909000  0.92501000  1.0 0.1679018072
H  H53  1  0.08280000  0.13569000  0.25388000  1.0 0.1346155173
H  H54  1  0.18631000  0.33452000  0.37975000  1.0 0.069195682
H  H55  1  0.16405000  0.35675000  0.50419000  1.0 0.069195682
H  H56  1  0.14397000  0.31440000  0.44191000  1.0 0.069195682
H  H57  1  0.82715000  0.77605000  0.24531000  1.0 0.1540106061
H  H58  1  0.94913000  0.75813000  0.03012000  1.0 0.1679018072
H  H59  1  0.97889000  0.75428000  0.90226000  1.0 0.1679018072
H  H60  1  0.94105000  0.72091000  0.92501000  1.0 0.1679018072
H  H61  1  0.91720000  0.86431000  0.25388000  1.0 0.1355350978
H  H62  1  0.81369000  0.66548000  0.37975000  1.0 0.069195682
H  H63  1  0.83595000  0.64325000  0.50419000  1.0 0.069195682
H  H64  1  0.85603000  0.68560000  0.44191000  1.0 0.069195682
H  H65  1  0.27605000  0.32715000  0.24531000  1.0 0.1540106061
H  H66  1  0.25813000  0.44913000  0.03012000  1.0 0.1645912445
H  H67  1  0.25428000  0.47889000  0.90226000  1.0 0.1679018072
H  H68  1  0.22091000  0.44105000  0.92501000  1.0 0.1679018072
H  H69  1  0.36431000  0.41720000  0.25388000  1.0 0.1355350978
H  H70  1  0.16548000  0.31369000  0.37975000  1.0 0.069195682
H  H71  1  0.14325000  0.33595000  0.50419000  1.0 0.069195682
H  H72  1  0.18560000  0.35603000  0.44191000  1.0 0.069195682
H  H73  1  0.72395000  0.67285000  0.24531000  1.0 0.1540106061
H  H74  1  0.74187000  0.55087000  0.03012000  1.0 0.1679018072
H  H75  1  0.74572000  0.52111000  0.90226000  1.0 0.1679018072
H  H76  1  0.77909000  0.55895000  0.92501000  1.0 0.1679018072
H  H77  1  0.63569000  0.58280000  0.25388000  1.0 0.1355350978
H  H78  1  0.83452000  0.68631000  0.37975000  1.0 0.069195682
H  H79  1  0.85675000  0.66405000  0.50419000  1.0 0.069195682
H  H80  1  0.81440000  0.64397000  0.44191000  1.0 0.069195682
H  H81  1  0.82715000  0.22395000  0.74531000  1.0 0.1540106061
H  H82  1  0.94913000  0.24187000  0.53012000  1.0 0.1679018072
H  H83  1  0.97889000  0.24572000  0.40226000  1.0 0.1679018072
H  H84  1  0.94105000  0.27909000  0.42501000  1.0 0.1679018072
H  H85  1  0.91720000  0.13569000  0.75388000  1.0 0.1355350978
H  H86  1  0.81369000  0.33452000  0.87975000  1.0 0.069195682
H  H87  1  0.83595000  0.35675000  0.00419000  1.0 0.069195682
H  H88  1  0.85603000  0.31440000  0.94191000  1.0 0.069195682
H  H89  1  0.17285000  0.77605000  0.74531000  1.0 0.1540106061
H  H90  1  0.05087000  0.75813000  0.53012000  1.0 0.1679018072
H  H91  1  0.02111000  0.75428000  0.40226000  1.0 0.1679018072
H  H92  1  0.05895000  0.72091000  0.42501000  1.0 0.1679018072
H  H93  1  0.08280000  0.86431000  0.75388000  1.0 0.1355350978
H  H94  1  0.18631000  0.66548000  0.87975000  1.0 0.069195682
H  H95  1  0.16405000  0.64325000  0.00419000  1.0 0.069195682
H  H96  1  0.14397000  0.68560000  0.94191000  1.0 0.069195682
H  H97  1  0.77605000  0.17285000  0.75469000  1.0 0.1540106061
H  H98  1  0.75813000  0.05087000  0.96988000  1.0 0.1679018072
H  H99  1  0.75428000  0.02111000  0.09774000  1.0 0.1679018072
H  H100  1  0.72091000  0.05895000  0.07499000  1.0 0.1679018072
H  H101  1  0.86431000  0.08280000  0.74612000  1.0 0.1355350978
H  H102  1  0.66548000  0.18631000  0.62025000  1.0 0.069195682
H  H103  1  0.64325000  0.16405000  0.49581000  1.0 0.069195682
H  H104  1  0.68560000  0.14397000  0.55809000  1.0 0.069195682
H  H105  1  0.22395000  0.82715000  0.75469000  1.0 0.1540106061
H  H106  1  0.24187000  0.94913000  0.96988000  1.0 0.1645912445
H  H107  1  0.24572000  0.97889000  0.09774000  1.0 0.1679018072
H  H108  1  0.27909000  0.94105000  0.07499000  1.0 0.1679018072
H  H109  1  0.13569000  0.91720000  0.74612000  1.0 0.1355350978
H  H110  1  0.33452000  0.81369000  0.62025000  1.0 0.069195682
H  H111  1  0.35675000  0.83595000  0.49581000  1.0 0.069195682
H  H112  1  0.31440000  0.85603000  0.55809000  1.0 0.069195682
H  H113  1  0.32715000  0.27605000  0.25469000  1.0 0.1540106061
H  H114  1  0.44913000  0.25813000  0.46988000  1.0 0.1679018072
H  H115  1  0.47889000  0.25428000  0.59774000  1.0 0.1679018072
H  H116  1  0.44105000  0.22091000  0.57499000  1.0 0.1679018072
H  H117  1  0.41720000  0.36431000  0.24612000  1.0 0.1355350978
H  H118  1  0.31369000  0.16548000  0.12025000  1.0 0.069195682
H  H119  1  0.33595000  0.14325000  0.99581000  1.0 0.069195682
H  H120  1  0.35603000  0.18560000  0.05809000  1.0 0.069195682
H  H121  1  0.67285000  0.72395000  0.25469000  1.0 0.1540106061
H  H122  1  0.55087000  0.74187000  0.46988000  1.0 0.1679018072
H  H123  1  0.52111000  0.74572000  0.59774000  1.0 0.1679018072
H  H124  1  0.55895000  0.77909000  0.57499000  1.0 0.1679018072
H  H125  1  0.58280000  0.63569000  0.24612000  1.0 0.1355350978
H  H126  1  0.68631000  0.83452000  0.12025000  1.0 0.069195682
H  H127  1  0.66405000  0.85675000  0.99581000  1.0 0.069195682
H  H128  1  0.64397000  0.81440000  0.05809000  1.0 0.069195682
C  C1  1  0.29080000  0.00680000  0.45480000  1.0 0.3335995393
C  C2  1  0.22020000  0.08810000  0.21790000  1.0 0.539230439
C  C3  1  0.18620000  0.12210000  0.23590000  1.0 -0.0262342378
C  C4  1  0.19500000  0.16430000  0.24820000  1.0 -0.0976978713
C  C5  1  0.26180000  0.03720000  0.53120000  1.0 -0.5000237235
C  C6  1  0.14390000  0.11190000  0.24550000  1.0 -0.0976978713
C  C7  1  0.70920000  0.99320000  0.45480000  1.0 0.3335995393
C  C8  1  0.77980000  0.91190000  0.21790000  1.0 0.539230439
C  C9  1  0.81380000  0.87790000  0.23590000  1.0 -0.0262342378
C  C10  1  0.80500000  0.83570000  0.24820000  1.0 -0.0976978713
C  C11  1  0.73820000  0.96280000  0.53120000  1.0 -0.5000237235
C  C12  1  0.85610000  0.88810000  0.24550000  1.0 -0.0976978713
C  C13  1  0.50680000  0.20920000  0.95480000  1.0 0.3335995393
C  C14  1  0.58810000  0.27980000  0.71790000  1.0 0.539230439
C  C15  1  0.62210000  0.31380000  0.73590000  1.0 -0.0262342378
C  C16  1  0.66430000  0.30500000  0.74820000  1.0 -0.0976978713
C  C17  1  0.53720000  0.23820000  0.03120000  1.0 -0.5000237235
C  C18  1  0.61190000  0.35610000  0.74550000  1.0 -0.0976978713
C  C19  1  0.49320000  0.79080000  0.95480000  1.0 0.3335995393
C  C20  1  0.41190000  0.72020000  0.71790000  1.0 0.539230439
C  C21  1  0.37790000  0.68620000  0.73590000  1.0 -0.0262342378
C  C22  1  0.33570000  0.69500000  0.74820000  1.0 -0.0976978713
C  C23  1  0.46280000  0.76180000  0.03120000  1.0 -0.5000237235
C  C24  1  0.38810000  0.64390000  0.74550000  1.0 -0.0976978713
C  C25  1  0.79080000  0.49320000  0.54520000  1.0 0.3335995393
C  C26  1  0.72020000  0.41190000  0.78210000  1.0 0.539230439
C  C27  1  0.68620000  0.37790000  0.76410000  1.0 -0.0262342378
C  C28  1  0.69500000  0.33570000  0.75180000  1.0 -0.0976978713
C  C29  1  0.76180000  0.46280000  0.46880000  1.0 -0.5000237235
C  C30  1  0.64390000  0.38810000  0.75450000  1.0 -0.0976978713
C  C31  1  0.20920000  0.50680000  0.54520000  1.0 0.3335995393
C  C32  1  0.27980000  0.58810000  0.78210000  1.0 0.539230439
C  C33  1  0.31380000  0.62210000  0.76410000  1.0 -0.0262342378
C  C34  1  0.30500000  0.66430000  0.75180000  1.0 -0.0976978713
C  C35  1  0.23820000  0.53720000  0.46880000  1.0 -0.5000237235
C  C36  1  0.35610000  0.61190000  0.75450000  1.0 -0.0976978713
C  C37  1  0.00680000  0.29080000  0.04520000  1.0 0.3335995393
C  C38  1  0.08810000  0.22020000  0.28210000  1.0 0.539230439
C  C39  1  0.12210000  0.18620000  0.26410000  1.0 -0.0262342378
C  C40  1  0.16430000  0.19500000  0.25180000  1.0 -0.0976978713
C  C41  1  0.03720000  0.26180000  0.96880000  1.0 -0.5000237235
C  C42  1  0.11190000  0.14390000  0.25450000  1.0 -0.0976978713
C  C43  1  0.99320000  0.70920000  0.04520000  1.0 0.3335995393
C  C44  1  0.91190000  0.77980000  0.28210000  1.0 0.539230439
C  C45  1  0.87790000  0.81380000  0.26410000  1.0 -0.0262342378
C  C46  1  0.83570000  0.80500000  0.25180000  1.0 -0.0976978713
C  C47  1  0.96280000  0.73820000  0.96880000  1.0 -0.5000237235
C  C48  1  0.88810000  0.85610000  0.25450000  1.0 -0.0976978713
C  C49  1  0.20920000  0.49320000  0.04520000  1.0 0.3335995393
C  C50  1  0.27980000  0.41190000  0.28210000  1.0 0.539230439
C  C51  1  0.31380000  0.37790000  0.26410000  1.0 -0.0262342378
C  C52  1  0.30500000  0.33570000  0.25180000  1.0 -0.0976978713
C  C53  1  0.23820000  0.46280000  0.96880000  1.0 -0.5000237235
C  C54  1  0.35610000  0.38810000  0.25450000  1.0 -0.0976978713
C  C55  1  0.79080000  0.50680000  0.04520000  1.0 0.3335995393
C  C56  1  0.72020000  0.58810000  0.28210000  1.0 0.539230439
C  C57  1  0.68620000  0.62210000  0.26410000  1.0 -0.0262342378
C  C58  1  0.69500000  0.66430000  0.25180000  1.0 -0.0949859851
C  C59  1  0.76180000  0.53720000  0.96880000  1.0 -0.5000237235
C  C60  1  0.64390000  0.61190000  0.25450000  1.0 -0.0976978713
C  C61  1  0.99320000  0.29080000  0.54520000  1.0 0.3335995393
C  C62  1  0.91190000  0.22020000  0.78210000  1.0 0.539230439
C  C63  1  0.87790000  0.18620000  0.76410000  1.0 -0.0262342378
C  C64  1  0.83570000  0.19500000  0.75180000  1.0 -0.0976978713
C  C65  1  0.96280000  0.26180000  0.46880000  1.0 -0.5000237235
C  C66  1  0.88810000  0.14390000  0.75450000  1.0 -0.0976978713
C  C67  1  0.00680000  0.70920000  0.54520000  1.0 0.3335995393
C  C68  1  0.08810000  0.77980000  0.78210000  1.0 0.539230439
C  C69  1  0.12210000  0.81380000  0.76410000  1.0 -0.0262342378
C  C70  1  0.16430000  0.80500000  0.75180000  1.0 -0.0976978713
C  C71  1  0.03720000  0.73820000  0.46880000  1.0 -0.5000237235
C  C72  1  0.11190000  0.85610000  0.75450000  1.0 -0.0976978713
C  C73  1  0.70920000  0.00680000  0.95480000  1.0 0.3352056063
C  C74  1  0.77980000  0.08810000  0.71790000  1.0 0.539230439
C  C75  1  0.81380000  0.12210000  0.73590000  1.0 -0.0262342378
C  C76  1  0.80500000  0.16430000  0.74820000  1.0 -0.0976978713
C  C77  1  0.73820000  0.03720000  0.03120000  1.0 -0.5000237235
C  C78  1  0.85610000  0.11190000  0.74550000  1.0 -0.0976978713
C  C79  1  0.29080000  0.99320000  0.95480000  1.0 0.3335995393
C  C80  1  0.22020000  0.91190000  0.71790000  1.0 0.539230439
C  C81  1  0.18620000  0.87790000  0.73590000  1.0 -0.0262342378
C  C82  1  0.19500000  0.83570000  0.74820000  1.0 -0.0976978713
C  C83  1  0.26180000  0.96280000  0.03120000  1.0 -0.5000237235
C  C84  1  0.14390000  0.88810000  0.74550000  1.0 -0.0976978713
C  C85  1  0.49320000  0.20920000  0.45480000  1.0 0.3335995393
C  C86  1  0.41190000  0.27980000  0.21790000  1.0 0.539230439
C  C87  1  0.37790000  0.31380000  0.23590000  1.0 -0.0262342378
C  C88  1  0.33570000  0.30500000  0.24820000  1.0 -0.0976978713
C  C89  1  0.46280000  0.23820000  0.53120000  1.0 -0.5000237235
C  C90  1  0.38810000  0.35610000  0.24550000  1.0 -0.0976978713
C  C91  1  0.50680000  0.79080000  0.45480000  1.0 0.3335995393
C  C92  1  0.58810000  0.72020000  0.21790000  1.0 0.539230439
C  C93  1  0.62210000  0.68620000  0.23590000  1.0 -0.0262342378
C  C94  1  0.66430000  0.69500000  0.24820000  1.0 -0.0949859851
C  C95  1  0.53720000  0.76180000  0.53120000  1.0 -0.5000237235
C  C96  1  0.61190000  0.64390000  0.24550000  1.0 -0.0976978713
C  C97  1  0.36790000  0.13210000  0.17050000  1.0 0.2541368904
C  C98  1  0.34100000  0.15900000  0.07800000  1.0 -0.2874987208
C  C99  1  0.63210000  0.86790000  0.17050000  1.0 0.2541368904
C  C100  1  0.65900000  0.84100000  0.07800000  1.0 -0.2874987208
C  C101  1  0.63210000  0.13210000  0.67050000  1.0 0.2555448628
C  C102  1  0.65900000  0.15900000  0.57800000  1.0 -0.2874987208
C  C103  1  0.36790000  0.86790000  0.67050000  1.0 0.2541368904
C  C104  1  0.34100000  0.84100000  0.57800000  1.0 -0.2874987208
C  C105  1  0.86790000  0.36790000  0.82950000  1.0 0.2541368904
C  C106  1  0.84100000  0.34100000  0.92200000  1.0 -0.2874987208
C  C107  1  0.13210000  0.63210000  0.82950000  1.0 0.2541368904
C  C108  1  0.15900000  0.65900000  0.92200000  1.0 -0.2874987208
C  C109  1  0.13210000  0.36790000  0.32950000  1.0 0.2541368904
C  C110  1  0.15900000  0.34100000  0.42200000  1.0 -0.2874987208
C  C111  1  0.86790000  0.63210000  0.32950000  1.0 0.2541368904
C  C112  1  0.84100000  0.65900000  0.42200000  1.0 -0.2874987208
N  N1  1  0.30640000  0.01140000  0.33700000  1.0 -0.2529214852
N  N2  1  0.30670000  0.97070000  0.51170000  1.0 -0.2434667516
N  N3  1  0.35620000  0.09220000  0.21290000  1.0 -0.279267528
N  N4  1  0.33270000  0.95250000  0.42090000  1.0 -0.0441936614
N  N5  1  0.33240000  0.97680000  0.31560000  1.0 -0.0596337589
N  N6  1  0.39110000  0.07870000  0.28550000  1.0 -0.0596337589
N  N7  1  0.69360000  0.98860000  0.33700000  1.0 -0.2529214852
N  N8  1  0.69330000  0.02930000  0.51170000  1.0 -0.2434667516
N  N9  1  0.64380000  0.90780000  0.21290000  1.0 -0.279267528
N  N10  1  0.66730000  0.04750000  0.42090000  1.0 -0.0441936614
N  N11  1  0.66760000  0.02320000  0.31560000  1.0 -0.0596337589
N  N12  1  0.60890000  0.92130000  0.28550000  1.0 -0.0596337589
N  N13  1  0.51140000  0.19360000  0.83700000  1.0 -0.2529214852
N  N14  1  0.47070000  0.19330000  0.01170000  1.0 -0.2434667516
N  N15  1  0.59220000  0.14380000  0.71290000  1.0 -0.279267528
N  N16  1  0.45250000  0.16730000  0.92090000  1.0 -0.0441936614
N  N17  1  0.47680000  0.16760000  0.81560000  1.0 -0.0596337589
N  N18  1  0.57870000  0.10890000  0.78550000  1.0 -0.0596337589
N  N19  1  0.48860000  0.80640000  0.83700000  1.0 -0.2529214852
N  N20  1  0.52930000  0.80670000  0.01170000  1.0 -0.2434667516
N  N21  1  0.40780000  0.85620000  0.71290000  1.0 -0.279267528
N  N22  1  0.54750000  0.83270000  0.92090000  1.0 -0.0441936614
N  N23  1  0.52320000  0.83240000  0.81560000  1.0 -0.0596337589
N  N24  1  0.42130000  0.89110000  0.78550000  1.0 -0.0596337589
N  N25  1  0.80640000  0.48860000  0.66300000  1.0 -0.2529214852
N  N26  1  0.80670000  0.52930000  0.48830000  1.0 -0.2434667516
N  N27  1  0.85620000  0.40780000  0.78710000  1.0 -0.279267528
N  N28  1  0.83270000  0.54750000  0.57910000  1.0 -0.0441936614
N  N29  1  0.83240000  0.52320000  0.68440000  1.0 -0.0596337589
N  N30  1  0.89110000  0.42130000  0.71450000  1.0 -0.0596337589
N  N31  1  0.19360000  0.51140000  0.66300000  1.0 -0.2529214852
N  N32  1  0.19330000  0.47070000  0.48830000  1.0 -0.2434667516
N  N33  1  0.14380000  0.59220000  0.78710000  1.0 -0.279267528
N  N34  1  0.16730000  0.45250000  0.57910000  1.0 -0.0441936614
N  N35  1  0.16760000  0.47680000  0.68440000  1.0 -0.0596337589
N  N36  1  0.10890000  0.57870000  0.71450000  1.0 -0.0596337589
N  N37  1  0.01140000  0.30640000  0.16300000  1.0 -0.2529214852
N  N38  1  0.97070000  0.30670000  0.98830000  1.0 -0.2434667516
N  N39  1  0.09220000  0.35620000  0.28710000  1.0 -0.279267528
N  N40  1  0.95250000  0.33270000  0.07910000  1.0 -0.0441936614
N  N41  1  0.97680000  0.33240000  0.18440000  1.0 -0.0596337589
N  N42  1  0.07870000  0.39110000  0.21450000  1.0 -0.0596337589
N  N43  1  0.98860000  0.69360000  0.16300000  1.0 -0.2529214852
N  N44  1  0.02930000  0.69330000  0.98830000  1.0 -0.2434667516
N  N45  1  0.90780000  0.64380000  0.28710000  1.0 -0.279267528
N  N46  1  0.04750000  0.66730000  0.07910000  1.0 -0.0441936614
N  N47  1  0.02320000  0.66760000  0.18440000  1.0 -0.0596337589
N  N48  1  0.92130000  0.60890000  0.21450000  1.0 -0.0596337589
N  N49  1  0.19360000  0.48860000  0.16300000  1.0 -0.2529214852
N  N50  1  0.19330000  0.52930000  0.98830000  1.0 -0.2434667516
N  N51  1  0.14380000  0.40780000  0.28710000  1.0 -0.279267528
N  N52  1  0.16730000  0.54750000  0.07910000  1.0 -0.0441936614
N  N53  1  0.16760000  0.52320000  0.18440000  1.0 -0.0596337589
N  N54  1  0.10890000  0.42130000  0.21450000  1.0 -0.0596337589
N  N55  1  0.80640000  0.51140000  0.16300000  1.0 -0.2529214852
N  N56  1  0.80670000  0.47070000  0.98830000  1.0 -0.2434667516
N  N57  1  0.85620000  0.59220000  0.28710000  1.0 -0.279267528
N  N58  1  0.83270000  0.45250000  0.07910000  1.0 -0.0441936614
N  N59  1  0.83240000  0.47680000  0.18440000  1.0 -0.0596337589
N  N60  1  0.89110000  0.57870000  0.21450000  1.0 -0.0596337589
N  N61  1  0.98860000  0.30640000  0.66300000  1.0 -0.2529214852
N  N62  1  0.02930000  0.30670000  0.48830000  1.0 -0.2434667516
N  N63  1  0.90780000  0.35620000  0.78710000  1.0 -0.279267528
N  N64  1  0.04750000  0.33270000  0.57910000  1.0 -0.0455582821
N  N65  1  0.02320000  0.33240000  0.68440000  1.0 -0.0596337589
N  N66  1  0.92130000  0.39110000  0.71450000  1.0 -0.0596337589
N  N67  1  0.01140000  0.69360000  0.66300000  1.0 -0.2529214852
N  N68  1  0.97070000  0.69330000  0.48830000  1.0 -0.2434667516
N  N69  1  0.09220000  0.64380000  0.78710000  1.0 -0.279267528
N  N70  1  0.95250000  0.66730000  0.57910000  1.0 -0.0441936614
N  N71  1  0.97680000  0.66760000  0.68440000  1.0 -0.0596337589
N  N72  1  0.07870000  0.60890000  0.71450000  1.0 -0.0596337589
N  N73  1  0.69360000  0.01140000  0.83700000  1.0 -0.2529214852
N  N74  1  0.69330000  0.97070000  0.01170000  1.0 -0.2434667516
N  N75  1  0.64380000  0.09220000  0.71290000  1.0 -0.279267528
N  N76  1  0.66730000  0.95250000  0.92090000  1.0 -0.0441936614
N  N77  1  0.66760000  0.97680000  0.81560000  1.0 -0.0596337589
N  N78  1  0.60890000  0.07870000  0.78550000  1.0 -0.0596337589
N  N79  1  0.30640000  0.98860000  0.83700000  1.0 -0.2529214852
N  N80  1  0.30670000  0.02930000  0.01170000  1.0 -0.2434667516
N  N81  1  0.35620000  0.90780000  0.71290000  1.0 -0.279267528
N  N82  1  0.33270000  0.04750000  0.92090000  1.0 -0.0455582821
N  N83  1  0.33240000  0.02320000  0.81560000  1.0 -0.0596337589
N  N84  1  0.39110000  0.92130000  0.78550000  1.0 -0.0596337589
N  N85  1  0.48860000  0.19360000  0.33700000  1.0 -0.2529214852
N  N86  1  0.52930000  0.19330000  0.51170000  1.0 -0.2434667516
N  N87  1  0.40780000  0.14380000  0.21290000  1.0 -0.279267528
N  N88  1  0.54750000  0.16730000  0.42090000  1.0 -0.0441936614
N  N89  1  0.52320000  0.16760000  0.31560000  1.0 -0.0596337589
N  N90  1  0.42130000  0.10890000  0.28550000  1.0 -0.0596337589
N  N91  1  0.51140000  0.80640000  0.33700000  1.0 -0.2529214852
N  N92  1  0.47070000  0.80670000  0.51170000  1.0 -0.2434667516
N  N93  1  0.59220000  0.85620000  0.21290000  1.0 -0.279267528
N  N94  1  0.45250000  0.83270000  0.42090000  1.0 -0.0441936614
N  N95  1  0.47680000  0.83240000  0.31560000  1.0 -0.0596337589
N  N96  1  0.57870000  0.89110000  0.28550000  1.0 -0.0596337589
O  O1  1  0.25770000  0.10070000  0.21590000  1.0 -0.4665514314
O  O2  1  0.21010000  0.04940000  0.19840000  1.0 -0.4513114103
O  O3  1  0.74230000  0.89930000  0.21590000  1.0 -0.4665514314
O  O4  1  0.78990000  0.95060000  0.19840000  1.0 -0.4513114103
O  O5  1  0.60070000  0.24230000  0.71590000  1.0 -0.4665514314
O  O6  1  0.54940000  0.28990000  0.69840000  1.0 -0.4513114103
O  O7  1  0.39930000  0.75770000  0.71590000  1.0 -0.4665514314
O  O8  1  0.45060000  0.71010000  0.69840000  1.0 -0.4513114103
O  O9  1  0.75770000  0.39930000  0.78410000  1.0 -0.4665514314
O  O10  1  0.71010000  0.45060000  0.80160000  1.0 -0.4513114103
O  O11  1  0.24230000  0.60070000  0.78410000  1.0 -0.4665514314
O  O12  1  0.28990000  0.54940000  0.80160000  1.0 -0.4513114103
O  O13  1  0.10070000  0.25770000  0.28410000  1.0 -0.4665514314
O  O14  1  0.04940000  0.21010000  0.30160000  1.0 -0.4513114103
O  O15  1  0.89930000  0.74230000  0.28410000  1.0 -0.4665514314
O  O16  1  0.95060000  0.78990000  0.30160000  1.0 -0.4513114103
O  O17  1  0.24230000  0.39930000  0.28410000  1.0 -0.4665514314
O  O18  1  0.28990000  0.45060000  0.30160000  1.0 -0.4513114103
O  O19  1  0.75770000  0.60070000  0.28410000  1.0 -0.4665514314
O  O20  1  0.71010000  0.54940000  0.30160000  1.0 -0.4513114103
O  O21  1  0.89930000  0.25770000  0.78410000  1.0 -0.4665514314
O  O22  1  0.95060000  0.21010000  0.80160000  1.0 -0.4513114103
O  O23  1  0.10070000  0.74230000  0.78410000  1.0 -0.4665514314
O  O24  1  0.04940000  0.78990000  0.80160000  1.0 -0.4513114103
O  O25  1  0.74230000  0.10070000  0.71590000  1.0 -0.4665514314
O  O26  1  0.78990000  0.04940000  0.69840000  1.0 -0.4513114103
O  O27  1  0.25770000  0.89930000  0.71590000  1.0 -0.4665514314
O  O28  1  0.21010000  0.95060000  0.69840000  1.0 -0.4513114103
O  O29  1  0.39930000  0.24230000  0.21590000  1.0 -0.4665514314
O  O30  1  0.45060000  0.28990000  0.19840000  1.0 -0.4513114103
O  O31  1  0.60070000  0.75770000  0.21590000  1.0 -0.4665514314
O  O32  1  0.54940000  0.71010000  0.19840000  1.0 -0.4513114103
