# DDEC6 charges by PACMAN v1.1 (https://github.com/mtap-research/PACMAN-charge/)
data_HIYYEU_ASR_pacman
_symmetry_space_group_name_H-M   'P 1'
_cell_length_a   14.71730000
_cell_length_b   14.71730000
_cell_length_c   18.75530000
_cell_angle_alpha   58.19760000
_cell_angle_beta   121.80200000
_cell_angle_gamma   117.49500000
_symmetry_Int_Tables_number   1
_chemical_formula_structural   Ni2MoH72(C5N2)8
_chemical_formula_sum   'Ni4 Mo2 H144 C80 N32'
_cell_volume   2837.42991971
_cell_formula_units_Z   2
loop_
 _symmetry_equiv_pos_site_id
 _symmetry_equiv_pos_as_xyz
  1  'x, y, z'
loop_
 _atom_site_type_symbol
 _atom_site_label
 _atom_site_symmetry_multiplicity
 _atom_site_fract_x
 _atom_site_fract_y
 _atom_site_fract_z
 _atom_site_occupancy
 _atom_site_charge
Ni  Ni1  1  0.00000000  0.00000000  0.50000000  1.0 0.5539369889
Ni  Ni2  1  0.00000000  0.00000000  0.00000000  1.0 0.5539369889
Ni  Ni3  1  0.00000000  0.50000000  0.00000000  1.0 0.5603930064
Ni  Ni4  1  0.50000000  0.00000000  0.50000000  1.0 0.5603930064
Mo  Mo1  1  0.15524000  0.15524000  0.25000000  1.0 0.6227835127
Mo  Mo2  1  0.84476000  0.84476000  0.75000000  1.0 0.6227835127
H  H1  1  0.11200000  0.00840000  0.65380000  1.0 0.2651123413
H  H2  1  0.00840000  0.11200000  0.84620000  1.0 0.2651123413
H  H3  1  0.88800000  0.99160000  0.34620000  1.0 0.2651123413
H  H4  1  0.99160000  0.88800000  0.15380000  1.0 0.2602817888
H  H5  1  0.10810000  0.90550000  0.51410000  1.0 0.2602817888
H  H6  1  0.90550000  0.10810000  0.98590000  1.0 0.2602817888
H  H7  1  0.89190000  0.09450000  0.48590000  1.0 0.2602817888
H  H8  1  0.09450000  0.89190000  0.01410000  1.0 0.2602817888
H  H9  1  0.12360000  0.68060000  0.93840000  1.0 0.2602817888
H  H10  1  0.68060000  0.12360000  0.56160000  1.0 0.2602817888
H  H11  1  0.87640000  0.31940000  0.06160000  1.0 0.2602817888
H  H12  1  0.31940000  0.87640000  0.43840000  1.0 0.2602817888
H  H13  1  0.12010000  0.46930000  0.15470000  1.0 0.2448281505
H  H14  1  0.46930000  0.12010000  0.34530000  1.0 0.2458326229
H  H15  1  0.87990000  0.53070000  0.84530000  1.0 0.2458326229
H  H16  1  0.53070000  0.87990000  0.65470000  1.0 0.2458326229
H  H17  1  0.25140000  0.02700000  0.58890000  1.0 0.1207720646
H  H18  1  0.02700000  0.25140000  0.91110000  1.0 0.1207720646
H  H19  1  0.74860000  0.97300000  0.41110000  1.0 0.1207720646
H  H20  1  0.97300000  0.74860000  0.08890000  1.0 0.1207720646
H  H21  1  0.27400000  0.98740000  0.69340000  1.0 0.1207720646
H  H22  1  0.98740000  0.27400000  0.80660000  1.0 0.1207720646
H  H23  1  0.72600000  0.01260000  0.30660000  1.0 0.1207720646
H  H24  1  0.01260000  0.72600000  0.19340000  1.0 0.1207720646
H  H25  1  0.12200000  0.83140000  0.68450000  1.0 0.1207720646
H  H26  1  0.83140000  0.12200000  0.81550000  1.0 0.1207720646
H  H27  1  0.87800000  0.16860000  0.31550000  1.0 0.1207720646
H  H28  1  0.16860000  0.87800000  0.18450000  1.0 0.1207720646
H  H29  1  0.20630000  0.83170000  0.65470000  1.0 0.1104484511
H  H30  1  0.83170000  0.20630000  0.84530000  1.0 0.1104484511
H  H31  1  0.79370000  0.16830000  0.34530000  1.0 0.1104484511
H  H32  1  0.16830000  0.79370000  0.15470000  1.0 0.1104484511
H  H33  1  0.95810000  0.74730000  0.56640000  1.0 0.0943151497
H  H34  1  0.74730000  0.95810000  0.93360000  1.0 0.0943151497
H  H35  1  0.04190000  0.25270000  0.43360000  1.0 0.0943151497
H  H36  1  0.25270000  0.04190000  0.06640000  1.0 0.0943151497
H  H37  1  0.95720000  0.84300000  0.39430000  1.0 0.1388249197
H  H38  1  0.84300000  0.95720000  0.10570000  1.0 0.1388249197
H  H39  1  0.04280000  0.15700000  0.60570000  1.0 0.1388249197
H  H40  1  0.15700000  0.04280000  0.89430000  1.0 0.1388249197
H  H41  1  0.88880000  0.71980000  0.43300000  1.0 0.1292229154
H  H42  1  0.71980000  0.88880000  0.06700000  1.0 0.1292229154
H  H43  1  0.11120000  0.28020000  0.56700000  1.0 0.1292229154
H  H44  1  0.28020000  0.11120000  0.93300000  1.0 0.1292229154
H  H45  1  0.11230000  0.68230000  0.63440000  1.0 0.1292229154
H  H46  1  0.68230000  0.11230000  0.86560000  1.0 0.1292229154
H  H47  1  0.88770000  0.31770000  0.36560000  1.0 0.1292229154
H  H48  1  0.31770000  0.88770000  0.13440000  1.0 0.1292229154
H  H49  1  0.99880000  0.61700000  0.57810000  1.0 0.1388249197
H  H50  1  0.61700000  0.99880000  0.92190000  1.0 0.1388249197
H  H51  1  0.00120000  0.38300000  0.42190000  1.0 0.1388249197
H  H52  1  0.38300000  0.00120000  0.07810000  1.0 0.1388249197
H  H53  1  0.09180000  0.69880000  0.53600000  1.0 0.1486784452
H  H54  1  0.69880000  0.09180000  0.96400000  1.0 0.1486784452
H  H55  1  0.90820000  0.30120000  0.46400000  1.0 0.1486784452
H  H56  1  0.30120000  0.90820000  0.03600000  1.0 0.1486784452
H  H57  1  0.30860000  0.21020000  0.55940000  1.0 0.1486784452
H  H58  1  0.21020000  0.30860000  0.94060000  1.0 0.1486784452
H  H59  1  0.69140000  0.78980000  0.44060000  1.0 0.1486784452
H  H60  1  0.78980000  0.69140000  0.05940000  1.0 0.1486784452
H  H61  1  0.26500000  0.31280000  0.52630000  1.0 0.1388249197
H  H62  1  0.31280000  0.26500000  0.97370000  1.0 0.1388249197
H  H63  1  0.73500000  0.68720000  0.47370000  1.0 0.1388249197
H  H64  1  0.68720000  0.73500000  0.02630000  1.0 0.1388249197
H  H65  1  0.19520000  0.22920000  0.47440000  1.0 0.1486784452
H  H66  1  0.22920000  0.19520000  0.02560000  1.0 0.1486784452
H  H67  1  0.80480000  0.77080000  0.52560000  1.0 0.1486784452
H  H68  1  0.77080000  0.80480000  0.97440000  1.0 0.1486784452
H  H69  1  0.21410000  0.13070000  0.72990000  1.0 0.1486784452
H  H70  1  0.13070000  0.21410000  0.77010000  1.0 0.1486784452
H  H71  1  0.78590000  0.86930000  0.27010000  1.0 0.1486784452
H  H72  1  0.86930000  0.78590000  0.22990000  1.0 0.1486784452
H  H73  1  0.28560000  0.24880000  0.68400000  1.0 0.1388249197
H  H74  1  0.24880000  0.28560000  0.81600000  1.0 0.1388249197
H  H75  1  0.71440000  0.75120000  0.31600000  1.0 0.1388249197
H  H76  1  0.75120000  0.71440000  0.18400000  1.0 0.1388249197
H  H77  1  0.31700000  0.13860000  0.71700000  1.0 0.1388249197
H  H78  1  0.13860000  0.31700000  0.78300000  1.0 0.1388249197
H  H79  1  0.68300000  0.86140000  0.28300000  1.0 0.1388249197
H  H80  1  0.86140000  0.68300000  0.21700000  1.0 0.1388249197
H  H81  1  0.25470000  0.54670000  0.09230000  1.0 0.1207720646
H  H82  1  0.54670000  0.25470000  0.40770000  1.0 0.1207720646
H  H83  1  0.74530000  0.45330000  0.90770000  1.0 0.1207720646
H  H84  1  0.45330000  0.74530000  0.59230000  1.0 0.1207720646
H  H85  1  0.29070000  0.67930000  0.04820000  1.0 0.1104484511
H  H86  1  0.67930000  0.29070000  0.45180000  1.0 0.1104484511
H  H87  1  0.70930000  0.32070000  0.95180000  1.0 0.1104484511
H  H88  1  0.32070000  0.70930000  0.54820000  1.0 0.1104484511
H  H89  1  0.15710000  0.69050000  0.07640000  1.0 0.1104484511
H  H90  1  0.69050000  0.15710000  0.42360000  1.0 0.1104484511
H  H91  1  0.84290000  0.30950000  0.92360000  1.0 0.1104484511
H  H92  1  0.30950000  0.84290000  0.57640000  1.0 0.1104484511
H  H93  1  0.23690000  0.61970000  0.17000000  1.0 0.1104484511
H  H94  1  0.61970000  0.23690000  0.33000000  1.0 0.1104484511
H  H95  1  0.76310000  0.38030000  0.83000000  1.0 0.1104484511
H  H96  1  0.38030000  0.76310000  0.67000000  1.0 0.1104484511
H  H97  1  0.99740000  0.56180000  0.13550000  1.0 0.0951116838
H  H98  1  0.56180000  0.99740000  0.36450000  1.0 0.0951116838
H  H99  1  0.00260000  0.43820000  0.86450000  1.0 0.0951116838
H  H100  1  0.43820000  0.00260000  0.63550000  1.0 0.0951116838
H  H101  1  0.96590000  0.33590000  0.20160000  1.0 0.1388249197
H  H102  1  0.33590000  0.96590000  0.29840000  1.0 0.1388249197
H  H103  1  0.03410000  0.66410000  0.79840000  1.0 0.1388249197
H  H104  1  0.66410000  0.03410000  0.70160000  1.0 0.1388249197
H  H105  1  0.91750000  0.38970000  0.22470000  1.0 0.1292229154
H  H106  1  0.38970000  0.91750000  0.27530000  1.0 0.1292229154
H  H107  1  0.08250000  0.61030000  0.77530000  1.0 0.1292229154
H  H108  1  0.61030000  0.08250000  0.72470000  1.0 0.1292229154
H  H109  1  0.16520000  0.58580000  0.25450000  1.0 0.1292229154
H  H110  1  0.58580000  0.16520000  0.24550000  1.0 0.1292229154
H  H111  1  0.83480000  0.41420000  0.74550000  1.0 0.1292229154
H  H112  1  0.41420000  0.83480000  0.75450000  1.0 0.1292229154
H  H113  1  0.05580000  0.53100000  0.27630000  1.0 0.1388249197
H  H114  1  0.53100000  0.05580000  0.22370000  1.0 0.1388249197
H  H115  1  0.94420000  0.46900000  0.72370000  1.0 0.1388249197
H  H116  1  0.46900000  0.94420000  0.77630000  1.0 0.1388249197
H  H117  1  0.13170000  0.45550000  0.30910000  1.0 0.157855288
H  H118  1  0.45550000  0.13170000  0.19090000  1.0 0.157855288
H  H119  1  0.86830000  0.54450000  0.69090000  1.0 0.157855288
H  H120  1  0.54450000  0.86830000  0.80910000  1.0 0.157855288
H  H121  1  0.22910000  0.77370000  0.85210000  1.0 0.1486784452
H  H122  1  0.77370000  0.22910000  0.64790000  1.0 0.1486784452
H  H123  1  0.77090000  0.22630000  0.14790000  1.0 0.1486784452
H  H124  1  0.22630000  0.77090000  0.35210000  1.0 0.1486784452
H  H125  1  0.26490000  0.70690000  0.82970000  1.0 0.1388249197
H  H126  1  0.70690000  0.26490000  0.67030000  1.0 0.1388249197
H  H127  1  0.73510000  0.29310000  0.17030000  1.0 0.1388249197
H  H128  1  0.29310000  0.73510000  0.32970000  1.0 0.1388249197
H  H129  1  0.32430000  0.71050000  0.92870000  1.0 0.1388249197
H  H130  1  0.71050000  0.32430000  0.57130000  1.0 0.1388249197
H  H131  1  0.67570000  0.28950000  0.07130000  1.0 0.1388249197
H  H132  1  0.28950000  0.67570000  0.42870000  1.0 0.1388249197
H  H133  1  0.28110000  0.51090000  0.00300000  1.0 0.1486784452
H  H134  1  0.51090000  0.28110000  0.49700000  1.0 0.1486784452
H  H135  1  0.71890000  0.48910000  0.99700000  1.0 0.1486784452
H  H136  1  0.48910000  0.71890000  0.50300000  1.0 0.1486784452
H  H137  1  0.22530000  0.49950000  0.90730000  1.0 0.1388249197
H  H138  1  0.49950000  0.22530000  0.59270000  1.0 0.1388249197
H  H139  1  0.77470000  0.50050000  0.09270000  1.0 0.1388249197
H  H140  1  0.50050000  0.77470000  0.40730000  1.0 0.1388249197
H  H141  1  0.15770000  0.43630000  0.97200000  1.0 0.1486784452
H  H142  1  0.43630000  0.15770000  0.52800000  1.0 0.1486784452
H  H143  1  0.84230000  0.56370000  0.02800000  1.0 0.1486784452
H  H144  1  0.56370000  0.84230000  0.47200000  1.0 0.1486784452
C  C1  1  0.09966000  0.29268000  0.13195000  1.0 -0.021038171
C  C2  1  0.29268000  0.09966000  0.36805000  1.0 -0.021038171
C  C3  1  0.90034000  0.70732000  0.86805000  1.0 -0.021038171
C  C4  1  0.70732000  0.90034000  0.63195000  1.0 -0.021038171
C  C5  1  0.21572000  0.98808000  0.63343000  1.0 -0.1186564845
C  C6  1  0.98808000  0.21572000  0.86657000  1.0 -0.1186564845
C  C7  1  0.78428000  0.01192000  0.36657000  1.0 -0.1186564845
C  C8  1  0.01192000  0.78428000  0.13343000  1.0 -0.1186564845
C  C9  1  0.15435000  0.87111000  0.63779000  1.0 -0.1385666682
C  C10  1  0.87111000  0.15435000  0.86221000  1.0 -0.1385666682
C  C11  1  0.84565000  0.12889000  0.36221000  1.0 -0.1385666682
C  C12  1  0.12889000  0.84565000  0.13779000  1.0 -0.1385666682
C  C13  1  0.00657000  0.78063000  0.53170000  1.0 0.1940355607
C  C14  1  0.78063000  0.00657000  0.96830000  1.0 0.1940355607
C  C15  1  0.99343000  0.21937000  0.46830000  1.0 0.1940355607
C  C16  1  0.21937000  0.99343000  0.03170000  1.0 0.1940355607
C  C17  1  0.91914000  0.79308000  0.43736000  1.0 -0.3446706227
C  C18  1  0.79308000  0.91914000  0.06264000  1.0 -0.3446706227
C  C19  1  0.08086000  0.20692000  0.56264000  1.0 -0.3446706227
C  C20  1  0.20692000  0.08086000  0.93736000  1.0 -0.3446706227
C  C21  1  0.17923000  0.16413000  0.59673000  1.0 0.3629207023
C  C22  1  0.16413000  0.17923000  0.90327000  1.0 0.3629207023
C  C23  1  0.82077000  0.83587000  0.40327000  1.0 0.3629207023
C  C24  1  0.83587000  0.82077000  0.09673000  1.0 0.3629207023
C  C25  1  0.05676000  0.68644000  0.57373000  1.0 -0.4938390843
C  C26  1  0.68644000  0.05676000  0.92627000  1.0 -0.4938390843
C  C27  1  0.94324000  0.31356000  0.42627000  1.0 -0.4938390843
C  C28  1  0.31356000  0.94324000  0.07373000  1.0 -0.4938390843
C  C29  1  0.24269000  0.23543000  0.53360000  1.0 -0.5110112123
C  C30  1  0.23543000  0.24269000  0.96640000  1.0 -0.5110112123
C  C31  1  0.75731000  0.76457000  0.46640000  1.0 -0.5110112123
C  C32  1  0.76457000  0.75731000  0.03360000  1.0 -0.5110112123
C  C33  1  0.25595000  0.17119000  0.69041000  1.0 -0.5110112123
C  C34  1  0.17119000  0.25595000  0.80959000  1.0 -0.5110112123
C  C35  1  0.74405000  0.82881000  0.30959000  1.0 -0.5110112123
C  C36  1  0.82881000  0.74405000  0.19041000  1.0 -0.5008912376
C  C37  1  0.22772000  0.61424000  0.05755000  1.0 -0.0883458397
C  C38  1  0.61424000  0.22772000  0.44245000  1.0 -0.0883458397
C  C39  1  0.77228000  0.38576000  0.94245000  1.0 -0.0883458397
C  C40  1  0.38576000  0.77228000  0.55755000  1.0 -0.0883458397
C  C41  1  0.17999000  0.62065000  0.10955000  1.0 -0.1186564845
C  C42  1  0.62065000  0.17999000  0.39045000  1.0 -0.1186564845
C  C43  1  0.82001000  0.37935000  0.89045000  1.0 -0.1186564845
C  C44  1  0.37935000  0.82001000  0.60955000  1.0 -0.1186564845
C  C45  1  0.03660000  0.50180000  0.17250000  1.0 0.2048027822
C  C46  1  0.50180000  0.03660000  0.32750000  1.0 0.2048027822
C  C47  1  0.96340000  0.49820000  0.82750000  1.0 0.2048027822
C  C48  1  0.49820000  0.96340000  0.67250000  1.0 0.2048027822
C  C49  1  0.93900000  0.40054000  0.17828000  1.0 -0.3638638888
C  C50  1  0.40054000  0.93900000  0.32172000  1.0 -0.3638638888
C  C51  1  0.06100000  0.59946000  0.82172000  1.0 -0.3638638888
C  C52  1  0.59946000  0.06100000  0.67828000  1.0 -0.3638638888
C  C53  1  0.16686000  0.60358000  0.90658000  1.0 0.3722802111
C  C54  1  0.60358000  0.16686000  0.59342000  1.0 0.3722802111
C  C55  1  0.83314000  0.39642000  0.09342000  1.0 0.3722802111
C  C56  1  0.39642000  0.83314000  0.40658000  1.0 0.3722802111
C  C57  1  0.10321000  0.52013000  0.26093000  1.0 -0.5008912376
C  C58  1  0.52013000  0.10321000  0.23907000  1.0 -0.5008912376
C  C59  1  0.89679000  0.47987000  0.73907000  1.0 -0.5008912376
C  C60  1  0.47987000  0.89679000  0.76093000  1.0 -0.5008912376
C  C61  1  0.25417000  0.70815000  0.87655000  1.0 -0.5156897596
C  C62  1  0.70815000  0.25417000  0.62345000  1.0 -0.5156897596
C  C63  1  0.74583000  0.29185000  0.12345000  1.0 -0.5110112123
C  C64  1  0.29185000  0.74583000  0.37655000  1.0 -0.5156897596
C  C65  1  0.21174000  0.50366000  0.95120000  1.0 -0.5156897596
C  C66  1  0.50366000  0.21174000  0.54880000  1.0 -0.5110112123
C  C67  1  0.78826000  0.49634000  0.04880000  1.0 -0.5156897596
C  C68  1  0.49634000  0.78826000  0.45120000  1.0 -0.5156897596
C  C69  1  0.10789000  0.11421000  0.35507000  1.0 -0.021038171
C  C70  1  0.11421000  0.10789000  0.14493000  1.0 -0.021038171
C  C71  1  0.89211000  0.88579000  0.64493000  1.0 -0.021038171
C  C72  1  0.88579000  0.89211000  0.85507000  1.0 -0.021038171
C  C73  1  0.23622000  0.29482000  0.29149000  1.0 -0.0590297031
C  C74  1  0.29482000  0.23622000  0.20851000  1.0 -0.0590297031
C  C75  1  0.76378000  0.70518000  0.70851000  1.0 -0.0590297031
C  C76  1  0.70518000  0.76378000  0.79149000  1.0 -0.0590297031
C  C77  1  0.11600000  0.97634000  0.30117000  1.0 -0.0590297031
C  C78  1  0.97634000  0.11600000  0.19883000  1.0 -0.0590297031
C  C79  1  0.88400000  0.02366000  0.69883000  1.0 -0.0590297031
C  C80  1  0.02366000  0.88400000  0.80117000  1.0 -0.0590297031
N  N1  1  0.13617000  0.04555000  0.60618000  1.0 -0.3638638888
N  N2  1  0.04555000  0.13617000  0.89382000  1.0 -0.3708307203
N  N3  1  0.86383000  0.95445000  0.39382000  1.0 -0.3638638888
N  N4  1  0.95445000  0.86383000  0.10618000  1.0 -0.3638638888
N  N5  1  0.06570000  0.87262000  0.54883000  1.0 -0.3081354789
N  N6  1  0.87262000  0.06570000  0.95117000  1.0 -0.3081354789
N  N7  1  0.93430000  0.12738000  0.45117000  1.0 -0.3081354789
N  N8  1  0.12738000  0.93430000  0.04883000  1.0 -0.3081354789
N  N9  1  0.13898000  0.61188000  0.96886000  1.0 -0.3761928371
N  N10  1  0.61188000  0.13898000  0.53114000  1.0 -0.3761928371
N  N11  1  0.86102000  0.38812000  0.03114000  1.0 -0.3761928371
N  N12  1  0.38812000  0.86102000  0.46886000  1.0 -0.3708307203
N  N13  1  0.08433000  0.52591000  0.11948000  1.0 -0.3201187841
N  N14  1  0.52591000  0.08433000  0.38052000  1.0 -0.3201187841
N  N15  1  0.91567000  0.47409000  0.88052000  1.0 -0.3201187841
N  N16  1  0.47409000  0.91567000  0.61948000  1.0 -0.3201187841
N  N17  1  0.08044000  0.08952000  0.41103000  1.0 -0.3708307203
N  N18  1  0.08952000  0.08044000  0.08897000  1.0 -0.3708307203
N  N19  1  0.91956000  0.91048000  0.58897000  1.0 -0.3708307203
N  N20  1  0.91048000  0.91956000  0.91103000  1.0 -0.3708307203
N  N21  1  0.28169000  0.36985000  0.31321000  1.0 -0.3708307203
N  N22  1  0.36985000  0.28169000  0.18679000  1.0 -0.3708307203
N  N23  1  0.71831000  0.63015000  0.68679000  1.0 -0.3708307203
N  N24  1  0.63015000  0.71831000  0.81321000  1.0 -0.3708307203
N  N25  1  0.09809000  0.88095000  0.32749000  1.0 -0.3933368913
N  N26  1  0.88095000  0.09809000  0.17251000  1.0 -0.3933368913
N  N27  1  0.90191000  0.11905000  0.67251000  1.0 -0.3933368913
N  N28  1  0.11905000  0.90191000  0.82749000  1.0 -0.3933368913
N  N29  1  0.06600000  0.36512000  0.06896000  1.0 -0.3708307203
N  N30  1  0.36512000  0.06600000  0.43104000  1.0 -0.3708307203
N  N31  1  0.93400000  0.63488000  0.93104000  1.0 -0.3708307203
N  N32  1  0.63488000  0.93400000  0.56896000  1.0 -0.3708307203
