# DDEC6 charges by PACMAN v1.1 (https://github.com/mtap-research/PACMAN-charge/)
data_HIYZEV_ASR_pacman
_symmetry_space_group_name_H-M   'P 1'
_cell_length_a   9.76400000
_cell_length_b   12.19800000
_cell_length_c   12.56400000
_cell_angle_alpha   62.38000000
_cell_angle_beta   67.67000000
_cell_angle_gamma   73.03200000
_symmetry_Int_Tables_number   1
_chemical_formula_structural   MnH4(C2O)4
_chemical_formula_sum   'Mn4 H16 C32 O16'
_cell_volume   1214.15673101
_cell_formula_units_Z   4
loop_
 _symmetry_equiv_pos_site_id
 _symmetry_equiv_pos_as_xyz
  1  'x, y, z'
loop_
 _atom_site_type_symbol
 _atom_site_label
 _atom_site_symmetry_multiplicity
 _atom_site_fract_x
 _atom_site_fract_y
 _atom_site_fract_z
 _atom_site_occupancy
 _atom_site_charge
Mn  Mn1  1  0.56329000  0.17195000  0.12592000  1.0 0.9353492334
Mn  Mn2  1  0.42629000  0.82582000  0.86648000  1.0 1.0353694036
Mn  Mn3  1  0.50370000  0.00625000  0.00394000  1.0 1.0463968589
Mn  Mn4  1  0.49386000  0.48646000  0.00261000  1.0 1.1368235423
H  H1  1  0.34002000  0.48349000  0.84986000  1.0 0.1098581179
H  H2  1  0.13408000  0.61028000  0.75236000  1.0 0.1098581179
H  H3  1  0.89637000  0.52410000  0.83012000  1.0 0.1196446306
H  H4  1  0.07607000  0.17775000  0.08810000  1.0 0.1196446306
H  H5  1  0.65933000  0.66705000  0.26399000  1.0 0.0928371957
H  H6  1  0.69614000  0.46970000  0.44804000  1.0 0.100192291
H  H7  1  0.63922000  0.47703000  0.65704000  1.0 0.1098581179
H  H8  1  0.52618000  0.87806000  0.49323000  1.0 0.1196446306
H  H9  1  0.65879000  0.51862000  0.14978000  1.0 0.1098581179
H  H10  1  0.86624000  0.38969000  0.24696000  1.0 0.100192291
H  H11  1  0.10454000  0.47668000  0.16770000  1.0 0.1196446306
H  H12  1  0.92358000  0.82340000  0.91337000  1.0 0.1196446306
H  H13  1  0.34050000  0.33234000  0.73663000  1.0 0.0928371957
H  H14  1  0.30470000  0.52821000  0.55170000  1.0 0.100192291
H  H15  1  0.36177000  0.52103000  0.34343000  1.0 0.1098581179
H  H16  1  0.47465000  0.11974000  0.50861000  1.0 0.1196446306
C  C1  1  0.22535000  0.32180000  0.97262000  1.0 -0.0388210789
C  C2  1  0.35920000  0.26459000  0.01885000  1.0 0.5692575052
C  C3  1  0.23749000  0.44512000  0.87890000  1.0 -0.090207563
C  C4  1  0.12275000  0.51579000  0.82562000  1.0 -0.0804026984
C  C5  1  0.98868000  0.46918000  0.86900000  1.0 -0.065700926
C  C6  1  0.96472000  0.35007000  0.96794000  1.0 -0.0306134011
C  C7  1  0.08763000  0.27298000  0.01562000  1.0 -0.1356705652
C  C8  1  0.80131000  0.32799000  0.01025000  1.0 0.5994614436
C  C9  1  0.57719000  0.90442000  0.24915000  1.0 0.5994614436
C  C10  1  0.59056000  0.78666000  0.36528000  1.0 -0.0306134011
C  C11  1  0.63716000  0.67005000  0.35464000  1.0 -0.090207563
C  C12  1  0.65789000  0.55948000  0.45801000  1.0 -0.0804026984
C  C13  1  0.62623000  0.56219000  0.57495000  1.0 -0.090207563
C  C14  1  0.57506000  0.67620000  0.59036000  1.0 -0.0461769105
C  C15  1  0.56165000  0.78849000  0.48389000  1.0 -0.1176090366
C  C16  1  0.53273000  0.66992000  0.72191000  1.0 0.5994614436
C  C17  1  0.77473000  0.68002000  0.02876000  1.0 -0.0388210789
C  C18  1  0.64151000  0.75057000  0.98147000  1.0 0.6137508228
C  C19  1  0.76156000  0.55649000  0.12089000  1.0 -0.090207563
C  C20  1  0.87723000  0.48416000  0.17392000  1.0 -0.090207563
C  C21  1  0.01097000  0.53094000  0.13049000  1.0 -0.0804026984
C  C22  1  0.03264000  0.65087000  0.03314000  1.0 -0.0388210789
C  C23  1  0.91137000  0.72831000  0.98581000  1.0 -0.1176090366
C  C24  1  0.19363000  0.67352000  0.98991000  1.0 0.5994614436
C  C25  1  0.42275000  0.09708000  0.75470000  1.0 0.6197628453
C  C26  1  0.41227000  0.21232000  0.63629000  1.0 -0.0388210789
C  C27  1  0.36384000  0.32927000  0.64583000  1.0 -0.090207563
C  C28  1  0.34325000  0.43861000  0.54178000  1.0 -0.0804026984
C  C29  1  0.37533000  0.43467000  0.42498000  1.0 -0.090207563
C  C30  1  0.42569000  0.31959000  0.41055000  1.0 -0.0388210789
C  C31  1  0.43968000  0.20884000  0.51836000  1.0 -0.1176090366
C  C32  1  0.46448000  0.32005000  0.28068000  1.0 0.5942931845
O  O1  1  0.41480000  0.14242000  0.06510000  1.0 -0.5827524588
O  O2  1  0.44371000  0.32858000  0.02426000  1.0 -0.5413100447
O  O3  1  0.70556000  0.42871000  0.98259000  1.0 -0.5616127626
O  O4  1  0.76338000  0.21702000  0.06659000  1.0 -0.5188909497
O  O5  1  0.54292000  0.89747000  0.16237000  1.0 -0.5902323948
O  O6  1  0.60655000  0.00593000  0.23958000  1.0 -0.4872889743
O  O7  1  0.49027000  0.77696000  0.73243000  1.0 -0.5413100447
O  O8  1  0.53882000  0.56224000  0.81309000  1.0 -0.5616127626
O  O9  1  0.60397000  0.87135000  0.94648000  1.0 -0.6030206011
O  O10  1  0.55753000  0.69307000  0.96924000  1.0 -0.5902323948
O  O11  1  0.28949000  0.57493000  0.01545000  1.0 -0.5616127626
O  O12  1  0.22724000  0.78704000  0.93309000  1.0 -0.5413100447
O  O13  1  0.38822000  0.99701000  0.76428000  1.0 -0.5188909497
O  O14  1  0.50271000  0.21283000  0.27155000  1.0 -0.5188909497
O  O15  1  0.45716000  0.42684000  0.18712000  1.0 -0.5616127626
O  O16  1  0.45721000  0.10362000  0.84216000  1.0 -0.6129065082
