# DDEC6 charges by PACMAN v1.1 (https://github.com/mtap-research/PACMAN-charge/)
data_HIZMUB_FSR_pacman
_symmetry_space_group_name_H-M   'P 1'
_cell_length_a   6.99960000
_cell_length_b   6.99960000
_cell_length_c   7.70330000
_cell_angle_alpha   90.00000000
_cell_angle_beta   90.00000000
_cell_angle_gamma   90.00000000
_symmetry_Int_Tables_number   1
_chemical_formula_structural   AlNiH16C16(N2F7)2
_chemical_formula_sum   'Al1 Ni1 H16 C16 N4 F14'
_cell_volume   377.41856275
_cell_formula_units_Z   1
loop_
 _symmetry_equiv_pos_site_id
 _symmetry_equiv_pos_as_xyz
  1  'x, y, z'
loop_
 _atom_site_type_symbol
 _atom_site_label
 _atom_site_symmetry_multiplicity
 _atom_site_fract_x
 _atom_site_fract_y
 _atom_site_fract_z
 _atom_site_occupancy
 _atom_site_charge
Al  Al1  1  0.50000000  0.50000000  0.50000000  1.0 0.8680594812
Ni  Ni1  1  0.50000000  0.50000000  0.00000000  1.0 0.2659161041
H  H1  1  0.41180000  0.16282000  0.76116000  1.0 0.0229121038
H  H2  1  0.58820000  0.83718000  0.76116000  1.0 0.0229121038
H  H3  1  0.83718000  0.41180000  0.76116000  1.0 0.0229121038
H  H4  1  0.16282000  0.58820000  0.76116000  1.0 0.0229121038
H  H5  1  0.58820000  0.16282000  0.23884000  1.0 0.0229121038
H  H6  1  0.41180000  0.83718000  0.23884000  1.0 0.0229121038
H  H7  1  0.16282000  0.41180000  0.23884000  1.0 0.0229121038
H  H8  1  0.83718000  0.58820000  0.23884000  1.0 0.0229121038
H  H9  1  0.58820000  0.83718000  0.23884000  1.0 0.0229121038
H  H10  1  0.41180000  0.16282000  0.23884000  1.0 0.0229121038
H  H11  1  0.16282000  0.58820000  0.23884000  1.0 0.0229121038
H  H12  1  0.83718000  0.41180000  0.23884000  1.0 0.0229121038
H  H13  1  0.41180000  0.83718000  0.76116000  1.0 0.0229121038
H  H14  1  0.58820000  0.16282000  0.76116000  1.0 0.0229121038
H  H15  1  0.83718000  0.58820000  0.76116000  1.0 0.0229121038
H  H16  1  0.16282000  0.41180000  0.76116000  1.0 0.0229121038
C  C1  1  0.44880000  0.09840000  0.86120000  1.0 0.0102805778
C  C2  1  0.55120000  0.90160000  0.86120000  1.0 0.0102805778
C  C3  1  0.90160000  0.44880000  0.86120000  1.0 0.0102805778
C  C4  1  0.09840000  0.55120000  0.86120000  1.0 0.0102805778
C  C5  1  0.55120000  0.09840000  0.13880000  1.0 0.0102805778
C  C6  1  0.44880000  0.90160000  0.13880000  1.0 0.0102805778
C  C7  1  0.09840000  0.44880000  0.13880000  1.0 0.0102805778
C  C8  1  0.90160000  0.55120000  0.13880000  1.0 0.0102805778
C  C9  1  0.55120000  0.90160000  0.13880000  1.0 0.0102805778
C  C10  1  0.44880000  0.09840000  0.13880000  1.0 0.0102805778
C  C11  1  0.09840000  0.55120000  0.13880000  1.0 0.0102805778
C  C12  1  0.90160000  0.44880000  0.13880000  1.0 0.0102805778
C  C13  1  0.44880000  0.90160000  0.86120000  1.0 0.0102805778
C  C14  1  0.55120000  0.09840000  0.86120000  1.0 0.0102805778
C  C15  1  0.90160000  0.55120000  0.86120000  1.0 0.0102805778
C  C16  1  0.09840000  0.44880000  0.86120000  1.0 0.0102805778
N  N1  1  0.50000000  0.19890000  0.00000000  1.0 -0.1675303926
N  N2  1  0.50000000  0.80110000  0.00000000  1.0 -0.1675303926
N  N3  1  0.80110000  0.50000000  0.00000000  1.0 -0.1675303926
N  N4  1  0.19890000  0.50000000  0.00000000  1.0 -0.1675303926
F  F1  1  0.50000000  0.50000000  0.73810000  1.0 -0.5009086778
F  F2  1  0.50000000  0.50000000  0.26190000  1.0 -0.5009086778
F  F3  1  0.32280000  0.32280000  0.50000000  1.0 0.0102805778
F  F4  1  0.67720000  0.67720000  0.50000000  1.0 0.0102805778
F  F5  1  0.67720000  0.32280000  0.50000000  1.0 0.0102805778
F  F6  1  0.32280000  0.67720000  0.50000000  1.0 0.0102805778
F  F7  1  0.27860000  0.41090000  0.50000000  1.0 -0.0042802345
F  F8  1  0.72140000  0.58910000  0.50000000  1.0 -0.0042802345
F  F9  1  0.58910000  0.27860000  0.50000000  1.0 -0.0042802345
F  F10  1  0.41090000  0.72140000  0.50000000  1.0 -0.0042802345
F  F11  1  0.72140000  0.41090000  0.50000000  1.0 -0.0042802345
F  F12  1  0.27860000  0.58910000  0.50000000  1.0 -0.0042802345
F  F13  1  0.41090000  0.27860000  0.50000000  1.0 -0.0042802345
F  F14  1  0.58910000  0.72140000  0.50000000  1.0 -0.0042802345
