# DDEC6 charges by PACMAN v1.1 (https://github.com/mtap-research/PACMAN-charge/)
data_HIZMOV_ASR_pacman
_symmetry_space_group_name_H-M   'P 1'
_cell_length_a   9.92490000
_cell_length_b   9.92490000
_cell_length_c   7.83870000
_cell_angle_alpha   90.00000000
_cell_angle_beta   90.00000000
_cell_angle_gamma   90.00000000
_symmetry_Int_Tables_number   1
_chemical_formula_structural   NbNiH8C8N4(OF4)2
_chemical_formula_sum   'Nb2 Ni2 H16 C16 N8 O4 F16'
_cell_volume   772.14048295
_cell_formula_units_Z   2
loop_
 _symmetry_equiv_pos_site_id
 _symmetry_equiv_pos_as_xyz
  1  'x, y, z'
loop_
 _atom_site_type_symbol
 _atom_site_label
 _atom_site_symmetry_multiplicity
 _atom_site_fract_x
 _atom_site_fract_y
 _atom_site_fract_z
 _atom_site_occupancy
 _atom_site_charge
Nb  Nb1  1  0.50000000  0.50000000  0.50000000  1.0 1.8154923597
Nb  Nb2  1  0.00000000  0.00000000  0.50000000  1.0 1.8154923597
Ni  Ni1  1  0.50000000  0.50000000  0.00000000  1.0 0.7410882393
Ni  Ni2  1  0.00000000  0.00000000  0.00000000  1.0 0.7410882393
H  H1  1  0.26599000  0.39559000  0.21970000  1.0 0.0703204952
H  H2  1  0.73401000  0.60441000  0.21970000  1.0 0.0703204952
H  H3  1  0.39559000  0.73401000  0.21970000  1.0 0.0703204952
H  H4  1  0.60441000  0.26599000  0.21970000  1.0 0.0703204952
H  H5  1  0.26599000  0.60441000  0.78030000  1.0 0.0703204952
H  H6  1  0.73401000  0.39559000  0.78030000  1.0 0.0703204952
H  H7  1  0.39559000  0.26599000  0.78030000  1.0 0.0703204952
H  H8  1  0.60441000  0.73401000  0.78030000  1.0 0.0703204952
H  H9  1  0.23401000  0.10441000  0.78030000  1.0 0.0703204952
H  H10  1  0.76599000  0.89559000  0.78030000  1.0 0.0703204952
H  H11  1  0.10441000  0.76599000  0.78030000  1.0 0.0703204952
H  H12  1  0.89559000  0.23401000  0.78030000  1.0 0.0703204952
H  H13  1  0.23401000  0.89559000  0.21970000  1.0 0.0703204952
H  H14  1  0.76599000  0.10441000  0.21970000  1.0 0.0703204952
H  H15  1  0.10441000  0.23401000  0.21970000  1.0 0.0703204952
H  H16  1  0.89559000  0.76599000  0.21970000  1.0 0.0703204952
C  C1  1  0.26090000  0.33640000  0.12790000  1.0 -0.0116016864
C  C2  1  0.73910000  0.66360000  0.12790000  1.0 -0.0116016864
C  C3  1  0.33640000  0.73910000  0.12790000  1.0 -0.0116016864
C  C4  1  0.66360000  0.26090000  0.12790000  1.0 -0.0116016864
C  C5  1  0.26090000  0.66360000  0.87210000  1.0 -0.0116016864
C  C6  1  0.73910000  0.33640000  0.87210000  1.0 -0.0116016864
C  C7  1  0.33640000  0.26090000  0.87210000  1.0 -0.0116016864
C  C8  1  0.66360000  0.73910000  0.87210000  1.0 -0.0116016864
C  C9  1  0.23910000  0.16360000  0.87210000  1.0 -0.0116016864
C  C10  1  0.76090000  0.83640000  0.87210000  1.0 -0.0116016864
C  C11  1  0.16360000  0.76090000  0.87210000  1.0 -0.0116016864
C  C12  1  0.83640000  0.23910000  0.87210000  1.0 -0.0116016864
C  C13  1  0.23910000  0.83640000  0.12790000  1.0 -0.0116016864
C  C14  1  0.76090000  0.16360000  0.12790000  1.0 -0.0116016864
C  C15  1  0.16360000  0.23910000  0.12790000  1.0 -0.0116016864
C  C16  1  0.83640000  0.76090000  0.12790000  1.0 -0.0116016864
N  N1  1  0.34920000  0.34920000  0.00000000  1.0 -0.1982302239
N  N2  1  0.65080000  0.65080000  0.00000000  1.0 -0.1982302239
N  N3  1  0.34920000  0.65080000  0.00000000  1.0 -0.1982302239
N  N4  1  0.65080000  0.34920000  0.00000000  1.0 -0.1982302239
N  N5  1  0.15080000  0.15080000  0.00000000  1.0 -0.1982302239
N  N6  1  0.84920000  0.84920000  0.00000000  1.0 -0.1982302239
N  N7  1  0.15080000  0.84920000  0.00000000  1.0 -0.1982302239
N  N8  1  0.84920000  0.15080000  0.00000000  1.0 -0.1982302239
O  O1  1  0.50000000  0.50000000  0.25450000  1.0 -0.8083340248
O  O2  1  0.50000000  0.50000000  0.74550000  1.0 -0.8083340248
O  O3  1  0.00000000  0.00000000  0.74550000  1.0 -0.8083340248
O  O4  1  0.00000000  0.00000000  0.25450000  1.0 -0.8083340248
F  F1  1  0.31070000  0.47600000  0.51600000  1.0 -0.0770927655
F  F2  1  0.68930000  0.52400000  0.51600000  1.0 -0.0770927655
F  F3  1  0.47600000  0.68930000  0.51600000  1.0 -0.0770927655
F  F4  1  0.52400000  0.31070000  0.51600000  1.0 -0.0770927655
F  F5  1  0.31070000  0.52400000  0.48400000  1.0 -0.0770927655
F  F6  1  0.68930000  0.47600000  0.48400000  1.0 -0.0770927655
F  F7  1  0.47600000  0.31070000  0.48400000  1.0 -0.0770927655
F  F8  1  0.52400000  0.68930000  0.48400000  1.0 -0.0770927655
F  F9  1  0.18930000  0.02400000  0.48400000  1.0 -0.0770927655
F  F10  1  0.81070000  0.97600000  0.48400000  1.0 -0.0770927655
F  F11  1  0.02400000  0.81070000  0.48400000  1.0 -0.0770927655
F  F12  1  0.97600000  0.18930000  0.48400000  1.0 -0.0770927655
F  F13  1  0.18930000  0.97600000  0.51600000  1.0 -0.0770927655
F  F14  1  0.81070000  0.02400000  0.51600000  1.0 -0.0770927655
F  F15  1  0.02400000  0.18930000  0.51600000  1.0 -0.0770927655
F  F16  1  0.97600000  0.81070000  0.51600000  1.0 -0.0770927655
