# DDEC6 charges by PACMAN v1.1 (https://github.com/mtap-research/PACMAN-charge/)
data_HIZSEQ_ASR_pacman
_symmetry_space_group_name_H-M   'P 1'
_cell_length_a   15.44880000
_cell_length_b   18.11410000
_cell_length_c   17.55410000
_cell_angle_alpha   90.00000000
_cell_angle_beta   103.17100000
_cell_angle_gamma   90.00000000
_symmetry_Int_Tables_number   1
_chemical_formula_structural   Zn2H19C21N2O9
_chemical_formula_sum   'Zn8 H76 C84 N8 O36'
_cell_volume   4783.13603821
_cell_formula_units_Z   4
loop_
 _symmetry_equiv_pos_site_id
 _symmetry_equiv_pos_as_xyz
  1  'x, y, z'
loop_
 _atom_site_type_symbol
 _atom_site_label
 _atom_site_symmetry_multiplicity
 _atom_site_fract_x
 _atom_site_fract_y
 _atom_site_fract_z
 _atom_site_occupancy
 _atom_site_charge
Zn  Zn1  1  0.93913000  0.95962000  0.42676000  1.0 0.9984824058
Zn  Zn2  1  0.06087000  0.45962000  0.07324000  1.0 0.9984824058
Zn  Zn3  1  0.06087000  0.04038000  0.57324000  1.0 0.9984824058
Zn  Zn4  1  0.93913000  0.54038000  0.92676000  1.0 0.9984824058
Zn  Zn5  1  0.13889000  0.95271000  0.41844000  1.0 0.915111005
Zn  Zn6  1  0.86111000  0.45271000  0.08156000  1.0 0.915111005
Zn  Zn7  1  0.86111000  0.04729000  0.58156000  1.0 0.9143781062
Zn  Zn8  1  0.13889000  0.54729000  0.91844000  1.0 0.9143781062
H  H1  1  0.89140000  0.13230000  0.26760000  1.0 0.1223767992
H  H2  1  0.10860000  0.63230000  0.23240000  1.0 0.1223767992
H  H3  1  0.10860000  0.86770000  0.73240000  1.0 0.1223767992
H  H4  1  0.89140000  0.36770000  0.76760000  1.0 0.1223767992
H  H5  1  0.86300000  0.24170000  0.19790000  1.0 0.1280715283
H  H6  1  0.13700000  0.74170000  0.30210000  1.0 0.1280715283
H  H7  1  0.13700000  0.75830000  0.80210000  1.0 0.1280715283
H  H8  1  0.86300000  0.25830000  0.69790000  1.0 0.1280715283
H  H9  1  0.12740000  0.27670000  0.22770000  1.0 0.1405304816
H  H10  1  0.87260000  0.77670000  0.27230000  1.0 0.1405304816
H  H11  1  0.87260000  0.72330000  0.77230000  1.0 0.1405304816
H  H12  1  0.12740000  0.22330000  0.72770000  1.0 0.1405304816
H  H13  1  0.34330000  0.13480000  0.39200000  1.0 0.0978650183
H  H14  1  0.65670000  0.63480000  0.10800000  1.0 0.0978650183
H  H15  1  0.65670000  0.86520000  0.60800000  1.0 0.0947230306
H  H16  1  0.34330000  0.36520000  0.89200000  1.0 0.0947230306
H  H17  1  0.34930000  0.10600000  0.30740000  1.0 0.1107019676
H  H18  1  0.65070000  0.60600000  0.19260000  1.0 0.1107019676
H  H19  1  0.65070000  0.89400000  0.69260000  1.0 0.1107019676
H  H20  1  0.34930000  0.39400000  0.80740000  1.0 0.1107019676
H  H21  1  0.48290000  0.16310000  0.37450000  1.0 0.0978650183
H  H22  1  0.51710000  0.66310000  0.12550000  1.0 0.0978650183
H  H23  1  0.51710000  0.83690000  0.62550000  1.0 0.0978650183
H  H24  1  0.48290000  0.33690000  0.87450000  1.0 0.0978650183
H  H25  1  0.44210000  0.20340000  0.29320000  1.0 0.1280715283
H  H26  1  0.55790000  0.70340000  0.20680000  1.0 0.1280715283
H  H27  1  0.55790000  0.79660000  0.70680000  1.0 0.1280715283
H  H28  1  0.44210000  0.29660000  0.79320000  1.0 0.1280715283
H  H29  1  0.43050000  0.23940000  0.37350000  1.0 0.1280715283
H  H30  1  0.56950000  0.73940000  0.12650000  1.0 0.1280715283
H  H31  1  0.56950000  0.76060000  0.62650000  1.0 0.1280715283
H  H32  1  0.43050000  0.26060000  0.87350000  1.0 0.1280715283
H  H33  1  0.57300000  0.90240000  0.45540000  1.0 0.1280715283
H  H34  1  0.42700000  0.40240000  0.04460000  1.0 0.1280715283
H  H35  1  0.42700000  0.09760000  0.54460000  1.0 0.1280715283
H  H36  1  0.57300000  0.59760000  0.95540000  1.0 0.1280715283
H  H37  1  0.58070000  0.10970000  0.54380000  1.0 0.1107019676
H  H38  1  0.41930000  0.60970000  0.95620000  1.0 0.1107019676
H  H39  1  0.41930000  0.89030000  0.45620000  1.0 0.1107019676
H  H40  1  0.58070000  0.39030000  0.04380000  1.0 0.1107019676
H  H41  1  0.42600000  0.10820000  0.52650000  1.0 0.1280715283
H  H42  1  0.57400000  0.60820000  0.97350000  1.0 0.1280715283
H  H43  1  0.57400000  0.89180000  0.47350000  1.0 0.1280715283
H  H44  1  0.42600000  0.39180000  0.02650000  1.0 0.1280715283
H  H45  1  0.30570000  0.78000000  0.33980000  1.0 0.1107019676
H  H46  1  0.69430000  0.28000000  0.16020000  1.0 0.1107019676
H  H47  1  0.69430000  0.22000000  0.66020000  1.0 0.1107019676
H  H48  1  0.30570000  0.72000000  0.83980000  1.0 0.1107019676
H  H49  1  0.33190000  0.73240000  0.41880000  1.0 0.1107019676
H  H50  1  0.66810000  0.23240000  0.08120000  1.0 0.1107019676
H  H51  1  0.66810000  0.26760000  0.58120000  1.0 0.1107019676
H  H52  1  0.33190000  0.76760000  0.91880000  1.0 0.1107019676
H  H53  1  0.33350000  0.65930000  0.31390000  1.0 0.0978650183
H  H54  1  0.66650000  0.15930000  0.18610000  1.0 0.0978650183
H  H55  1  0.66650000  0.34070000  0.68610000  1.0 0.0978650183
H  H56  1  0.33350000  0.84070000  0.81390000  1.0 0.0978650183
H  H57  1  0.40310000  0.71340000  0.28730000  1.0 0.0978650183
H  H58  1  0.59690000  0.21340000  0.21270000  1.0 0.0978650183
H  H59  1  0.59690000  0.28660000  0.71270000  1.0 0.0978650183
H  H60  1  0.40310000  0.78660000  0.78730000  1.0 0.0978650183
H  H61  1  0.43220000  0.66700000  0.36670000  1.0 0.0978650183
H  H62  1  0.56780000  0.16700000  0.13330000  1.0 0.0978650183
H  H63  1  0.56780000  0.33300000  0.63330000  1.0 0.0978650183
H  H64  1  0.43220000  0.83300000  0.86670000  1.0 0.0978650183
H  H65  1  0.19490000  0.11820000  0.33310000  1.0 0.3054879602
H  H66  1  0.80510000  0.61820000  0.16690000  1.0 0.3054879602
H  H67  1  0.80510000  0.88180000  0.66690000  1.0 0.3045056757
H  H68  1  0.19490000  0.38180000  0.83310000  1.0 0.3054879602
H  H69  1  0.34790000  0.87290000  0.43200000  1.0 0.1955416546
H  H70  1  0.65210000  0.37290000  0.06800000  1.0 0.1946001645
H  H71  1  0.65210000  0.12710000  0.56800000  1.0 0.1955416546
H  H72  1  0.34790000  0.62710000  0.93200000  1.0 0.1955416546
H  H73  1  0.07800000  0.91500000  0.51700000  1.0 0.3955913183
H  H74  1  0.92200000  0.41500000  0.98300000  1.0 0.3955913183
H  H75  1  0.92200000  0.08500000  0.48300000  1.0 0.3955913183
H  H76  1  0.07800000  0.58500000  0.01700000  1.0 0.3955913183
C  C1  1  0.03820000  0.06540000  0.33140000  1.0 0.5955605901
C  C2  1  0.96180000  0.56540000  0.16860000  1.0 0.5955605901
C  C3  1  0.96180000  0.93460000  0.66860000  1.0 0.5939840671
C  C4  1  0.03820000  0.43460000  0.83140000  1.0 0.5955605901
C  C5  1  0.02710000  0.13740000  0.28800000  1.0 -0.1315327588
C  C6  1  0.97290000  0.63740000  0.21200000  1.0 -0.1315327588
C  C7  1  0.97290000  0.86260000  0.71200000  1.0 -0.1315327588
C  C8  1  0.02710000  0.36260000  0.78800000  1.0 -0.1315327588
C  C9  1  0.93940000  0.16120000  0.25880000  1.0 -0.1017722193
C  C10  1  0.06060000  0.66120000  0.24120000  1.0 -0.1017722193
C  C11  1  0.06060000  0.83880000  0.74120000  1.0 -0.1017722193
C  C12  1  0.93940000  0.33880000  0.75880000  1.0 -0.1017722193
C  C13  1  0.92260000  0.22600000  0.21750000  1.0 -0.1368553374
C  C14  1  0.07740000  0.72600000  0.28250000  1.0 -0.1368553374
C  C15  1  0.07740000  0.77400000  0.78250000  1.0 -0.1368553374
C  C16  1  0.92260000  0.27400000  0.71750000  1.0 -0.1368553374
C  C17  1  0.99190000  0.26840000  0.20440000  1.0 -0.0007833844
C  C18  1  0.00810000  0.76840000  0.29560000  1.0 -0.0007833844
C  C19  1  0.00810000  0.73160000  0.79560000  1.0 -0.0007833844
C  C20  1  0.99190000  0.23160000  0.70440000  1.0 -0.0007833844
C  C21  1  0.08000000  0.24620000  0.23510000  1.0 -0.1748668555
C  C22  1  0.92000000  0.74620000  0.26490000  1.0 -0.175978579
C  C23  1  0.92000000  0.75380000  0.76490000  1.0 -0.1748668555
C  C24  1  0.08000000  0.25380000  0.73510000  1.0 -0.175978579
C  C25  1  0.09860000  0.18130000  0.27550000  1.0 0.2085174915
C  C26  1  0.90140000  0.68130000  0.22450000  1.0 0.2085174915
C  C27  1  0.90140000  0.81870000  0.72450000  1.0 0.2085174915
C  C28  1  0.09860000  0.31870000  0.77550000  1.0 0.2085174915
C  C29  1  0.26600000  0.19210000  0.30380000  1.0 0.5153561827
C  C30  1  0.73400000  0.69210000  0.19620000  1.0 0.5153561827
C  C31  1  0.73400000  0.80790000  0.69620000  1.0 0.5153561827
C  C32  1  0.26600000  0.30790000  0.80380000  1.0 0.5153561827
C  C33  1  0.34720000  0.15100000  0.33900000  1.0 -0.2988629866
C  C34  1  0.65280000  0.65100000  0.16100000  1.0 -0.2988629866
C  C35  1  0.65280000  0.84900000  0.66100000  1.0 -0.2988629866
C  C36  1  0.34720000  0.34900000  0.83900000  1.0 -0.2988629866
C  C37  1  0.43330000  0.19290000  0.34560000  1.0 -0.3441395241
C  C38  1  0.56670000  0.69290000  0.15440000  1.0 -0.3441395241
C  C39  1  0.56670000  0.80710000  0.65440000  1.0 -0.3441395241
C  C40  1  0.43330000  0.30710000  0.84560000  1.0 -0.3441395241
C  C41  1  0.97600000  0.33980000  0.15940000  1.0 0.5939840671
C  C42  1  0.02400000  0.83980000  0.34060000  1.0 0.5939840671
C  C43  1  0.02400000  0.66020000  0.84060000  1.0 0.5939840671
C  C44  1  0.97600000  0.16020000  0.65940000  1.0 0.5939840671
C  C45  1  0.30870000  0.00400000  0.47640000  1.0 0.4265378497
C  C46  1  0.69130000  0.50400000  0.02360000  1.0 0.4265378497
C  C47  1  0.69130000  0.99600000  0.52360000  1.0 0.4265378497
C  C48  1  0.30870000  0.49600000  0.97640000  1.0 0.4265378497
C  C49  1  0.40760000  0.00440000  0.48080000  1.0 0.0010616937
C  C50  1  0.59240000  0.50440000  0.01920000  1.0 0.0010616937
C  C51  1  0.59240000  0.99560000  0.51920000  1.0 0.0010616937
C  C52  1  0.40760000  0.49560000  0.98080000  1.0 0.0010616937
C  C53  1  0.45130000  0.94330000  0.45960000  1.0 0.0521630781
C  C54  1  0.54870000  0.44330000  0.04040000  1.0 0.0521630781
C  C55  1  0.54870000  0.05670000  0.54040000  1.0 0.0521630781
C  C56  1  0.45130000  0.55670000  0.95960000  1.0 0.0521630781
C  C57  1  0.54320000  0.94420000  0.46990000  1.0 -0.1315327588
C  C58  1  0.45680000  0.44420000  0.03010000  1.0 -0.1315327588
C  C59  1  0.45680000  0.05580000  0.53010000  1.0 -0.1315327588
C  C60  1  0.54320000  0.55580000  0.96990000  1.0 -0.1368553374
C  C61  1  0.59140000  0.00620000  0.50120000  1.0 -0.0080622404
C  C62  1  0.40860000  0.50620000  0.99880000  1.0 -0.0080622404
C  C63  1  0.40860000  0.99380000  0.49880000  1.0 -0.0080622404
C  C64  1  0.59140000  0.49380000  0.00120000  1.0 -0.0080622404
C  C65  1  0.54780000  0.06730000  0.52240000  1.0 0.067621756
C  C66  1  0.45220000  0.56730000  0.97760000  1.0 0.067621756
C  C67  1  0.45220000  0.93270000  0.47760000  1.0 0.067621756
C  C68  1  0.54780000  0.43270000  0.02240000  1.0 0.067621756
C  C69  1  0.45590000  0.06640000  0.51210000  1.0 -0.1315327588
C  C70  1  0.54410000  0.56640000  0.98790000  1.0 -0.1315327588
C  C71  1  0.54410000  0.93360000  0.48790000  1.0 -0.1315327588
C  C72  1  0.45590000  0.43360000  0.01210000  1.0 -0.1315327588
C  C73  1  0.43240000  0.80430000  0.40550000  1.0 0.4265378497
C  C74  1  0.56760000  0.30430000  0.09450000  1.0 0.4229979512
C  C75  1  0.56760000  0.19570000  0.59450000  1.0 0.4265378497
C  C76  1  0.43240000  0.69570000  0.90550000  1.0 0.4265378497
C  C77  1  0.35450000  0.75250000  0.37460000  1.0 -0.2785175521
C  C78  1  0.64550000  0.25250000  0.12540000  1.0 -0.2785175521
C  C79  1  0.64550000  0.24750000  0.62540000  1.0 -0.2785175521
C  C80  1  0.35450000  0.74750000  0.87460000  1.0 -0.2785175521
C  C81  1  0.38310000  0.69340000  0.33230000  1.0 -0.2988629866
C  C82  1  0.61690000  0.19340000  0.16770000  1.0 -0.2988629866
C  C83  1  0.61690000  0.30660000  0.66770000  1.0 -0.2988629866
C  C84  1  0.38310000  0.80660000  0.83230000  1.0 -0.2988629866
N  N1  1  0.18900000  0.16000000  0.30700000  1.0 -0.3503664438
N  N2  1  0.81100000  0.66000000  0.19300000  1.0 -0.3503664438
N  N3  1  0.81100000  0.84000000  0.69300000  1.0 -0.3503664438
N  N4  1  0.18900000  0.34000000  0.80700000  1.0 -0.3503664438
N  N5  1  0.40480000  0.87220000  0.43180000  1.0 -0.2237540897
N  N6  1  0.59520000  0.37220000  0.06820000  1.0 -0.2237540897
N  N7  1  0.59520000  0.12780000  0.56820000  1.0 -0.2237540897
N  N8  1  0.40480000  0.62780000  0.93180000  1.0 -0.2237540897
O  O1  1  0.97282000  0.03822000  0.35032000  1.0 -0.5519118983
O  O2  1  0.02718000  0.53822000  0.14968000  1.0 -0.5519118983
O  O3  1  0.02718000  0.96178000  0.64968000  1.0 -0.5519118983
O  O4  1  0.97282000  0.46178000  0.85032000  1.0 -0.5519118983
O  O5  1  0.11645000  0.03673000  0.34759000  1.0 -0.5709771369
O  O6  1  0.88355000  0.53673000  0.15241000  1.0 -0.5709771369
O  O7  1  0.88355000  0.96327000  0.65241000  1.0 -0.5709771369
O  O8  1  0.11645000  0.46327000  0.84759000  1.0 -0.5709771369
O  O9  1  0.27100000  0.25300000  0.27360000  1.0 -0.439524851
O  O10  1  0.72900000  0.75300000  0.22640000  1.0 -0.439524851
O  O11  1  0.72900000  0.74700000  0.72640000  1.0 -0.439524851
O  O12  1  0.27100000  0.24700000  0.77360000  1.0 -0.439524851
O  O13  1  0.04063000  0.37053000  0.14158000  1.0 -0.5709771369
O  O14  1  0.95937000  0.87053000  0.35842000  1.0 -0.5709771369
O  O15  1  0.95937000  0.62947000  0.85842000  1.0 -0.5709771369
O  O16  1  0.04063000  0.12947000  0.64158000  1.0 -0.5709771369
O  O17  1  0.89671000  0.36247000  0.14304000  1.0 -0.5519118983
O  O18  1  0.10329000  0.86247000  0.35696000  1.0 -0.5519118983
O  O19  1  0.10329000  0.63753000  0.85696000  1.0 -0.5519118983
O  O20  1  0.89671000  0.13753000  0.64304000  1.0 -0.5519118983
O  O21  1  0.27292000  0.06211000  0.48790000  1.0 -0.439524851
O  O22  1  0.72708000  0.56211000  0.01210000  1.0 -0.439524851
O  O23  1  0.72708000  0.93789000  0.51210000  1.0 -0.4455785159
O  O24  1  0.27292000  0.43789000  0.98790000  1.0 -0.439524851
O  O25  1  0.26672000  0.94367000  0.45330000  1.0 -0.5410984013
O  O26  1  0.73328000  0.44367000  0.04670000  1.0 -0.5410984013
O  O27  1  0.73328000  0.05633000  0.54670000  1.0 -0.5410984013
O  O28  1  0.26672000  0.55633000  0.95330000  1.0 -0.5410984013
O  O29  1  0.50330000  0.79340000  0.39910000  1.0 -0.4095408547
O  O30  1  0.49670000  0.29340000  0.10090000  1.0 -0.4095408547
O  O31  1  0.49670000  0.20660000  0.60090000  1.0 -0.4095408547
O  O32  1  0.50330000  0.70660000  0.89910000  1.0 -0.4095408547
O  O33  1  0.06970000  0.95500000  0.49704000  1.0 -0.8389464472
O  O34  1  0.93030000  0.45500000  0.00296000  1.0 -0.8389464472
O  O35  1  0.93030000  0.04500000  0.50296000  1.0 -0.8389464472
O  O36  1  0.06970000  0.54500000  0.99704000  1.0 -0.8389464472
