# DDEC6 charges by PACMAN v1.1 (https://github.com/mtap-research/PACMAN-charge/)
data_HIZVIY_ASR_pacman
_symmetry_space_group_name_H-M   'P 1'
_cell_length_a   10.98470000
_cell_length_b   10.98470000
_cell_length_c   13.33930000
_cell_angle_alpha   81.71930000
_cell_angle_beta   98.28070000
_cell_angle_gamma   78.31640000
_symmetry_Int_Tables_number   1
_chemical_formula_structural   MnH12C24(NO2)2
_chemical_formula_sum   'Mn2 H24 C48 N4 O8'
_cell_volume   1534.67490884
_cell_formula_units_Z   2
loop_
 _symmetry_equiv_pos_site_id
 _symmetry_equiv_pos_as_xyz
  1  'x, y, z'
loop_
 _atom_site_type_symbol
 _atom_site_label
 _atom_site_symmetry_multiplicity
 _atom_site_fract_x
 _atom_site_fract_y
 _atom_site_fract_z
 _atom_site_occupancy
 _atom_site_charge
Mn  Mn1  1  0.00000000  0.00000000  0.50000000  1.0 0.7870640503
Mn  Mn2  1  0.00000000  0.00000000  0.00000000  1.0 1.0456344234
H  H1  1  0.24971000  0.60589000  0.74971000  1.0 0.1311529837
H  H2  1  0.78840000  0.63110000  0.56412000  1.0 0.1311529837
H  H3  1  0.11428000  0.47490000  0.58779000  1.0 0.119832878
H  H4  1  0.12571000  0.27715000  0.67030000  1.0 0.119832878
H  H5  1  0.94289000  0.42011000  0.87801000  1.0 0.1311529837
H  H6  1  0.93384000  0.62136000  0.79197000  1.0 0.1311529837
H  H7  1  0.60589000  0.24971000  0.25029000  1.0 0.1311529837
H  H8  1  0.63110000  0.78840000  0.43588000  1.0 0.1311529837
H  H9  1  0.47490000  0.11428000  0.41221000  1.0 0.119832878
H  H10  1  0.27715000  0.12571000  0.32970000  1.0 0.119832878
H  H11  1  0.42011000  0.94289000  0.12199000  1.0 0.1311529837
H  H12  1  0.62136000  0.93384000  0.20803000  1.0 0.1311529837
H  H13  1  0.75029000  0.39411000  0.25029000  1.0 0.1311529837
H  H14  1  0.21160000  0.36890000  0.43588000  1.0 0.1311529837
H  H15  1  0.88572000  0.52510000  0.41221000  1.0 0.119832878
H  H16  1  0.87429000  0.72285000  0.32970000  1.0 0.119832878
H  H17  1  0.05711000  0.57989000  0.12199000  1.0 0.1311529837
H  H18  1  0.06616000  0.37864000  0.20803000  1.0 0.1311529837
H  H19  1  0.39411000  0.75029000  0.74971000  1.0 0.1311529837
H  H20  1  0.36890000  0.21160000  0.56412000  1.0 0.1311529837
H  H21  1  0.52510000  0.88572000  0.58779000  1.0 0.119832878
H  H22  1  0.72285000  0.87429000  0.67030000  1.0 0.119832878
H  H23  1  0.57989000  0.05711000  0.87801000  1.0 0.1311529837
H  H24  1  0.37864000  0.06616000  0.79197000  1.0 0.1311529837
C  C1  1  0.04740000  0.19240000  0.83850000  1.0 0.5461322116
C  C2  1  0.01540000  0.69980000  0.62440000  1.0 -0.0382907503
C  C3  1  0.02040000  0.57140000  0.67940000  1.0 0.0628328072
C  C4  1  0.23350000  0.68710000  0.71140000  1.0 -0.1612343021
C  C5  1  0.03580000  0.32780000  0.78250000  1.0 -0.0067634464
C  C6  1  0.12150000  0.75050000  0.64240000  1.0 0.1866568001
C  C7  1  0.79700000  0.71040000  0.53510000  1.0 -0.1612343021
C  C8  1  0.90480000  0.76300000  0.55700000  1.0 0.1719155805
C  C9  1  0.07850000  0.46490000  0.64660000  1.0 -0.1612343021
C  C10  1  0.08600000  0.34620000  0.69580000  1.0 -0.093388767
C  C11  1  0.97810000  0.43070000  0.81880000  1.0 -0.0758681624
C  C12  1  0.97220000  0.55180000  0.76620000  1.0 -0.1388256057
C  C13  1  0.19240000  0.04740000  0.16150000  1.0 0.5461322116
C  C14  1  0.69980000  0.01540000  0.37560000  1.0 -0.0382907503
C  C15  1  0.57140000  0.02040000  0.32060000  1.0 0.0628328072
C  C16  1  0.68710000  0.23350000  0.28860000  1.0 -0.1612343021
C  C17  1  0.32780000  0.03580000  0.21750000  1.0 -0.0067634464
C  C18  1  0.75050000  0.12150000  0.35760000  1.0 0.1866568001
C  C19  1  0.71040000  0.79700000  0.46490000  1.0 -0.1612343021
C  C20  1  0.76300000  0.90480000  0.44300000  1.0 0.1719155805
C  C21  1  0.46490000  0.07850000  0.35340000  1.0 -0.1612343021
C  C22  1  0.34620000  0.08600000  0.30420000  1.0 -0.093388767
C  C23  1  0.43070000  0.97810000  0.18120000  1.0 -0.0758681624
C  C24  1  0.55180000  0.97220000  0.23380000  1.0 -0.1388256057
C  C25  1  0.95260000  0.80760000  0.16150000  1.0 0.5444670068
C  C26  1  0.98460000  0.30020000  0.37560000  1.0 -0.0382907503
C  C27  1  0.97960000  0.42860000  0.32060000  1.0 0.0628328072
C  C28  1  0.76650000  0.31290000  0.28860000  1.0 -0.1612343021
C  C29  1  0.96420000  0.67220000  0.21750000  1.0 -0.0067634464
C  C30  1  0.87850000  0.24950000  0.35760000  1.0 0.1866568001
C  C31  1  0.20300000  0.28960000  0.46490000  1.0 -0.1612343021
C  C32  1  0.09520000  0.23700000  0.44300000  1.0 0.1719155805
C  C33  1  0.92150000  0.53510000  0.35340000  1.0 -0.1612343021
C  C34  1  0.91400000  0.65380000  0.30420000  1.0 -0.093388767
C  C35  1  0.02190000  0.56930000  0.18120000  1.0 -0.0758681624
C  C36  1  0.02780000  0.44820000  0.23380000  1.0 -0.1388256057
C  C37  1  0.80760000  0.95260000  0.83850000  1.0 0.5444670068
C  C38  1  0.30020000  0.98460000  0.62440000  1.0 -0.0382907503
C  C39  1  0.42860000  0.97960000  0.67940000  1.0 0.0628328072
C  C40  1  0.31290000  0.76650000  0.71140000  1.0 -0.1612343021
C  C41  1  0.67220000  0.96420000  0.78250000  1.0 -0.0067634464
C  C42  1  0.24950000  0.87850000  0.64240000  1.0 0.1866568001
C  C43  1  0.28960000  0.20300000  0.53510000  1.0 -0.1612343021
C  C44  1  0.23700000  0.09520000  0.55700000  1.0 0.1719155805
C  C45  1  0.53510000  0.92150000  0.64660000  1.0 -0.1612343021
C  C46  1  0.65380000  0.91400000  0.69580000  1.0 -0.093388767
C  C47  1  0.56930000  0.02190000  0.81880000  1.0 -0.0758681624
C  C48  1  0.44820000  0.02780000  0.76620000  1.0 -0.1388256057
N  N1  1  0.13200000  0.86800000  0.59970000  1.0 -0.3629500422
N  N2  1  0.86800000  0.13200000  0.40030000  1.0 -0.3629500422
N  N3  1  0.88220000  0.88220000  0.50000000  1.0 -0.3629500422
N  N4  1  0.11780000  0.11780000  0.50000000  1.0 -0.3653230919
O  O1  1  0.99810000  0.18090000  0.91450000  1.0 -0.4728058306
O  O2  1  0.10390000  0.10530000  0.79770000  1.0 -0.5167149954
O  O3  1  0.18090000  0.99810000  0.08550000  1.0 -0.4728058306
O  O4  1  0.10530000  0.10390000  0.20230000  1.0 -0.5167149954
O  O5  1  0.00190000  0.81910000  0.08550000  1.0 -0.4728058306
O  O6  1  0.89610000  0.89470000  0.20230000  1.0 -0.5137283458
O  O7  1  0.81910000  0.00190000  0.91450000  1.0 -0.4728058306
O  O8  1  0.89470000  0.89610000  0.79770000  1.0 -0.5167149954
