# DDEC6 charges by PACMAN v1.1 (https://github.com/mtap-research/PACMAN-charge/)
data_HOBBEF_FSR_pacman
_symmetry_space_group_name_H-M   'P 1'
_cell_length_a   10.65200000
_cell_length_b   15.40000000
_cell_length_c   14.97030000
_cell_angle_alpha   90.00000000
_cell_angle_beta   133.18000000
_cell_angle_gamma   90.00000000
_symmetry_Int_Tables_number   1
_chemical_formula_structural   AgH18(C2N)6
_chemical_formula_sum   'Ag4 H72 C48 N24'
_cell_volume   1790.74410348
_cell_formula_units_Z   4
loop_
 _symmetry_equiv_pos_site_id
 _symmetry_equiv_pos_as_xyz
  1  'x, y, z'
loop_
 _atom_site_type_symbol
 _atom_site_label
 _atom_site_symmetry_multiplicity
 _atom_site_fract_x
 _atom_site_fract_y
 _atom_site_fract_z
 _atom_site_occupancy
 _atom_site_charge
Ag  Ag1  1  0.99390000  0.73260000  0.76070000  1.0 0.4222556567
Ag  Ag2  1  0.00610000  0.23260000  0.73930000  1.0 0.4222556567
Ag  Ag3  1  0.00610000  0.26740000  0.23930000  1.0 0.4222556567
Ag  Ag4  1  0.99390000  0.76740000  0.26070000  1.0 0.4222556567
H  H1  1  0.08550000  0.54260000  0.61440000  1.0 0.1000372367
H  H2  1  0.91450000  0.04260000  0.88560000  1.0 0.1000372367
H  H3  1  0.91450000  0.45740000  0.38560000  1.0 0.1000372367
H  H4  1  0.08550000  0.95740000  0.11440000  1.0 0.1000372367
H  H5  1  0.88770000  0.57160000  0.51570000  1.0 0.1000372367
H  H6  1  0.11230000  0.07160000  0.98430000  1.0 0.1000372367
H  H7  1  0.11230000  0.42840000  0.48430000  1.0 0.1000372367
H  H8  1  0.88770000  0.92840000  0.01570000  1.0 0.1000372367
H  H9  1  0.04880000  0.67630000  0.51940000  1.0 0.1083950894
H  H10  1  0.95120000  0.17630000  0.98060000  1.0 0.1083950894
H  H11  1  0.95120000  0.32370000  0.48060000  1.0 0.1083950894
H  H12  1  0.04880000  0.82370000  0.01940000  1.0 0.1083950894
H  H13  1  0.17690000  0.68620000  0.66470000  1.0 0.1000372367
H  H14  1  0.82310000  0.18620000  0.83530000  1.0 0.1000372367
H  H15  1  0.82310000  0.31380000  0.33530000  1.0 0.1000372367
H  H16  1  0.17690000  0.81380000  0.16470000  1.0 0.1000372367
H  H17  1  0.73480000  0.78490000  0.40050000  1.0 0.1000372367
H  H18  1  0.26520000  0.28490000  0.09950000  1.0 0.1000372367
H  H19  1  0.26520000  0.21510000  0.59950000  1.0 0.1000372367
H  H20  1  0.73480000  0.71510000  0.90050000  1.0 0.1000372367
H  H21  1  0.74310000  0.68230000  0.42030000  1.0 0.1000372367
H  H22  1  0.25690000  0.18230000  0.07970000  1.0 0.1000372367
H  H23  1  0.25690000  0.31770000  0.57970000  1.0 0.1000372367
H  H24  1  0.74310000  0.81770000  0.92030000  1.0 0.1000372367
H  H25  1  0.52490000  0.73730000  0.40330000  1.0 0.1000372367
H  H26  1  0.47510000  0.23730000  0.09670000  1.0 0.1000372367
H  H27  1  0.47510000  0.26270000  0.59670000  1.0 0.1000372367
H  H28  1  0.52490000  0.76270000  0.90330000  1.0 0.1000372367
H  H29  1  0.65010000  0.80920000  0.50560000  1.0 0.1000372367
H  H30  1  0.34990000  0.30920000  0.99440000  1.0 0.1000372367
H  H31  1  0.34990000  0.19080000  0.49440000  1.0 0.1000372367
H  H32  1  0.65010000  0.69080000  0.00560000  1.0 0.1000372367
H  H33  1  0.57450000  0.57070000  0.52850000  1.0 0.1000372367
H  H34  1  0.42550000  0.07070000  0.97150000  1.0 0.1000372367
H  H35  1  0.42550000  0.42930000  0.47150000  1.0 0.1000372367
H  H36  1  0.57450000  0.92930000  0.02850000  1.0 0.1000372367
H  H37  1  0.65590000  0.59060000  0.47220000  1.0 0.0940563968
H  H38  1  0.34410000  0.09060000  0.02780000  1.0 0.0940563968
H  H39  1  0.34410000  0.40940000  0.52780000  1.0 0.0940563968
H  H40  1  0.65590000  0.90940000  0.97220000  1.0 0.0940563968
H  H41  1  0.82250000  0.48420000  0.62120000  1.0 0.1000372367
H  H42  1  0.17750000  0.98420000  0.87880000  1.0 0.1000372367
H  H43  1  0.17750000  0.51580000  0.37880000  1.0 0.1000372367
H  H44  1  0.82250000  0.01580000  0.12120000  1.0 0.1000372367
H  H45  1  0.84410000  0.54170000  0.72000000  1.0 0.1000372367
H  H46  1  0.15590000  0.04170000  0.78000000  1.0 0.1000372367
H  H47  1  0.15590000  0.45830000  0.28000000  1.0 0.1000372367
H  H48  1  0.84410000  0.95830000  0.22000000  1.0 0.1000372367
H  H49  1  0.25210000  0.56740000  0.82930000  1.0 0.1220357322
H  H50  1  0.74790000  0.06740000  0.67070000  1.0 0.1220357322
H  H51  1  0.74790000  0.43260000  0.17070000  1.0 0.1220357322
H  H52  1  0.25210000  0.93260000  0.32930000  1.0 0.1220357322
H  H53  1  0.14800000  0.54750000  0.86870000  1.0 0.1220357322
H  H54  1  0.85200000  0.04750000  0.63130000  1.0 0.1220357322
H  H55  1  0.85200000  0.45250000  0.13130000  1.0 0.1220357322
H  H56  1  0.14800000  0.95250000  0.36870000  1.0 0.1220357322
H  H57  1  0.95040000  0.87740000  0.58160000  1.0 0.1220357322
H  H58  1  0.04960000  0.37740000  0.91840000  1.0 0.1220357322
H  H59  1  0.04960000  0.12260000  0.41840000  1.0 0.1220357322
H  H60  1  0.95040000  0.62260000  0.08160000  1.0 0.1220357322
H  H61  1  0.13870000  0.83560000  0.66480000  1.0 0.1220357322
H  H62  1  0.86130000  0.33560000  0.83520000  1.0 0.1220357322
H  H63  1  0.86130000  0.16440000  0.33520000  1.0 0.1220357322
H  H64  1  0.13870000  0.66440000  0.16480000  1.0 0.1220357322
H  H65  1  0.62120000  0.66940000  0.67200000  1.0 0.1220357322
H  H66  1  0.37880000  0.16940000  0.82800000  1.0 0.1220357322
H  H67  1  0.37880000  0.33060000  0.32800000  1.0 0.1220357322
H  H68  1  0.62120000  0.83060000  0.17200000  1.0 0.1220357322
H  H69  1  0.62210000  0.76990000  0.64490000  1.0 0.1220357322
H  H70  1  0.37790000  0.26990000  0.85510000  1.0 0.1220357322
H  H71  1  0.37790000  0.23010000  0.35510000  1.0 0.1220357322
H  H72  1  0.62210000  0.73010000  0.14490000  1.0 0.1220357322
C  C1  1  0.00240000  0.58630000  0.59620000  1.0 -0.1614201629
C  C2  1  0.99760000  0.08630000  0.90380000  1.0 -0.1614201629
C  C3  1  0.99760000  0.41370000  0.40380000  1.0 -0.1614201629
C  C4  1  0.00240000  0.91370000  0.09620000  1.0 -0.1614201629
C  C5  1  0.05550000  0.67560000  0.58870000  1.0 -0.1614201629
C  C6  1  0.94450000  0.17560000  0.91130000  1.0 -0.1614201629
C  C7  1  0.94450000  0.32440000  0.41130000  1.0 -0.1614201629
C  C8  1  0.05550000  0.82440000  0.08870000  1.0 -0.1614201629
C  C9  1  0.76350000  0.73940000  0.45870000  1.0 -0.1614201629
C  C10  1  0.23650000  0.23940000  0.04130000  1.0 -0.1614201629
C  C11  1  0.23650000  0.26060000  0.54130000  1.0 -0.1614201629
C  C12  1  0.76350000  0.76060000  0.95870000  1.0 -0.1614201629
C  C13  1  0.64460000  0.74860000  0.48100000  1.0 -0.1614201629
C  C14  1  0.35540000  0.24860000  0.01900000  1.0 -0.1614201629
C  C15  1  0.35540000  0.25140000  0.51900000  1.0 -0.1614201629
C  C16  1  0.64460000  0.75140000  0.98100000  1.0 -0.1614201629
C  C17  1  0.67540000  0.59620000  0.54680000  1.0 -0.1531014153
C  C18  1  0.32460000  0.09620000  0.95320000  1.0 -0.1531014153
C  C19  1  0.32460000  0.40380000  0.45320000  1.0 -0.1531014153
C  C20  1  0.67540000  0.90380000  0.04680000  1.0 -0.1531014153
C  C21  1  0.83530000  0.54440000  0.64980000  1.0 -0.1614201629
C  C22  1  0.16470000  0.04440000  0.85020000  1.0 -0.1614201629
C  C23  1  0.16470000  0.45560000  0.35020000  1.0 -0.1614201629
C  C24  1  0.83530000  0.95560000  0.14980000  1.0 -0.1614201629
C  C25  1  0.14720000  0.53970000  0.80270000  1.0 -0.1993372747
C  C26  1  0.85280000  0.03970000  0.69730000  1.0 -0.1993372747
C  C27  1  0.85280000  0.46030000  0.19730000  1.0 -0.1993372747
C  C28  1  0.14720000  0.96030000  0.30270000  1.0 -0.1993372747
C  C29  1  0.14950000  0.44460000  0.78240000  1.0 0.2704328737
C  C30  1  0.85050000  0.94460000  0.71760000  1.0 0.2704328737
C  C31  1  0.85050000  0.55540000  0.21760000  1.0 0.2704328737
C  C32  1  0.14950000  0.05540000  0.28240000  1.0 0.2704328737
C  C33  1  0.01860000  0.83170000  0.58460000  1.0 -0.2063895064
C  C34  1  0.98140000  0.33170000  0.91540000  1.0 -0.2063895064
C  C35  1  0.98140000  0.16830000  0.41540000  1.0 -0.2063895064
C  C36  1  0.01860000  0.66830000  0.08460000  1.0 -0.2063895064
C  C37  1  0.01470000  0.84610000  0.48440000  1.0 0.2887638351
C  C38  1  0.98530000  0.34610000  0.01560000  1.0 0.2887638351
C  C39  1  0.98530000  0.15390000  0.51560000  1.0 0.2887638351
C  C40  1  0.01470000  0.65390000  0.98440000  1.0 0.2887638351
C  C41  1  0.59020000  0.71090000  0.60900000  1.0 -0.1993372747
C  C42  1  0.40980000  0.21090000  0.89100000  1.0 -0.1993372747
C  C43  1  0.40980000  0.28910000  0.39100000  1.0 -0.1993372747
C  C44  1  0.59020000  0.78910000  0.10900000  1.0 -0.1993372747
C  C45  1  0.40180000  0.70720000  0.50150000  1.0 0.2775127282
C  C46  1  0.59820000  0.20720000  0.99850000  1.0 0.2775127282
C  C47  1  0.59820000  0.29280000  0.49850000  1.0 0.2775127282
C  C48  1  0.40180000  0.79280000  0.00150000  1.0 0.2775127282
N  N1  1  0.99540000  0.58180000  0.69140000  1.0 -0.0766721237
N  N2  1  0.00460000  0.08180000  0.80860000  1.0 -0.0766721237
N  N3  1  0.00460000  0.41820000  0.30860000  1.0 -0.0766721237
N  N4  1  0.99540000  0.91820000  0.19140000  1.0 -0.0766721237
N  N5  1  0.94790000  0.74670000  0.57210000  1.0 -0.0766721237
N  N6  1  0.05210000  0.24670000  0.92790000  1.0 -0.0766721237
N  N7  1  0.05210000  0.25330000  0.42790000  1.0 -0.0766721237
N  N8  1  0.94790000  0.75330000  0.07210000  1.0 -0.0766721237
N  N9  1  0.68680000  0.68980000  0.57540000  1.0 -0.0737986276
N  N10  1  0.31320000  0.18980000  0.92460000  1.0 -0.0737986276
N  N11  1  0.31320000  0.31020000  0.42460000  1.0 -0.0737986276
N  N12  1  0.68680000  0.81020000  0.07540000  1.0 -0.0737986276
N  N13  1  0.14010000  0.37280000  0.76050000  1.0 -0.4694138774
N  N14  1  0.85990000  0.87280000  0.73950000  1.0 -0.4694138774
N  N15  1  0.85990000  0.62720000  0.23950000  1.0 -0.4694138774
N  N16  1  0.14010000  0.12720000  0.26050000  1.0 -0.4694138774
N  N17  1  0.00350000  0.84850000  0.40340000  1.0 -0.4541984657
N  N18  1  0.99650000  0.34850000  0.09660000  1.0 -0.4541984657
N  N19  1  0.99650000  0.15150000  0.59660000  1.0 -0.4541984657
N  N20  1  0.00350000  0.65150000  0.90340000  1.0 -0.4541984657
N  N21  1  0.26120000  0.70590000  0.41470000  1.0 -0.4779818365
N  N22  1  0.73880000  0.20590000  0.08530000  1.0 -0.4779818365
N  N23  1  0.73880000  0.29410000  0.58530000  1.0 -0.4779818365
N  N24  1  0.26120000  0.79410000  0.91470000  1.0 -0.4779818365
