# DDEC6 charges by PACMAN v1.1 (https://github.com/mtap-research/PACMAN-charge/)
data_HOCZIL_ASR_pacman
_symmetry_space_group_name_H-M   'P 1'
_cell_length_a   8.04570000
_cell_length_b   8.04570000
_cell_length_c   48.96500000
_cell_angle_alpha   90.00000000
_cell_angle_beta   90.00000000
_cell_angle_gamma   90.00000000
_symmetry_Int_Tables_number   1
_chemical_formula_structural   CoH21C23N5O6
_chemical_formula_sum   'Co4 H84 C92 N20 O24'
_cell_volume   3169.66547091
_cell_formula_units_Z   4
loop_
 _symmetry_equiv_pos_site_id
 _symmetry_equiv_pos_as_xyz
  1  'x, y, z'
loop_
 _atom_site_type_symbol
 _atom_site_label
 _atom_site_symmetry_multiplicity
 _atom_site_fract_x
 _atom_site_fract_y
 _atom_site_fract_z
 _atom_site_occupancy
 _atom_site_charge
Co  Co1  1  0.46641000  0.46641000  0.12500000  1.0 0.7958985774
Co  Co2  1  0.53359000  0.53359000  0.62500000  1.0 0.7958985774
Co  Co3  1  0.53359000  0.46641000  0.87500000  1.0 0.7948491979
Co  Co4  1  0.46641000  0.53359000  0.37500000  1.0 0.7958985774
H  H1  1  0.64350000  0.07290000  0.02630000  1.0 0.2745837379
H  H2  1  0.73110000  0.06690000  0.08000000  1.0 0.0845142487
H  H3  1  0.89180000  0.30400000  0.07070000  1.0 0.1321432557
H  H4  1  0.93780000  0.15940000  0.05060000  1.0 0.1385159232
H  H5  1  0.82490000  0.30610000  0.04060000  1.0 0.1321432557
H  H6  1  0.55230000  0.56210000  0.03990000  1.0 0.1385159232
H  H7  1  0.42720000  0.08970000  0.12050000  1.0 0.102849036
H  H8  1  0.23340000  0.88080000  0.12090000  1.0 0.1385159232
H  H9  1  0.02470000  0.72990000  0.10280000  1.0 0.1385159232
H  H10  1  0.81600000  0.53480000  0.10250000  1.0 0.102849036
H  H11  1  0.35650000  0.92710000  0.52630000  1.0 0.2745837379
H  H12  1  0.26890000  0.93310000  0.58000000  1.0 0.0845142487
H  H13  1  0.10820000  0.69600000  0.57070000  1.0 0.1321432557
H  H14  1  0.06220000  0.84060000  0.55060000  1.0 0.1385159232
H  H15  1  0.17510000  0.69390000  0.54060000  1.0 0.1321432557
H  H16  1  0.44770000  0.43790000  0.53990000  1.0 0.1385159232
H  H17  1  0.57280000  0.91030000  0.62050000  1.0 0.102849036
H  H18  1  0.76660000  0.11920000  0.62090000  1.0 0.1385159232
H  H19  1  0.97530000  0.27010000  0.60280000  1.0 0.1385159232
H  H20  1  0.18400000  0.46520000  0.60250000  1.0 0.102849036
H  H21  1  0.92710000  0.64350000  0.77630000  1.0 0.2745837379
H  H22  1  0.93310000  0.73110000  0.83000000  1.0 0.0845142487
H  H23  1  0.69600000  0.89180000  0.82070000  1.0 0.1321432557
H  H24  1  0.84060000  0.93780000  0.80060000  1.0 0.1385159232
H  H25  1  0.69390000  0.82490000  0.79060000  1.0 0.1321432557
H  H26  1  0.43790000  0.55230000  0.78990000  1.0 0.1385159232
H  H27  1  0.91030000  0.42720000  0.87050000  1.0 0.102849036
H  H28  1  0.11920000  0.23340000  0.87090000  1.0 0.1385159232
H  H29  1  0.27010000  0.02470000  0.85280000  1.0 0.1385159232
H  H30  1  0.46520000  0.81600000  0.85250000  1.0 0.102849036
H  H31  1  0.07290000  0.35650000  0.27630000  1.0 0.2745837379
H  H32  1  0.06690000  0.26890000  0.33000000  1.0 0.0845142487
H  H33  1  0.30400000  0.10820000  0.32070000  1.0 0.1321432557
H  H34  1  0.15940000  0.06220000  0.30060000  1.0 0.1385159232
H  H35  1  0.30610000  0.17510000  0.29060000  1.0 0.1321432557
H  H36  1  0.56210000  0.44770000  0.28990000  1.0 0.1385159232
H  H37  1  0.08970000  0.57280000  0.37050000  1.0 0.102849036
H  H38  1  0.88080000  0.76660000  0.37090000  1.0 0.1385159232
H  H39  1  0.72990000  0.97530000  0.35280000  1.0 0.1385159232
H  H40  1  0.53480000  0.18400000  0.35250000  1.0 0.102849036
H  H41  1  0.35650000  0.07290000  0.97370000  1.0 0.2745837379
H  H42  1  0.26890000  0.06690000  0.92000000  1.0 0.0845142487
H  H43  1  0.10820000  0.30400000  0.92930000  1.0 0.1321432557
H  H44  1  0.06220000  0.15940000  0.94940000  1.0 0.1385159232
H  H45  1  0.17510000  0.30610000  0.95940000  1.0 0.1321432557
H  H46  1  0.44770000  0.56210000  0.96010000  1.0 0.1385159232
H  H47  1  0.57280000  0.08970000  0.87950000  1.0 0.102849036
H  H48  1  0.76660000  0.88080000  0.87910000  1.0 0.1385159232
H  H49  1  0.97530000  0.72990000  0.89720000  1.0 0.1385159232
H  H50  1  0.18400000  0.53480000  0.89750000  1.0 0.102849036
H  H51  1  0.64350000  0.92710000  0.47370000  1.0 0.2745837379
H  H52  1  0.73110000  0.93310000  0.42000000  1.0 0.0845142487
H  H53  1  0.89180000  0.69600000  0.42930000  1.0 0.1321432557
H  H54  1  0.93780000  0.84060000  0.44940000  1.0 0.1385159232
H  H55  1  0.82490000  0.69390000  0.45940000  1.0 0.1321432557
H  H56  1  0.55230000  0.43790000  0.46010000  1.0 0.1385159232
H  H57  1  0.42720000  0.91030000  0.37950000  1.0 0.102849036
H  H58  1  0.23340000  0.11920000  0.37910000  1.0 0.1385159232
H  H59  1  0.02470000  0.27010000  0.39720000  1.0 0.1385159232
H  H60  1  0.81600000  0.46520000  0.39750000  1.0 0.102849036
H  H61  1  0.07290000  0.64350000  0.22370000  1.0 0.2745837379
H  H62  1  0.06690000  0.73110000  0.17000000  1.0 0.0845142487
H  H63  1  0.30400000  0.89180000  0.17930000  1.0 0.1321432557
H  H64  1  0.15940000  0.93780000  0.19940000  1.0 0.1385159232
H  H65  1  0.30610000  0.82490000  0.20940000  1.0 0.1321432557
H  H66  1  0.56210000  0.55230000  0.21010000  1.0 0.1385159232
H  H67  1  0.08970000  0.42720000  0.12950000  1.0 0.102849036
H  H68  1  0.88080000  0.23340000  0.12910000  1.0 0.1385159232
H  H69  1  0.72990000  0.02470000  0.14720000  1.0 0.1385159232
H  H70  1  0.53480000  0.81600000  0.14750000  1.0 0.102849036
H  H71  1  0.92710000  0.35650000  0.72370000  1.0 0.2745837379
H  H72  1  0.93310000  0.26890000  0.67000000  1.0 0.0845142487
H  H73  1  0.69600000  0.10820000  0.67930000  1.0 0.1321432557
H  H74  1  0.84060000  0.06220000  0.69940000  1.0 0.1385159232
H  H75  1  0.69390000  0.17510000  0.70940000  1.0 0.1321432557
H  H76  1  0.43790000  0.44770000  0.71010000  1.0 0.1385159232
H  H77  1  0.91030000  0.57280000  0.62950000  1.0 0.102849036
H  H78  1  0.11920000  0.76660000  0.62910000  1.0 0.1385159232
H  H79  1  0.27010000  0.97530000  0.64720000  1.0 0.1385159232
H  H80  1  0.46520000  0.18400000  0.64750000  1.0 0.102849036
H  H81  1  0.50000000  0.41460000  0.00000000  1.0 0.1321432557
H  H82  1  0.50000000  0.58540000  0.50000000  1.0 0.1321432557
H  H83  1  0.58540000  0.50000000  0.75000000  1.0 0.1321432557
H  H84  1  0.41460000  0.50000000  0.25000000  1.0 0.1321432557
C  C1  1  0.56970000  0.26290000  0.07605000  1.0 0.5506068874
C  C2  1  0.69830000  0.14060000  0.06495000  1.0 0.0256800554
C  C3  1  0.85250000  0.23640000  0.05586000  1.0 -0.414972682
C  C4  1  0.57040000  0.88990000  0.04768000  1.0 0.4285928119
C  C5  1  0.53090000  0.78970000  0.02271000  1.0 0.1102022646
C  C6  1  0.53130000  0.61760000  0.02363000  1.0 -0.1216220152
C  C7  1  0.31580000  0.11800000  0.12245000  1.0 0.0929975692
C  C8  1  0.20030000  0.99120000  0.12249000  1.0 -0.1836797264
C  C9  1  0.92520000  0.75160000  0.11174000  1.0 -0.1916513932
C  C10  1  0.79930000  0.63370000  0.11192000  1.0 0.1102022646
C  C11  1  0.43030000  0.73710000  0.57605000  1.0 0.5506068874
C  C12  1  0.30170000  0.85940000  0.56495000  1.0 0.0256800554
C  C13  1  0.14750000  0.76360000  0.55586000  1.0 -0.4154342007
C  C14  1  0.42960000  0.11010000  0.54768000  1.0 0.4285928119
C  C15  1  0.46910000  0.21030000  0.52271000  1.0 0.1102022646
C  C16  1  0.46870000  0.38240000  0.52363000  1.0 -0.1216220152
C  C17  1  0.68420000  0.88200000  0.62245000  1.0 0.0929975692
C  C18  1  0.79970000  0.00880000  0.62249000  1.0 -0.1836797264
C  C19  1  0.07480000  0.24840000  0.61174000  1.0 -0.1916513932
C  C20  1  0.20070000  0.36630000  0.61192000  1.0 0.1102022646
C  C21  1  0.73710000  0.56970000  0.82605000  1.0 0.5506068874
C  C22  1  0.85940000  0.69830000  0.81495000  1.0 0.0256800554
C  C23  1  0.76360000  0.85250000  0.80586000  1.0 -0.4154342007
C  C24  1  0.11010000  0.57040000  0.79768000  1.0 0.4285928119
C  C25  1  0.21030000  0.53090000  0.77271000  1.0 0.1102022646
C  C26  1  0.38240000  0.53130000  0.77363000  1.0 -0.1216220152
C  C27  1  0.88200000  0.31580000  0.87245000  1.0 0.0929975692
C  C28  1  0.00880000  0.20030000  0.87249000  1.0 -0.1836797264
C  C29  1  0.24840000  0.92520000  0.86174000  1.0 -0.1916513932
C  C30  1  0.36630000  0.79930000  0.86192000  1.0 0.1102022646
C  C31  1  0.26290000  0.43030000  0.32605000  1.0 0.5506068874
C  C32  1  0.14060000  0.30170000  0.31495000  1.0 0.0256800554
C  C33  1  0.23640000  0.14750000  0.30586000  1.0 -0.4154342007
C  C34  1  0.88990000  0.42960000  0.29768000  1.0 0.4285928119
C  C35  1  0.78970000  0.46910000  0.27271000  1.0 0.1102022646
C  C36  1  0.61760000  0.46870000  0.27363000  1.0 -0.1216220152
C  C37  1  0.11800000  0.68420000  0.37245000  1.0 0.0929975692
C  C38  1  0.99120000  0.79970000  0.37249000  1.0 -0.1836797264
C  C39  1  0.75160000  0.07480000  0.36174000  1.0 -0.1916513932
C  C40  1  0.63370000  0.20070000  0.36192000  1.0 0.1102022646
C  C41  1  0.43030000  0.26290000  0.92395000  1.0 0.5506068874
C  C42  1  0.30170000  0.14060000  0.93505000  1.0 0.0256800554
C  C43  1  0.14750000  0.23640000  0.94414000  1.0 -0.4154342007
C  C44  1  0.42960000  0.88990000  0.95232000  1.0 0.4285928119
C  C45  1  0.46910000  0.78970000  0.97729000  1.0 0.1102022646
C  C46  1  0.46870000  0.61760000  0.97637000  1.0 -0.1216220152
C  C47  1  0.68420000  0.11800000  0.87755000  1.0 0.0929975692
C  C48  1  0.79970000  0.99120000  0.87751000  1.0 -0.1836797264
C  C49  1  0.07480000  0.75160000  0.88826000  1.0 -0.1916513932
C  C50  1  0.20070000  0.63370000  0.88808000  1.0 0.1102022646
C  C51  1  0.56970000  0.73710000  0.42395000  1.0 0.5506068874
C  C52  1  0.69830000  0.85940000  0.43505000  1.0 0.0256800554
C  C53  1  0.85250000  0.76360000  0.44414000  1.0 -0.4154342007
C  C54  1  0.57040000  0.11010000  0.45232000  1.0 0.4285928119
C  C55  1  0.53090000  0.21030000  0.47729000  1.0 0.1102022646
C  C56  1  0.53130000  0.38240000  0.47637000  1.0 -0.1216220152
C  C57  1  0.31580000  0.88200000  0.37755000  1.0 0.0929975692
C  C58  1  0.20030000  0.00880000  0.37751000  1.0 -0.1836797264
C  C59  1  0.92520000  0.24840000  0.38826000  1.0 -0.1916513932
C  C60  1  0.79930000  0.36630000  0.38808000  1.0 0.1102022646
C  C61  1  0.26290000  0.56970000  0.17395000  1.0 0.5506068874
C  C62  1  0.14060000  0.69830000  0.18505000  1.0 0.0256800554
C  C63  1  0.23640000  0.85250000  0.19414000  1.0 -0.4154342007
C  C64  1  0.88990000  0.57040000  0.20232000  1.0 0.4285928119
C  C65  1  0.78970000  0.53090000  0.22729000  1.0 0.1102022646
C  C66  1  0.61760000  0.53130000  0.22637000  1.0 -0.1216220152
C  C67  1  0.11800000  0.31580000  0.12755000  1.0 0.0929975692
C  C68  1  0.99120000  0.20030000  0.12751000  1.0 -0.1836797264
C  C69  1  0.75160000  0.92520000  0.13826000  1.0 -0.1916513932
C  C70  1  0.63370000  0.79930000  0.13808000  1.0 0.1102022646
C  C71  1  0.73710000  0.43030000  0.67395000  1.0 0.5506068874
C  C72  1  0.85940000  0.30170000  0.68505000  1.0 0.0256800554
C  C73  1  0.76360000  0.14750000  0.69414000  1.0 -0.4154342007
C  C74  1  0.11010000  0.42960000  0.70232000  1.0 0.4285928119
C  C75  1  0.21030000  0.46910000  0.72729000  1.0 0.1102022646
C  C76  1  0.38240000  0.46870000  0.72637000  1.0 -0.1216220152
C  C77  1  0.88200000  0.68420000  0.62755000  1.0 0.0929975692
C  C78  1  0.00880000  0.79970000  0.62751000  1.0 -0.1836797264
C  C79  1  0.24840000  0.07480000  0.63826000  1.0 -0.1916513932
C  C80  1  0.36630000  0.20070000  0.63808000  1.0 0.1102022646
C  C81  1  0.03270000  0.03270000  0.12500000  1.0 0.1102022646
C  C82  1  0.90180000  0.90180000  0.12500000  1.0 0.1102022646
C  C83  1  0.96730000  0.96730000  0.62500000  1.0 0.1102022646
C  C84  1  0.09820000  0.09820000  0.62500000  1.0 0.1102022646
C  C85  1  0.96730000  0.03270000  0.87500000  1.0 0.1102022646
C  C86  1  0.09820000  0.90180000  0.87500000  1.0 0.1102022646
C  C87  1  0.03270000  0.96730000  0.37500000  1.0 0.1102022646
C  C88  1  0.90180000  0.09820000  0.37500000  1.0 0.1102022646
C  C89  1  0.50000000  0.53020000  0.00000000  1.0 -0.0329888672
C  C90  1  0.50000000  0.46980000  0.50000000  1.0 -0.0329888672
C  C91  1  0.46980000  0.50000000  0.75000000  1.0 -0.0329888672
C  C92  1  0.53020000  0.50000000  0.25000000  1.0 -0.0329888672
N  N1  1  0.63670000  0.03750000  0.04288000  1.0 -0.3236444484
N  N2  1  0.36330000  0.96250000  0.54288000  1.0 -0.3236444484
N  N3  1  0.96250000  0.63670000  0.79288000  1.0 -0.3236444484
N  N4  1  0.03750000  0.36330000  0.29288000  1.0 -0.3236444484
N  N5  1  0.36330000  0.03750000  0.95712000  1.0 -0.3236444484
N  N6  1  0.63670000  0.96250000  0.45712000  1.0 -0.3236444484
N  N7  1  0.03750000  0.63670000  0.20712000  1.0 -0.3236444484
N  N8  1  0.96250000  0.36330000  0.70712000  1.0 -0.3236444484
N  N9  1  0.27800000  0.27800000  0.12500000  1.0 -0.2235595849
N  N10  1  0.65550000  0.65550000  0.12500000  1.0 -0.2235595849
N  N11  1  0.72200000  0.72200000  0.62500000  1.0 -0.2235595849
N  N12  1  0.34450000  0.34450000  0.62500000  1.0 -0.2235595849
N  N13  1  0.72200000  0.27800000  0.87500000  1.0 -0.2235595849
N  N14  1  0.34450000  0.65550000  0.87500000  1.0 -0.2235595849
N  N15  1  0.27800000  0.72200000  0.37500000  1.0 -0.2235595849
N  N16  1  0.65550000  0.34450000  0.37500000  1.0 -0.2235595849
N  N17  1  0.50000000  0.87730000  0.00000000  1.0 -0.3470707205
N  N18  1  0.50000000  0.12270000  0.50000000  1.0 -0.3470707205
N  N19  1  0.12270000  0.50000000  0.75000000  1.0 -0.3470707205
N  N20  1  0.87730000  0.50000000  0.25000000  1.0 -0.3470707205
O  O1  1  0.60850000  0.32340000  0.09914000  1.0 -0.5921937269
O  O2  1  0.44260000  0.29800000  0.06254000  1.0 -0.5589851331
O  O3  1  0.54620000  0.83240000  0.07098000  1.0 -0.4746689093
O  O4  1  0.39150000  0.67660000  0.59914000  1.0 -0.5921937269
O  O5  1  0.55740000  0.70200000  0.56254000  1.0 -0.5589851331
O  O6  1  0.45380000  0.16760000  0.57098000  1.0 -0.4746689093
O  O7  1  0.67660000  0.60850000  0.84914000  1.0 -0.5921937269
O  O8  1  0.70200000  0.44260000  0.81254000  1.0 -0.5589851331
O  O9  1  0.16760000  0.54620000  0.82098000  1.0 -0.4746689093
O  O10  1  0.32340000  0.39150000  0.34914000  1.0 -0.5921937269
O  O11  1  0.29800000  0.55740000  0.31254000  1.0 -0.5589851331
O  O12  1  0.83240000  0.45380000  0.32098000  1.0 -0.4751044404
O  O13  1  0.39150000  0.32340000  0.90086000  1.0 -0.5921937269
O  O14  1  0.55740000  0.29800000  0.93746000  1.0 -0.5589851331
O  O15  1  0.45380000  0.83240000  0.92902000  1.0 -0.4751044404
O  O16  1  0.60850000  0.67660000  0.40086000  1.0 -0.5921937269
O  O17  1  0.44260000  0.70200000  0.43746000  1.0 -0.5589851331
O  O18  1  0.54620000  0.16760000  0.42902000  1.0 -0.4746689093
O  O19  1  0.32340000  0.60850000  0.15086000  1.0 -0.5921937269
O  O20  1  0.29800000  0.44260000  0.18746000  1.0 -0.5589851331
O  O21  1  0.83240000  0.54620000  0.17902000  1.0 -0.4746689093
O  O22  1  0.67660000  0.39150000  0.65086000  1.0 -0.5921937269
O  O23  1  0.70200000  0.55740000  0.68746000  1.0 -0.5589851331
O  O24  1  0.16760000  0.45380000  0.67902000  1.0 -0.4746689093
