# DDEC6 charges by PACMAN v1.1 (https://github.com/mtap-research/PACMAN-charge/)
data_HOGJOD_FSR_pacman
_symmetry_space_group_name_H-M   'P 1'
_cell_length_a   15.05060000
_cell_length_b   15.05060000
_cell_length_c   21.04900000
_cell_angle_alpha   88.26120000
_cell_angle_beta   91.73880000
_cell_angle_gamma   71.00540000
_symmetry_Int_Tables_number   1
_chemical_formula_structural   H13Ru2C34SN4O8F7
_chemical_formula_sum   'H52 Ru8 C136 S4 N16 O32 F28'
_cell_volume   4502.25034432
_cell_formula_units_Z   4
loop_
 _symmetry_equiv_pos_site_id
 _symmetry_equiv_pos_as_xyz
  1  'x, y, z'
loop_
 _atom_site_type_symbol
 _atom_site_label
 _atom_site_symmetry_multiplicity
 _atom_site_fract_x
 _atom_site_fract_y
 _atom_site_fract_z
 _atom_site_occupancy
 _atom_site_charge
H  H1  1  0.35890000  0.53350000  0.70150000  1.0 0.1596238016
H  H2  1  0.53350000  0.35890000  0.79850000  1.0 0.1596238016
H  H3  1  0.64110000  0.46650000  0.29850000  1.0 0.1596238016
H  H4  1  0.46650000  0.64110000  0.20150000  1.0 0.1596238016
H  H5  1  0.18320000  0.77740000  0.76620000  1.0 0.1704270764
H  H6  1  0.77740000  0.18320000  0.73380000  1.0 0.1704270764
H  H7  1  0.81680000  0.22260000  0.23380000  1.0 0.1704270764
H  H8  1  0.22260000  0.81680000  0.26620000  1.0 0.1704270764
H  H9  1  0.29800000  0.77640000  0.59480000  1.0 0.1596238016
H  H10  1  0.77640000  0.29800000  0.90520000  1.0 0.1596238016
H  H11  1  0.70200000  0.22360000  0.40520000  1.0 0.1596238016
H  H12  1  0.22360000  0.70200000  0.09480000  1.0 0.1596238016
H  H13  1  0.24030000  0.39790000  0.44760000  1.0 0.1500405082
H  H14  1  0.39790000  0.24030000  0.05240000  1.0 0.1500405082
H  H15  1  0.75970000  0.60210000  0.55240000  1.0 0.1500405082
H  H16  1  0.60210000  0.75970000  0.94760000  1.0 0.1500405082
H  H17  1  0.04220000  0.51320000  0.30610000  1.0 0.1596238016
H  H18  1  0.51320000  0.04220000  0.19390000  1.0 0.1596238016
H  H19  1  0.95780000  0.48680000  0.69390000  1.0 0.1596238016
H  H20  1  0.48680000  0.95780000  0.80610000  1.0 0.1596238016
H  H21  1  0.26830000  0.60130000  0.33190000  1.0 0.1500405082
H  H22  1  0.60130000  0.26830000  0.16810000  1.0 0.1500405082
H  H23  1  0.73170000  0.39870000  0.66810000  1.0 0.1500405082
H  H24  1  0.39870000  0.73170000  0.83190000  1.0 0.1500405082
H  H25  1  0.11490000  0.66870000  0.62560000  1.0 0.1500405082
H  H26  1  0.66870000  0.11490000  0.87440000  1.0 0.1500405082
H  H27  1  0.88510000  0.33130000  0.37440000  1.0 0.1500405082
H  H28  1  0.33130000  0.88510000  0.12560000  1.0 0.1500405082
H  H29  1  0.09500000  0.65020000  0.43470000  1.0 0.125029529
H  H30  1  0.65020000  0.09500000  0.06530000  1.0 0.1245550313
H  H31  1  0.90500000  0.34980000  0.56530000  1.0 0.1245550313
H  H32  1  0.34980000  0.90500000  0.93470000  1.0 0.1245550313
H  H33  1  0.94900000  0.77500000  0.43060000  1.0 0.1091337401
H  H34  1  0.77500000  0.94900000  0.06940000  1.0 0.1091337401
H  H35  1  0.05100000  0.22500000  0.56940000  1.0 0.1091337401
H  H36  1  0.22500000  0.05100000  0.93060000  1.0 0.1091337401
H  H37  1  0.89040000  0.84620000  0.52380000  1.0 0.1245550313
H  H38  1  0.84620000  0.89040000  0.97620000  1.0 0.1245550313
H  H39  1  0.10960000  0.15380000  0.47620000  1.0 0.1245550313
H  H40  1  0.15380000  0.10960000  0.02380000  1.0 0.1245550313
H  H41  1  0.96210000  0.15890000  0.69460000  1.0 0.1500405082
H  H42  1  0.15890000  0.96210000  0.80540000  1.0 0.1500405082
H  H43  1  0.03790000  0.84110000  0.30540000  1.0 0.1500405082
H  H44  1  0.84110000  0.03790000  0.19460000  1.0 0.1500405082
H  H45  1  0.20530000  0.20530000  0.75000000  1.0 0.1704270764
H  H46  1  0.79470000  0.79470000  0.25000000  1.0 0.1704270764
H  H47  1  0.60830000  0.79970000  0.69410000  1.0 0.1500405082
H  H48  1  0.79970000  0.60830000  0.80590000  1.0 0.1500405082
H  H49  1  0.39170000  0.20030000  0.30590000  1.0 0.1500405082
H  H50  1  0.20030000  0.39170000  0.19410000  1.0 0.1500405082
H  H51  1  0.56080000  0.56080000  0.75000000  1.0 0.1399960318
H  H52  1  0.43920000  0.43920000  0.25000000  1.0 0.1399960318
Ru  Ru1  1  0.50295000  0.43171000  0.52598000  1.0 0.804237614
Ru  Ru2  1  0.43171000  0.50295000  0.97402000  1.0 0.8060330847
Ru  Ru3  1  0.49705000  0.56829000  0.47402000  1.0 0.804237614
Ru  Ru4  1  0.56829000  0.49705000  0.02598000  1.0 0.804237614
Ru  Ru5  1  0.82532000  0.93944000  0.72121000  1.0 0.7826236584
Ru  Ru6  1  0.93944000  0.82532000  0.77879000  1.0 0.7826236584
Ru  Ru7  1  0.17468000  0.06056000  0.27879000  1.0 0.7826236584
Ru  Ru8  1  0.06056000  0.17468000  0.22121000  1.0 0.7826236584
C  C1  1  0.39480000  0.59440000  0.58900000  1.0 0.5277928689
C  C2  1  0.59440000  0.39480000  0.91100000  1.0 0.5277928689
C  C3  1  0.60520000  0.40560000  0.41100000  1.0 0.5277928689
C  C4  1  0.40560000  0.60520000  0.08900000  1.0 0.5277928689
C  C5  1  0.33460000  0.64720000  0.63880000  1.0 0.0421876102
C  C6  1  0.64720000  0.33460000  0.86120000  1.0 0.0421876102
C  C7  1  0.66540000  0.35280000  0.36120000  1.0 0.0421876102
C  C8  1  0.35280000  0.66540000  0.13880000  1.0 0.0421876102
C  C9  1  0.32600000  0.59880000  0.69510000  1.0 -0.2912517489
C  C10  1  0.59880000  0.32600000  0.80490000  1.0 -0.2912517489
C  C11  1  0.67400000  0.40120000  0.30490000  1.0 -0.2912517489
C  C12  1  0.40120000  0.67400000  0.19510000  1.0 -0.2912517489
C  C13  1  0.26870000  0.64850000  0.74110000  1.0 0.3484470909
C  C14  1  0.64850000  0.26870000  0.75890000  1.0 0.3484470909
C  C15  1  0.73130000  0.35150000  0.25890000  1.0 0.3484470909
C  C16  1  0.35150000  0.73130000  0.24110000  1.0 0.3484470909
C  C17  1  0.22220000  0.74440000  0.73410000  1.0 -0.3931994042
C  C18  1  0.74440000  0.22220000  0.76590000  1.0 -0.3931994042
C  C19  1  0.77780000  0.25560000  0.26590000  1.0 -0.3931994042
C  C20  1  0.25560000  0.77780000  0.23410000  1.0 -0.3931994042
C  C21  1  0.23450000  0.79090000  0.67890000  1.0 0.3447002271
C  C22  1  0.79090000  0.23450000  0.82110000  1.0 0.3447002271
C  C23  1  0.76550000  0.20910000  0.32110000  1.0 0.3447002271
C  C24  1  0.20910000  0.76550000  0.17890000  1.0 0.3484470909
C  C25  1  0.29010000  0.74310000  0.63210000  1.0 -0.273959006
C  C26  1  0.74310000  0.29010000  0.86790000  1.0 -0.273959006
C  C27  1  0.70990000  0.25690000  0.36790000  1.0 -0.273959006
C  C28  1  0.25690000  0.70990000  0.13210000  1.0 -0.273959006
C  C29  1  0.34820000  0.50020000  0.43430000  1.0 0.5277928689
C  C30  1  0.50020000  0.34820000  0.06570000  1.0 0.5277928689
C  C31  1  0.65180000  0.49980000  0.56570000  1.0 0.5277928689
C  C32  1  0.49980000  0.65180000  0.93430000  1.0 0.5277928689
C  C33  1  0.26300000  0.50160000  0.39730000  1.0 0.0507774274
C  C34  1  0.50160000  0.26300000  0.10270000  1.0 0.0507774274
C  C35  1  0.73700000  0.49840000  0.60270000  1.0 0.0507774274
C  C36  1  0.49840000  0.73700000  0.89730000  1.0 0.0507774274
C  C37  1  0.21570000  0.44330000  0.41370000  1.0 -0.2801061361
C  C38  1  0.44330000  0.21570000  0.08630000  1.0 -0.2801061361
C  C39  1  0.78430000  0.55670000  0.58630000  1.0 -0.2801061361
C  C40  1  0.55670000  0.78430000  0.91370000  1.0 -0.2801061361
C  C41  1  0.13190000  0.44730000  0.38250000  1.0 0.369128766
C  C42  1  0.44730000  0.13190000  0.11750000  1.0 0.369128766
C  C43  1  0.86810000  0.55270000  0.61750000  1.0 0.369128766
C  C44  1  0.55270000  0.86810000  0.88250000  1.0 0.369128766
C  C45  1  0.09800000  0.51120000  0.32940000  1.0 -0.4133646986
C  C46  1  0.51120000  0.09800000  0.17060000  1.0 -0.4133646986
C  C47  1  0.90200000  0.48880000  0.67060000  1.0 -0.4133646986
C  C48  1  0.48880000  0.90200000  0.82940000  1.0 -0.4133646986
C  C49  1  0.14880000  0.57180000  0.31190000  1.0 0.3484470909
C  C50  1  0.57180000  0.14880000  0.18810000  1.0 0.3484470909
C  C51  1  0.85120000  0.42820000  0.68810000  1.0 0.3484470909
C  C52  1  0.42820000  0.85120000  0.81190000  1.0 0.3484470909
C  C53  1  0.23180000  0.56360000  0.34510000  1.0 -0.3197783096
C  C54  1  0.56360000  0.23180000  0.15490000  1.0 -0.3197783096
C  C55  1  0.76820000  0.43640000  0.65490000  1.0 -0.3197783096
C  C56  1  0.43640000  0.76820000  0.84510000  1.0 -0.3197783096
C  C57  1  0.95590000  0.80750000  0.64400000  1.0 0.5383474925
C  C58  1  0.80750000  0.95590000  0.85600000  1.0 0.5383474925
C  C59  1  0.04410000  0.19250000  0.35600000  1.0 0.5383474925
C  C60  1  0.19250000  0.04410000  0.14400000  1.0 0.5383474925
C  C61  1  0.99600000  0.76420000  0.58290000  1.0 0.0175644634
C  C62  1  0.76420000  0.99600000  0.91710000  1.0 0.0175644634
C  C63  1  0.00400000  0.23580000  0.41710000  1.0 0.0175644634
C  C64  1  0.23580000  0.00400000  0.08290000  1.0 0.0175644634
C  C65  1  0.08180000  0.69100000  0.58610000  1.0 -0.2330082445
C  C66  1  0.69100000  0.08180000  0.91390000  1.0 -0.2330082445
C  C67  1  0.91820000  0.30900000  0.41390000  1.0 -0.2330082445
C  C68  1  0.30900000  0.91820000  0.08610000  1.0 -0.2330082445
C  C69  1  0.11570000  0.65330000  0.53080000  1.0 0.2891500342
C  C70  1  0.65330000  0.11570000  0.96920000  1.0 0.2891500342
C  C71  1  0.88430000  0.34670000  0.46920000  1.0 0.2891500342
C  C72  1  0.34670000  0.88430000  0.03080000  1.0 0.2891500342
C  C73  1  0.06950000  0.68030000  0.47220000  1.0 -0.212853258
C  C74  1  0.68030000  0.06950000  0.02780000  1.0 -0.212853258
C  C75  1  0.93050000  0.31970000  0.52780000  1.0 -0.212853258
C  C76  1  0.31970000  0.93050000  0.97220000  1.0 -0.212853258
C  C77  1  0.98290000  0.75410000  0.47000000  1.0 -0.0712196356
C  C78  1  0.75410000  0.98290000  0.03000000  1.0 -0.0712196356
C  C79  1  0.01710000  0.24590000  0.53000000  1.0 -0.0712196356
C  C80  1  0.24590000  0.01710000  0.97000000  1.0 -0.0712196356
C  C81  1  0.94810000  0.79550000  0.52520000  1.0 -0.1236366382
C  C82  1  0.79550000  0.94810000  0.97480000  1.0 -0.1236366382
C  C83  1  0.05190000  0.20450000  0.47480000  1.0 -0.1236366382
C  C84  1  0.20450000  0.05190000  0.02520000  1.0 -0.1236366382
C  C85  1  0.99120000  0.99120000  0.75000000  1.0 0.5458489755
C  C86  1  0.00880000  0.00880000  0.25000000  1.0 0.5458489755
C  C87  1  0.05240000  0.05240000  0.75000000  1.0 0.0562663996
C  C88  1  0.94760000  0.94760000  0.25000000  1.0 0.0562663996
C  C89  1  0.02130000  0.13870000  0.71730000  1.0 -0.2801061361
C  C90  1  0.13870000  0.02130000  0.78270000  1.0 -0.2801061361
C  C91  1  0.97870000  0.86130000  0.28270000  1.0 -0.2801061361
C  C92  1  0.86130000  0.97870000  0.21730000  1.0 -0.2801061361
C  C93  1  0.07830000  0.19570000  0.71820000  1.0 0.36387674
C  C94  1  0.19570000  0.07830000  0.78180000  1.0 0.36387674
C  C95  1  0.92170000  0.80430000  0.28180000  1.0 0.36387674
C  C96  1  0.80430000  0.92170000  0.21820000  1.0 0.36387674
C  C97  1  0.16660000  0.16660000  0.75000000  1.0 -0.4161824486
C  C98  1  0.83340000  0.83340000  0.25000000  1.0 -0.4161824486
C  C99  1  0.77530000  0.77530000  0.75000000  1.0 0.5277928689
C  C100  1  0.22470000  0.22470000  0.25000000  1.0 0.5277928689
C  C101  1  0.71310000  0.71310000  0.75000000  1.0 0.0722989836
C  C102  1  0.28690000  0.28690000  0.25000000  1.0 0.0722989836
C  C103  1  0.62860000  0.74060000  0.71680000  1.0 -0.295181205
C  C104  1  0.74060000  0.62860000  0.78320000  1.0 -0.295181205
C  C105  1  0.37140000  0.25940000  0.28320000  1.0 -0.2912517489
C  C106  1  0.25940000  0.37140000  0.21680000  1.0 -0.2912517489
C  C107  1  0.57140000  0.68460000  0.71510000  1.0 0.3151624301
C  C108  1  0.68460000  0.57140000  0.78490000  1.0 0.3151624301
C  C109  1  0.42860000  0.31540000  0.28490000  1.0 0.3145894804
C  C110  1  0.31540000  0.42860000  0.21510000  1.0 0.3151624301
C  C111  1  0.59950000  0.59950000  0.75000000  1.0 -0.273959006
C  C112  1  0.40050000  0.40050000  0.25000000  1.0 -0.273959006
C  C113  1  0.54210000  0.21430000  0.57490000  1.0 0.2891500342
C  C114  1  0.21430000  0.54210000  0.92510000  1.0 0.2891500342
C  C115  1  0.45790000  0.78570000  0.42510000  1.0 0.2891500342
C  C116  1  0.78570000  0.45790000  0.07490000  1.0 0.2891500342
C  C117  1  0.57830000  0.11490000  0.57780000  1.0 -0.0712196356
C  C118  1  0.11490000  0.57830000  0.92220000  1.0 -0.0712196356
C  C119  1  0.42170000  0.88510000  0.42220000  1.0 -0.0712196356
C  C120  1  0.88510000  0.42170000  0.07780000  1.0 -0.0712196356
C  C121  1  0.65360000  0.07640000  0.62320000  1.0 0.2891500342
C  C122  1  0.07640000  0.65360000  0.87680000  1.0 0.2891500342
C  C123  1  0.34640000  0.92360000  0.37680000  1.0 0.2891500342
C  C124  1  0.92360000  0.34640000  0.12320000  1.0 0.2891500342
C  C125  1  0.54070000  0.05990000  0.53930000  1.0 -0.0299946619
C  C126  1  0.05990000  0.54070000  0.96070000  1.0 -0.0299946619
C  C127  1  0.45930000  0.94010000  0.46070000  1.0 -0.0299946619
C  C128  1  0.94010000  0.45930000  0.03930000  1.0 -0.0299946619
C  C129  1  0.58140000  0.96020000  0.53930000  1.0 0.1091337401
C  C130  1  0.96020000  0.58140000  0.96070000  1.0 0.1091337401
C  C131  1  0.41860000  0.03980000  0.46070000  1.0 0.1091337401
C  C132  1  0.03980000  0.41860000  0.03930000  1.0 0.1091337401
C  C133  1  0.54250000  0.90250000  0.50190000  1.0 0.1091337401
C  C134  1  0.90250000  0.54250000  0.99810000  1.0 0.1091337401
C  C135  1  0.45750000  0.09750000  0.49810000  1.0 0.1091337401
C  C136  1  0.09750000  0.45750000  0.00190000  1.0 0.1091337401
S  S1  1  0.67892000  0.80276000  0.55759000  1.0 0.3904766762
S  S2  1  0.80276000  0.67892000  0.94241000  1.0 0.3904766762
S  S3  1  0.32108000  0.19724000  0.44241000  1.0 0.3904766762
S  S4  1  0.19724000  0.32108000  0.05759000  1.0 0.3904766762
N  N1  1  0.51740000  0.29440000  0.57410000  1.0 -0.3384088776
N  N2  1  0.29440000  0.51740000  0.92590000  1.0 -0.3384088776
N  N3  1  0.48260000  0.70560000  0.42590000  1.0 -0.3384088776
N  N4  1  0.70560000  0.48260000  0.07410000  1.0 -0.3384088776
N  N5  1  0.71120000  0.04860000  0.66180000  1.0 -0.3499525688
N  N6  1  0.04860000  0.71120000  0.83820000  1.0 -0.3499525688
N  N7  1  0.28880000  0.95140000  0.33820000  1.0 -0.3499525688
N  N8  1  0.95140000  0.28880000  0.16180000  1.0 -0.3499525688
N  N9  1  0.65990000  0.91110000  0.57200000  1.0 -0.309531053
N  N10  1  0.91110000  0.65990000  0.92800000  1.0 -0.309531053
N  N11  1  0.34010000  0.08890000  0.42800000  1.0 -0.309531053
N  N12  1  0.08890000  0.34010000  0.07200000  1.0 -0.309531053
N  N13  1  0.59070000  0.81070000  0.50900000  1.0 -0.3197783096
N  N14  1  0.81070000  0.59070000  0.99100000  1.0 -0.3197783096
N  N15  1  0.40930000  0.18930000  0.49100000  1.0 -0.3197783096
N  N16  1  0.18930000  0.40930000  0.00900000  1.0 -0.3197783096
O  O1  1  0.42282000  0.50482000  0.59390000  1.0 -0.448696868
O  O2  1  0.50482000  0.42282000  0.90610000  1.0 -0.448696868
O  O3  1  0.57718000  0.49518000  0.40610000  1.0 -0.448696868
O  O4  1  0.49518000  0.57718000  0.09390000  1.0 -0.448696868
O  O5  1  0.41586000  0.64006000  0.54340000  1.0 -0.448696868
O  O6  1  0.64006000  0.41586000  0.95660000  1.0 -0.448696868
O  O7  1  0.58414000  0.35994000  0.45660000  1.0 -0.448696868
O  O8  1  0.35994000  0.58414000  0.04340000  1.0 -0.448696868
O  O9  1  0.38465000  0.43305000  0.47510000  1.0 -0.4426795891
O  O10  1  0.43305000  0.38465000  0.02490000  1.0 -0.4426795891
O  O11  1  0.61535000  0.56695000  0.52490000  1.0 -0.4426795891
O  O12  1  0.56695000  0.61535000  0.97510000  1.0 -0.4426795891
O  O13  1  0.37996000  0.56716000  0.42350000  1.0 -0.4426795891
O  O14  1  0.56716000  0.37996000  0.07650000  1.0 -0.4426795891
O  O15  1  0.62004000  0.43284000  0.57650000  1.0 -0.4426795891
O  O16  1  0.43284000  0.62004000  0.92350000  1.0 -0.4426795891
O  O17  1  0.99774000  0.76974000  0.69580000  1.0 -0.4598061046
O  O18  1  0.76974000  0.99774000  0.80420000  1.0 -0.4598061046
O  O19  1  0.00226000  0.23026000  0.30420000  1.0 -0.4598061046
O  O20  1  0.23026000  0.00226000  0.19580000  1.0 -0.4598061046
O  O21  1  0.88288000  0.87888000  0.63940000  1.0 -0.448696868
O  O22  1  0.87888000  0.88288000  0.86060000  1.0 -0.448696868
O  O23  1  0.11712000  0.12112000  0.36060000  1.0 -0.448696868
O  O24  1  0.12112000  0.11712000  0.13940000  1.0 -0.448696868
O  O25  1  0.91148000  0.02228000  0.72002000  1.0 -0.4680154375
O  O26  1  0.02228000  0.91148000  0.77998000  1.0 -0.4680154375
O  O27  1  0.08852000  0.97772000  0.27998000  1.0 -0.4680154375
O  O28  1  0.97772000  0.08852000  0.22002000  1.0 -0.4680154375
O  O29  1  0.74158000  0.85518000  0.72280000  1.0 -0.448696868
O  O30  1  0.85518000  0.74158000  0.77720000  1.0 -0.448696868
O  O31  1  0.25842000  0.14482000  0.27720000  1.0 -0.448696868
O  O32  1  0.14482000  0.25842000  0.22280000  1.0 -0.448696868
F  F1  1  0.25810000  0.60330000  0.79070000  1.0 -0.1368743803
F  F2  1  0.60330000  0.25810000  0.70930000  1.0 -0.1368743803
F  F3  1  0.74190000  0.39670000  0.20930000  1.0 -0.1368743803
F  F4  1  0.39670000  0.74190000  0.29070000  1.0 -0.1368743803
F  F5  1  0.09070000  0.39350000  0.39030000  1.0 -0.099117734
F  F6  1  0.39350000  0.09070000  0.10970000  1.0 -0.099117734
F  F7  1  0.90930000  0.60650000  0.60970000  1.0 -0.099117734
F  F8  1  0.60650000  0.90930000  0.89030000  1.0 -0.099117734
F  F9  1  0.20100000  0.58360000  0.53170000  1.0 -0.1368743803
F  F10  1  0.58360000  0.20100000  0.96830000  1.0 -0.1368743803
F  F11  1  0.79900000  0.41640000  0.46830000  1.0 -0.1368743803
F  F12  1  0.41640000  0.79900000  0.03170000  1.0 -0.1368743803
F  F13  1  0.06050000  0.27210000  0.68680000  1.0 -0.1539167664
F  F14  1  0.27210000  0.06050000  0.81320000  1.0 -0.1539167664
F  F15  1  0.93950000  0.72790000  0.31320000  1.0 -0.1539167664
F  F16  1  0.72790000  0.93950000  0.18680000  1.0 -0.1539167664
F  F17  1  0.50680000  0.68660000  0.69500000  1.0 -0.0523024774
F  F18  1  0.68660000  0.50680000  0.80500000  1.0 -0.0523024774
F  F19  1  0.49320000  0.31340000  0.30500000  1.0 -0.0523024774
F  F20  1  0.31340000  0.49320000  0.19500000  1.0 -0.0523024774
F  F21  1  0.18760000  0.87780000  0.67260000  1.0 -0.1368743803
F  F22  1  0.87780000  0.18760000  0.82740000  1.0 -0.1368743803
F  F23  1  0.81240000  0.12220000  0.32740000  1.0 -0.1368743803
F  F24  1  0.12220000  0.81240000  0.17260000  1.0 -0.1368743803
F  F25  1  0.11500000  0.61340000  0.26710000  1.0 -0.099117734
F  F26  1  0.61340000  0.11500000  0.23290000  1.0 -0.099117734
F  F27  1  0.88500000  0.38660000  0.73290000  1.0 -0.099117734
F  F28  1  0.38660000  0.88500000  0.76710000  1.0 -0.099117734
