# DDEC6 charges by PACMAN v1.1 (https://github.com/mtap-research/PACMAN-charge/)
data_HOGSIG_ASR_pacman
_symmetry_space_group_name_H-M   'P 1'
_cell_length_a   14.25100000
_cell_length_b   14.25100000
_cell_length_c   7.60200000
_cell_angle_alpha   78.52970000
_cell_angle_beta   101.47000000
_cell_angle_gamma   82.04770000
_symmetry_Int_Tables_number   1
_chemical_formula_structural   NiH6C9(NO)3
_chemical_formula_sum   'Ni4 H24 C36 N12 O12'
_cell_volume   1457.18872924
_cell_formula_units_Z   4
loop_
 _symmetry_equiv_pos_site_id
 _symmetry_equiv_pos_as_xyz
  1  'x, y, z'
loop_
 _atom_site_type_symbol
 _atom_site_label
 _atom_site_symmetry_multiplicity
 _atom_site_fract_x
 _atom_site_fract_y
 _atom_site_fract_z
 _atom_site_occupancy
 _atom_site_charge
Ni  Ni1  1  0.41057000  0.41057000  0.75000000  1.0 0.7672640693
Ni  Ni2  1  0.58943000  0.58943000  0.25000000  1.0 0.7672640693
Ni  Ni3  1  0.00000000  0.00000000  0.50000000  1.0 0.7476798903
Ni  Ni4  1  0.00000000  0.00000000  0.00000000  1.0 0.7476798903
H  H1  1  0.93680000  0.21700000  0.95720000  1.0 0.1081464637
H  H2  1  0.21700000  0.93680000  0.54280000  1.0 0.1081464637
H  H3  1  0.06320000  0.78300000  0.04280000  1.0 0.1081464637
H  H4  1  0.78300000  0.06320000  0.45720000  1.0 0.1081464637
H  H5  1  0.80170000  0.33750000  0.90420000  1.0 0.1358531874
H  H6  1  0.33750000  0.80170000  0.59580000  1.0 0.1358531874
H  H7  1  0.19830000  0.66250000  0.09580000  1.0 0.1358531874
H  H8  1  0.66250000  0.19830000  0.40420000  1.0 0.1358531874
H  H9  1  0.63210000  0.13530000  0.86330000  1.0 0.1358531874
H  H10  1  0.13530000  0.63210000  0.63670000  1.0 0.1358531874
H  H11  1  0.36790000  0.86470000  0.13670000  1.0 0.1358531874
H  H12  1  0.86470000  0.36790000  0.36330000  1.0 0.1358531874
H  H13  1  0.77170000  0.02030000  0.91260000  1.0 0.1042253163
H  H14  1  0.02030000  0.77170000  0.58740000  1.0 0.1042253163
H  H15  1  0.22830000  0.97970000  0.08740000  1.0 0.1042253163
H  H16  1  0.97970000  0.22830000  0.41260000  1.0 0.1042253163
H  H17  1  0.38250000  0.22570000  0.62880000  1.0 0.129614697
H  H18  1  0.22570000  0.38250000  0.87120000  1.0 0.129614697
H  H19  1  0.61750000  0.77430000  0.37120000  1.0 0.129614697
H  H20  1  0.77430000  0.61750000  0.12880000  1.0 0.129614697
H  H21  1  0.27600000  0.11760000  0.62050000  1.0 0.129614697
H  H22  1  0.11760000  0.27600000  0.87950000  1.0 0.129614697
H  H23  1  0.72400000  0.88240000  0.37950000  1.0 0.129614697
H  H24  1  0.88240000  0.72400000  0.12050000  1.0 0.129614697
C  C1  1  0.87530000  0.20030000  0.93810000  1.0 0.0723044455
C  C2  1  0.20030000  0.87530000  0.56190000  1.0 0.0723044455
C  C3  1  0.12470000  0.79970000  0.06190000  1.0 0.0723044455
C  C4  1  0.79970000  0.12470000  0.43810000  1.0 0.0723044455
C  C5  1  0.79400000  0.27360000  0.90660000  1.0 -0.1477160759
C  C6  1  0.27360000  0.79400000  0.59340000  1.0 -0.1477160759
C  C7  1  0.20600000  0.72640000  0.09340000  1.0 -0.1477160759
C  C8  1  0.72640000  0.20600000  0.40660000  1.0 -0.1477160759
C  C9  1  0.70050000  0.25030000  0.87850000  1.0 0.0388221147
C  C10  1  0.25030000  0.70050000  0.62150000  1.0 0.0388221147
C  C11  1  0.29950000  0.74970000  0.12150000  1.0 0.0388221147
C  C12  1  0.74970000  0.29950000  0.37850000  1.0 0.0388221147
C  C13  1  0.69280000  0.15360000  0.88150000  1.0 -0.1477160759
C  C14  1  0.15360000  0.69280000  0.61850000  1.0 -0.1477160759
C  C15  1  0.30720000  0.84640000  0.11850000  1.0 -0.1477160759
C  C16  1  0.84640000  0.30720000  0.38150000  1.0 -0.1477160759
C  C17  1  0.77790000  0.08450000  0.91250000  1.0 0.0723044455
C  C18  1  0.08450000  0.77790000  0.58750000  1.0 0.0723044455
C  C19  1  0.22210000  0.91550000  0.08750000  1.0 0.0723044455
C  C20  1  0.91550000  0.22210000  0.41250000  1.0 0.0723044455
C  C21  1  0.61000000  0.33000000  0.84170000  1.0 0.5485874724
C  C22  1  0.33000000  0.61000000  0.65830000  1.0 0.5485874724
C  C23  1  0.39000000  0.67000000  0.15830000  1.0 0.5485874724
C  C24  1  0.67000000  0.39000000  0.34170000  1.0 0.5485874724
C  C25  1  0.32830000  0.23650000  0.67810000  1.0 0.0844997105
C  C26  1  0.23650000  0.32830000  0.82190000  1.0 0.0844997105
C  C27  1  0.67170000  0.76350000  0.32190000  1.0 0.0844997105
C  C28  1  0.76350000  0.67170000  0.17810000  1.0 0.0844997105
C  C29  1  0.26460000  0.17020000  0.67370000  1.0 -0.1409986455
C  C30  1  0.17020000  0.26460000  0.82630000  1.0 -0.1409986455
C  C31  1  0.73540000  0.82980000  0.32630000  1.0 -0.1409986455
C  C32  1  0.82980000  0.73540000  0.17370000  1.0 -0.1409986455
C  C33  1  0.18380000  0.18380000  0.75000000  1.0 0.0140328977
C  C34  1  0.81620000  0.81620000  0.25000000  1.0 0.0140328977
C  C35  1  0.11280000  0.11280000  0.75000000  1.0 0.5626947593
C  C36  1  0.88720000  0.88720000  0.25000000  1.0 0.5626947593
N  N1  1  0.86851000  0.10551000  0.94210000  1.0 -0.223109572
N  N2  1  0.10551000  0.86851000  0.55790000  1.0 -0.223109572
N  N3  1  0.13149000  0.89449000  0.05790000  1.0 -0.223109572
N  N4  1  0.89449000  0.13149000  0.44210000  1.0 -0.223109572
N  N5  1  0.31550000  0.31550000  0.75000000  1.0 -0.2117747877
N  N6  1  0.68450000  0.68450000  0.25000000  1.0 -0.2117747877
N  N7  1  0.04750000  0.04750000  0.25000000  1.0 -0.4995649148
N  N8  1  0.95250000  0.95250000  0.75000000  1.0 -0.4995649148
N  N9  1  0.10310000  0.10310000  0.25000000  1.0 0.420879991
N  N10  1  0.89690000  0.89690000  0.75000000  1.0 0.420879991
N  N11  1  0.15680000  0.15680000  0.25000000  1.0 -0.3438827682
N  N12  1  0.84320000  0.84320000  0.75000000  1.0 -0.3438827682
O  O1  1  0.52882000  0.30200000  0.82490000  1.0 -0.5484693188
O  O2  1  0.30200000  0.52882000  0.67510000  1.0 -0.5484693188
O  O3  1  0.47118000  0.69800000  0.17510000  1.0 -0.5484693188
O  O4  1  0.69800000  0.47118000  0.32490000  1.0 -0.5484693188
O  O5  1  0.62220000  0.41800000  0.82930000  1.0 -0.5320112992
O  O6  1  0.41800000  0.62220000  0.67070000  1.0 -0.5320112992
O  O7  1  0.37780000  0.58200000  0.17070000  1.0 -0.5320112992
O  O8  1  0.58200000  0.37780000  0.32930000  1.0 -0.5320112992
O  O9  1  0.10969000  0.06341000  0.62790000  1.0 -0.5484693188
O  O10  1  0.06341000  0.10969000  0.87210000  1.0 -0.5484693188
O  O11  1  0.89031000  0.93659000  0.37210000  1.0 -0.5484693188
O  O12  1  0.93659000  0.89031000  0.12790000  1.0 -0.5484693188
