# DDEC6 charges by PACMAN v1.1 (https://github.com/mtap-research/PACMAN-charge/)
data_HOHHUK_ASR_pacman
_symmetry_space_group_name_H-M   'P 1'
_cell_length_a   14.18460000
_cell_length_b   14.18460000
_cell_length_c   12.69870000
_cell_angle_alpha   65.79830000
_cell_angle_beta   114.20200000
_cell_angle_gamma   79.88210000
_symmetry_Int_Tables_number   1
_chemical_formula_structural   Cd2H16C29O8
_chemical_formula_sum   'Cd4 H32 C58 O16'
_cell_volume   1935.69738328
_cell_formula_units_Z   2
loop_
 _symmetry_equiv_pos_site_id
 _symmetry_equiv_pos_as_xyz
  1  'x, y, z'
loop_
 _atom_site_type_symbol
 _atom_site_label
 _atom_site_symmetry_multiplicity
 _atom_site_fract_x
 _atom_site_fract_y
 _atom_site_fract_z
 _atom_site_occupancy
 _atom_site_charge
Cd  Cd1  1  0.50000000  0.00000000  0.00000000  1.0 1.112557502
Cd  Cd2  1  0.00000000  0.50000000  0.50000000  1.0 1.112557502
Cd  Cd3  1  0.67491000  0.67491000  0.25000000  1.0 1.0004055216
Cd  Cd4  1  0.32509000  0.32509000  0.75000000  1.0 1.0004055216
H  H1  1  0.83520000  0.07140000  0.81520000  1.0 0.1123317643
H  H2  1  0.75170000  0.01970000  0.94160000  1.0 0.1123317643
H  H3  1  0.85550000  0.70370000  0.01360000  1.0 0.1287177405
H  H4  1  0.93940000  0.75500000  0.88860000  1.0 0.1183235752
H  H5  1  0.09810000  0.79010000  0.02350000  1.0 0.1183235752
H  H6  1  0.29510000  0.72050000  0.16020000  1.0 0.1287177405
H  H7  1  0.30050000  0.93090000  0.83340000  1.0 0.1183235752
H  H8  1  0.10440000  0.00020000  0.69630000  1.0 0.1183235752
H  H9  1  0.07140000  0.83520000  0.68480000  1.0 0.1123317643
H  H10  1  0.01970000  0.75170000  0.55840000  1.0 0.1123317643
H  H11  1  0.70370000  0.85550000  0.48640000  1.0 0.1287177405
H  H12  1  0.75500000  0.93940000  0.61140000  1.0 0.1183235752
H  H13  1  0.79010000  0.09810000  0.47650000  1.0 0.1183235752
H  H14  1  0.72050000  0.29510000  0.33980000  1.0 0.1287177405
H  H15  1  0.93090000  0.30050000  0.66666667  1.0 0.1183235752
H  H16  1  0.00020000  0.10440000  0.80370000  1.0 0.1183235752
H  H17  1  0.16480000  0.92860000  0.18480000  1.0 0.1123317643
H  H18  1  0.24830000  0.98030000  0.05840000  1.0 0.1123317643
H  H19  1  0.14450000  0.29630000  0.98640000  1.0 0.1287177405
H  H20  1  0.06060000  0.24500000  0.11140000  1.0 0.1183235752
H  H21  1  0.90190000  0.20990000  0.97650000  1.0 0.1183235752
H  H22  1  0.70490000  0.27950000  0.83980000  1.0 0.1287177405
H  H23  1  0.69950000  0.06910000  0.16660000  1.0 0.1183235752
H  H24  1  0.89560000  0.99980000  0.30370000  1.0 0.1183235752
H  H25  1  0.92860000  0.16480000  0.31520000  1.0 0.1123317643
H  H26  1  0.98030000  0.24830000  0.44160000  1.0 0.1123317643
H  H27  1  0.29630000  0.14450000  0.51360000  1.0 0.1287177405
H  H28  1  0.24500000  0.06060000  0.38860000  1.0 0.1183235752
H  H29  1  0.20990000  0.90190000  0.52350000  1.0 0.1183235752
H  H30  1  0.27950000  0.70490000  0.66020000  1.0 0.1287177405
H  H31  1  0.06910000  0.69950000  0.33340000  1.0 0.1183235752
H  H32  1  0.99980000  0.89560000  0.19630000  1.0 0.1183235752
C  C1  1  0.89512000  0.91952000  0.83600000  1.0 0.0626108585
C  C2  1  0.83927000  0.99647000  0.85470000  1.0 -0.1479464681
C  C3  1  0.78933000  0.96573000  0.93020000  1.0 -0.0973687059
C  C4  1  0.79377000  0.85697000  0.98880000  1.0 -0.0199656808
C  C5  1  0.85076000  0.77876000  0.97290000  1.0 -0.0973687059
C  C6  1  0.90054000  0.80974000  0.89800000  1.0 -0.1699225293
C  C7  1  0.73620000  0.82600000  0.06710000  1.0 0.590678425
C  C8  1  0.08009000  0.90189000  0.84570000  1.0 0.0735100614
C  C9  1  0.13873000  0.81893000  0.98400000  1.0 -0.1594560989
C  C10  1  0.25634000  0.77754000  0.06580000  1.0 -0.0973687059
C  C11  1  0.31725000  0.81905000  0.01050000  1.0 -0.0293440079
C  C12  1  0.25964000  0.90204000  0.87230000  1.0 -0.0939043411
C  C13  1  0.14279000  0.94319000  0.79070000  1.0 -0.1479464681
C  C14  1  0.44330000  0.77550000  0.09930000  1.0 0.5802105232
C  C15  1  0.91952000  0.89512000  0.66400000  1.0 0.0626108585
C  C16  1  0.99647000  0.83927000  0.64530000  1.0 -0.1479464681
C  C17  1  0.96573000  0.78933000  0.56980000  1.0 -0.0973687059
C  C18  1  0.85697000  0.79377000  0.51120000  1.0 -0.0199656808
C  C19  1  0.77876000  0.85076000  0.52710000  1.0 -0.0973687059
C  C20  1  0.80974000  0.90054000  0.60200000  1.0 -0.1699225293
C  C21  1  0.82600000  0.73620000  0.43290000  1.0 0.590678425
C  C22  1  0.90189000  0.08009000  0.65430000  1.0 0.0735100614
C  C23  1  0.81893000  0.13873000  0.51600000  1.0 -0.1594560989
C  C24  1  0.77754000  0.25634000  0.43420000  1.0 -0.0973687059
C  C25  1  0.81905000  0.31725000  0.48950000  1.0 -0.0293440079
C  C26  1  0.90204000  0.25964000  0.62770000  1.0 -0.0939043411
C  C27  1  0.94319000  0.14279000  0.70930000  1.0 -0.1479464681
C  C28  1  0.77550000  0.44330000  0.40070000  1.0 0.5802105232
C  C29  1  0.10488000  0.08048000  0.16400000  1.0 0.0626108585
C  C30  1  0.16073000  0.00353000  0.14530000  1.0 -0.1479464681
C  C31  1  0.21067000  0.03427000  0.06980000  1.0 -0.0973687059
C  C32  1  0.20623000  0.14303000  0.01120000  1.0 -0.0199656808
C  C33  1  0.14924000  0.22124000  0.02710000  1.0 -0.0973687059
C  C34  1  0.09946000  0.19026000  0.10200000  1.0 -0.1699225293
C  C35  1  0.26380000  0.17400000  0.93290000  1.0 0.590678425
C  C36  1  0.91991000  0.09811000  0.15430000  1.0 0.0735100614
C  C37  1  0.86127000  0.18107000  0.01600000  1.0 -0.1594560989
C  C38  1  0.74366000  0.22246000  0.93420000  1.0 -0.0973687059
C  C39  1  0.68275000  0.18095000  0.98950000  1.0 -0.0293440079
C  C40  1  0.74036000  0.09796000  0.12770000  1.0 -0.0939043411
C  C41  1  0.85721000  0.05681000  0.20930000  1.0 -0.1479464681
C  C42  1  0.55670000  0.22450000  0.90070000  1.0 0.5802105232
C  C43  1  0.08048000  0.10488000  0.33600000  1.0 0.0626108585
C  C44  1  0.00353000  0.16073000  0.35470000  1.0 -0.1479464681
C  C45  1  0.03427000  0.21067000  0.43020000  1.0 -0.0973687059
C  C46  1  0.14303000  0.20623000  0.48880000  1.0 -0.0199656808
C  C47  1  0.22124000  0.14924000  0.47290000  1.0 -0.0973687059
C  C48  1  0.19026000  0.09946000  0.39800000  1.0 -0.1699225293
C  C49  1  0.17400000  0.26380000  0.56710000  1.0 0.590678425
C  C50  1  0.09811000  0.91991000  0.34570000  1.0 0.0735100614
C  C51  1  0.18107000  0.86127000  0.48400000  1.0 -0.1594560989
C  C52  1  0.22246000  0.74366000  0.56580000  1.0 -0.0973687059
C  C53  1  0.18095000  0.68275000  0.51050000  1.0 -0.0293440079
C  C54  1  0.09796000  0.74036000  0.37230000  1.0 -0.0939043411
C  C55  1  0.05681000  0.85721000  0.29070000  1.0 -0.1479464681
C  C56  1  0.22450000  0.55670000  0.59930000  1.0 0.5802105232
C  C57  1  0.94930000  0.94930000  0.75000000  1.0 -0.0080677481
C  C58  1  0.05070000  0.05070000  0.25000000  1.0 -0.0080677481
O  O1  1  0.74652000  0.72352000  0.12050000  1.0 -0.5541044162
O  O2  1  0.68315000  0.89981000  0.07550000  1.0 -0.5875708745
O  O3  1  0.49620000  0.69020000  0.21870000  1.0 -0.5062267469
O  O4  1  0.49523000  0.82523000  0.05130000  1.0 -0.6063570665
O  O5  1  0.72352000  0.74652000  0.37950000  1.0 -0.5541044162
O  O6  1  0.89981000  0.68315000  0.42450000  1.0 -0.5875708745
O  O7  1  0.69020000  0.49620000  0.28130000  1.0 -0.5062267469
O  O8  1  0.82523000  0.49523000  0.44870000  1.0 -0.6063570665
O  O9  1  0.25348000  0.27648000  0.87950000  1.0 -0.5541044162
O  O10  1  0.31685000  0.10019000  0.92450000  1.0 -0.5875708745
O  O11  1  0.50380000  0.30980000  0.78130000  1.0 -0.5062267469
O  O12  1  0.50477000  0.17477000  0.94870000  1.0 -0.6063570665
O  O13  1  0.27648000  0.25348000  0.62050000  1.0 -0.5541044162
O  O14  1  0.10019000  0.31685000  0.57550000  1.0 -0.5875708745
O  O15  1  0.30980000  0.50380000  0.71870000  1.0 -0.5062267469
O  O16  1  0.17477000  0.50477000  0.55130000  1.0 -0.6063570665
