# DDEC6 charges by PACMAN v1.1 (https://github.com/mtap-research/PACMAN-charge/)
data_HOHJEW_ASR_pacman
_symmetry_space_group_name_H-M   'P 1'
_cell_length_a   16.75310000
_cell_length_b   16.75310000
_cell_length_c   16.75310000
_cell_angle_alpha   67.10520000
_cell_angle_beta   67.10520000
_cell_angle_gamma   67.10520000
_symmetry_Int_Tables_number   1
_chemical_formula_structural   CuH5C15O8
_chemical_formula_sum   'Cu6 H30 C90 O48'
_cell_volume   3830.66177377
_cell_formula_units_Z   6
loop_
 _symmetry_equiv_pos_site_id
 _symmetry_equiv_pos_as_xyz
  1  'x, y, z'
loop_
 _atom_site_type_symbol
 _atom_site_label
 _atom_site_symmetry_multiplicity
 _atom_site_fract_x
 _atom_site_fract_y
 _atom_site_fract_z
 _atom_site_occupancy
 _atom_site_charge
Cu  Cu1  1  0.50406000  0.50406000  0.07558000  1.0 0.879126927
Cu  Cu2  1  0.50406000  0.07558000  0.50406000  1.0 0.879126927
Cu  Cu3  1  0.07558000  0.50406000  0.50406000  1.0 0.879126927
Cu  Cu4  1  0.49594000  0.92442000  0.49594000  1.0 0.879126927
Cu  Cu5  1  0.49594000  0.49594000  0.92442000  1.0 0.879126927
Cu  Cu6  1  0.92442000  0.49594000  0.49594000  1.0 0.879126927
H  H1  1  0.85010000  0.57220000  0.01820000  1.0 0.125898732
H  H2  1  0.21270000  0.52100000  0.99810000  1.0 0.1385833976
H  H3  1  0.57220000  0.01820000  0.85010000  1.0 0.125898732
H  H4  1  0.52100000  0.99810000  0.21270000  1.0 0.1385833976
H  H5  1  0.01820000  0.85010000  0.57220000  1.0 0.125898732
H  H6  1  0.99810000  0.21270000  0.52100000  1.0 0.1385833976
H  H7  1  0.14990000  0.98180000  0.42780000  1.0 0.125898732
H  H8  1  0.78730000  0.00190000  0.47900000  1.0 0.1385833976
H  H9  1  0.42780000  0.14990000  0.98180000  1.0 0.125898732
H  H10  1  0.47900000  0.78730000  0.00190000  1.0 0.1385833976
H  H11  1  0.98180000  0.42780000  0.14990000  1.0 0.125898732
H  H12  1  0.00190000  0.47900000  0.78730000  1.0 0.1385833976
H  H13  1  0.14990000  0.42780000  0.98180000  1.0 0.125898732
H  H14  1  0.78730000  0.47900000  0.00190000  1.0 0.1385833976
H  H15  1  0.42780000  0.98180000  0.14990000  1.0 0.125898732
H  H16  1  0.47900000  0.00190000  0.78730000  1.0 0.1385833976
H  H17  1  0.98180000  0.14990000  0.42780000  1.0 0.125898732
H  H18  1  0.00190000  0.78730000  0.47900000  1.0 0.1385833976
H  H19  1  0.85010000  0.01820000  0.57220000  1.0 0.125898732
H  H20  1  0.21270000  0.99810000  0.52100000  1.0 0.1385833976
H  H21  1  0.57220000  0.85010000  0.01820000  1.0 0.125898732
H  H22  1  0.52100000  0.21270000  0.99810000  1.0 0.1385833976
H  H23  1  0.01820000  0.57220000  0.85010000  1.0 0.125898732
H  H24  1  0.99810000  0.52100000  0.21270000  1.0 0.1385833976
H  H25  1  0.22730000  0.52860000  0.22730000  1.0 0.1550326851
H  H26  1  0.52860000  0.22730000  0.22730000  1.0 0.1550326851
H  H27  1  0.22730000  0.22730000  0.52860000  1.0 0.1550326851
H  H28  1  0.77270000  0.77270000  0.47140000  1.0 0.1550326851
H  H29  1  0.47140000  0.77270000  0.77270000  1.0 0.1550326851
H  H30  1  0.77270000  0.47140000  0.77270000  1.0 0.1550326851
C  C1  1  0.33364000  0.51984000  0.06474000  1.0 0.5953261065
C  C2  1  0.90690000  0.64490000  0.09090000  1.0 0.5016749956
C  C3  1  0.95820000  0.56440000  0.04840000  1.0 -0.0041243973
C  C4  1  0.91190000  0.54500000  0.00850000  1.0 -0.0877408837
C  C5  1  0.23542000  0.52482000  0.10632000  1.0 0.0021344299
C  C6  1  0.18549000  0.52189000  0.05799000  1.0 -0.1186913841
C  C7  1  0.51984000  0.06474000  0.33364000  1.0 0.5953261065
C  C8  1  0.64490000  0.09090000  0.90690000  1.0 0.5016749956
C  C9  1  0.56440000  0.04840000  0.95820000  1.0 -0.0053370702
C  C10  1  0.54500000  0.00850000  0.91190000  1.0 -0.0877408837
C  C11  1  0.52482000  0.10632000  0.23542000  1.0 0.0021344299
C  C12  1  0.52189000  0.05799000  0.18549000  1.0 -0.1186913841
C  C13  1  0.06474000  0.33364000  0.51984000  1.0 0.5953261065
C  C14  1  0.09090000  0.90690000  0.64490000  1.0 0.5016749956
C  C15  1  0.04840000  0.95820000  0.56440000  1.0 -0.0053370702
C  C16  1  0.00850000  0.91190000  0.54500000  1.0 -0.0877408837
C  C17  1  0.10632000  0.23542000  0.52482000  1.0 0.0021344299
C  C18  1  0.05799000  0.18549000  0.52189000  1.0 -0.1186913841
C  C19  1  0.66636000  0.93526000  0.48016000  1.0 0.5953261065
C  C20  1  0.09310000  0.90910000  0.35510000  1.0 0.5016749956
C  C21  1  0.04180000  0.95160000  0.43560000  1.0 -0.0053370702
C  C22  1  0.08810000  0.99150000  0.45500000  1.0 -0.0877408837
C  C23  1  0.76458000  0.89368000  0.47518000  1.0 0.0021344299
C  C24  1  0.81451000  0.94201000  0.47811000  1.0 -0.1186913841
C  C25  1  0.48016000  0.66636000  0.93526000  1.0 0.5953261065
C  C26  1  0.35510000  0.09310000  0.90910000  1.0 0.5016749956
C  C27  1  0.43560000  0.04180000  0.95160000  1.0 -0.0053370702
C  C28  1  0.45500000  0.08810000  0.99150000  1.0 -0.0877408837
C  C29  1  0.47518000  0.76458000  0.89368000  1.0 0.0021344299
C  C30  1  0.47811000  0.81451000  0.94201000  1.0 -0.1186913841
C  C31  1  0.93526000  0.48016000  0.66636000  1.0 0.5953261065
C  C32  1  0.90910000  0.35510000  0.09310000  1.0 0.5016749956
C  C33  1  0.95160000  0.43560000  0.04180000  1.0 -0.0041243973
C  C34  1  0.99150000  0.45500000  0.08810000  1.0 -0.0877408837
C  C35  1  0.89368000  0.47518000  0.76458000  1.0 0.0021344299
C  C36  1  0.94201000  0.47811000  0.81451000  1.0 -0.1186913841
C  C37  1  0.66636000  0.48016000  0.93526000  1.0 0.5953261065
C  C38  1  0.09310000  0.35510000  0.90910000  1.0 0.5016749956
C  C39  1  0.04180000  0.43560000  0.95160000  1.0 -0.0053370702
C  C40  1  0.08810000  0.45500000  0.99150000  1.0 -0.0877408837
C  C41  1  0.76458000  0.47518000  0.89368000  1.0 0.0021344299
C  C42  1  0.81451000  0.47811000  0.94201000  1.0 -0.1186913841
C  C43  1  0.48016000  0.93526000  0.66636000  1.0 0.5953261065
C  C44  1  0.35510000  0.90910000  0.09310000  1.0 0.5016749956
C  C45  1  0.43560000  0.95160000  0.04180000  1.0 -0.0053370702
C  C46  1  0.45500000  0.99150000  0.08810000  1.0 -0.0877408837
C  C47  1  0.47518000  0.89368000  0.76458000  1.0 0.0021344299
C  C48  1  0.47811000  0.94201000  0.81451000  1.0 -0.1186913841
C  C49  1  0.93526000  0.66636000  0.48016000  1.0 0.5953261065
C  C50  1  0.90910000  0.09310000  0.35510000  1.0 0.5016749956
C  C51  1  0.95160000  0.04180000  0.43560000  1.0 -0.0053370702
C  C52  1  0.99150000  0.08810000  0.45500000  1.0 -0.0877408837
C  C53  1  0.89368000  0.76458000  0.47518000  1.0 0.0021344299
C  C54  1  0.94201000  0.81451000  0.47811000  1.0 -0.1186913841
C  C55  1  0.33364000  0.06474000  0.51984000  1.0 0.5953261065
C  C56  1  0.90690000  0.09090000  0.64490000  1.0 0.5016749956
C  C57  1  0.95820000  0.04840000  0.56440000  1.0 -0.0053370702
C  C58  1  0.91190000  0.00850000  0.54500000  1.0 -0.0877408837
C  C59  1  0.23542000  0.10632000  0.52482000  1.0 0.0021344299
C  C60  1  0.18549000  0.05799000  0.52189000  1.0 -0.1186913841
C  C61  1  0.51984000  0.33364000  0.06474000  1.0 0.5953261065
C  C62  1  0.64490000  0.90690000  0.09090000  1.0 0.5016749956
C  C63  1  0.56440000  0.95820000  0.04840000  1.0 -0.0053370702
C  C64  1  0.54500000  0.91190000  0.00850000  1.0 -0.0877408837
C  C65  1  0.52482000  0.23542000  0.10632000  1.0 0.0021344299
C  C66  1  0.52189000  0.18549000  0.05799000  1.0 -0.1186913841
C  C67  1  0.06474000  0.51984000  0.33364000  1.0 0.5953261065
C  C68  1  0.09090000  0.64490000  0.90690000  1.0 0.5016749956
C  C69  1  0.04840000  0.56440000  0.95820000  1.0 -0.0053370702
C  C70  1  0.00850000  0.54500000  0.91190000  1.0 -0.0877408837
C  C71  1  0.10632000  0.52482000  0.23542000  1.0 0.0021344299
C  C72  1  0.05799000  0.52189000  0.18549000  1.0 -0.1186913841
C  C73  1  0.04555000  0.51380000  0.04555000  1.0 0.0588992593
C  C74  1  0.19468000  0.52643000  0.19468000  1.0 -0.0877408837
C  C75  1  0.09710000  0.52035000  0.09710000  1.0 0.0734544963
C  C76  1  0.51380000  0.04555000  0.04555000  1.0 0.0588992593
C  C77  1  0.52643000  0.19468000  0.19468000  1.0 -0.0877408837
C  C78  1  0.52035000  0.09710000  0.09710000  1.0 0.0734544963
C  C79  1  0.04555000  0.04555000  0.51380000  1.0 0.0588992593
C  C80  1  0.19468000  0.19468000  0.52643000  1.0 -0.0877408837
C  C81  1  0.09710000  0.09710000  0.52035000  1.0 0.0734544963
C  C82  1  0.95445000  0.95445000  0.48620000  1.0 0.0588992593
C  C83  1  0.80532000  0.80532000  0.47357000  1.0 -0.0877408837
C  C84  1  0.90290000  0.90290000  0.47965000  1.0 0.0734544963
C  C85  1  0.48620000  0.95445000  0.95445000  1.0 0.0588992593
C  C86  1  0.47357000  0.80532000  0.80532000  1.0 -0.0877408837
C  C87  1  0.47965000  0.90290000  0.90290000  1.0 0.0734544963
C  C88  1  0.95445000  0.48620000  0.95445000  1.0 0.0588992593
C  C89  1  0.80532000  0.47357000  0.80532000  1.0 -0.0877408837
C  C90  1  0.90290000  0.47965000  0.90290000  1.0 0.0734544963
O  O1  1  0.83130000  0.64330000  0.13930000  1.0 -0.3803391698
O  O2  1  0.93420000  0.69820000  0.07720000  1.0 -0.2951349112
O  O3  1  0.36720000  0.51430000  0.98500000  1.0 -0.5094070427
O  O4  1  0.37400000  0.52170000  0.11330000  1.0 -0.5094070427
O  O5  1  0.64330000  0.13930000  0.83130000  1.0 -0.3803391698
O  O6  1  0.69820000  0.07720000  0.93420000  1.0 -0.2920241962
O  O7  1  0.51430000  0.98500000  0.36720000  1.0 -0.5094070427
O  O8  1  0.52170000  0.11330000  0.37400000  1.0 -0.5094070427
O  O9  1  0.13930000  0.83130000  0.64330000  1.0 -0.3803391698
O  O10  1  0.07720000  0.93420000  0.69820000  1.0 -0.2920241962
O  O11  1  0.98500000  0.36720000  0.51430000  1.0 -0.5094070427
O  O12  1  0.11330000  0.37400000  0.52170000  1.0 -0.5094070427
O  O13  1  0.16870000  0.86070000  0.35670000  1.0 -0.3803391698
O  O14  1  0.06580000  0.92280000  0.30180000  1.0 -0.2920241962
O  O15  1  0.63280000  0.01500000  0.48570000  1.0 -0.5094070427
O  O16  1  0.62600000  0.88670000  0.47830000  1.0 -0.5094070427
O  O17  1  0.35670000  0.16870000  0.86070000  1.0 -0.3803391698
O  O18  1  0.30180000  0.06580000  0.92280000  1.0 -0.2920241962
O  O19  1  0.48570000  0.63280000  0.01500000  1.0 -0.5094070427
O  O20  1  0.47830000  0.62600000  0.88670000  1.0 -0.5094070427
O  O21  1  0.86070000  0.35670000  0.16870000  1.0 -0.3803391698
O  O22  1  0.92280000  0.30180000  0.06580000  1.0 -0.2920241962
O  O23  1  0.01500000  0.48570000  0.63280000  1.0 -0.5094070427
O  O24  1  0.88670000  0.47830000  0.62600000  1.0 -0.5094070427
O  O25  1  0.16870000  0.35670000  0.86070000  1.0 -0.3803391698
O  O26  1  0.06580000  0.30180000  0.92280000  1.0 -0.2920241962
O  O27  1  0.63280000  0.48570000  0.01500000  1.0 -0.5094070427
O  O28  1  0.62600000  0.47830000  0.88670000  1.0 -0.5094070427
O  O29  1  0.35670000  0.86070000  0.16870000  1.0 -0.3803391698
O  O30  1  0.30180000  0.92280000  0.06580000  1.0 -0.2920241962
O  O31  1  0.48570000  0.01500000  0.63280000  1.0 -0.5094070427
O  O32  1  0.47830000  0.88670000  0.62600000  1.0 -0.5094070427
O  O33  1  0.86070000  0.16870000  0.35670000  1.0 -0.3803391698
O  O34  1  0.92280000  0.06580000  0.30180000  1.0 -0.2920241962
O  O35  1  0.01500000  0.63280000  0.48570000  1.0 -0.5094070427
O  O36  1  0.88670000  0.62600000  0.47830000  1.0 -0.5094070427
O  O37  1  0.83130000  0.13930000  0.64330000  1.0 -0.3803391698
O  O38  1  0.93420000  0.07720000  0.69820000  1.0 -0.2920241962
O  O39  1  0.36720000  0.98500000  0.51430000  1.0 -0.5094070427
O  O40  1  0.37400000  0.11330000  0.52170000  1.0 -0.5094070427
O  O41  1  0.64330000  0.83130000  0.13930000  1.0 -0.3803391698
O  O42  1  0.69820000  0.93420000  0.07720000  1.0 -0.2920241962
O  O43  1  0.51430000  0.36720000  0.98500000  1.0 -0.5094070427
O  O44  1  0.52170000  0.37400000  0.11330000  1.0 -0.5094070427
O  O45  1  0.13930000  0.64330000  0.83130000  1.0 -0.3803391698
O  O46  1  0.07720000  0.69820000  0.93420000  1.0 -0.2920241962
O  O47  1  0.98500000  0.51430000  0.36720000  1.0 -0.5094070427
O  O48  1  0.11330000  0.52170000  0.37400000  1.0 -0.5094070427
