# DDEC6 charges by PACMAN v1.1 (https://github.com/mtap-research/PACMAN-charge/)
data_HOHJIA_FSR_pacman
_symmetry_space_group_name_H-M   'P 1'
_cell_length_a   6.87460000
_cell_length_b   12.50500000
_cell_length_c   13.21500000
_cell_angle_alpha   112.11000000
_cell_angle_beta   89.14000000
_cell_angle_gamma   97.35000000
_symmetry_Int_Tables_number   1
_chemical_formula_structural   EuH11C17O11
_chemical_formula_sum   'Eu2 H22 C34 O22'
_cell_volume   1043.18278131
_cell_formula_units_Z   2
loop_
 _symmetry_equiv_pos_site_id
 _symmetry_equiv_pos_as_xyz
  1  'x, y, z'
loop_
 _atom_site_type_symbol
 _atom_site_label
 _atom_site_symmetry_multiplicity
 _atom_site_fract_x
 _atom_site_fract_y
 _atom_site_fract_z
 _atom_site_occupancy
 _atom_site_charge
Eu  Eu1  1  0.07661000  0.54725000  0.69933000  1.0 2.0932378703
Eu  Eu2  1  0.92339000  0.45275000  0.30067000  1.0 2.0932378703
H  H1  1  0.37312000  0.94494000  0.71891000  1.0 0.1266531543
H  H2  1  0.90411000  0.04753000  0.59242000  1.0 0.1200226777
H  H3  1  0.99192000  0.85591000  0.53012000  1.0 0.1266531543
H  H4  1  0.24533000  0.26532000  0.71614000  1.0 0.138405525
H  H5  1  0.56646000  0.11962000  0.88224000  1.0 0.1200226777
H  H6  1  0.38028000  0.20832000  0.03585000  1.0 0.138405525
H  H7  1  0.82157000  0.38889000  0.97875000  1.0 0.3635076218
H  H8  1  0.49564000  0.58930000  0.79660000  1.0 0.3873405887
H  H9  1  0.49062000  0.48346000  0.70901000  1.0 0.3846601778
H  H10  1  0.72397000  0.34143000  0.61438000  1.0 0.3873405887
H  H11  1  0.70139000  0.40559000  0.55014000  1.0 0.3873405887
H  H12  1  0.62688000  0.05506000  0.28109000  1.0 0.1266531543
H  H13  1  0.09589000  0.95247000  0.40758000  1.0 0.1200226777
H  H14  1  0.00808000  0.14409000  0.46988000  1.0 0.1266531543
H  H15  1  0.75467000  0.73468000  0.28386000  1.0 0.138405525
H  H16  1  0.43354000  0.88038000  0.11776000  1.0 0.1200226777
H  H17  1  0.61972000  0.79168000  0.96415000  1.0 0.138405525
H  H18  1  0.17843000  0.61111000  0.02125000  1.0 0.3635076218
H  H19  1  0.50436000  0.41070000  0.20340000  1.0 0.3873405887
H  H20  1  0.50938000  0.51654000  0.29099000  1.0 0.3846601778
H  H21  1  0.27603000  0.65857000  0.38562000  1.0 0.3873405887
H  H22  1  0.29861000  0.59441000  0.44986000  1.0 0.3873405887
C  C1  1  0.73550000  0.78600000  0.58460000  1.0 -0.0034185621
C  C2  1  0.54450000  0.81270000  0.64390000  1.0 -0.0115494533
C  C3  1  0.49010000  0.92640000  0.68070000  1.0 -0.1513223714
C  C4  1  0.62300000  0.01250000  0.65670000  1.0 0.0086395968
C  C5  1  0.81800000  0.98660000  0.60200000  1.0 -0.0875774166
C  C6  1  0.87210000  0.87350000  0.56540000  1.0 -0.1140353783
C  C7  1  0.18310000  0.28360000  0.96960000  1.0 -0.0115494533
C  C8  1  0.13370000  0.30140000  0.87100000  1.0 -0.0478175572
C  C9  1  0.26380000  0.25130000  0.78090000  1.0 -0.0780816629
C  C10  1  0.42260000  0.18020000  0.78170000  1.0 0.032644811
C  C11  1  0.46580000  0.16350000  0.87820000  1.0 -0.12192998
C  C12  1  0.34980000  0.21630000  0.96940000  1.0 -0.0616350091
C  C13  1  0.55910000  0.13160000  0.68490000  1.0 0.3515168064
C  C14  1  0.80930000  0.66640000  0.53780000  1.0 0.6510955327
C  C15  1  0.38980000  0.72190000  0.66520000  1.0 0.5803873473
C  C16  1  0.07160000  0.33160000  0.07700000  1.0 0.5732357436
C  C17  1  0.97420000  0.37280000  0.85690000  1.0 0.6054032975
C  C18  1  0.26450000  0.21400000  0.41540000  1.0 -0.0034185621
C  C19  1  0.45550000  0.18730000  0.35610000  1.0 -0.0115494533
C  C20  1  0.50990000  0.07360000  0.31930000  1.0 -0.1513223714
C  C21  1  0.37700000  0.98750000  0.34330000  1.0 0.0086395968
C  C22  1  0.18200000  0.01340000  0.39800000  1.0 -0.0875774166
C  C23  1  0.12790000  0.12650000  0.43460000  1.0 -0.1140353783
C  C24  1  0.81690000  0.71640000  0.03040000  1.0 -0.0115494533
C  C25  1  0.86630000  0.69860000  0.12900000  1.0 -0.0478175572
C  C26  1  0.73620000  0.74870000  0.21910000  1.0 -0.0780816629
C  C27  1  0.57740000  0.81980000  0.21830000  1.0 0.032644811
C  C28  1  0.53420000  0.83650000  0.12180000  1.0 -0.12192998
C  C29  1  0.65020000  0.78370000  0.03060000  1.0 -0.0616350091
C  C30  1  0.44090000  0.86840000  0.31510000  1.0 0.3515168064
C  C31  1  0.19070000  0.33360000  0.46220000  1.0 0.6510955327
C  C32  1  0.61020000  0.27810000  0.33480000  1.0 0.5803873473
C  C33  1  0.92840000  0.66840000  0.92300000  1.0 0.5732357436
C  C34  1  0.02580000  0.62720000  0.14310000  1.0 0.6054032975
O  O1  1  0.81130000  0.62120000  0.43590000  1.0 -0.6467419929
O  O2  1  0.87280000  0.62460000  0.60270000  1.0 -0.6717439956
O  O3  1  0.36020000  0.61930000  0.59290000  1.0 -0.5998320049
O  O4  1  0.28420000  0.74700000  0.75160000  1.0 -0.6467419929
O  O5  1  0.87520000  0.35590000  0.08230000  1.0 -0.7233793802
O  O6  1  0.17910000  0.34610000  0.16230000  1.0 -0.6180254287
O  O7  1  0.81260000  0.40620000  0.92360000  1.0 -0.4842499561
O  O8  1  0.98440000  0.40180000  0.77690000  1.0 -0.583666212
O  O9  1  0.62100000  0.18720000  0.62850000  1.0 -0.401616878
O  O10  1  0.42140000  0.52100000  0.76550000  1.0 -0.7557993001
O  O11  1  0.72310000  0.41430000  0.61920000  1.0 -0.7557993001
O  O12  1  0.18870000  0.37880000  0.56410000  1.0 -0.6467419929
O  O13  1  0.12720000  0.37540000  0.39730000  1.0 -0.6717439956
O  O14  1  0.63980000  0.38070000  0.40710000  1.0 -0.5998320049
O  O15  1  0.71580000  0.25300000  0.24840000  1.0 -0.6467419929
O  O16  1  0.12480000  0.64410000  0.91770000  1.0 -0.7233793802
O  O17  1  0.82090000  0.65390000  0.83770000  1.0 -0.6180254287
O  O18  1  0.18740000  0.59380000  0.07640000  1.0 -0.4842499561
O  O19  1  0.01560000  0.59820000  0.22310000  1.0 -0.583666212
O  O20  1  0.37900000  0.81280000  0.37150000  1.0 -0.401616878
O  O21  1  0.57860000  0.47900000  0.23450000  1.0 -0.7557993001
O  O22  1  0.27690000  0.58570000  0.38080000  1.0 -0.7557993001
