# DDEC6 charges by PACMAN v1.1 (https://github.com/mtap-research/PACMAN-charge/)
data_HOJKEZ_ASR_pacman
_chemical_formula_sum              "C84 H48 N4 O32 Tb4"
_cell_length_a       12.0205
_cell_length_b       10.2454
_cell_length_c       17.1754
_cell_angle_alpha    90
_cell_angle_beta     97.803
_cell_angle_gamma    90

_symmetry_space_group_name_H-M    "P 1"
_symmetry_Int_Tables_number       1

loop_
  _symmetry_equiv_pos_as_xyz
  'x, y, z'

loop_
  _atom_site_type_symbol
  _atom_site_label
  _atom_site_symmetry_multiplicity
  _atom_site_fract_x
  _atom_site_fract_y
  _atom_site_fract_z
  _atom_site_occupancy
 _atom_site_charge
C   C1        1.0  0.46730  0.17170  0.86200  1.0000 0.5910506666
C   C2        1.0  0.41470  0.14710  0.93490  1.0000 -0.0612706237
C   C3        1.0  0.41730  0.23740  0.99650  1.0000 0.0393665677
C   C4        1.0  0.37380  0.20170  0.06460  1.0000 -0.1493026942
H   H1        1.0  0.37580  0.26120  0.10560  1.0000 0.1296431765
C   C5        1.0  0.32790  0.07970  0.07220  1.0000 -0.0299502815
C   C6        1.0  0.32380  0.99040  0.01120  1.0000 -0.1396856785
H   H2        1.0  0.29340  0.90780  0.01620  1.0000 0.1195116783
C   C7        1.0  0.36560  0.02560  0.94240  1.0000 -0.1240247256
H   H3        1.0  0.36060  0.96690  0.90070  1.0000 0.1195116783
C   C8        1.0  0.28350  0.04810  0.14760  1.0000 0.6632819146
C   C9        1.0  0.46290  0.37060  0.99660  1.0000 0.0328273326
C   C10       1.0  0.46700  0.58310  0.94030  1.0000 -0.179554515
H   H4        1.0  0.44300  0.63880  0.89870  1.0000 0.1396779165
C   C11       1.0  0.99970  0.76400  0.19130  1.0000 0.5910506666
C   C12       1.0  0.93940  0.69400  0.12110  1.0000 -0.0612706237
C   C13       1.0  0.89770  0.57130  0.13390  1.0000 -0.1028493337
H   H5        1.0  0.89820  0.54240  0.18530  1.0000 0.1396779165
C   C14       1.0  0.85590  0.49160  0.07370  1.0000 -0.1315082118
H   H6        1.0  0.83010  0.40870  0.08420  1.0000 0.1195116783
C   C15       1.0  0.85150  0.53400  0.99630  1.0000 -0.0299502815
C   C16       1.0  0.88790  0.66000  0.98260  1.0000 -0.1583148718
H   H7        1.0  0.88190  0.69030  0.93110  1.0000 0.1195116783
C   C17       1.0  0.93270  0.74130  0.04320  1.0000 0.0328273326
C   C18       1.0  0.80970  0.44630  0.92950  1.0000 0.5478351236
C   C19       1.0  0.97010  0.87290  0.02290  1.0000 0.0328273326
C   C20       1.0  0.98200  0.10430  0.04500  1.0000 -0.179554515
H   H8        1.0  0.96890  0.17430  0.07700  1.0000 0.1296431765
N   N1        1.0  0.43180  0.45700  0.93730  1.0000 -0.179554515
H   H9        1.0  0.38810  0.43080  0.89650  1.0000 0.1727419131
N   N2        1.0  0.95390  0.98210  0.06570  1.0000 -0.1888661265
H   H10       1.0  0.92420  0.97280  0.10810  1.0000 0.1603587737
O   O1        1.0  0.42660  0.11620  0.79970  1.0000 -0.5840955257
O   O2        1.0  0.55090  0.24630  0.86860  1.0000 -0.7004256874
O   O3        1.0  0.26700  0.93310  0.16290  1.0000 -0.6518085877
O   O4        1.0  0.26380  0.14230  0.18960  1.0000 -0.6733528852
O   O5        1.0  0.09910  0.78880  0.19360  1.0000 -0.6109018803
O   O6        1.0  0.94640  0.78430  0.24930  1.0000 -0.5905066609
O   O7        1.0  0.77190  0.33580  0.94410  1.0000 -0.6363044858
O   O8        1.0  0.81260  0.48180  0.86010  1.0000 -0.6109018803
Tb  Tb1       1.0  0.28547  0.71605  0.19277  1.0000 2.0415277601
C   C21       1.0  0.56820  0.54300  0.06270  1.0000 -0.2668596089
C   C22       1.0  0.04610  0.01790  0.93430  1.0000 -0.2752100706
H   H11       1.0  0.38460  0.42870  0.89310  1.0000 0.1603587737
H   H12       1.0  0.92170  0.97200  0.11160  1.0000 0.1603587737
C   C23       1.0  0.03270  0.67170  0.63800  1.0000 0.5910506666
C   C24       1.0  0.08530  0.64710  0.56510  1.0000 -0.0612706237
C   C25       1.0  0.08270  0.73740  0.50350  1.0000 0.0393665677
C   C26       1.0  0.12620  0.70170  0.43540  1.0000 -0.1493026942
H   H13       1.0  0.12420  0.76120  0.39440  1.0000 0.1296431765
C   C27       1.0  0.17210  0.57970  0.42780  1.0000 -0.0299502815
C   C28       1.0  0.17620  0.49040  0.48880  1.0000 -0.1396856785
H   H14       1.0  0.20660  0.40780  0.48380  1.0000 0.1195116783
C   C29       1.0  0.13440  0.52560  0.55760  1.0000 -0.1240247256
H   H15       1.0  0.13940  0.46690  0.59930  1.0000 0.1195116783
C   C30       1.0  0.21650  0.54810  0.35240  1.0000 0.6632819146
C   C31       1.0  0.03710  0.87060  0.50340  1.0000 0.0393665677
C   C32       1.0  0.03300  0.08310  0.55970  1.0000 -0.179554515
H   H16       1.0  0.05700  0.13880  0.60130  1.0000 0.1396779165
C   C33       1.0  0.50030  0.26400  0.30870  1.0000 0.5910506666
C   C34       1.0  0.56060  0.19400  0.37890  1.0000 -0.0612706237
C   C35       1.0  0.60230  0.07130  0.36610  1.0000 -0.1028493337
H   H17       1.0  0.60180  0.04240  0.31470  1.0000 0.1396779165
C   C36       1.0  0.64410  0.99160  0.42630  1.0000 -0.1315082118
H   H18       1.0  0.66990  0.90870  0.41580  1.0000 0.1195116783
C   C37       1.0  0.64850  0.03400  0.50370  1.0000 -0.0299502815
C   C38       1.0  0.61210  0.16000  0.51740  1.0000 -0.1583148718
H   H19       1.0  0.61810  0.19030  0.56890  1.0000 0.1195116783
C   C39       1.0  0.56730  0.24130  0.45680  1.0000 0.0328273326
C   C40       1.0  0.69030  0.94630  0.57050  1.0000 0.5478351236
C   C41       1.0  0.52990  0.37290  0.47710  1.0000 0.0328273326
C   C42       1.0  0.51800  0.60430  0.45500  1.0000 -0.179554515
H   H20       1.0  0.53110  0.67430  0.42300  1.0000 0.1296431765
N   N3        1.0  0.06820  0.95700  0.56270  1.0000 -0.179554515
H   H21       1.0  0.11190  0.93080  0.60350  1.0000 0.1727419131
N   N4        1.0  0.54610  0.48210  0.43430  1.0000 -0.1888661265
H   H22       1.0  0.57580  0.47280  0.39190  1.0000 0.1603587737
O   O9        1.0  0.07340  0.61620  0.70030  1.0000 -0.5840955257
O   O10       1.0  0.94910  0.74630  0.63140  1.0000 -0.7004256874
O   O11       1.0  0.23300  0.43310  0.33710  1.0000 -0.6518085877
O   O12       1.0  0.23620  0.64230  0.31040  1.0000 -0.6733528852
O   O13       1.0  0.40090  0.28880  0.30640  1.0000 -0.6109018803
O   O14       1.0  0.55360  0.28430  0.25070  1.0000 -0.5905066609
O   O15       1.0  0.72810  0.83580  0.55590  1.0000 -0.6363044858
O   O16       1.0  0.68740  0.98180  0.63990  1.0000 -0.6109018803
Tb  Tb2       1.0  0.21453  0.21605  0.30723  1.0000 2.0415277601
C   C43       1.0  0.93180  0.04300  0.43730  1.0000 -0.2668596089
C   C44       1.0  0.45390  0.51790  0.56570  1.0000 -0.2752100706
H   H23       1.0  0.11540  0.92870  0.60690  1.0000 0.1603587737
H   H24       1.0  0.57830  0.47200  0.38840  1.0000 0.1603587737
C   C45       1.0  0.53270  0.82830  0.13800  1.0000 0.5820508719
C   C46       1.0  0.58530  0.85290  0.06510  1.0000 -0.0612706237
C   C47       1.0  0.58270  0.76260  0.00350  1.0000 -0.0138863308
C   C48       1.0  0.62620  0.79830  0.93540  1.0000 -0.1315082118
H   H25       1.0  0.62420  0.73880  0.89440  1.0000 0.1296431765
C   C49       1.0  0.67210  0.92030  0.92780  1.0000 -0.0299502815
C   C50       1.0  0.67620  0.00960  0.98880  1.0000 -0.1093742728
H   H26       1.0  0.70660  0.09220  0.98380  1.0000 0.1195116783
C   C51       1.0  0.63440  0.97440  0.05760  1.0000 -0.1028493337
H   H27       1.0  0.63940  0.03310  0.09930  1.0000 0.1195116783
C   C52       1.0  0.71650  0.95190  0.85240  1.0000 0.6632819146
C   C53       1.0  0.53710  0.62940  0.00340  1.0000 0.1727419131
C   C54       1.0  0.53300  0.41690  0.05970  1.0000 -0.0517332099
H   H28       1.0  0.55700  0.36120  0.10130  1.0000 0.1296431765
C   C55       1.0  0.00030  0.23600  0.80870  1.0000 0.5737475872
C   C56       1.0  0.06060  0.30600  0.87890  1.0000 -0.0671533376
C   C57       1.0  0.10230  0.42870  0.86610  1.0000 -0.0880052551
H   H29       1.0  0.10180  0.45760  0.81470  1.0000 0.1396779165
C   C58       1.0  0.14410  0.50840  0.92630  1.0000 -0.1028493337
H   H30       1.0  0.16990  0.59130  0.91580  1.0000 0.1195116783
C   C59       1.0  0.14850  0.46600  0.00370  1.0000 -0.0215603082
C   C60       1.0  0.11210  0.34000  0.01740  1.0000 -0.1315082118
H   H31       1.0  0.11810  0.30970  0.06890  1.0000 0.1195116783
C   C61       1.0  0.06730  0.25870  0.95680  1.0000 -0.0215603082
C   C62       1.0  0.19030  0.55370  0.07050  1.0000 0.5478351236
C   C63       1.0  0.02990  0.12710  0.97710  1.0000 0.1798902124
C   C64       1.0  0.01800  0.89570  0.95500  1.0000 -0.0612706237
H   H32       1.0  0.03110  0.82570  0.92300  1.0000 0.1195116783
H   H33       1.0  0.61190  0.56920  0.10350  1.0000 0.3358144507
H   H34       1.0  0.07580  0.02720  0.89190  1.0000 0.3322682649
O   O17       1.0  0.57340  0.88380  0.20030  1.0000 -0.5696838676
O   O18       1.0  0.44910  0.75370  0.13140  1.0000 -0.7004256874
O   O19       1.0  0.73300  0.06690  0.83710  1.0000 -0.6518085877
O   O20       1.0  0.73620  0.85770  0.81040  1.0000 -0.6829917609
O   O21       1.0  0.90090  0.21120  0.80640  1.0000 -0.6109018803
O   O22       1.0  0.05360  0.21570  0.75070  1.0000 -0.5696838676
O   O23       1.0  0.22810  0.66420  0.05590  1.0000 -0.6363044858
O   O24       1.0  0.18740  0.51820  0.13990  1.0000 -0.6109018803
Tb  Tb3       1.0  0.71453  0.28395  0.80723  1.0000 2.0415277601
H   H35       1.0  0.61540  0.57130  0.10690  1.0000 0.3358144507
H   H36       1.0  0.07830  0.02800  0.88840  1.0000 0.3322682649
C   C65       1.0  0.96730  0.32830  0.36200  1.0000 0.5820508719
C   C66       1.0  0.91470  0.35290  0.43490  1.0000 -0.0612706237
C   C67       1.0  0.91730  0.26260  0.49650  1.0000 -0.0138863308
C   C68       1.0  0.87380  0.29830  0.56460  1.0000 -0.1315082118
H   H37       1.0  0.87580  0.23880  0.60560  1.0000 0.1296431765
C   C69       1.0  0.82790  0.42030  0.57220  1.0000 -0.0299502815
C   C70       1.0  0.82380  0.50960  0.51120  1.0000 -0.1093742728
H   H38       1.0  0.79340  0.59220  0.51620  1.0000 0.1195116783
C   C71       1.0  0.86560  0.47440  0.44240  1.0000 -0.1028493337
H   H39       1.0  0.86060  0.53310  0.40070  1.0000 0.1195116783
C   C72       1.0  0.78350  0.45190  0.64760  1.0000 0.6632819146
C   C73       1.0  0.96290  0.12940  0.49660  1.0000 0.1727419131
C   C74       1.0  0.96700  0.91690  0.44030  1.0000 -0.0517332099
H   H40       1.0  0.94300  0.86120  0.39870  1.0000 0.1296431765
C   C75       1.0  0.49970  0.73600  0.69130  1.0000 0.5737475872
C   C76       1.0  0.43940  0.80600  0.62110  1.0000 -0.0671533376
C   C77       1.0  0.39770  0.92870  0.63390  1.0000 -0.0880052551
H   H41       1.0  0.39820  0.95760  0.68530  1.0000 0.1396779165
C   C78       1.0  0.35590  0.00840  0.57370  1.0000 -0.1028493337
H   H42       1.0  0.33010  0.09130  0.58420  1.0000 0.1195116783
C   C79       1.0  0.35150  0.96600  0.49630  1.0000 -0.0215603082
C   C80       1.0  0.38790  0.84000  0.48260  1.0000 -0.1315082118
H   H43       1.0  0.38190  0.80970  0.43110  1.0000 0.1195116783
C   C81       1.0  0.43270  0.75870  0.54320  1.0000 -0.0215603082
C   C82       1.0  0.30970  0.05370  0.42950  1.0000 0.5478351236
C   C83       1.0  0.47010  0.62710  0.52290  1.0000 0.1798902124
C   C84       1.0  0.48200  0.39570  0.54500  1.0000 -0.0517332099
H   H44       1.0  0.46890  0.32570  0.57700  1.0000 0.1195116783
H   H45       1.0  0.88810  0.06920  0.39650  1.0000 0.3358144507
H   H46       1.0  0.42420  0.52720  0.60810  1.0000 0.3322682649
O   O25       1.0  0.92660  0.38380  0.29970  1.0000 -0.5696838676
O   O26       1.0  0.05090  0.25370  0.36860  1.0000 -0.7004256874
O   O27       1.0  0.76700  0.56690  0.66290  1.0000 -0.6552039862
O   O28       1.0  0.76380  0.35770  0.68960  1.0000 -0.6829917609
O   O29       1.0  0.59910  0.71120  0.69360  1.0000 -0.6109018803
O   O30       1.0  0.44640  0.71570  0.74930  1.0000 -0.5696838676
O   O31       1.0  0.27190  0.16420  0.44410  1.0000 -0.6363044858
O   O32       1.0  0.31260  0.01820  0.36010  1.0000 -0.6109018803
Tb  Tb4       1.0  0.78547  0.78395  0.69277  1.0000 2.0415277601
H   H47       1.0  0.88460  0.07130  0.39310  1.0000 0.3358144507
H   H48       1.0  0.42170  0.52800  0.61160  1.0000 0.3322682649
  C   C85       1.0  0.43180  0.45700  0.93730  1.0000
  C   C86       1.0  0.95390  0.98210  0.06570  1.0000
  N   N5        1.0  0.56820  0.54300  0.06270  1.0000
  N   N6        1.0  0.04610  0.01790  0.93430  1.0000
  C   C87       1.0  0.06820  0.95700  0.56270  1.0000
  C   C88       1.0  0.54610  0.48210  0.43430  1.0000
  N   N7        1.0  0.93180  0.04300  0.43730  1.0000
  N   N8        1.0  0.45390  0.51790  0.56570  1.0000
