# DDEC6 charges by PACMAN v1.1 (https://github.com/mtap-research/PACMAN-charge/)
data_HOQNOS_ASR_pacman
_symmetry_space_group_name_H-M   'P 1'
_cell_length_a   12.56310000
_cell_length_b   12.56310000
_cell_length_c   14.06170000
_cell_angle_alpha   60.48580000
_cell_angle_beta   119.51400000
_cell_angle_gamma   99.74570000
_symmetry_Int_Tables_number   1
_chemical_formula_structural   MgH4C15NO5
_chemical_formula_sum   'Mg4 H16 C60 N4 O20'
_cell_volume   1672.83696792
_cell_formula_units_Z   4
loop_
 _symmetry_equiv_pos_site_id
 _symmetry_equiv_pos_as_xyz
  1  'x, y, z'
loop_
 _atom_site_type_symbol
 _atom_site_label
 _atom_site_symmetry_multiplicity
 _atom_site_fract_x
 _atom_site_fract_y
 _atom_site_fract_z
 _atom_site_occupancy
 _atom_site_charge
Mg  Mg1  1  0.56189000  0.56189000  0.25000000  1.0 1.3494261377
Mg  Mg2  1  0.43811000  0.43811000  0.75000000  1.0 1.3494261377
Mg  Mg3  1  0.50000000  0.50000000  0.00000000  1.0 1.3494261377
Mg  Mg4  1  0.50000000  0.50000000  0.50000000  1.0 1.3494261377
H  H1  1  0.32890000  0.30890000  0.36800000  1.0 0.1312169505
H  H2  1  0.30890000  0.32890000  0.13200000  1.0 0.1312169505
H  H3  1  0.67110000  0.69110000  0.63200000  1.0 0.1312169505
H  H4  1  0.69110000  0.67110000  0.86800000  1.0 0.1312169505
H  H5  1  0.32070000  0.10570000  0.41480000  1.0 0.1312169505
H  H6  1  0.10570000  0.32070000  0.08520000  1.0 0.1312169505
H  H7  1  0.67930000  0.89430000  0.58520000  1.0 0.1312169505
H  H8  1  0.89430000  0.67930000  0.91480000  1.0 0.1312169505
H  H9  1  0.68330000  0.07690000  0.54140000  1.0 0.1312169505
H  H10  1  0.07690000  0.68330000  0.95860000  1.0 0.1312169505
H  H11  1  0.31670000  0.92310000  0.45860000  1.0 0.1312169505
H  H12  1  0.92310000  0.31670000  0.04140000  1.0 0.1312169505
H  H13  1  0.68420000  0.28120000  0.49170000  1.0 0.1402110778
H  H14  1  0.28120000  0.68420000  0.00830000  1.0 0.1402110778
H  H15  1  0.31580000  0.71880000  0.50830000  1.0 0.1402110778
H  H16  1  0.71880000  0.31580000  0.99170000  1.0 0.1402110778
C  C1  1  0.58860000  0.87080000  0.94260000  1.0 -0.0050486406
C  C2  1  0.87080000  0.58860000  0.55740000  1.0 -0.0050486406
C  C3  1  0.41140000  0.12920000  0.05740000  1.0 -0.0050486406
C  C4  1  0.12920000  0.41140000  0.44260000  1.0 -0.0050486406
C  C5  1  0.52900000  0.93580000  0.80810000  1.0 0.0089532306
C  C6  1  0.93580000  0.52900000  0.69190000  1.0 0.0089532306
C  C7  1  0.47100000  0.06420000  0.19190000  1.0 0.0089532306
C  C8  1  0.06420000  0.47100000  0.30810000  1.0 0.0089532306
C  C9  1  0.52740000  0.06060000  0.74790000  1.0 0.0028889952
C  C10  1  0.06060000  0.52740000  0.75210000  1.0 0.0028889952
C  C11  1  0.47260000  0.93940000  0.25210000  1.0 0.0028889952
C  C12  1  0.93940000  0.47260000  0.24790000  1.0 0.0028889952
C  C13  1  0.58400000  0.12800000  0.81720000  1.0 0.0089532306
C  C14  1  0.12800000  0.58400000  0.68280000  1.0 0.0089532306
C  C15  1  0.41600000  0.87200000  0.18280000  1.0 0.0028889952
C  C16  1  0.87200000  0.41600000  0.31720000  1.0 0.0089532306
C  C17  1  0.61500000  0.06560000  0.94190000  1.0 -0.085501594
C  C18  1  0.06560000  0.61500000  0.55810000  1.0 -0.085501594
C  C19  1  0.38500000  0.93440000  0.05810000  1.0 -0.085501594
C  C20  1  0.93440000  0.38500000  0.44190000  1.0 -0.0848406903
C  C21  1  0.61850000  0.93870000  0.00390000  1.0 -0.0661912221
C  C22  1  0.93870000  0.61850000  0.49610000  1.0 -0.0661912221
C  C23  1  0.38150000  0.06130000  0.99610000  1.0 -0.0661912221
C  C24  1  0.06130000  0.38150000  0.50390000  1.0 -0.0661912221
C  C25  1  0.58000000  0.73480000  0.00850000  1.0 0.6423889943
C  C26  1  0.73480000  0.58000000  0.49150000  1.0 0.6423889943
C  C27  1  0.42000000  0.26520000  0.99150000  1.0 0.6423889943
C  C28  1  0.26520000  0.42000000  0.50850000  1.0 0.6423889943
C  C29  1  0.56950000  0.26610000  0.74730000  1.0 0.6423889943
C  C30  1  0.26610000  0.56950000  0.75270000  1.0 0.6423889943
C  C31  1  0.43050000  0.73390000  0.25270000  1.0 0.6423889943
C  C32  1  0.73390000  0.43050000  0.24730000  1.0 0.6423889943
C  C33  1  0.40010000  0.26170000  0.40140000  1.0 -0.0429340839
C  C34  1  0.26170000  0.40010000  0.09860000  1.0 -0.0429340839
C  C35  1  0.59990000  0.73830000  0.59860000  1.0 -0.0429340839
C  C36  1  0.73830000  0.59990000  0.90140000  1.0 -0.0429340839
C  C37  1  0.39550000  0.13950000  0.43050000  1.0 -0.1850512303
C  C38  1  0.13950000  0.39550000  0.06950000  1.0 -0.1850512303
C  C39  1  0.60450000  0.86050000  0.56950000  1.0 -0.1850512303
C  C40  1  0.86050000  0.60450000  0.93050000  1.0 -0.1850512303
C  C41  1  0.50080000  0.06660000  0.48280000  1.0 0.0824294057
C  C42  1  0.06660000  0.50080000  0.01720000  1.0 0.0824294057
C  C43  1  0.49920000  0.93340000  0.51720000  1.0 0.0824294057
C  C44  1  0.93340000  0.49920000  0.98280000  1.0 0.0824294057
C  C45  1  0.61000000  0.12260000  0.50540000  1.0 -0.1703873403
C  C46  1  0.12260000  0.61000000  0.99460000  1.0 -0.1703873403
C  C47  1  0.39000000  0.87740000  0.49460000  1.0 -0.1703873403
C  C48  1  0.87740000  0.39000000  0.00540000  1.0 -0.1703873403
C  C49  1  0.61040000  0.24520000  0.47470000  1.0 -0.0002676878
C  C50  1  0.24520000  0.61040000  0.02530000  1.0 -0.0002676878
C  C51  1  0.38960000  0.75480000  0.52530000  1.0 -0.0002676878
C  C52  1  0.75480000  0.38960000  0.97470000  1.0 -0.0002676878
C  C53  1  0.59140000  0.93020000  0.82910000  1.0 0.0089532306
C  C54  1  0.93020000  0.59140000  0.67090000  1.0 0.0089532306
C  C55  1  0.40860000  0.06980000  0.17090000  1.0 0.0089532306
C  C56  1  0.06980000  0.40860000  0.32910000  1.0 0.0089532306
C  C57  1  0.59210000  0.05570000  0.76960000  1.0 0.0089532306
C  C58  1  0.05570000  0.59210000  0.73040000  1.0 0.0089532306
C  C59  1  0.40790000  0.94430000  0.23040000  1.0 0.0089532306
C  C60  1  0.94430000  0.40790000  0.26960000  1.0 0.0089532306
N  N1  1  0.50560000  0.31260000  0.42060000  1.0 0.3157754116
N  N2  1  0.31260000  0.50560000  0.07940000  1.0 0.3157754116
N  N3  1  0.49440000  0.68740000  0.57940000  1.0 0.3157754116
N  N4  1  0.68740000  0.49440000  0.92060000  1.0 0.3157754116
O  O1  1  0.53823000  0.68021000  0.94380000  1.0 -0.6205892093
O  O2  1  0.68021000  0.53823000  0.55620000  1.0 -0.6205892093
O  O3  1  0.46177000  0.31979000  0.05620000  1.0 -0.6205892093
O  O4  1  0.31979000  0.46177000  0.44380000  1.0 -0.6205892093
O  O5  1  0.61063000  0.68789000  0.12090000  1.0 -0.5998343206
O  O6  1  0.68789000  0.61063000  0.37910000  1.0 -0.5998343206
O  O7  1  0.38937000  0.31211000  0.87910000  1.0 -0.5998343206
O  O8  1  0.31211000  0.38937000  0.62090000  1.0 -0.5998343206
O  O9  1  0.57006000  0.31922000  0.80320000  1.0 -0.6205892093
O  O10  1  0.31922000  0.57006000  0.69680000  1.0 -0.6205892093
O  O11  1  0.42994000  0.68078000  0.19680000  1.0 -0.6205892093
O  O12  1  0.68078000  0.42994000  0.30320000  1.0 -0.6205892093
O  O13  1  0.55418000  0.31810000  0.63850000  1.0 -0.6073930986
O  O14  1  0.31810000  0.55418000  0.86150000  1.0 -0.6073930986
O  O15  1  0.44582000  0.68190000  0.36150000  1.0 -0.6073930986
O  O16  1  0.68190000  0.44582000  0.13850000  1.0 -0.6073930986
O  O17  1  0.50737000  0.43211000  0.38730000  1.0 -0.5998343206
O  O18  1  0.43211000  0.50737000  0.11270000  1.0 -0.5998343206
O  O19  1  0.49263000  0.56789000  0.61270000  1.0 -0.5998343206
O  O20  1  0.56789000  0.49263000  0.88730000  1.0 -0.5998343206
