# DDEC6 charges by PACMAN v1.1 (https://github.com/mtap-research/PACMAN-charge/)
data_HOVGEG_ASR_pacman
_symmetry_space_group_name_H-M   'P 1'
_cell_length_a   23.57280000
_cell_length_b   6.42480000
_cell_length_c   31.12760000
_cell_angle_alpha   90.00000000
_cell_angle_beta   94.77300000
_cell_angle_gamma   90.00000000
_symmetry_Int_Tables_number   1
_chemical_formula_structural   Zn6H31(C2O)21
_chemical_formula_sum   'Zn24 H124 C168 O84'
_cell_volume   4697.94306582
_cell_formula_units_Z   4
loop_
 _symmetry_equiv_pos_site_id
 _symmetry_equiv_pos_as_xyz
  1  'x, y, z'
loop_
 _atom_site_type_symbol
 _atom_site_label
 _atom_site_symmetry_multiplicity
 _atom_site_fract_x
 _atom_site_fract_y
 _atom_site_fract_z
 _atom_site_occupancy
 _atom_site_charge
Zn  Zn1  1  0.69995000  0.30310000  0.32793000  1.0 0.5220655923
Zn  Zn2  1  0.30005000  0.80310000  0.17207000  1.0 0.5253648882
Zn  Zn3  1  0.30005000  0.69690000  0.67207000  1.0 0.5220655923
Zn  Zn4  1  0.69995000  0.19690000  0.82793000  1.0 0.5220655923
Zn  Zn5  1  0.66434000  0.60420000  0.40728000  1.0 0.8375372244
Zn  Zn6  1  0.33566000  0.10420000  0.09272000  1.0 0.8375372244
Zn  Zn7  1  0.33566000  0.39580000  0.59272000  1.0 0.8346777086
Zn  Zn8  1  0.66434000  0.89580000  0.90728000  1.0 0.8375372244
Zn  Zn9  1  0.80737000  0.47639000  0.81022000  1.0 0.8687198882
Zn  Zn10  1  0.19263000  0.97639000  0.68978000  1.0 0.8687198882
Zn  Zn11  1  0.19263000  0.52361000  0.18978000  1.0 0.8687198882
Zn  Zn12  1  0.80737000  0.02361000  0.31022000  1.0 0.8687198882
Zn  Zn13  1  0.80278000  0.94249000  0.78911000  1.0 0.9573424582
Zn  Zn14  1  0.19722000  0.44249000  0.71089000  1.0 0.9573424582
Zn  Zn15  1  0.19722000  0.05751000  0.21089000  1.0 0.9573424582
Zn  Zn16  1  0.80278000  0.55751000  0.28911000  1.0 0.9573424582
Zn  Zn17  1  0.67324000  0.69128000  0.81196000  1.0 0.8375372244
Zn  Zn18  1  0.32676000  0.19128000  0.68804000  1.0 0.8375372244
Zn  Zn19  1  0.32676000  0.30872000  0.18804000  1.0 0.8375372244
Zn  Zn20  1  0.67324000  0.80872000  0.31196000  1.0 0.8375372244
Zn  Zn21  1  0.72827000  0.31390000  0.34966000  1.0 0.5220655923
Zn  Zn22  1  0.27173000  0.81390000  0.15034000  1.0 0.5220655923
Zn  Zn23  1  0.27173000  0.68610000  0.65034000  1.0 0.5220655923
Zn  Zn24  1  0.72827000  0.18610000  0.84966000  1.0 0.5220655923
H  H1  1  0.66920000  0.40810000  0.77170000  1.0 0.223589863
H  H2  1  0.33080000  0.90810000  0.72830000  1.0 0.223589863
H  H3  1  0.33080000  0.59190000  0.22830000  1.0 0.223589863
H  H4  1  0.66920000  0.09190000  0.27170000  1.0 0.223589863
H  H5  1  0.58910000  0.42600000  0.81270000  1.0 0.2590081666
H  H6  1  0.41090000  0.92600000  0.68730000  1.0 0.2590081666
H  H7  1  0.41090000  0.57400000  0.18730000  1.0 0.2590081666
H  H8  1  0.58910000  0.07400000  0.31270000  1.0 0.2590081666
H  H9  1  0.58050000  0.59440000  0.84810000  1.0 0.223589863
H  H10  1  0.41950000  0.09440000  0.65190000  1.0 0.223589863
H  H11  1  0.41950000  0.40560000  0.15190000  1.0 0.223589863
H  H12  1  0.58050000  0.90560000  0.34810000  1.0 0.223589863
H  H13  1  0.87890000  0.43670000  0.43020000  1.0 0.1092527592
H  H14  1  0.12110000  0.93670000  0.06980000  1.0 0.1092527592
H  H15  1  0.12110000  0.56330000  0.56980000  1.0 0.1092527592
H  H16  1  0.87890000  0.06330000  0.93020000  1.0 0.1092527592
H  H17  1  0.95260000  0.34940000  0.48030000  1.0 0.1092527592
H  H18  1  0.04740000  0.84940000  0.01970000  1.0 0.1092527592
H  H19  1  0.04740000  0.65060000  0.51970000  1.0 0.1092527592
H  H20  1  0.95260000  0.15060000  0.98030000  1.0 0.1092527592
H  H21  1  0.78190000  0.59260000  0.52310000  1.0 0.1186046342
H  H22  1  0.21810000  0.09260000  0.97690000  1.0 0.1186046342
H  H23  1  0.21810000  0.40740000  0.47690000  1.0 0.1186046342
H  H24  1  0.78190000  0.90740000  0.02310000  1.0 0.1186046342
H  H25  1  0.97230000  0.07690000  0.54510000  1.0 0.1092527592
H  H26  1  0.02770000  0.57690000  0.95490000  1.0 0.1092527592
H  H27  1  0.02770000  0.92310000  0.45490000  1.0 0.1092527592
H  H28  1  0.97230000  0.42310000  0.04510000  1.0 0.1092527592
H  H29  1  0.04750000  0.00210000  0.59140000  1.0 0.1092527592
H  H30  1  0.95250000  0.50210000  0.90860000  1.0 0.1092527592
H  H31  1  0.95250000  0.99790000  0.40860000  1.0 0.1092527592
H  H32  1  0.04750000  0.49790000  0.09140000  1.0 0.1092527592
H  H33  1  0.03850000  0.56300000  0.64360000  1.0 0.1186046342
H  H34  1  0.96150000  0.06300000  0.85640000  1.0 0.1186046342
H  H35  1  0.96150000  0.43700000  0.35640000  1.0 0.1186046342
H  H36  1  0.03850000  0.93700000  0.14360000  1.0 0.1186046342
H  H37  1  0.96110000  0.63830000  0.59730000  1.0 0.1092527592
H  H38  1  0.03890000  0.13830000  0.90270000  1.0 0.1092527592
H  H39  1  0.03890000  0.36170000  0.40270000  1.0 0.1092527592
H  H40  1  0.96110000  0.86170000  0.09730000  1.0 0.1092527592
H  H41  1  0.86820000  0.22050000  0.61120000  1.0 0.1092527592
H  H42  1  0.13180000  0.72050000  0.88880000  1.0 0.1092527592
H  H43  1  0.13180000  0.77950000  0.38880000  1.0 0.1092527592
H  H44  1  0.86820000  0.27950000  0.11120000  1.0 0.1092527592
H  H45  1  0.84890000  0.27660000  0.68560000  1.0 0.1186046342
H  H46  1  0.15110000  0.77660000  0.81440000  1.0 0.1186046342
H  H47  1  0.15110000  0.72340000  0.31440000  1.0 0.1186046342
H  H48  1  0.84890000  0.22340000  0.18560000  1.0 0.1186046342
H  H49  1  0.81040000  0.86740000  0.65720000  1.0 0.1092527592
H  H50  1  0.18960000  0.36740000  0.84280000  1.0 0.1092527592
H  H51  1  0.18960000  0.13260000  0.34280000  1.0 0.1092527592
H  H52  1  0.81040000  0.63260000  0.15720000  1.0 0.1092527592
H  H53  1  0.81760000  0.81100000  0.58680000  1.0 0.1092527592
H  H54  1  0.18240000  0.31100000  0.91320000  1.0 0.1092527592
H  H55  1  0.18240000  0.18900000  0.41320000  1.0 0.1092527592
H  H56  1  0.81760000  0.68900000  0.08680000  1.0 0.1092527592
H  H57  1  0.76120000  0.17140000  0.47500000  1.0 0.1092527592
H  H58  1  0.23880000  0.67140000  0.02500000  1.0 0.1092527592
H  H59  1  0.23880000  0.82860000  0.52500000  1.0 0.1092527592
H  H60  1  0.76120000  0.32860000  0.97500000  1.0 0.1092527592
H  H61  1  0.76120000  0.14480000  0.54890000  1.0 0.1092527592
H  H62  1  0.23880000  0.64480000  0.95110000  1.0 0.1092527592
H  H63  1  0.23880000  0.85520000  0.45110000  1.0 0.1092527592
H  H64  1  0.76120000  0.35520000  0.04890000  1.0 0.1092527592
H  H65  1  0.60720000  0.91330000  0.46140000  1.0 0.1092527592
H  H66  1  0.39280000  0.41330000  0.03860000  1.0 0.1092527592
H  H67  1  0.39280000  0.08670000  0.53860000  1.0 0.1092527592
H  H68  1  0.60720000  0.58670000  0.96140000  1.0 0.1092527592
H  H69  1  0.71340000  0.28840000  0.61200000  1.0 0.1092527592
H  H70  1  0.28660000  0.78840000  0.88800000  1.0 0.1092527592
H  H71  1  0.28660000  0.71160000  0.38800000  1.0 0.1092527592
H  H72  1  0.71340000  0.21160000  0.11200000  1.0 0.1092527592
H  H73  1  0.71710000  0.25000000  0.68570000  1.0 0.1092527592
H  H74  1  0.28290000  0.75000000  0.81430000  1.0 0.1092527592
H  H75  1  0.28290000  0.75000000  0.31430000  1.0 0.1092527592
H  H76  1  0.71710000  0.25000000  0.18570000  1.0 0.1092527592
H  H77  1  0.65920000  0.66890000  0.67190000  1.0 0.1092527592
H  H78  1  0.34080000  0.16890000  0.82810000  1.0 0.1092527592
H  H79  1  0.34080000  0.33110000  0.32810000  1.0 0.1092527592
H  H80  1  0.65920000  0.83110000  0.17190000  1.0 0.1092527592
H  H81  1  0.65950000  0.70270000  0.59870000  1.0 0.1092527592
H  H82  1  0.34050000  0.20270000  0.90130000  1.0 0.1092527592
H  H83  1  0.34050000  0.29730000  0.40130000  1.0 0.1092527592
H  H84  1  0.65950000  0.79730000  0.09870000  1.0 0.1092527592
H  H85  1  0.56470000  0.12610000  0.57520000  1.0 0.1092527592
H  H86  1  0.43530000  0.62610000  0.92480000  1.0 0.1092527592
H  H87  1  0.43530000  0.87390000  0.42480000  1.0 0.1092527592
H  H88  1  0.56470000  0.37390000  0.07520000  1.0 0.1092527592
H  H89  1  0.48530000  0.99830000  0.60410000  1.0 0.0984061186
H  H90  1  0.51470000  0.49830000  0.89590000  1.0 0.0984061186
H  H91  1  0.51470000  0.00170000  0.39590000  1.0 0.0984061186
H  H92  1  0.48530000  0.50170000  0.10410000  1.0 0.0984061186
H  H93  1  0.50390000  0.46560000  0.54190000  1.0 0.1092527592
H  H94  1  0.49610000  0.96560000  0.95810000  1.0 0.1092527592
H  H95  1  0.49610000  0.53440000  0.45810000  1.0 0.1092527592
H  H96  1  0.50390000  0.03440000  0.04190000  1.0 0.1092527592
H  H97  1  0.58270000  0.59250000  0.51270000  1.0 0.1186046342
H  H98  1  0.41730000  0.09250000  0.98730000  1.0 0.1186046342
H  H99  1  0.41730000  0.40750000  0.48730000  1.0 0.1186046342
H  H100  1  0.58270000  0.90750000  0.01270000  1.0 0.1186046342
H  H101  1  0.62250000  0.50940000  0.33650000  1.0 0.2278219213
H  H102  1  0.37750000  0.00940000  0.16350000  1.0 0.2278219213
H  H103  1  0.37750000  0.49060000  0.66350000  1.0 0.2278219213
H  H104  1  0.62250000  0.99060000  0.83650000  1.0 0.2278219213
H  H105  1  0.76930000  0.75400000  0.85420000  1.0 0.3503879134
H  H106  1  0.23070000  0.25400000  0.64580000  1.0 0.3503879134
H  H107  1  0.23070000  0.24600000  0.14580000  1.0 0.3503879134
H  H108  1  0.76930000  0.74600000  0.35420000  1.0 0.3503879134
H  H109  1  0.80930000  0.16990000  0.85740000  1.0 0.3223532264
H  H110  1  0.19070000  0.66990000  0.64260000  1.0 0.3223532264
H  H111  1  0.19070000  0.83010000  0.14260000  1.0 0.3223532264
H  H112  1  0.80930000  0.33010000  0.35740000  1.0 0.3223532264
H  H113  1  0.69070000  0.42130000  0.77980000  1.0 0.2278219213
H  H114  1  0.30930000  0.92130000  0.72020000  1.0 0.2278219213
H  H115  1  0.30930000  0.57870000  0.22020000  1.0 0.2278219213
H  H116  1  0.69070000  0.07870000  0.27980000  1.0 0.2278219213
H  H117  1  0.56390000  0.79770000  0.83750000  1.0 0.1921678757
H  H118  1  0.43610000  0.29770000  0.66250000  1.0 0.1921678757
H  H119  1  0.43610000  0.20230000  0.16250000  1.0 0.1921678757
H  H120  1  0.56390000  0.70230000  0.33750000  1.0 0.1921678757
H  H121  1  0.56020000  0.82190000  0.78720000  1.0 0.2811772798
H  H122  1  0.43980000  0.32190000  0.71280000  1.0 0.2811772798
H  H123  1  0.43980000  0.17810000  0.21280000  1.0 0.2811772798
H  H124  1  0.56020000  0.67810000  0.28720000  1.0 0.2811772798
C  C1  1  0.77530000  0.56990000  0.43770000  1.0 0.5494911794
C  C2  1  0.22470000  0.06990000  0.06230000  1.0 0.5494911794
C  C3  1  0.22470000  0.43010000  0.56230000  1.0 0.5494911794
C  C4  1  0.77530000  0.93010000  0.93770000  1.0 0.5494911794
C  C5  1  0.82350000  0.52640000  0.47150000  1.0 -0.0229563817
C  C6  1  0.17650000  0.02640000  0.02850000  1.0 -0.0229563817
C  C7  1  0.17650000  0.47360000  0.52850000  1.0 -0.0229563817
C  C8  1  0.82350000  0.97360000  0.97150000  1.0 -0.0229563817
C  C9  1  0.87410000  0.45190000  0.45940000  1.0 -0.1073371085
C  C10  1  0.12590000  0.95190000  0.04060000  1.0 -0.1073371085
C  C11  1  0.12590000  0.54810000  0.54060000  1.0 -0.1073371085
C  C12  1  0.87410000  0.04810000  0.95940000  1.0 -0.1073371085
C  C13  1  0.91840000  0.39820000  0.48940000  1.0 -0.1601066363
C  C14  1  0.08160000  0.89820000  0.01060000  1.0 -0.1601066363
C  C15  1  0.08160000  0.60180000  0.51060000  1.0 -0.1601066363
C  C16  1  0.91840000  0.10180000  0.98940000  1.0 -0.1601066363
C  C17  1  0.91170000  0.41750000  0.53370000  1.0 0.0180655173
C  C18  1  0.08830000  0.91750000  0.96630000  1.0 0.0180655173
C  C19  1  0.08830000  0.58250000  0.46630000  1.0 0.0180655173
C  C20  1  0.91170000  0.08250000  0.03370000  1.0 0.0180655173
C  C21  1  0.85890000  0.49380000  0.54630000  1.0 0.0042819318
C  C22  1  0.14110000  0.99380000  0.95370000  1.0 0.0042819318
C  C23  1  0.14110000  0.50620000  0.45370000  1.0 0.0042819318
C  C24  1  0.85890000  0.00620000  0.04630000  1.0 0.0042819318
C  C25  1  0.81660000  0.54440000  0.51470000  1.0 -0.1601066363
C  C26  1  0.18340000  0.04440000  0.98530000  1.0 -0.1601066363
C  C27  1  0.18340000  0.45560000  0.48530000  1.0 -0.1601066363
C  C28  1  0.81660000  0.95560000  0.01470000  1.0 -0.1601066363
C  C29  1  0.96010000  0.36640000  0.56460000  1.0 0.0593110664
C  C30  1  0.03990000  0.86640000  0.93540000  1.0 0.0593110664
C  C31  1  0.03990000  0.63360000  0.43540000  1.0 0.0593110664
C  C32  1  0.96010000  0.13360000  0.06460000  1.0 0.0593110664
C  C33  1  0.98580000  0.17730000  0.56490000  1.0 -0.1492803134
C  C34  1  0.01420000  0.67730000  0.93510000  1.0 -0.1492803134
C  C35  1  0.01420000  0.82270000  0.43510000  1.0 -0.1492803134
C  C36  1  0.98580000  0.32270000  0.06490000  1.0 -0.1492803134
C  C37  1  0.03010000  0.13160000  0.59280000  1.0 -0.1187760632
C  C38  1  0.96990000  0.63160000  0.90720000  1.0 -0.1187760632
C  C39  1  0.96990000  0.86840000  0.40720000  1.0 -0.1187760632
C  C40  1  0.03010000  0.36840000  0.09280000  1.0 -0.1187760632
C  C41  1  0.05100000  0.27590000  0.62430000  1.0 -0.0393604335
C  C42  1  0.94900000  0.77590000  0.87570000  1.0 -0.0393604335
C  C43  1  0.94900000  0.72410000  0.37570000  1.0 -0.0393604335
C  C44  1  0.05100000  0.22410000  0.12430000  1.0 -0.0393604335
C  C45  1  0.02490000  0.46250000  0.62390000  1.0 -0.1028588896
C  C46  1  0.97510000  0.96250000  0.87610000  1.0 -0.1028588896
C  C47  1  0.97510000  0.53750000  0.37610000  1.0 -0.1028588896
C  C48  1  0.02490000  0.03750000  0.12390000  1.0 -0.1028588896
C  C49  1  0.97920000  0.51030000  0.59560000  1.0 -0.1492803134
C  C50  1  0.02080000  0.01030000  0.90440000  1.0 -0.1492803134
C  C51  1  0.02080000  0.48970000  0.40440000  1.0 -0.1492803134
C  C52  1  0.97920000  0.98970000  0.09560000  1.0 -0.1492803134
C  C53  1  0.10070000  0.22800000  0.65520000  1.0 0.5890643423
C  C54  1  0.89930000  0.72800000  0.84480000  1.0 0.5890643423
C  C55  1  0.89930000  0.77200000  0.34480000  1.0 0.5890643423
C  C56  1  0.10070000  0.27200000  0.15520000  1.0 0.5890643423
C  C57  1  0.84750000  0.51520000  0.59180000  1.0 0.0593110664
C  C58  1  0.15250000  0.01520000  0.90820000  1.0 0.0593110664
C  C59  1  0.15250000  0.48480000  0.40820000  1.0 0.0593110664
C  C60  1  0.84750000  0.98480000  0.09180000  1.0 0.0593110664
C  C61  1  0.85580000  0.34900000  0.62040000  1.0 -0.1683783742
C  C62  1  0.14420000  0.84900000  0.87960000  1.0 -0.1683783742
C  C63  1  0.14420000  0.65100000  0.37960000  1.0 -0.1683783742
C  C64  1  0.85580000  0.15100000  0.12040000  1.0 -0.1683783742
C  C65  1  0.84430000  0.38200000  0.66520000  1.0 -0.1073371085
C  C66  1  0.15570000  0.88200000  0.83480000  1.0 -0.1073371085
C  C67  1  0.15570000  0.61800000  0.33480000  1.0 -0.1073371085
C  C68  1  0.84430000  0.11800000  0.16520000  1.0 -0.1073371085
C  C69  1  0.82610000  0.58200000  0.67570000  1.0 -0.0393604335
C  C70  1  0.17390000  0.08200000  0.82430000  1.0 -0.0393604335
C  C71  1  0.17390000  0.41800000  0.32430000  1.0 -0.0393604335
C  C72  1  0.82610000  0.91800000  0.17570000  1.0 -0.0393604335
C  C73  1  0.81980000  0.73500000  0.64780000  1.0 -0.0935336004
C  C74  1  0.18020000  0.23500000  0.85220000  1.0 -0.0935336004
C  C75  1  0.18020000  0.26500000  0.35220000  1.0 -0.0935336004
C  C76  1  0.81980000  0.76500000  0.14780000  1.0 -0.0935336004
C  C77  1  0.82670000  0.70500000  0.60650000  1.0 -0.1683783742
C  C78  1  0.17330000  0.20500000  0.89350000  1.0 -0.1683783742
C  C79  1  0.17330000  0.29500000  0.39350000  1.0 -0.1683783742
C  C80  1  0.82670000  0.79500000  0.10650000  1.0 -0.1683783742
C  C81  1  0.81860000  0.60800000  0.72400000  1.0 0.5629634832
C  C82  1  0.18140000  0.10800000  0.77600000  1.0 0.5629634832
C  C83  1  0.18140000  0.39200000  0.27600000  1.0 0.5629634832
C  C84  1  0.81860000  0.89200000  0.22400000  1.0 0.5629634832
C  C85  1  0.68600000  0.05660000  0.41300000  1.0 0.4935034786
C  C86  1  0.31400000  0.55660000  0.08700000  1.0 0.4935034786
C  C87  1  0.31400000  0.94340000  0.58700000  1.0 0.4935034786
C  C88  1  0.68600000  0.44340000  0.91300000  1.0 0.4935034786
C  C89  1  0.68490000  0.04320000  0.46060000  1.0 -0.0580586742
C  C90  1  0.31510000  0.54320000  0.03940000  1.0 -0.0580586742
C  C91  1  0.31510000  0.95680000  0.53940000  1.0 -0.0580586742
C  C92  1  0.68490000  0.45680000  0.96060000  1.0 -0.0580586742
C  C93  1  0.72990000  0.11380000  0.48690000  1.0 -0.1028588896
C  C94  1  0.27010000  0.61380000  0.01310000  1.0 -0.1028588896
C  C95  1  0.27010000  0.88620000  0.51310000  1.0 -0.1028588896
C  C96  1  0.72990000  0.38620000  0.98690000  1.0 -0.1028588896
C  C97  1  0.72950000  0.10060000  0.53140000  1.0 -0.1492803134
C  C98  1  0.27050000  0.60060000  0.96860000  1.0 -0.1492803134
C  C99  1  0.27050000  0.89940000  0.46860000  1.0 -0.1492803134
C  C100  1  0.72950000  0.39940000  0.03140000  1.0 -0.1492803134
C  C101  1  0.68220000  0.02180000  0.55050000  1.0 0.0141665649
C  C102  1  0.31780000  0.52180000  0.94950000  1.0 0.0141665649
C  C103  1  0.31780000  0.97820000  0.44950000  1.0 0.0141665649
C  C104  1  0.68220000  0.47820000  0.05050000  1.0 0.0141665649
C  C105  1  0.63550000  0.95160000  0.52330000  1.0 0.0180655173
C  C106  1  0.36450000  0.45160000  0.97670000  1.0 0.0180655173
C  C107  1  0.36450000  0.04840000  0.47670000  1.0 0.0180655173
C  C108  1  0.63550000  0.54840000  0.02330000  1.0 0.0180655173
C  C109  1  0.63790000  0.96200000  0.47920000  1.0 -0.1758726078
C  C110  1  0.36210000  0.46200000  0.02080000  1.0 -0.1758726078
C  C111  1  0.36210000  0.03800000  0.52080000  1.0 -0.1758726078
C  C112  1  0.63790000  0.53800000  0.97920000  1.0 -0.1758726078
C  C113  1  0.68560000  0.00130000  0.59830000  1.0 0.0593110664
C  C114  1  0.31440000  0.50130000  0.90170000  1.0 0.0593110664
C  C115  1  0.31440000  0.99870000  0.40170000  1.0 0.0593110664
C  C116  1  0.68560000  0.49870000  0.09830000  1.0 0.0593110664
C  C117  1  0.70310000  0.16270000  0.62390000  1.0 -0.1601066363
C  C118  1  0.29690000  0.66270000  0.87610000  1.0 -0.1601066363
C  C119  1  0.29690000  0.83730000  0.37610000  1.0 -0.1601066363
C  C120  1  0.70310000  0.33730000  0.12390000  1.0 -0.1601066363
C  C121  1  0.70550000  0.13830000  0.66810000  1.0 -0.1187760632
C  C122  1  0.29450000  0.63830000  0.83190000  1.0 -0.1187760632
C  C123  1  0.29450000  0.86170000  0.33190000  1.0 -0.1187760632
C  C124  1  0.70550000  0.36170000  0.16810000  1.0 -0.1187760632
C  C125  1  0.69110000  0.95290000  0.68690000  1.0 -0.0229563817
C  C126  1  0.30890000  0.45290000  0.81310000  1.0 -0.0229563817
C  C127  1  0.30890000  0.04710000  0.31310000  1.0 -0.0229563817
C  C128  1  0.69110000  0.54710000  0.18690000  1.0 -0.0229563817
C  C129  1  0.67160000  0.79220000  0.66020000  1.0 -0.1073371085
C  C130  1  0.32840000  0.29220000  0.83980000  1.0 -0.1073371085
C  C131  1  0.32840000  0.20780000  0.33980000  1.0 -0.1073371085
C  C132  1  0.67160000  0.70780000  0.16020000  1.0 -0.1073371085
C  C133  1  0.67050000  0.81440000  0.61650000  1.0 -0.1492803134
C  C134  1  0.32950000  0.31440000  0.88350000  1.0 -0.1492803134
C  C135  1  0.32950000  0.18560000  0.38350000  1.0 -0.1492803134
C  C136  1  0.67050000  0.68560000  0.11650000  1.0 -0.1492803134
C  C137  1  0.69420000  0.92620000  0.73490000  1.0 0.5799010222
C  C138  1  0.30580000  0.42620000  0.76510000  1.0 0.5799010222
C  C139  1  0.30580000  0.07380000  0.26510000  1.0 0.5799010222
C  C140  1  0.69420000  0.57380000  0.23490000  1.0 0.5799010222
C  C141  1  0.58290000  0.87130000  0.54130000  1.0 0.0682987396
C  C142  1  0.41710000  0.37130000  0.95870000  1.0 0.0682987396
C  C143  1  0.41710000  0.12870000  0.45870000  1.0 0.0682987396
C  C144  1  0.58290000  0.62870000  0.04130000  1.0 0.0682987396
C  C145  1  0.55270000  0.99110000  0.56860000  1.0 -0.1383348579
C  C146  1  0.44730000  0.49110000  0.93140000  1.0 -0.1383348579
C  C147  1  0.44730000  0.00890000  0.43140000  1.0 -0.1383348579
C  C148  1  0.55270000  0.50890000  0.06860000  1.0 -0.1383348579
C  C149  1  0.50530000  0.91490000  0.58620000  1.0 -0.1296908955
C  C150  1  0.49470000  0.41490000  0.91380000  1.0 -0.1296908955
C  C151  1  0.49470000  0.08510000  0.41380000  1.0 -0.1296908955
C  C152  1  0.50530000  0.58510000  0.08620000  1.0 -0.1296908955
C  C153  1  0.48750000  0.71310000  0.57720000  1.0 -0.0833024221
C  C154  1  0.51250000  0.21310000  0.92280000  1.0 -0.0833024221
C  C155  1  0.51250000  0.28690000  0.42280000  1.0 -0.0833024221
C  C156  1  0.48750000  0.78690000  0.07720000  1.0 -0.0833024221
C  C157  1  0.51650000  0.59910000  0.54920000  1.0 -0.1073371085
C  C158  1  0.48350000  0.09910000  0.95080000  1.0 -0.1073371085
C  C159  1  0.48350000  0.40090000  0.45080000  1.0 -0.1073371085
C  C160  1  0.51650000  0.90090000  0.04920000  1.0 -0.1073371085
C  C161  1  0.56370000  0.67490000  0.53150000  1.0 -0.1492803134
C  C162  1  0.43630000  0.17490000  0.96850000  1.0 -0.1492803134
C  C163  1  0.43630000  0.32510000  0.46850000  1.0 -0.1492803134
C  C164  1  0.56370000  0.82510000  0.03150000  1.0 -0.1492803134
C  C165  1  0.43780000  0.62740000  0.59670000  1.0 0.470151109
C  C166  1  0.56220000  0.12740000  0.90330000  1.0 0.470151109
C  C167  1  0.56220000  0.37260000  0.40330000  1.0 0.470151109
C  C168  1  0.43780000  0.87260000  0.09670000  1.0 0.470151109
O  O1  1  0.69870000  0.22630000  0.39450000  1.0 -0.1492803134
O  O2  1  0.30130000  0.72630000  0.10550000  1.0 -0.1492803134
O  O3  1  0.30130000  0.77370000  0.60550000  1.0 -0.1492803134
O  O4  1  0.69870000  0.27370000  0.89450000  1.0 -0.1492803134
O  O5  1  0.41690000  0.73030000  0.62640000  1.0 -0.2336150303
O  O6  1  0.58310000  0.23030000  0.87360000  1.0 -0.2336150303
O  O7  1  0.58310000  0.26970000  0.37360000  1.0 -0.2336150303
O  O8  1  0.41690000  0.76970000  0.12640000  1.0 -0.2336150303
O  O9  1  0.66260000  0.41650000  0.79800000  1.0 -0.2336150303
O  O10  1  0.33740000  0.91650000  0.70200000  1.0 -0.2336150303
O  O11  1  0.33740000  0.58350000  0.20200000  1.0 -0.2336150303
O  O12  1  0.66260000  0.08350000  0.29800000  1.0 -0.2336150303
O  O13  1  0.58990000  0.57200000  0.81900000  1.0 -0.2016005305
O  O14  1  0.41010000  0.07200000  0.68100000  1.0 -0.2016005305
O  O15  1  0.41010000  0.42800000  0.18100000  1.0 -0.2016005305
O  O16  1  0.58990000  0.92800000  0.31900000  1.0 -0.2016005305
O  O17  1  0.78590000  0.57600000  0.39940000  1.0 -0.5660157974
O  O18  1  0.21410000  0.07600000  0.10060000  1.0 -0.5660157974
O  O19  1  0.21410000  0.42400000  0.60060000  1.0 -0.5660157974
O  O20  1  0.78590000  0.92400000  0.89940000  1.0 -0.5660157974
O  O21  1  0.72670000  0.59090000  0.45070000  1.0 -0.5298188205
O  O22  1  0.27330000  0.09090000  0.04930000  1.0 -0.5298188205
O  O23  1  0.27330000  0.40910000  0.54930000  1.0 -0.5298188205
O  O24  1  0.72670000  0.90910000  0.95070000  1.0 -0.5298188205
O  O25  1  0.12070000  0.04450000  0.65600000  1.0 -0.5536944742
O  O26  1  0.87930000  0.54450000  0.84400000  1.0 -0.5536944742
O  O27  1  0.87930000  0.95550000  0.34400000  1.0 -0.5536944742
O  O28  1  0.12070000  0.45550000  0.15600000  1.0 -0.5536944742
O  O29  1  0.12010000  0.37240000  0.67900000  1.0 -0.5660157974
O  O30  1  0.87990000  0.87240000  0.82100000  1.0 -0.5660157974
O  O31  1  0.87990000  0.62760000  0.32100000  1.0 -0.5660157974
O  O32  1  0.12010000  0.12760000  0.17900000  1.0 -0.5660157974
O  O33  1  0.81550000  0.47010000  0.74770000  1.0 -0.4870696242
O  O34  1  0.18450000  0.97010000  0.75230000  1.0 -0.4870696242
O  O35  1  0.18450000  0.52990000  0.25230000  1.0 -0.4870696242
O  O36  1  0.81550000  0.02990000  0.24770000  1.0 -0.4870696242
O  O37  1  0.80990000  0.80600000  0.73470000  1.0 -0.6018983956
O  O38  1  0.19010000  0.30600000  0.76530000  1.0 -0.6018983956
O  O39  1  0.19010000  0.19400000  0.26530000  1.0 -0.6018983956
O  O40  1  0.80990000  0.69400000  0.23470000  1.0 -0.6018983956
O  O41  1  0.66600000  0.90790000  0.38990000  1.0 -0.6018983956
O  O42  1  0.33400000  0.40790000  0.11010000  1.0 -0.6018983956
O  O43  1  0.33400000  0.09210000  0.61010000  1.0 -0.6053834434
O  O44  1  0.66600000  0.59210000  0.88990000  1.0 -0.6018983956
O  O45  1  0.72370000  0.05240000  0.75820000  1.0 -0.6018983956
O  O46  1  0.27630000  0.55240000  0.74180000  1.0 -0.6018983956
O  O47  1  0.27630000  0.94760000  0.24180000  1.0 -0.6053834434
O  O48  1  0.72370000  0.44760000  0.25820000  1.0 -0.6018983956
O  O49  1  0.66680000  0.77690000  0.75010000  1.0 -0.5939079995
O  O50  1  0.33320000  0.27690000  0.74990000  1.0 -0.5939079995
O  O51  1  0.33320000  0.22310000  0.24990000  1.0 -0.5939079995
O  O52  1  0.66680000  0.72310000  0.25010000  1.0 -0.5939079995
O  O53  1  0.40850000  0.49260000  0.57570000  1.0 -0.5559283371
O  O54  1  0.59150000  0.99260000  0.92430000  1.0 -0.5559283371
O  O55  1  0.59150000  0.50740000  0.42430000  1.0 -0.5536944742
O  O56  1  0.40850000  0.00740000  0.07570000  1.0 -0.5536944742
O  O57  1  0.66260000  0.54260000  0.34410000  1.0 -0.7530867781
O  O58  1  0.33740000  0.04260000  0.15590000  1.0 -0.7530867781
O  O59  1  0.33740000  0.45740000  0.65590000  1.0 -0.7530867781
O  O60  1  0.66260000  0.95740000  0.84410000  1.0 -0.7530867781
O  O61  1  0.76110000  0.72260000  0.82350000  1.0 -0.8861608083
O  O62  1  0.23890000  0.22260000  0.67650000  1.0 -0.8861608083
O  O63  1  0.23890000  0.27740000  0.17650000  1.0 -0.8861608083
O  O64  1  0.76110000  0.77740000  0.32350000  1.0 -0.8861608083
O  O65  1  0.79170000  0.19560000  0.82820000  1.0 -0.6891790206
O  O66  1  0.20830000  0.69560000  0.67180000  1.0 -0.6891790206
O  O67  1  0.20830000  0.80440000  0.17180000  1.0 -0.6891790206
O  O68  1  0.79170000  0.30440000  0.32820000  1.0 -0.6891790206
O  O69  1  0.72540000  0.17340000  0.40230000  1.0 -0.1601066363
O  O70  1  0.27460000  0.67340000  0.09770000  1.0 -0.1601066363
O  O71  1  0.27460000  0.82660000  0.59770000  1.0 -0.1601066363
O  O72  1  0.72540000  0.32660000  0.90230000  1.0 -0.1601066363
O  O73  1  0.43550000  0.64000000  0.63730000  1.0 -0.2016005305
O  O74  1  0.56450000  0.14000000  0.86270000  1.0 -0.2016005305
O  O75  1  0.56450000  0.36000000  0.36270000  1.0 -0.2016005305
O  O76  1  0.43550000  0.86000000  0.13730000  1.0 -0.2016005305
O  O77  1  0.70760000  0.39200000  0.80430000  1.0 -0.22116351
O  O78  1  0.29240000  0.89200000  0.69570000  1.0 -0.22116351
O  O79  1  0.29240000  0.60800000  0.19570000  1.0 -0.22116351
O  O80  1  0.70760000  0.10800000  0.30430000  1.0 -0.22116351
O  O81  1  0.57270000  0.73300000  0.81100000  1.0 -0.2016005305
O  O82  1  0.42730000  0.23300000  0.68900000  1.0 -0.2016005305
O  O83  1  0.42730000  0.26700000  0.18900000  1.0 -0.2016005305
O  O84  1  0.57270000  0.76700000  0.31100000  1.0 -0.2016005305
