# DDEC6 charges by PACMAN v1.1 (https://github.com/mtap-research/PACMAN-charge/)
data_HOVQUG_FSR_pacman
_symmetry_space_group_name_H-M   'P 1'
_cell_length_a   21.14280000
_cell_length_b   20.88810000
_cell_length_c   12.02620000
_cell_angle_alpha   74.54030000
_cell_angle_beta   72.21420000
_cell_angle_gamma   33.24560000
_symmetry_Int_Tables_number   1
_chemical_formula_structural   Cu5H20C40(NO2)12
_chemical_formula_sum   'Cu10 H40 C80 N24 O48'
_cell_volume   2771.94272174
_cell_formula_units_Z   2
loop_
 _symmetry_equiv_pos_site_id
 _symmetry_equiv_pos_as_xyz
  1  'x, y, z'
loop_
 _atom_site_type_symbol
 _atom_site_label
 _atom_site_symmetry_multiplicity
 _atom_site_fract_x
 _atom_site_fract_y
 _atom_site_fract_z
 _atom_site_occupancy
 _atom_site_charge
Cu  Cu1  1  0.92719000  0.82911000  0.93919000  1.0 0.3378434436
Cu  Cu2  1  0.93919000  0.30451000  0.92719000  1.0 0.3378434436
Cu  Cu3  1  0.82911000  0.92719000  0.30451000  1.0 0.3378434436
Cu  Cu4  1  0.30451000  0.93919000  0.82911000  1.0 0.3378434436
Cu  Cu5  1  0.32281000  0.42089000  0.31081000  1.0 0.3378434436
Cu  Cu6  1  0.31081000  0.94549000  0.32281000  1.0 0.3378434436
Cu  Cu7  1  0.42089000  0.32281000  0.94549000  1.0 0.3378434436
Cu  Cu8  1  0.94549000  0.31081000  0.42089000  1.0 0.3378434436
Cu  Cu9  1  0.00000000  0.00000000  0.00000000  1.0 0.2684186057
Cu  Cu10  1  0.25000000  0.25000000  0.25000000  1.0 0.2684186057
H  H1  1  0.87300000  0.98660000  0.97300000  1.0 0.1023574428
H  H2  1  0.97300000  0.16740000  0.87300000  1.0 0.1023574428
H  H3  1  0.98660000  0.87300000  0.16740000  1.0 0.1023574428
H  H4  1  0.16740000  0.97300000  0.98660000  1.0 0.1023574428
H  H5  1  0.37700000  0.26340000  0.27700000  1.0 0.1023574428
H  H6  1  0.27700000  0.08260000  0.37700000  1.0 0.1023574428
H  H7  1  0.26340000  0.37700000  0.08260000  1.0 0.1023574428
H  H8  1  0.08260000  0.27700000  0.26340000  1.0 0.1023574428
H  H9  1  0.53020000  0.29760000  0.03400000  1.0 0.0915140988
H  H10  1  0.03400000  0.13820000  0.53020000  1.0 0.0915140988
H  H11  1  0.29760000  0.53020000  0.13820000  1.0 0.0915140988
H  H12  1  0.13820000  0.03400000  0.29760000  1.0 0.0915140988
H  H13  1  0.71980000  0.95240000  0.21600000  1.0 0.0915140988
H  H14  1  0.21600000  0.11180000  0.71980000  1.0 0.0915140988
H  H15  1  0.95240000  0.71980000  0.11180000  1.0 0.0915140988
H  H16  1  0.11180000  0.21600000  0.95240000  1.0 0.0915140988
H  H17  1  0.56730000  0.36330000  0.08150000  1.0 0.1326947914
H  H18  1  0.08150000  0.98790000  0.56730000  1.0 0.1326947914
H  H19  1  0.36330000  0.56730000  0.98790000  1.0 0.1326947914
H  H20  1  0.98790000  0.08150000  0.36330000  1.0 0.1326947914
H  H21  1  0.68270000  0.88670000  0.16850000  1.0 0.1326947914
H  H22  1  0.16850000  0.26210000  0.68270000  1.0 0.1326947914
H  H23  1  0.88670000  0.68270000  0.26210000  1.0 0.1326947914
H  H24  1  0.26210000  0.16850000  0.88670000  1.0 0.1326947914
H  H25  1  0.75610000  0.24070000  0.06850000  1.0 0.1203941958
H  H26  1  0.06850000  0.93470000  0.75610000  1.0 0.1203941958
H  H27  1  0.24070000  0.75610000  0.93470000  1.0 0.1203941958
H  H28  1  0.93470000  0.06850000  0.24070000  1.0 0.1203941958
H  H29  1  0.49390000  0.00930000  0.18150000  1.0 0.1203941958
H  H30  1  0.18150000  0.31530000  0.49390000  1.0 0.1203941958
H  H31  1  0.00930000  0.49390000  0.31530000  1.0 0.1203941958
H  H32  1  0.31530000  0.18150000  0.00930000  1.0 0.1203941958
H  H33  1  0.68790000  0.91590000  0.77610000  1.0 0.2762804137
H  H34  1  0.77610000  0.62010000  0.68790000  1.0 0.2762804137
H  H35  1  0.91590000  0.68790000  0.62010000  1.0 0.2762804137
H  H36  1  0.62010000  0.77610000  0.91590000  1.0 0.2762804137
H  H37  1  0.56210000  0.33410000  0.47390000  1.0 0.2762804137
H  H38  1  0.47390000  0.62990000  0.56210000  1.0 0.2762804137
H  H39  1  0.33410000  0.56210000  0.62990000  1.0 0.2762804137
H  H40  1  0.62990000  0.47390000  0.33410000  1.0 0.2762804137
C  C1  1  0.67907000  0.08795000  0.96465000  1.0 0.2990720974
C  C2  1  0.96465000  0.26833000  0.67907000  1.0 0.2990720974
C  C3  1  0.08795000  0.67907000  0.26833000  1.0 0.2990720974
C  C4  1  0.26833000  0.96465000  0.08795000  1.0 0.2990720974
C  C5  1  0.57093000  0.16205000  0.28535000  1.0 0.2990720974
C  C6  1  0.28535000  0.98167000  0.57093000  1.0 0.2990720974
C  C7  1  0.16205000  0.57093000  0.98167000  1.0 0.2990720974
C  C8  1  0.98167000  0.28535000  0.16205000  1.0 0.2990720974
C  C9  1  0.70538000  0.97298000  0.91862000  1.0 -0.0939555391
C  C10  1  0.91862000  0.40302000  0.70538000  1.0 -0.0939555391
C  C11  1  0.97298000  0.70538000  0.40302000  1.0 -0.0939555391
C  C12  1  0.40302000  0.91862000  0.97298000  1.0 -0.0959644641
C  C13  1  0.54462000  0.27702000  0.33138000  1.0 -0.0959644641
C  C14  1  0.33138000  0.84698000  0.54462000  1.0 -0.0939555391
C  C15  1  0.27702000  0.54462000  0.84698000  1.0 -0.0939555391
C  C16  1  0.84698000  0.33138000  0.27702000  1.0 -0.0959644641
C  C17  1  0.58889000  0.08509000  0.92291000  1.0 0.0174112458
C  C18  1  0.92291000  0.40311000  0.58889000  1.0 0.0174112458
C  C19  1  0.08509000  0.58889000  0.40311000  1.0 0.0174112458
C  C20  1  0.40311000  0.92291000  0.08509000  1.0 0.0174112458
C  C21  1  0.66111000  0.16491000  0.32709000  1.0 0.0174112458
C  C22  1  0.32709000  0.84689000  0.66111000  1.0 0.0174112458
C  C23  1  0.16491000  0.66111000  0.84689000  1.0 0.0174112458
C  C24  1  0.84689000  0.32709000  0.16491000  1.0 0.0174112458
C  C25  1  0.81002000  0.06402000  0.99418000  1.0 0.0174112458
C  C26  1  0.99418000  0.13178000  0.81002000  1.0 0.0174112458
C  C27  1  0.06402000  0.81002000  0.13178000  1.0 0.0174112458
C  C28  1  0.13178000  0.99418000  0.06402000  1.0 0.0174112458
C  C29  1  0.43998000  0.18598000  0.25582000  1.0 0.0174112458
C  C30  1  0.25582000  0.11822000  0.43998000  1.0 0.0174112458
C  C31  1  0.18598000  0.43998000  0.11822000  1.0 0.0174112458
C  C32  1  0.11822000  0.25582000  0.18598000  1.0 0.0174112458
C  C33  1  0.69908000  0.13308000  0.99572000  1.0 0.0043481093
C  C34  1  0.99572000  0.17212000  0.69908000  1.0 0.0043481093
C  C35  1  0.13308000  0.69908000  0.17212000  1.0 0.0043481093
C  C36  1  0.17212000  0.99572000  0.13308000  1.0 0.0043481093
C  C37  1  0.55092000  0.11692000  0.25428000  1.0 0.005446704
C  C38  1  0.25428000  0.07788000  0.55092000  1.0 0.005446704
C  C39  1  0.11692000  0.55092000  0.07788000  1.0 0.0043481093
C  C40  1  0.07788000  0.25428000  0.11692000  1.0 0.0043481093
C  C41  1  0.60675000  0.24755000  0.03005000  1.0 -0.0939555391
C  C42  1  0.03005000  0.11565000  0.60675000  1.0 -0.0939555391
C  C43  1  0.24755000  0.60675000  0.11565000  1.0 -0.0939555391
C  C44  1  0.11565000  0.03005000  0.24755000  1.0 -0.0939555391
C  C45  1  0.64325000  0.00245000  0.21995000  1.0 -0.0939555391
C  C46  1  0.21995000  0.13435000  0.64325000  1.0 -0.0959644641
C  C47  1  0.00245000  0.64325000  0.13435000  1.0 -0.0939555391
C  C48  1  0.13435000  0.21995000  0.00245000  1.0 -0.0939555391
C  C49  1  0.62885000  0.28685000  0.05815000  1.0 -0.1258523173
C  C50  1  0.05815000  0.02615000  0.62885000  1.0 -0.1258523173
C  C51  1  0.28685000  0.62885000  0.02615000  1.0 -0.1258523173
C  C52  1  0.02615000  0.05815000  0.28685000  1.0 -0.1258523173
C  C53  1  0.62115000  0.96315000  0.19185000  1.0 -0.1258523173
C  C54  1  0.19185000  0.22385000  0.62115000  1.0 -0.1258523173
C  C55  1  0.96315000  0.62115000  0.22385000  1.0 -0.1258523173
C  C56  1  0.22385000  0.19185000  0.96315000  1.0 -0.1258523173
C  C57  1  0.74231000  0.21251000  0.05149000  1.0 0.0797872053
C  C58  1  0.05149000  0.99369000  0.74231000  1.0 0.0797872053
C  C59  1  0.21251000  0.74231000  0.99369000  1.0 0.0797872053
C  C60  1  0.99369000  0.05149000  0.21251000  1.0 0.0797872053
C  C61  1  0.50769000  0.03749000  0.19851000  1.0 0.0797872053
C  C62  1  0.19851000  0.25631000  0.50769000  1.0 0.0797872053
C  C63  1  0.03749000  0.50769000  0.25631000  1.0 0.0797872053
C  C64  1  0.25631000  0.19851000  0.03749000  1.0 0.0797872053
C  C65  1  0.76982000  0.86142000  0.89438000  1.0 0.3967096241
C  C66  1  0.89438000  0.47438000  0.76982000  1.0 0.3967096241
C  C67  1  0.86142000  0.76982000  0.47438000  1.0 0.3967096241
C  C68  1  0.47438000  0.89438000  0.86142000  1.0 0.3967096241
C  C69  1  0.48018000  0.38858000  0.35562000  1.0 0.3967096241
C  C70  1  0.35562000  0.77562000  0.48018000  1.0 0.3967096241
C  C71  1  0.38858000  0.48018000  0.77562000  1.0 0.3967096241
C  C72  1  0.77562000  0.35562000  0.38858000  1.0 0.3967096241
C  C73  1  0.48828000  0.13488000  0.89912000  1.0 0.544270096
C  C74  1  0.89912000  0.47772000  0.48828000  1.0 0.544270096
C  C75  1  0.13488000  0.48828000  0.47772000  1.0 0.5452736424
C  C76  1  0.47772000  0.89912000  0.13488000  1.0 0.544270096
C  C77  1  0.76172000  0.11512000  0.35088000  1.0 0.544270096
C  C78  1  0.35088000  0.77228000  0.76172000  1.0 0.544270096
C  C79  1  0.11512000  0.76172000  0.77228000  1.0 0.544270096
C  C80  1  0.77228000  0.35088000  0.11512000  1.0 0.544270096
N  N1  1  0.76174000  0.97518000  0.94482000  1.0 -0.3245232297
N  N2  1  0.94482000  0.31826000  0.76174000  1.0 -0.3252602114
N  N3  1  0.97518000  0.76174000  0.31826000  1.0 -0.3245232297
N  N4  1  0.31826000  0.94482000  0.97518000  1.0 -0.3252602114
N  N5  1  0.48826000  0.27482000  0.30518000  1.0 -0.3245232297
N  N6  1  0.30518000  0.93174000  0.48826000  1.0 -0.3245232297
N  N7  1  0.27482000  0.48826000  0.93174000  1.0 -0.3252602114
N  N8  1  0.93174000  0.30518000  0.27482000  1.0 -0.3245232297
N  N9  1  0.57177000  0.15813000  0.95177000  1.0 -0.3439986749
N  N10  1  0.95177000  0.31833000  0.57177000  1.0 -0.3439986749
N  N11  1  0.15813000  0.57177000  0.31833000  1.0 -0.3439986749
N  N12  1  0.31833000  0.95177000  0.15813000  1.0 -0.3439986749
N  N13  1  0.67823000  0.09187000  0.29823000  1.0 -0.3439986749
N  N14  1  0.29823000  0.93167000  0.67823000  1.0 -0.3439986749
N  N15  1  0.09187000  0.67823000  0.93167000  1.0 -0.3439986749
N  N16  1  0.93167000  0.29823000  0.09187000  1.0 -0.3439986749
N  N17  1  0.83326000  0.10106000  0.02134000  1.0 -0.1914110674
N  N18  1  0.02134000  0.04434000  0.83326000  1.0 -0.1914110674
N  N19  1  0.10106000  0.83326000  0.04434000  1.0 -0.1914110674
N  N20  1  0.04434000  0.02134000  0.10106000  1.0 -0.1914110674
N  N21  1  0.41674000  0.14894000  0.22866000  1.0 -0.1914110674
N  N22  1  0.22866000  0.20566000  0.41674000  1.0 -0.1914110674
N  N23  1  0.14894000  0.41674000  0.20566000  1.0 -0.1914110674
N  N24  1  0.20566000  0.22866000  0.14894000  1.0 -0.1914110674
O  O1  1  0.88190000  0.76850000  0.87270000  1.0 -0.0780125145
O  O2  1  0.87270000  0.47690000  0.88190000  1.0 -0.0780125145
O  O3  1  0.76850000  0.88190000  0.47690000  1.0 -0.0780125145
O  O4  1  0.47690000  0.87270000  0.76850000  1.0 -0.0780125145
O  O5  1  0.36810000  0.48150000  0.37730000  1.0 -0.0780125145
O  O6  1  0.37730000  0.77310000  0.36810000  1.0 -0.0780125145
O  O7  1  0.48150000  0.36810000  0.77310000  1.0 -0.0780125145
O  O8  1  0.77310000  0.37730000  0.48150000  1.0 -0.0780125145
O  O9  1  0.39231000  0.24051000  0.90289000  1.0 -0.5061928598
O  O10  1  0.90289000  0.46429000  0.39231000  1.0 -0.5061928598
O  O11  1  0.24051000  0.39231000  0.46429000  1.0 -0.5061928598
O  O12  1  0.46429000  0.90289000  0.24051000  1.0 -0.5061928598
O  O13  1  0.85769000  0.00949000  0.34711000  1.0 -0.5061928598
O  O14  1  0.34711000  0.78571000  0.85769000  1.0 -0.5061928598
O  O15  1  0.00949000  0.85769000  0.78571000  1.0 -0.5061928598
O  O16  1  0.78571000  0.34711000  0.00949000  1.0 -0.5061928598
O  O17  1  0.50637000  0.06377000  0.87383000  1.0 -0.5704270495
O  O18  1  0.87383000  0.55603000  0.50637000  1.0 -0.5704270495
O  O19  1  0.06377000  0.50637000  0.55603000  1.0 -0.5704270495
O  O20  1  0.55603000  0.87383000  0.06377000  1.0 -0.5704270495
O  O21  1  0.74363000  0.18623000  0.37617000  1.0 -0.5704270495
O  O22  1  0.37617000  0.69397000  0.74363000  1.0 -0.5704270495
O  O23  1  0.18623000  0.74363000  0.69397000  1.0 -0.5704270495
O  O24  1  0.69397000  0.37617000  0.18623000  1.0 -0.5704270495
O  O25  1  0.71100000  0.87280000  0.84520000  1.0 -0.0421048824
O  O26  1  0.84520000  0.57100000  0.71100000  1.0 -0.0421048824
O  O27  1  0.87280000  0.71100000  0.57100000  1.0 -0.0421048824
O  O28  1  0.57100000  0.84520000  0.87280000  1.0 -0.0421048824
O  O29  1  0.53900000  0.37720000  0.40480000  1.0 -0.0421048824
O  O30  1  0.40480000  0.67900000  0.53900000  1.0 -0.0421048824
O  O31  1  0.37720000  0.53900000  0.67900000  1.0 -0.0421048824
O  O32  1  0.67900000  0.40480000  0.37720000  1.0 -0.0421048824
O  O33  1  0.86750000  0.77290000  0.92190000  1.0 -0.0465241217
O  O34  1  0.92190000  0.43770000  0.86750000  1.0 -0.0421048824
O  O35  1  0.77290000  0.86750000  0.43770000  1.0 -0.0465241217
O  O36  1  0.43770000  0.92190000  0.77290000  1.0 -0.0421048824
O  O37  1  0.38250000  0.47710000  0.32810000  1.0 -0.0421048824
O  O38  1  0.32810000  0.81230000  0.38250000  1.0 -0.0465241217
O  O39  1  0.47710000  0.38250000  0.81230000  1.0 -0.0421048824
O  O40  1  0.81230000  0.32810000  0.47710000  1.0 -0.0421048824
O  O41  1  0.71350000  0.85710000  0.89210000  1.0 -0.0721221517
O  O42  1  0.89210000  0.53730000  0.71350000  1.0 -0.0721221517
O  O43  1  0.85710000  0.71350000  0.53730000  1.0 -0.0721221517
O  O44  1  0.53730000  0.89210000  0.85710000  1.0 -0.0721221517
O  O45  1  0.53650000  0.39290000  0.35790000  1.0 -0.0721221517
O  O46  1  0.35790000  0.71270000  0.53650000  1.0 -0.0721221517
O  O47  1  0.39290000  0.53650000  0.71270000  1.0 -0.0721221517
O  O48  1  0.71270000  0.35790000  0.39290000  1.0 -0.0721221517
