# DDEC6 charges by PACMAN v1.1 (https://github.com/mtap-research/PACMAN-charge/)
data_HOWRUI_FSR_pacman
_symmetry_space_group_name_H-M   'P 1'
_cell_length_a   12.20940000
_cell_length_b   12.20940000
_cell_length_c   19.50740000
_cell_angle_alpha   87.54040000
_cell_angle_beta   92.45960000
_cell_angle_gamma   126.05800000
_symmetry_Int_Tables_number   1
_chemical_formula_structural   Cu3H28C32(NO9)2
_chemical_formula_sum   'Cu6 H56 C64 N4 O36'
_cell_volume   2348.12849022
_cell_formula_units_Z   2
loop_
 _symmetry_equiv_pos_site_id
 _symmetry_equiv_pos_as_xyz
  1  'x, y, z'
loop_
 _atom_site_type_symbol
 _atom_site_label
 _atom_site_symmetry_multiplicity
 _atom_site_fract_x
 _atom_site_fract_y
 _atom_site_fract_z
 _atom_site_occupancy
 _atom_site_charge
Cu  Cu1  1  0.49241000  0.45415000  0.43765000  1.0 0.7873308844
Cu  Cu2  1  0.45415000  0.49241000  0.56235000  1.0 0.7873308844
Cu  Cu3  1  0.90319000  0.29903000  0.19484000  1.0 0.8596782274
Cu  Cu4  1  0.29903000  0.90319000  0.80516000  1.0 0.8596782274
Cu  Cu5  1  0.81302000  0.05674000  0.14970000  1.0 0.9006695635
Cu  Cu6  1  0.05674000  0.81302000  0.85030000  1.0 0.9006695635
H  H1  1  0.50710000  0.22910000  0.16830000  1.0 0.1200777128
H  H2  1  0.22910000  0.50710000  0.83170000  1.0 0.1200777128
H  H3  1  0.66490000  0.85430000  0.34750000  1.0 0.139374215
H  H4  1  0.85430000  0.66490000  0.65250000  1.0 0.139374215
H  H5  1  0.48950000  0.86110000  0.51680000  1.0 0.1291556246
H  H6  1  0.86110000  0.48950000  0.48320000  1.0 0.1291556246
H  H7  1  0.50150000  0.03050000  0.00720000  1.0 0.1534717044
H  H8  1  0.03050000  0.50150000  0.99280000  1.0 0.1534717044
H  H9  1  0.25870000  0.30710000  0.26260000  1.0 0.1200777128
H  H10  1  0.30710000  0.25870000  0.73740000  1.0 0.1200777128
H  H11  1  0.66100000  0.17380000  0.38150000  1.0 0.1291556246
H  H12  1  0.17380000  0.66100000  0.61850000  1.0 0.1291556246
H  H13  1  0.20980000  0.08580000  0.02560000  1.0 0.1534717044
H  H14  1  0.08580000  0.20980000  0.97440000  1.0 0.1534717044
H  H15  1  0.38530000  0.09750000  0.60090000  1.0 0.1291556246
H  H16  1  0.09750000  0.38530000  0.39910000  1.0 0.1291556246
H  H17  1  0.06630000  0.10170000  0.33410000  1.0 0.1200777128
H  H18  1  0.10170000  0.06630000  0.66590000  1.0 0.1200777128
H  H19  1  0.21990000  0.16250000  0.34980000  1.0 0.1200777128
H  H20  1  0.16250000  0.21990000  0.65020000  1.0 0.1200777128
H  H21  1  0.30820000  0.94840000  0.41710000  1.0 0.1111233717
H  H22  1  0.94840000  0.30820000  0.58290000  1.0 0.1111233717
H  H23  1  0.26690000  0.84370000  0.47870000  1.0 0.1111233717
H  H24  1  0.84370000  0.26690000  0.52130000  1.0 0.1111233717
H  H25  1  0.15550000  0.04170000  0.55480000  1.0 0.1200777128
H  H26  1  0.04170000  0.15550000  0.44520000  1.0 0.1200777128
H  H27  1  0.16500000  0.92600000  0.58590000  1.0 0.1200777128
H  H28  1  0.92600000  0.16500000  0.41410000  1.0 0.1200777128
H  H29  1  0.03360000  0.93240000  0.26950000  1.0 0.1200777128
H  H30  1  0.93240000  0.03360000  0.73050000  1.0 0.1200777128
H  H31  1  0.13470000  0.94330000  0.32680000  1.0 0.1111233717
H  H32  1  0.94330000  0.13470000  0.67320000  1.0 0.1111233717
H  H33  1  0.20090000  0.97450000  0.20200000  1.0 0.1111233717
H  H34  1  0.97450000  0.20090000  0.79800000  1.0 0.1111233717
H  H35  1  0.31510000  0.06550000  0.25750000  1.0 0.102949975
H  H36  1  0.06550000  0.31510000  0.74250000  1.0 0.102949975
H  H37  1  0.08410000  0.84530000  0.48000000  1.0 0.1111233717
H  H38  1  0.84530000  0.08410000  0.52000000  1.0 0.1111233717
H  H39  1  0.16150000  0.99150000  0.44620000  1.0 0.1111233717
H  H40  1  0.99150000  0.16150000  0.55380000  1.0 0.1111233717
H  H41  1  0.52700000  0.46340000  0.23620000  1.0 0.102949975
H  H42  1  0.46340000  0.52700000  0.76380000  1.0 0.102949975
H  H43  1  0.51860000  0.55740000  0.28490000  1.0 0.1200777128
H  H44  1  0.55740000  0.51860000  0.71510000  1.0 0.1200777128
H  H45  1  0.57140000  0.31140000  0.28960000  1.0 0.1200777128
H  H46  1  0.31140000  0.57140000  0.71040000  1.0 0.1200777128
H  H47  1  0.59420000  0.31720000  0.36890000  1.0 0.1200777128
H  H48  1  0.31720000  0.59420000  0.63110000  1.0 0.1200777128
H  H49  1  0.78720000  0.50080000  0.36250000  1.0 0.1111233717
H  H50  1  0.50080000  0.78720000  0.63750000  1.0 0.1111233717
H  H51  1  0.77640000  0.40340000  0.30840000  1.0 0.1291556246
H  H52  1  0.40340000  0.77640000  0.69160000  1.0 0.1291556246
H  H53  1  0.75000000  0.67540000  0.31430000  1.0 0.1111233717
H  H54  1  0.67540000  0.75000000  0.68570000  1.0 0.1111233717
H  H55  1  0.73590000  0.67870000  0.23390000  1.0 0.1200777128
H  H56  1  0.67870000  0.73590000  0.76610000  1.0 0.1200777128
C  C1  1  0.74490000  0.08750000  0.28780000  1.0 0.5601888783
C  C2  1  0.08750000  0.74490000  0.71220000  1.0 0.5601888783
C  C3  1  0.28290000  0.97710000  0.93910000  1.0 0.5808874852
C  C4  1  0.97710000  0.28290000  0.06090000  1.0 0.5808874852
C  C5  1  0.39680000  0.23740000  0.53160000  1.0 0.5700048095
C  C6  1  0.23740000  0.39680000  0.46840000  1.0 0.5700048095
C  C7  1  0.46590000  0.18210000  0.12800000  1.0 -0.1512558176
C  C8  1  0.18210000  0.46590000  0.87200000  1.0 -0.1512558176
C  C9  1  0.54740000  0.70620000  0.46130000  1.0 0.5700048095
C  C10  1  0.70620000  0.54740000  0.53870000  1.0 0.5700048095
C  C11  1  0.34760000  0.04980000  0.00560000  1.0 0.0169643908
C  C12  1  0.04980000  0.34760000  0.99440000  1.0 0.0169643908
C  C13  1  0.34710000  0.16230000  0.10370000  1.0 -0.0095885021
C  C14  1  0.16230000  0.34710000  0.89630000  1.0 -0.0095885021
C  C15  1  0.64910000  0.14950000  0.12170000  1.0 0.5808874852
C  C16  1  0.14950000  0.64910000  0.87830000  1.0 0.5808874852
C  C17  1  0.28530000  0.21510000  0.14350000  1.0 0.4215977526
C  C18  1  0.21510000  0.28530000  0.85650000  1.0 0.4215977526
C  C19  1  0.56610000  0.02670000  0.45550000  1.0 -0.0186705907
C  C20  1  0.02670000  0.56610000  0.54450000  1.0 -0.0186705907
C  C21  1  0.52490000  0.13130000  0.09210000  1.0 -0.0095885021
C  C22  1  0.13130000  0.52490000  0.90790000  1.0 -0.0095885021
C  C23  1  0.64210000  0.89830000  0.37480000  1.0 -0.1088560461
C  C24  1  0.89830000  0.64210000  0.62520000  1.0 -0.1088560461
C  C25  1  0.06270000  0.19670000  0.21880000  1.0 0.5808874852
C  C26  1  0.19670000  0.06270000  0.78120000  1.0 0.5700048095
C  C27  1  0.67210000  0.02310000  0.35430000  1.0 -0.0037894555
C  C28  1  0.02310000  0.67210000  0.64570000  1.0 -0.0037894555
C  C29  1  0.53630000  0.90250000  0.47650000  1.0 -0.1279242747
C  C30  1  0.90250000  0.53630000  0.52350000  1.0 -0.1279242747
C  C31  1  0.46430000  0.06510000  0.03120000  1.0 -0.0981294067
C  C32  1  0.06510000  0.46430000  0.96880000  1.0 -0.0981294067
C  C33  1  0.18890000  0.21250000  0.25090000  1.0 -0.0095885021
C  C34  1  0.21250000  0.18890000  0.74910000  1.0 -0.0095885021
C  C35  1  0.52960000  0.09660000  0.49990000  1.0 0.4108961112
C  C36  1  0.09660000  0.52960000  0.50010000  1.0 0.4108961112
C  C37  1  0.63720000  0.08840000  0.39470000  1.0 -0.1394925566
C  C38  1  0.08840000  0.63720000  0.60530000  1.0 -0.1394925566
C  C39  1  0.57650000  0.83890000  0.43720000  1.0 0.0071858763
C  C40  1  0.83890000  0.57650000  0.56280000  1.0 0.0071858763
C  C41  1  0.28850000  0.09750000  0.04240000  1.0 -0.0981294067
C  C42  1  0.09750000  0.28850000  0.95760000  1.0 -0.0981294067
C  C43  1  0.35230000  0.09590000  0.55400000  1.0 -0.0186705907
C  C44  1  0.09590000  0.35230000  0.44600000  1.0 -0.0186705907
C  C45  1  0.14810000  0.12070000  0.31500000  1.0 -0.1878982933
C  C46  1  0.12070000  0.14810000  0.68500000  1.0 -0.1878982933
C  C47  1  0.28670000  0.93090000  0.46540000  1.0 -0.0906832312
C  C48  1  0.93090000  0.28670000  0.53460000  1.0 -0.0906832312
C  C49  1  0.19760000  0.99560000  0.55010000  1.0 -0.1878982933
C  C50  1  0.99560000  0.19760000  0.44990000  1.0 -0.1878982933
C  C51  1  0.12380000  0.99180000  0.28960000  1.0 -0.1512558176
C  C52  1  0.99180000  0.12380000  0.71040000  1.0 -0.1512558176
C  C53  1  0.23030000  0.04170000  0.23670000  1.0 -0.0906832312
C  C54  1  0.04170000  0.23030000  0.76330000  1.0 -0.0906832312
C  C55  1  0.16850000  0.93570000  0.48030000  1.0 -0.1512558176
C  C56  1  0.93570000  0.16850000  0.51970000  1.0 -0.1512558176
C  C57  1  0.56230000  0.51310000  0.27860000  1.0 -0.0507556667
C  C58  1  0.51310000  0.56230000  0.72140000  1.0 -0.0507556667
C  C59  1  0.60960000  0.37220000  0.32800000  1.0 -0.1088560461
C  C60  1  0.37220000  0.60960000  0.67200000  1.0 -0.1088560461
C  C61  1  0.74370000  0.45610000  0.31960000  1.0 -0.0678692647
C  C62  1  0.45610000  0.74370000  0.68040000  1.0 -0.0678692647
C  C63  1  0.71590000  0.61990000  0.27380000  1.0 -0.0592108743
C  C64  1  0.61990000  0.71590000  0.72620000  1.0 -0.0592108743
N  N1  1  0.24378000  0.16322000  0.20720000  1.0 -0.1201318392
N  N2  1  0.16322000  0.24378000  0.79280000  1.0 -0.1201318392
N  N3  1  0.39770000  0.03890000  0.50750000  1.0 -0.1088560461
N  N4  1  0.03890000  0.39770000  0.49250000  1.0 -0.1088560461
O  O1  1  0.72759000  0.25241000  0.15716000  1.0 -0.5180263888
O  O2  1  0.25241000  0.72759000  0.84284000  1.0 -0.5180263888
O  O3  1  0.50872000  0.66808000  0.52159000  1.0 -0.5100804339
O  O4  1  0.66808000  0.50872000  0.47841000  1.0 -0.5100804339
O  O5  1  0.56208000  0.64272000  0.41810000  1.0 -0.4984188789
O  O6  1  0.64272000  0.56208000  0.58190000  1.0 -0.4984188789
O  O7  1  0.05532000  0.29348000  0.22733000  1.0 -0.5100804339
O  O8  1  0.29348000  0.05532000  0.77267000  1.0 -0.5100804339
O  O9  1  0.40575000  0.30865000  0.57837000  1.0 -0.4984188789
O  O10  1  0.30865000  0.40575000  0.42163000  1.0 -0.4984188789
O  O11  1  0.81285000  0.21455000  0.28185000  1.0 -0.5180263888
O  O12  1  0.21455000  0.81285000  0.71815000  1.0 -0.5100804339
O  O13  1  0.97651000  0.08609000  0.19065000  1.0 -0.4984188789
O  O14  1  0.08609000  0.97651000  0.80935000  1.0 -0.4984188789
O  O15  1  0.15700000  0.92020000  0.93213000  1.0 -0.5180263888
O  O16  1  0.92020000  0.15700000  0.06787000  1.0 -0.5180263888
O  O17  1  0.41649000  0.26911000  0.46864000  1.0 -0.5100804339
O  O18  1  0.26911000  0.41649000  0.53136000  1.0 -0.5100804339
O  O19  1  0.72990000  0.00810000  0.24283000  1.0 -0.5180263888
O  O20  1  0.00810000  0.72990000  0.75717000  1.0 -0.5180263888
O  O21  1  0.66520000  0.06080000  0.10940000  1.0 -0.4781176263
O  O22  1  0.06080000  0.66520000  0.89060000  1.0 -0.4781176263
O  O23  1  0.35708000  0.97912000  0.89700000  1.0 -0.4922548049
O  O24  1  0.97912000  0.35708000  0.10300000  1.0 -0.4922548049
O  O25  1  0.53354000  0.42326000  0.33382000  1.0 -0.2193404549
O  O26  1  0.42326000  0.53354000  0.66618000  1.0 -0.2193404549
O  O27  1  0.98504000  0.50756000  0.22010000  1.0 -0.3462544197
O  O28  1  0.50756000  0.98504000  0.77990000  1.0 -0.3408914321
O  O29  1  0.27287000  0.30073000  0.11920000  1.0 -0.4151870721
O  O30  1  0.30073000  0.27287000  0.88080000  1.0 -0.4115334266
O  O31  1  0.61634000  0.20006000  0.53040000  1.0 -0.4600836748
O  O32  1  0.20006000  0.61634000  0.46960000  1.0 -0.4600836748
O  O33  1  0.70560000  0.84880000  0.12500000  1.0 -0.4115334266
O  O34  1  0.84880000  0.70560000  0.87500000  1.0 -0.4115334266
O  O35  1  0.78070000  0.55350000  0.26850000  1.0 -0.1394925566
O  O36  1  0.55350000  0.78070000  0.73150000  1.0 -0.1394925566
