# DDEC6 charges by PACMAN v1.1 (https://github.com/mtap-research/PACMAN-charge/)
data_HOWSAP_FSR_pacman
_symmetry_space_group_name_H-M   'P 1'
_cell_length_a   12.16760000
_cell_length_b   12.16760000
_cell_length_c   19.44050000
_cell_angle_alpha   88.13130000
_cell_angle_beta   91.86870000
_cell_angle_gamma   127.01700000
_symmetry_Int_Tables_number   1
_chemical_formula_structural   Cu3H28C32(NO9)2
_chemical_formula_sum   'Cu6 H56 C64 N4 O36'
_cell_volume   2296.57329546
_cell_formula_units_Z   2
loop_
 _symmetry_equiv_pos_site_id
 _symmetry_equiv_pos_as_xyz
  1  'x, y, z'
loop_
 _atom_site_type_symbol
 _atom_site_label
 _atom_site_symmetry_multiplicity
 _atom_site_fract_x
 _atom_site_fract_y
 _atom_site_fract_z
 _atom_site_occupancy
 _atom_site_charge
Cu  Cu1  1  0.55300000  0.15652000  0.80397000  1.0 0.8830355854
Cu  Cu2  1  0.15652000  0.55300000  0.19603000  1.0 0.8830355854
Cu  Cu3  1  0.97202000  0.01084000  0.56228000  1.0 0.7921901794
Cu  Cu4  1  0.01084000  0.97202000  0.43772000  1.0 0.7921901794
Cu  Cu5  1  0.64709000  0.40212000  0.84978000  1.0 0.9076341243
Cu  Cu6  1  0.40212000  0.64709000  0.15022000  1.0 0.9076341243
H  H1  1  0.95140000  0.22840000  0.82860000  1.0 0.1205152192
H  H2  1  0.22840000  0.95140000  0.17140000  1.0 0.1205152192
H  H3  1  0.79890000  0.60770000  0.65230000  1.0 0.1375513451
H  H4  1  0.60770000  0.79890000  0.34770000  1.0 0.1375513451
H  H5  1  0.80100000  0.28480000  0.61630000  1.0 0.1293630576
H  H6  1  0.28480000  0.80100000  0.38370000  1.0 0.1293630576
H  H7  1  0.19890000  0.14710000  0.73320000  1.0 0.1205152192
H  H8  1  0.14710000  0.19890000  0.26680000  1.0 0.1205152192
H  H9  1  0.95650000  0.42610000  0.99280000  1.0 0.1525805445
H  H10  1  0.42610000  0.95650000  0.00720000  1.0 0.1525805445
H  H11  1  0.24730000  0.36850000  0.97420000  1.0 0.1525805445
H  H12  1  0.36850000  0.24730000  0.02580000  1.0 0.1525805445
H  H13  1  0.09480000  0.37600000  0.39860000  1.0 0.1293630576
H  H14  1  0.37600000  0.09480000  0.60140000  1.0 0.1293630576
H  H15  1  0.98060000  0.60520000  0.48310000  1.0 0.1375513451
H  H16  1  0.60520000  0.98060000  0.51690000  1.0 0.1375513451
H  H17  1  0.24450000  0.29910000  0.64740000  1.0 0.1205152192
H  H18  1  0.29910000  0.24450000  0.35260000  1.0 0.1205152192
H  H19  1  0.39900000  0.35900000  0.66400000  1.0 0.1205152192
H  H20  1  0.35900000  0.39900000  0.33600000  1.0 0.1205152192
H  H21  1  0.14290000  0.38790000  0.73800000  1.0 0.1034566463
H  H22  1  0.38790000  0.14290000  0.26200000  1.0 0.1034566463
H  H23  1  0.25170000  0.47930000  0.79660000  1.0 0.1113122951
H  H24  1  0.47930000  0.25170000  0.20340000  1.0 0.1113122951
H  H25  1  0.21140000  0.63060000  0.52120000  1.0 0.1113122951
H  H26  1  0.63060000  0.21140000  0.47880000  1.0 0.1113122951
H  H27  1  0.15850000  0.52590000  0.58420000  1.0 0.1113122951
H  H28  1  0.52590000  0.15850000  0.41580000  1.0 0.1113122951
H  H29  1  0.73840000  0.77140000  0.76430000  1.0 0.1205152192
H  H30  1  0.77140000  0.73840000  0.23570000  1.0 0.1205152192
H  H31  1  0.72450000  0.77950000  0.68380000  1.0 0.1113122951
H  H32  1  0.77950000  0.72450000  0.31620000  1.0 0.1113122951
H  H33  1  0.30010000  0.46890000  0.56080000  1.0 0.1113122951
H  H34  1  0.46890000  0.30010000  0.43920000  1.0 0.1113122951
H  H35  1  0.39240000  0.62100000  0.53110000  1.0 0.1205152192
H  H36  1  0.62100000  0.39240000  0.46890000  1.0 0.1205152192
H  H37  1  0.31990000  0.55050000  0.42070000  1.0 0.1113122951
H  H38  1  0.55050000  0.31990000  0.57930000  1.0 0.1113122951
H  H39  1  0.32260000  0.42960000  0.45010000  1.0 0.1205152192
H  H40  1  0.42960000  0.32260000  0.54990000  1.0 0.1205152192
H  H41  1  0.33800000  0.52360000  0.67370000  1.0 0.1113122951
H  H42  1  0.52360000  0.33800000  0.32630000  1.0 0.1113122951
H  H43  1  0.43250000  0.52810000  0.73320000  1.0 0.1205152192
H  H44  1  0.52810000  0.43250000  0.26680000  1.0 0.1205152192
H  H45  1  0.95760000  0.91680000  0.71690000  1.0 0.1205152192
H  H46  1  0.91680000  0.95760000  0.28310000  1.0 0.1205152192
H  H47  1  0.93320000  0.00120000  0.76500000  1.0 0.1034566463
H  H48  1  0.00120000  0.93320000  0.23500000  1.0 0.1034566463
H  H49  1  0.87790000  0.14730000  0.71060000  1.0 0.1113122951
H  H50  1  0.14730000  0.87790000  0.28940000  1.0 0.1113122951
H  H51  1  0.86030000  0.14350000  0.63020000  1.0 0.1113122951
H  H52  1  0.14350000  0.86030000  0.36980000  1.0 0.1113122951
H  H53  1  0.66680000  0.91940000  0.63570000  1.0 0.1034566463
H  H54  1  0.91940000  0.66680000  0.36430000  1.0 0.1034566463
H  H55  1  0.64780000  0.00880000  0.68300000  1.0 0.1293630576
H  H56  1  0.00880000  0.64780000  0.31700000  1.0 0.1293630576
C  C1  1  0.71723000  0.37137000  0.71180000  1.0 0.5597492309
C  C2  1  0.37137000  0.71723000  0.28820000  1.0 0.5597492309
C  C3  1  0.99176000  0.27404000  0.86981000  1.0 -0.1522124905
C  C4  1  0.27404000  0.99176000  0.13019000  1.0 -0.1522124905
C  C5  1  0.17635000  0.47825000  0.06100000  1.0 0.5880686493
C  C6  1  0.47825000  0.17635000  0.93900000  1.0 0.5880686493
C  C7  1  0.93301000  0.32319000  0.90686000  1.0 -0.0034826541
C  C8  1  0.32319000  0.93301000  0.09314000  1.0 -0.0034826541
C  C9  1  0.17340000  0.24120000  0.85480000  1.0 0.4095904829
C  C10  1  0.24120000  0.17340000  0.14520000  1.0 0.4095904829
C  C11  1  0.91725000  0.75655000  0.53838000  1.0 0.580741649
C  C12  1  0.75655000  0.91725000  0.46162000  1.0 0.580741649
C  C13  1  0.07252000  0.23048000  0.46846000  1.0 0.5740489216
C  C14  1  0.23048000  0.07252000  0.53154000  1.0 0.5740489216
C  C15  1  0.11151000  0.29389000  0.89513000  1.0 -0.0091452697
C  C16  1  0.29389000  0.11151000  0.10487000  1.0 -0.0091452697
C  C17  1  0.80930000  0.30690000  0.87733000  1.0 0.580741649
C  C18  1  0.30690000  0.80930000  0.12267000  1.0 0.580741649
C  C19  1  0.82213000  0.56367000  0.62475000  1.0 -0.1094915344
C  C20  1  0.56367000  0.82213000  0.37525000  1.0 -0.1094915344
C  C21  1  0.79126000  0.43714000  0.64549000  1.0 -0.0034826541
C  C22  1  0.43714000  0.79126000  0.35451000  1.0 -0.0034826541
C  C23  1  0.82626000  0.37154000  0.60378000  1.0 -0.1389255969
C  C24  1  0.37154000  0.82626000  0.39622000  1.0 -0.1389255969
C  C25  1  0.89933000  0.43587000  0.54329000  1.0 -0.0091452697
C  C26  1  0.43587000  0.89933000  0.45671000  1.0 -0.0091452697
C  C27  1  0.11149000  0.40651000  0.99440000  1.0 0.0078337881
C  C28  1  0.40651000  0.11149000  0.00560000  1.0 0.0078337881
C  C29  1  0.39409000  0.25951000  0.77965000  1.0 0.580741649
C  C30  1  0.25951000  0.39409000  0.22035000  1.0 0.580741649
C  C31  1  0.26946000  0.24294000  0.74623000  1.0 -0.0207791551
C  C32  1  0.24294000  0.26946000  0.25377000  1.0 -0.0207791551
C  C33  1  0.94037000  0.36803000  0.49816000  1.0 0.4095904829
C  C34  1  0.36803000  0.94037000  0.50184000  1.0 0.4095904829
C  C35  1  0.99381000  0.39119000  0.96870000  1.0 -0.0990413724
C  C36  1  0.39119000  0.99381000  0.03130000  1.0 -0.0990413724
C  C37  1  0.16912000  0.35788000  0.95718000  1.0 -0.0906810933
C  C38  1  0.35788000  0.16912000  0.04282000  1.0 -0.0906810933
C  C39  1  0.12303000  0.37517000  0.44632000  1.0 -0.0207791551
C  C40  1  0.37517000  0.12303000  0.55368000  1.0 -0.0207791551
C  C41  1  0.93094000  0.56166000  0.52291000  1.0 -0.1269688754
C  C42  1  0.56166000  0.93094000  0.47709000  1.0 -0.1269688754
C  C43  1  0.31602000  0.33958000  0.68288000  1.0 -0.1820165811
C  C44  1  0.33958000  0.31602000  0.31712000  1.0 -0.1820165811
C  C45  1  0.22689000  0.41331000  0.76118000  1.0 -0.0906810933
C  C46  1  0.41331000  0.22689000  0.23882000  1.0 -0.0906810933
C  C47  1  0.88783000  0.62357000  0.56251000  1.0 0.0023787685
C  C48  1  0.62357000  0.88783000  0.43749000  1.0 0.0023787685
C  C49  1  0.18585000  0.54135000  0.53640000  1.0 -0.0906810933
C  C50  1  0.54135000  0.18585000  0.46360000  1.0 -0.0906810933
C  C51  1  0.75420000  0.83180000  0.72580000  1.0 -0.0614314451
C  C52  1  0.83180000  0.75420000  0.27420000  1.0 -0.0614314451
C  C53  1  0.30397000  0.53143000  0.52700000  1.0 -0.1522124905
C  C54  1  0.53143000  0.30397000  0.47300000  1.0 -0.1522124905
C  C55  1  0.28109000  0.47651000  0.45470000  1.0 -0.1820165811
C  C56  1  0.47651000  0.28109000  0.54530000  1.0 -0.1820165811
C  C57  1  0.34314000  0.47066000  0.71037000  1.0 -0.1522124905
C  C58  1  0.47066000  0.34314000  0.28963000  1.0 -0.1522124905
C  C59  1  0.90410000  0.95110000  0.72230000  1.0 -0.0510460559
C  C60  1  0.95110000  0.90410000  0.27770000  1.0 -0.0510460559
C  C61  1  0.84766000  0.08874000  0.67080000  1.0 -0.0730205549
C  C62  1  0.08874000  0.84766000  0.32920000  1.0 -0.0730205549
C  C63  1  0.69970000  0.97290000  0.67740000  1.0 -0.0614314451
C  C64  1  0.97290000  0.69970000  0.32260000  1.0 -0.0510460559
N  N1  1  0.21144000  0.29076000  0.79034000  1.0 -0.118721783
N  N2  1  0.29076000  0.21144000  0.20966000  1.0 -0.118721783
N  N3  1  0.07456000  0.43004000  0.49227000  1.0 -0.1094915344
N  N4  1  0.43004000  0.07456000  0.50773000  1.0 -0.1094915344
O  O1  1  0.72930000  0.20230000  0.84059000  1.0 -0.5105882397
O  O2  1  0.20230000  0.72930000  0.15941000  1.0 -0.5105882397
O  O3  1  0.89793000  0.81947000  0.58152000  1.0 -0.5105882397
O  O4  1  0.81947000  0.89793000  0.41848000  1.0 -0.5105882397
O  O5  1  0.39876000  0.15864000  0.77201000  1.0 -0.5172785668
O  O6  1  0.15864000  0.39876000  0.22799000  1.0 -0.5172785668
O  O7  1  0.05931000  0.15609000  0.41992000  1.0 -0.5172785668
O  O8  1  0.15609000  0.05931000  0.58008000  1.0 -0.5172785668
O  O9  1  0.30341000  0.53579000  0.06898000  1.0 -0.5105882397
O  O10  1  0.53579000  0.30341000  0.93102000  1.0 -0.5105882397
O  O11  1  0.48388000  0.37212000  0.80769000  1.0 -0.4955623446
O  O12  1  0.37212000  0.48388000  0.19231000  1.0 -0.4955623446
O  O13  1  0.95742000  0.79558000  0.47748000  1.0 -0.5105882397
O  O14  1  0.79558000  0.95742000  0.52252000  1.0 -0.5105882397
O  O15  1  0.05353000  0.19907000  0.53137000  1.0 -0.5105882397
O  O16  1  0.19907000  0.05353000  0.46863000  1.0 -0.5105882397
O  O17  1  0.64495000  0.24185000  0.71640000  1.0 -0.5105882397
O  O18  1  0.24185000  0.64495000  0.28360000  1.0 -0.5105882397
O  O19  1  0.09870000  0.47690000  0.10366000  1.0 -0.5105882397
O  O20  1  0.47690000  0.09870000  0.89634000  1.0 -0.5105882397
O  O21  1  0.73382000  0.45178000  0.75719000  1.0 -0.5105882397
O  O22  1  0.45178000  0.73382000  0.24281000  1.0 -0.5105882397
O  O23  1  0.79398000  0.39702000  0.89110000  1.0 -0.4883412419
O  O24  1  0.39702000  0.79398000  0.10890000  1.0 -0.4883412419
O  O25  1  0.93025000  0.04255000  0.66570000  1.0 -0.2297875135
O  O26  1  0.04255000  0.93025000  0.33430000  1.0 -0.2297875135
O  O27  1  0.75826000  0.61054000  0.87886000  1.0 -0.376992002
O  O28  1  0.61054000  0.75826000  0.12114000  1.0 -0.3742896466
O  O29  1  0.47040000  0.94520000  0.78145000  1.0 -0.3634631036
O  O30  1  0.94520000  0.47040000  0.21855000  1.0 -0.3634631036
O  O31  1  0.18650000  0.15450000  0.87967000  1.0 -0.4415230601
O  O32  1  0.15450000  0.18650000  0.12033000  1.0 -0.4415230601
O  O33  1  0.85311000  0.26109000  0.46747000  1.0 -0.464525461
O  O34  1  0.26109000  0.85311000  0.53253000  1.0 -0.464525461
O  O35  1  0.67760000  0.88700000  0.73460000  1.0 -0.1595035045
O  O36  1  0.88700000  0.67760000  0.26540000  1.0 -0.1595035045
