# DDEC6 charges by PACMAN v1.1 (https://github.com/mtap-research/PACMAN-charge/)
data_HOXGEH_FSR_pacman
_symmetry_space_group_name_H-M   'P 1'
_cell_length_a   18.82300000
_cell_length_b   18.82300000
_cell_length_c   18.82300000
_cell_angle_alpha   117.33000000
_cell_angle_beta   117.33000000
_cell_angle_gamma   117.33000000
_symmetry_Int_Tables_number   1
_chemical_formula_structural   Sn2H18C13O5
_chemical_formula_sum   'Sn12 H108 C78 O30'
_cell_volume   2782.62189710
_cell_formula_units_Z   6
loop_
 _symmetry_equiv_pos_site_id
 _symmetry_equiv_pos_as_xyz
  1  'x, y, z'
loop_
 _atom_site_type_symbol
 _atom_site_label
 _atom_site_symmetry_multiplicity
 _atom_site_fract_x
 _atom_site_fract_y
 _atom_site_fract_z
 _atom_site_occupancy
 _atom_site_charge
Sn  Sn1  1  0.11458000  0.67135000  0.60895000  1.0 1.3843577045
Sn  Sn2  1  0.67135000  0.60895000  0.11458000  1.0 1.3843577045
Sn  Sn3  1  0.60895000  0.11458000  0.67135000  1.0 1.3843577045
Sn  Sn4  1  0.88542000  0.32865000  0.39105000  1.0 1.3843577045
Sn  Sn5  1  0.32865000  0.39105000  0.88542000  1.0 1.3843577045
Sn  Sn6  1  0.39105000  0.88542000  0.32865000  1.0 1.3843577045
Sn  Sn7  1  0.42886000  0.76382000  0.43095000  1.0 1.3542575774
Sn  Sn8  1  0.76382000  0.43095000  0.42886000  1.0 1.3542575774
Sn  Sn9  1  0.43095000  0.42886000  0.76382000  1.0 1.3542575774
Sn  Sn10  1  0.57114000  0.23618000  0.56905000  1.0 1.3542575774
Sn  Sn11  1  0.23618000  0.56905000  0.57114000  1.0 1.3542575774
Sn  Sn12  1  0.56905000  0.57114000  0.23618000  1.0 1.3552275834
H  H1  1  0.60360000  0.91030000  0.82280000  1.0 0.1467660504
H  H2  1  0.91030000  0.82280000  0.60360000  1.0 0.1467660504
H  H3  1  0.82280000  0.60360000  0.91030000  1.0 0.1467660504
H  H4  1  0.39640000  0.08970000  0.17720000  1.0 0.1467660504
H  H5  1  0.08970000  0.17720000  0.39640000  1.0 0.1467660504
H  H6  1  0.17720000  0.39640000  0.08970000  1.0 0.1467660504
H  H7  1  0.74690000  0.03240000  0.89310000  1.0 0.1400356206
H  H8  1  0.03240000  0.89310000  0.74690000  1.0 0.1400356206
H  H9  1  0.89310000  0.74690000  0.03240000  1.0 0.1400356206
H  H10  1  0.25310000  0.96760000  0.10690000  1.0 0.1400356206
H  H11  1  0.96760000  0.10690000  0.25310000  1.0 0.1400356206
H  H12  1  0.10690000  0.25310000  0.96760000  1.0 0.1400356206
H  H13  1  0.88070000  0.26020000  0.04030000  1.0 0.1294874636
H  H14  1  0.26020000  0.04030000  0.88070000  1.0 0.1294874636
H  H15  1  0.04030000  0.88070000  0.26020000  1.0 0.1294874636
H  H16  1  0.11930000  0.73980000  0.95970000  1.0 0.1294874636
H  H17  1  0.73980000  0.95970000  0.11930000  1.0 0.1294874636
H  H18  1  0.95970000  0.11930000  0.73980000  1.0 0.1294874636
H  H19  1  0.93090000  0.43690000  0.16410000  1.0 0.1190470288
H  H20  1  0.43690000  0.16410000  0.93090000  1.0 0.1190470288
H  H21  1  0.16410000  0.93090000  0.43690000  1.0 0.1190470288
H  H22  1  0.06910000  0.56310000  0.83590000  1.0 0.1190470288
H  H23  1  0.56310000  0.83590000  0.06910000  1.0 0.1190470288
H  H24  1  0.83590000  0.06910000  0.56310000  1.0 0.1190470288
H  H25  1  0.75030000  0.36490000  0.10350000  1.0 0.1190470288
H  H26  1  0.36490000  0.10350000  0.75030000  1.0 0.1190470288
H  H27  1  0.10350000  0.75030000  0.36490000  1.0 0.1190470288
H  H28  1  0.24970000  0.63510000  0.89650000  1.0 0.1190470288
H  H29  1  0.63510000  0.89650000  0.24970000  1.0 0.1190470288
H  H30  1  0.89650000  0.24970000  0.63510000  1.0 0.1190470288
H  H31  1  0.52350000  0.11600000  0.92280000  1.0 0.1190470288
H  H32  1  0.11600000  0.92280000  0.52350000  1.0 0.1190470288
H  H33  1  0.92280000  0.52350000  0.11600000  1.0 0.1190470288
H  H34  1  0.47650000  0.88400000  0.07720000  1.0 0.1190470288
H  H35  1  0.88400000  0.07720000  0.47650000  1.0 0.1190470288
H  H36  1  0.07720000  0.47650000  0.88400000  1.0 0.1190470288
H  H37  1  0.13900000  0.54240000  0.19460000  1.0 0.1811448795
H  H38  1  0.54240000  0.19460000  0.13900000  1.0 0.1811448795
H  H39  1  0.19460000  0.13900000  0.54240000  1.0 0.1811448795
H  H40  1  0.86100000  0.45760000  0.80540000  1.0 0.1811448795
H  H41  1  0.45760000  0.80540000  0.86100000  1.0 0.1811448795
H  H42  1  0.80540000  0.86100000  0.45760000  1.0 0.1811448795
H  H43  1  0.17020000  0.49000000  0.23050000  1.0 0.1811448795
H  H44  1  0.49000000  0.23050000  0.17020000  1.0 0.1811448795
H  H45  1  0.23050000  0.17020000  0.49000000  1.0 0.1811448795
H  H46  1  0.82980000  0.51000000  0.76950000  1.0 0.1811448795
H  H47  1  0.51000000  0.76950000  0.82980000  1.0 0.1811448795
H  H48  1  0.76950000  0.82980000  0.51000000  1.0 0.1811448795
H  H49  1  0.19560000  0.59780000  0.32650000  1.0 0.1880899755
H  H50  1  0.59780000  0.32650000  0.19560000  1.0 0.1880899755
H  H51  1  0.32650000  0.19560000  0.59780000  1.0 0.1880899755
H  H52  1  0.80440000  0.40220000  0.67350000  1.0 0.1880899755
H  H53  1  0.40220000  0.67350000  0.80440000  1.0 0.1880899755
H  H54  1  0.67350000  0.80440000  0.40220000  1.0 0.1880899755
H  H55  1  0.69350000  0.92400000  0.64330000  1.0 0.1811448795
H  H56  1  0.92400000  0.64330000  0.69350000  1.0 0.1811448795
H  H57  1  0.64330000  0.69350000  0.92400000  1.0 0.1811448795
H  H58  1  0.30650000  0.07600000  0.35670000  1.0 0.1811448795
H  H59  1  0.07600000  0.35670000  0.30650000  1.0 0.1811448795
H  H60  1  0.35670000  0.30650000  0.07600000  1.0 0.1811448795
H  H61  1  0.58800000  0.77100000  0.48480000  1.0 0.1994591592
H  H62  1  0.77100000  0.48480000  0.58800000  1.0 0.1994591592
H  H63  1  0.48480000  0.58800000  0.77100000  1.0 0.1994591592
H  H64  1  0.41200000  0.22900000  0.51520000  1.0 0.1994591592
H  H65  1  0.22900000  0.51520000  0.41200000  1.0 0.1994591592
H  H66  1  0.51520000  0.41200000  0.22900000  1.0 0.1994591592
H  H67  1  0.66360000  0.90690000  0.53820000  1.0 0.1811448795
H  H68  1  0.90690000  0.53820000  0.66360000  1.0 0.1811448795
H  H69  1  0.53820000  0.66360000  0.90690000  1.0 0.1811448795
H  H70  1  0.33640000  0.09310000  0.46180000  1.0 0.1811448795
H  H71  1  0.09310000  0.46180000  0.33640000  1.0 0.1811448795
H  H72  1  0.46180000  0.33640000  0.09310000  1.0 0.1811448795
H  H73  1  0.94100000  0.58290000  0.39020000  1.0 0.1880899755
H  H74  1  0.58290000  0.39020000  0.94100000  1.0 0.1880899755
H  H75  1  0.39020000  0.94100000  0.58290000  1.0 0.1880899755
H  H76  1  0.05900000  0.41710000  0.60980000  1.0 0.1880899755
H  H77  1  0.41710000  0.60980000  0.05900000  1.0 0.1880899755
H  H78  1  0.60980000  0.05900000  0.41710000  1.0 0.1880899755
H  H79  1  0.05350000  0.61600000  0.42040000  1.0 0.1811448795
H  H80  1  0.61600000  0.42040000  0.05350000  1.0 0.1811448795
H  H81  1  0.42040000  0.05350000  0.61600000  1.0 0.1811448795
H  H82  1  0.94650000  0.38400000  0.57960000  1.0 0.1811448795
H  H83  1  0.38400000  0.57960000  0.94650000  1.0 0.1811448795
H  H84  1  0.57960000  0.94650000  0.38400000  1.0 0.1811448795
H  H85  1  0.11130000  0.75310000  0.52910000  1.0 0.1738311339
H  H86  1  0.75310000  0.52910000  0.11130000  1.0 0.1738311339
H  H87  1  0.52910000  0.11130000  0.75310000  1.0 0.1738311339
H  H88  1  0.88870000  0.24690000  0.47090000  1.0 0.1738311339
H  H89  1  0.24690000  0.47090000  0.88870000  1.0 0.1738311339
H  H90  1  0.47090000  0.88870000  0.24690000  1.0 0.1738311339
H  H91  1  0.31830000  0.88510000  0.89330000  1.0 0.1880899755
H  H92  1  0.88510000  0.89330000  0.31830000  1.0 0.1880899755
H  H93  1  0.89330000  0.31830000  0.88510000  1.0 0.1880899755
H  H94  1  0.68170000  0.11490000  0.10670000  1.0 0.1880899755
H  H95  1  0.11490000  0.10670000  0.68170000  1.0 0.1880899755
H  H96  1  0.10670000  0.68170000  0.11490000  1.0 0.1880899755
H  H97  1  0.16470000  0.73630000  0.79640000  1.0 0.1811448795
H  H98  1  0.73630000  0.79640000  0.16470000  1.0 0.1811448795
H  H99  1  0.79640000  0.16470000  0.73630000  1.0 0.1811448795
H  H100  1  0.83530000  0.26370000  0.20360000  1.0 0.1811448795
H  H101  1  0.26370000  0.20360000  0.83530000  1.0 0.1811448795
H  H102  1  0.20360000  0.83530000  0.26370000  1.0 0.1811448795
H  H103  1  0.18600000  0.83830000  0.81350000  1.0 0.1811448795
H  H104  1  0.83830000  0.81350000  0.18600000  1.0 0.1811448795
H  H105  1  0.81350000  0.18600000  0.83830000  1.0 0.1811448795
H  H106  1  0.81400000  0.16170000  0.18650000  1.0 0.1811448795
H  H107  1  0.16170000  0.18650000  0.81400000  1.0 0.1811448795
H  H108  1  0.18650000  0.81400000  0.16170000  1.0 0.1811448795
C  C1  1  0.54546000  0.86765000  0.67129000  1.0 0.63633036
C  C2  1  0.86765000  0.67129000  0.54546000  1.0 0.63633036
C  C3  1  0.67129000  0.54546000  0.86765000  1.0 0.63633036
C  C4  1  0.45454000  0.13235000  0.32871000  1.0 0.63633036
C  C5  1  0.13235000  0.32871000  0.45454000  1.0 0.63633036
C  C6  1  0.32871000  0.45454000  0.13235000  1.0 0.63633036
C  C7  1  0.64683000  0.97220000  0.82807000  1.0 -0.4091656766
C  C8  1  0.97220000  0.82807000  0.64683000  1.0 -0.4091656766
C  C9  1  0.82807000  0.64683000  0.97220000  1.0 -0.4091656766
C  C10  1  0.35317000  0.02780000  0.17193000  1.0 -0.4091656766
C  C11  1  0.02780000  0.17193000  0.35317000  1.0 -0.4091656766
C  C12  1  0.17193000  0.35317000  0.02780000  1.0 -0.4091656766
C  C13  1  0.66945000  0.07904000  0.90201000  1.0 0.1467660504
C  C14  1  0.07904000  0.90201000  0.66945000  1.0 0.1467660504
C  C15  1  0.90201000  0.66945000  0.07904000  1.0 0.1467660504
C  C16  1  0.33055000  0.92096000  0.09799000  1.0 0.1467660504
C  C17  1  0.92096000  0.09799000  0.33055000  1.0 0.1467660504
C  C18  1  0.09799000  0.33055000  0.92096000  1.0 0.1467660504
C  C19  1  0.80614000  0.22925000  0.01411000  1.0 -0.1478665384
C  C20  1  0.22925000  0.01411000  0.80614000  1.0 -0.1478665384
C  C21  1  0.01411000  0.80614000  0.22925000  1.0 -0.1478665384
C  C22  1  0.19386000  0.77075000  0.98589000  1.0 -0.1478665384
C  C23  1  0.77075000  0.98589000  0.19386000  1.0 -0.1478665384
C  C24  1  0.98589000  0.19386000  0.77075000  1.0 -0.1478665384
C  C25  1  0.83672000  0.33500000  0.08868000  1.0 -0.0860774454
C  C26  1  0.33500000  0.08868000  0.83672000  1.0 -0.0860774454
C  C27  1  0.08868000  0.83672000  0.33500000  1.0 -0.0860774454
C  C28  1  0.16328000  0.66500000  0.91132000  1.0 -0.0860774454
C  C29  1  0.66500000  0.91132000  0.16328000  1.0 -0.0860774454
C  C30  1  0.91132000  0.16328000  0.66500000  1.0 -0.0860774454
C  C31  1  0.73062000  0.29299000  0.05379000  1.0 -0.100279166
C  C32  1  0.29299000  0.05379000  0.73062000  1.0 -0.100279166
C  C33  1  0.05379000  0.73062000  0.29299000  1.0 -0.100279166
C  C34  1  0.26938000  0.70701000  0.94621000  1.0 -0.100279166
C  C35  1  0.70701000  0.94621000  0.26938000  1.0 -0.100279166
C  C36  1  0.94621000  0.26938000  0.70701000  1.0 -0.100279166
C  C37  1  0.59567000  0.14481000  0.94542000  1.0 -0.0860774454
C  C38  1  0.14481000  0.94542000  0.59567000  1.0 -0.0860774454
C  C39  1  0.94542000  0.59567000  0.14481000  1.0 -0.0860774454
C  C40  1  0.40433000  0.85519000  0.05458000  1.0 -0.0860774454
C  C41  1  0.85519000  0.05458000  0.40433000  1.0 -0.0860774454
C  C42  1  0.05458000  0.40433000  0.85519000  1.0 -0.0860774454
C  C43  1  0.56290000  0.03703000  0.86877000  1.0 -0.0794383784
C  C44  1  0.03703000  0.86877000  0.56290000  1.0 -0.0794383784
C  C45  1  0.86877000  0.56290000  0.03703000  1.0 -0.0794383784
C  C46  1  0.43710000  0.96297000  0.13123000  1.0 -0.0794383784
C  C47  1  0.96297000  0.13123000  0.43710000  1.0 -0.0794383784
C  C48  1  0.13123000  0.43710000  0.96297000  1.0 -0.0794383784
C  C49  1  0.41518000  0.88026000  0.75656000  1.0 0.590767437
C  C50  1  0.88026000  0.75656000  0.41518000  1.0 0.590767437
C  C51  1  0.75656000  0.41518000  0.88026000  1.0 0.590767437
C  C52  1  0.58482000  0.11974000  0.24344000  1.0 0.590767437
C  C53  1  0.11974000  0.24344000  0.58482000  1.0 0.590767437
C  C54  1  0.24344000  0.58482000  0.11974000  1.0 0.590767437
C  C55  1  0.20334000  0.57304000  0.27482000  1.0 -0.7896667449
C  C56  1  0.57304000  0.27482000  0.20334000  1.0 -0.7896667449
C  C57  1  0.27482000  0.20334000  0.57304000  1.0 -0.7896667449
C  C58  1  0.79666000  0.42696000  0.72518000  1.0 -0.7896667449
C  C59  1  0.42696000  0.72518000  0.79666000  1.0 -0.7896667449
C  C60  1  0.72518000  0.79666000  0.42696000  1.0 -0.7896667449
C  C61  1  0.61882000  0.85337000  0.53871000  1.0 -0.7896667449
C  C62  1  0.85337000  0.53871000  0.61882000  1.0 -0.7896667449
C  C63  1  0.53871000  0.61882000  0.85337000  1.0 -0.7896667449
C  C64  1  0.38118000  0.14663000  0.46129000  1.0 -0.7896667449
C  C65  1  0.14663000  0.46129000  0.38118000  1.0 -0.7896667449
C  C66  1  0.46129000  0.38118000  0.14663000  1.0 -0.7896667449
C  C67  1  0.04596000  0.65349000  0.46845000  1.0 -0.8028730017
C  C68  1  0.65349000  0.46845000  0.04596000  1.0 -0.8028730017
C  C69  1  0.46845000  0.04596000  0.65349000  1.0 -0.8028730017
C  C70  1  0.95404000  0.34651000  0.53155000  1.0 -0.8028730017
C  C71  1  0.34651000  0.53155000  0.95404000  1.0 -0.8028730017
C  C72  1  0.53155000  0.95404000  0.34651000  1.0 -0.8028730017
C  C73  1  0.20837000  0.79988000  0.80405000  1.0 -0.7896667449
C  C74  1  0.79988000  0.80405000  0.20837000  1.0 -0.7896667449
C  C75  1  0.80405000  0.20837000  0.79988000  1.0 -0.7896667449
C  C76  1  0.79163000  0.20012000  0.19595000  1.0 -0.7896667449
C  C77  1  0.20012000  0.19595000  0.79163000  1.0 -0.7896667449
C  C78  1  0.19595000  0.79163000  0.20012000  1.0 -0.7896667449
O  O1  1  0.52966000  0.90835000  0.63469000  1.0 -0.5606372418
O  O2  1  0.90835000  0.63469000  0.52966000  1.0 -0.5606372418
O  O3  1  0.63469000  0.52966000  0.90835000  1.0 -0.5606372418
O  O4  1  0.47034000  0.09165000  0.36531000  1.0 -0.5606372418
O  O5  1  0.09165000  0.36531000  0.47034000  1.0 -0.5606372418
O  O6  1  0.36531000  0.47034000  0.09165000  1.0 -0.5606372418
O  O7  1  0.48707000  0.75122000  0.58481000  1.0 -0.52447719
O  O8  1  0.75122000  0.58481000  0.48707000  1.0 -0.52447719
O  O9  1  0.58481000  0.48707000  0.75122000  1.0 -0.52447719
O  O10  1  0.51293000  0.24878000  0.41519000  1.0 -0.52447719
O  O11  1  0.24878000  0.41519000  0.51293000  1.0 -0.52447719
O  O12  1  0.41519000  0.51293000  0.24878000  1.0 -0.52447719
O  O13  1  0.36031000  0.77043000  0.65546000  1.0 -0.5324134292
O  O14  1  0.77043000  0.65546000  0.36031000  1.0 -0.5324134292
O  O15  1  0.65546000  0.36031000  0.77043000  1.0 -0.5324134292
O  O16  1  0.63969000  0.22957000  0.34454000  1.0 -0.5324134292
O  O17  1  0.22957000  0.34454000  0.63969000  1.0 -0.5324134292
O  O18  1  0.34454000  0.63969000  0.22957000  1.0 -0.5324134292
O  O19  1  0.35462000  0.86894000  0.77294000  1.0 -0.5524925055
O  O20  1  0.86894000  0.77294000  0.35462000  1.0 -0.5524925055
O  O21  1  0.77294000  0.35462000  0.86894000  1.0 -0.5524925055
O  O22  1  0.64538000  0.13106000  0.22706000  1.0 -0.5524925055
O  O23  1  0.13106000  0.22706000  0.64538000  1.0 -0.5524925055
O  O24  1  0.22706000  0.64538000  0.13106000  1.0 -0.5524925055
O  O25  1  0.10408000  0.54095000  0.54387000  1.0 -0.8408471408
O  O26  1  0.54095000  0.54387000  0.10408000  1.0 -0.8408471408
O  O27  1  0.54387000  0.10408000  0.54095000  1.0 -0.8408471408
O  O28  1  0.89592000  0.45905000  0.45613000  1.0 -0.8408471408
O  O29  1  0.45905000  0.45613000  0.89592000  1.0 -0.8408471408
O  O30  1  0.45613000  0.89592000  0.45905000  1.0 -0.8408471408
