# DDEC6 charges by PACMAN v1.1 (https://github.com/mtap-research/PACMAN-charge/)
data_HOYROE_FSR_pacman
_symmetry_space_group_name_H-M   'P 1'
_cell_length_a   9.21410000
_cell_length_b   10.87830000
_cell_length_c   28.39450000
_cell_angle_alpha   90.00000000
_cell_angle_beta   90.00000000
_cell_angle_gamma   90.00000000
_symmetry_Int_Tables_number   1
_chemical_formula_structural   Ba3Li6H26C36(N7O13)2
_chemical_formula_sum   'Ba6 Li12 H52 C72 N28 O52'
_cell_volume   2846.08704486
_cell_formula_units_Z   2
loop_
 _symmetry_equiv_pos_site_id
 _symmetry_equiv_pos_as_xyz
  1  'x, y, z'
loop_
 _atom_site_type_symbol
 _atom_site_label
 _atom_site_symmetry_multiplicity
 _atom_site_fract_x
 _atom_site_fract_y
 _atom_site_fract_z
 _atom_site_occupancy
 _atom_site_charge
Ba  Ba1  1  0.02788000  0.14080000  0.44519000  1.0 1.3886343858
Ba  Ba2  1  0.02788000  0.85920000  0.55481000  1.0 1.3886343858
Ba  Ba3  1  0.97212000  0.64080000  0.05481000  1.0 1.3886343858
Ba  Ba4  1  0.97212000  0.35920000  0.94519000  1.0 1.3886343858
Ba  Ba5  1  0.82337000  0.50000000  0.50000000  1.0 1.4328653237
Ba  Ba6  1  0.17663000  0.00000000  0.00000000  1.0 1.4328653237
Li  Li1  1  0.84250000  0.41000000  0.16130000  1.0 0.766098859
Li  Li2  1  0.84250000  0.59000000  0.83870000  1.0 0.766098859
Li  Li3  1  0.15750000  0.91000000  0.33870000  1.0 0.766098859
Li  Li4  1  0.15750000  0.09000000  0.66130000  1.0 0.766098859
Li  Li5  1  0.94090000  0.41820000  0.38530000  1.0 0.8115949056
Li  Li6  1  0.94090000  0.58180000  0.61470000  1.0 0.8115949056
Li  Li7  1  0.05910000  0.91820000  0.11470000  1.0 0.8115949056
Li  Li8  1  0.05910000  0.08180000  0.88530000  1.0 0.8115949056
Li  Li9  1  0.08840000  0.72230000  0.43960000  1.0 0.8115949056
Li  Li10  1  0.08840000  0.27770000  0.56040000  1.0 0.8115949056
Li  Li11  1  0.91160000  0.22230000  0.06040000  1.0 0.8115949056
Li  Li12  1  0.91160000  0.77770000  0.93960000  1.0 0.8115949056
H  H1  1  0.89810000  0.35500000  0.28550000  1.0 0.2752814016
H  H2  1  0.89810000  0.64500000  0.71450000  1.0 0.2752814016
H  H3  1  0.10190000  0.85500000  0.21450000  1.0 0.2752814016
H  H4  1  0.10190000  0.14500000  0.78550000  1.0 0.2752814016
H  H5  1  0.44120000  0.14300000  0.41720000  1.0 0.2752814016
H  H6  1  0.44120000  0.85700000  0.58280000  1.0 0.2752814016
H  H7  1  0.55880000  0.64300000  0.08280000  1.0 0.2752814016
H  H8  1  0.55880000  0.35700000  0.91720000  1.0 0.2752814016
H  H9  1  0.39300000  0.67660000  0.46820000  1.0 0.2730678937
H  H10  1  0.39300000  0.32340000  0.53180000  1.0 0.2730678937
H  H11  1  0.60700000  0.17660000  0.03180000  1.0 0.2730678937
H  H12  1  0.60700000  0.82340000  0.96820000  1.0 0.2730678937
H  H13  1  0.10750000  0.06410000  0.23890000  1.0 0.1412752962
H  H14  1  0.10750000  0.93590000  0.76110000  1.0 0.1412752962
H  H15  1  0.89250000  0.56410000  0.26110000  1.0 0.1412752962
H  H16  1  0.89250000  0.43590000  0.73890000  1.0 0.1412752962
H  H17  1  0.50270000  0.49820000  0.43220000  1.0 0.1412752962
H  H18  1  0.50270000  0.50180000  0.56780000  1.0 0.1412752962
H  H19  1  0.49730000  0.99820000  0.06780000  1.0 0.1412752962
H  H20  1  0.49730000  0.00180000  0.93220000  1.0 0.1412752962
H  H21  1  0.59660000  0.98790000  0.44490000  1.0 0.1575232914
H  H22  1  0.59660000  0.01210000  0.55510000  1.0 0.1575232914
H  H23  1  0.40340000  0.48790000  0.05510000  1.0 0.1575232914
H  H24  1  0.40340000  0.51210000  0.94490000  1.0 0.1575232914
H  H25  1  0.62020000  0.57510000  0.19180000  1.0 0.0908850303
H  H26  1  0.62020000  0.42490000  0.80820000  1.0 0.0908850303
H  H27  1  0.37980000  0.07510000  0.30820000  1.0 0.0908850303
H  H28  1  0.37980000  0.92490000  0.69180000  1.0 0.0908850303
H  H29  1  0.42680000  0.68970000  0.20760000  1.0 0.1221412143
H  H30  1  0.42680000  0.31030000  0.79240000  1.0 0.1221412143
H  H31  1  0.57320000  0.18970000  0.29240000  1.0 0.1221412143
H  H32  1  0.57320000  0.81030000  0.70760000  1.0 0.1221412143
H  H33  1  0.29170000  0.61130000  0.22640000  1.0 0.130913667
H  H34  1  0.29170000  0.38870000  0.77360000  1.0 0.130913667
H  H35  1  0.70830000  0.11130000  0.27360000  1.0 0.130913667
H  H36  1  0.70830000  0.88870000  0.72640000  1.0 0.130913667
H  H37  1  0.29190000  0.66270000  0.17360000  1.0 0.130913667
H  H38  1  0.29190000  0.33730000  0.82640000  1.0 0.130913667
H  H39  1  0.70810000  0.16270000  0.32640000  1.0 0.130913667
H  H40  1  0.70810000  0.83730000  0.67360000  1.0 0.130913667
H  H41  1  0.38330000  0.35430000  0.15340000  1.0 0.1412752962
H  H42  1  0.38330000  0.64570000  0.84660000  1.0 0.1412752962
H  H43  1  0.61670000  0.85430000  0.34660000  1.0 0.1412752962
H  H44  1  0.61670000  0.14570000  0.65340000  1.0 0.1412752962
H  H45  1  0.25750000  0.45310000  0.14460000  1.0 0.1412752962
H  H46  1  0.25750000  0.54690000  0.85540000  1.0 0.1412752962
H  H47  1  0.74250000  0.95310000  0.35540000  1.0 0.1412752962
H  H48  1  0.74250000  0.04690000  0.64460000  1.0 0.1412752962
H  H49  1  0.27280000  0.38830000  0.19490000  1.0 0.130913667
H  H50  1  0.27280000  0.61170000  0.80510000  1.0 0.130913667
H  H51  1  0.72720000  0.88830000  0.30510000  1.0 0.130913667
H  H52  1  0.72720000  0.11170000  0.69490000  1.0 0.130913667
C  C1  1  0.03440000  0.17930000  0.33220000  1.0 0.6010480544
C  C2  1  0.03440000  0.82070000  0.66780000  1.0 0.6010480544
C  C3  1  0.96560000  0.67930000  0.16780000  1.0 0.6010480544
C  C4  1  0.96560000  0.32070000  0.83220000  1.0 0.6010480544
C  C5  1  0.01200000  0.20110000  0.28053000  1.0 0.0381494111
C  C6  1  0.01200000  0.79890000  0.71947000  1.0 0.0381494111
C  C7  1  0.98800000  0.70110000  0.21947000  1.0 0.0381494111
C  C8  1  0.98800000  0.29890000  0.78053000  1.0 0.0381494111
C  C9  1  0.05160000  0.13740000  0.24067000  1.0 -0.2726364487
C  C10  1  0.05160000  0.86260000  0.75933000  1.0 -0.2726364487
C  C11  1  0.94840000  0.63740000  0.25933000  1.0 -0.2726364487
C  C12  1  0.94840000  0.36260000  0.74067000  1.0 -0.2726364487
C  C13  1  0.99170000  0.20420000  0.20350000  1.0 0.0521286483
C  C14  1  0.99170000  0.79580000  0.79650000  1.0 0.0521286483
C  C15  1  0.00830000  0.70420000  0.29650000  1.0 0.0521286483
C  C16  1  0.00830000  0.29580000  0.70350000  1.0 0.0521286483
C  C17  1  0.98920000  0.18070000  0.15140000  1.0 0.6119044593
C  C18  1  0.98920000  0.81930000  0.84860000  1.0 0.6119044593
C  C19  1  0.01080000  0.68070000  0.34860000  1.0 0.6119044593
C  C20  1  0.01080000  0.31930000  0.65140000  1.0 0.6119044593
C  C21  1  0.18550000  0.47030000  0.44411000  1.0 0.6119044593
C  C22  1  0.18550000  0.52970000  0.55589000  1.0 0.6119044593
C  C23  1  0.81450000  0.97030000  0.05589000  1.0 0.6119044593
C  C24  1  0.81450000  0.02970000  0.94411000  1.0 0.6119044593
C  C25  1  0.31150000  0.38960000  0.43380000  1.0 0.0521286483
C  C26  1  0.31150000  0.61040000  0.56620000  1.0 0.0521286483
C  C27  1  0.68850000  0.88960000  0.06620000  1.0 0.0521286483
C  C28  1  0.68850000  0.11040000  0.93380000  1.0 0.0521286483
C  C29  1  0.45980000  0.41900000  0.43006000  1.0 -0.2485577033
C  C30  1  0.45980000  0.58100000  0.56994000  1.0 -0.2485577033
C  C31  1  0.54020000  0.91900000  0.06994000  1.0 -0.2485577033
C  C32  1  0.54020000  0.08100000  0.93006000  1.0 -0.2485577033
C  C33  1  0.52970000  0.30870000  0.42258000  1.0 0.0254207721
C  C34  1  0.52970000  0.69130000  0.57742000  1.0 0.0254207721
C  C35  1  0.47030000  0.80870000  0.07742000  1.0 0.0254207721
C  C36  1  0.47030000  0.19130000  0.92258000  1.0 0.0249171837
C  C37  1  0.68680000  0.28050000  0.41952000  1.0 0.5651170632
C  C38  1  0.68680000  0.71950000  0.58048000  1.0 0.5651170632
C  C39  1  0.31320000  0.78050000  0.08048000  1.0 0.5651170632
C  C40  1  0.31320000  0.21950000  0.91952000  1.0 0.5651170632
C  C41  1  0.83240000  0.82080000  0.46200000  1.0 0.581537666
C  C42  1  0.83240000  0.17920000  0.53800000  1.0 0.581537666
C  C43  1  0.16760000  0.32080000  0.03800000  1.0 0.581537666
C  C44  1  0.16760000  0.67920000  0.96200000  1.0 0.581537666
C  C45  1  0.67250000  0.80890000  0.45850000  1.0 0.0521286483
C  C46  1  0.67250000  0.19110000  0.54150000  1.0 0.0521286483
C  C47  1  0.32750000  0.30890000  0.04150000  1.0 0.0521286483
C  C48  1  0.32750000  0.69110000  0.95850000  1.0 0.0521286483
C  C49  1  0.57490000  0.90410000  0.45118000  1.0 -0.2334964143
C  C50  1  0.57490000  0.09590000  0.54882000  1.0 -0.2334964143
C  C51  1  0.42510000  0.40410000  0.04882000  1.0 -0.2334964143
C  C52  1  0.42510000  0.59590000  0.95118000  1.0 -0.2334964143
C  C53  1  0.44070000  0.85150000  0.45499000  1.0 0.0381494111
C  C54  1  0.44070000  0.14850000  0.54501000  1.0 0.0381494111
C  C55  1  0.55930000  0.35150000  0.04501000  1.0 0.0381494111
C  C56  1  0.55930000  0.64850000  0.95499000  1.0 0.0381494111
C  C57  1  0.29350000  0.90640000  0.45372000  1.0 0.5862892291
C  C58  1  0.29350000  0.09360000  0.54628000  1.0 0.5862892291
C  C59  1  0.70650000  0.40640000  0.04628000  1.0 0.5862892291
C  C60  1  0.70650000  0.59360000  0.95372000  1.0 0.5862892291
C  C61  1  0.56550000  0.50590000  0.18167000  1.0 0.2922098062
C  C62  1  0.56550000  0.49410000  0.81833000  1.0 0.2922098062
C  C63  1  0.43450000  0.00590000  0.31833000  1.0 0.2922098062
C  C64  1  0.43450000  0.99410000  0.68167000  1.0 0.2922098062
C  C65  1  0.35250000  0.62930000  0.19890000  1.0 -0.3442453349
C  C66  1  0.35250000  0.37070000  0.80110000  1.0 -0.3442453349
C  C67  1  0.64750000  0.12930000  0.30110000  1.0 -0.3442453349
C  C68  1  0.64750000  0.87070000  0.69890000  1.0 -0.3442453349
C  C69  1  0.32630000  0.42050000  0.16770000  1.0 -0.3191583732
C  C70  1  0.32630000  0.57950000  0.83230000  1.0 -0.3191583732
C  C71  1  0.67370000  0.92050000  0.33230000  1.0 -0.3191583732
C  C72  1  0.67370000  0.07950000  0.66770000  1.0 -0.3191583732
N  N1  1  0.93480000  0.29970000  0.26627000  1.0 -0.0871776768
N  N2  1  0.93480000  0.70030000  0.73373000  1.0 -0.0871776768
N  N3  1  0.06520000  0.79970000  0.23373000  1.0 -0.0871776768
N  N4  1  0.06520000  0.20030000  0.76627000  1.0 -0.0871776768
N  N5  1  0.92070000  0.30350000  0.21928000  1.0 -0.2837098219
N  N6  1  0.92070000  0.69650000  0.78072000  1.0 -0.2837098219
N  N7  1  0.07930000  0.80350000  0.28072000  1.0 -0.2837098219
N  N8  1  0.07930000  0.19650000  0.71928000  1.0 -0.2837098219
N  N9  1  0.29180000  0.26850000  0.42856000  1.0 -0.2334964143
N  N10  1  0.29180000  0.73150000  0.57144000  1.0 -0.2334964143
N  N11  1  0.70820000  0.76850000  0.07144000  1.0 -0.2334964143
N  N12  1  0.70820000  0.23150000  0.92856000  1.0 -0.2334964143
N  N13  1  0.42420000  0.22170000  0.42172000  1.0 -0.0658929653
N  N14  1  0.42420000  0.77830000  0.57828000  1.0 -0.0658929653
N  N15  1  0.57580000  0.72170000  0.07828000  1.0 -0.0658929653
N  N16  1  0.57580000  0.27830000  0.92172000  1.0 -0.0658929653
N  N17  1  0.60500000  0.70100000  0.46605000  1.0 -0.2726364487
N  N18  1  0.60500000  0.29900000  0.53395000  1.0 -0.2726364487
N  N19  1  0.39500000  0.20100000  0.03395000  1.0 -0.2726364487
N  N20  1  0.39500000  0.79900000  0.96605000  1.0 -0.2726364487
N  N21  1  0.46340000  0.73020000  0.46405000  1.0 -0.075744325
N  N22  1  0.46340000  0.26980000  0.53595000  1.0 -0.075744325
N  N23  1  0.53660000  0.23020000  0.03595000  1.0 -0.075744325
N  N24  1  0.53660000  0.76980000  0.96405000  1.0 -0.075744325
N  N25  1  0.42200000  0.51710000  0.18297000  1.0 0.0381494111
N  N26  1  0.42200000  0.48290000  0.81703000  1.0 0.0381494111
N  N27  1  0.57800000  0.01710000  0.31703000  1.0 0.0381494111
N  N28  1  0.57800000  0.98290000  0.68297000  1.0 0.0381494111
O  O1  1  0.07850000  0.07470000  0.34533000  1.0 -0.6616337874
O  O2  1  0.07850000  0.92530000  0.65467000  1.0 -0.6616337874
O  O3  1  0.92150000  0.57470000  0.15467000  1.0 -0.6616337874
O  O4  1  0.92150000  0.42530000  0.84533000  1.0 -0.6616337874
O  O5  1  0.00250000  0.26580000  0.35896000  1.0 -0.6797425427
O  O6  1  0.00250000  0.73420000  0.64104000  1.0 -0.6797425427
O  O7  1  0.99750000  0.76580000  0.14104000  1.0 -0.6797425427
O  O8  1  0.99750000  0.23420000  0.85896000  1.0 -0.6797425427
O  O9  1  0.04340000  0.08230000  0.13693000  1.0 -0.6616337874
O  O10  1  0.04340000  0.91770000  0.86307000  1.0 -0.6616337874
O  O11  1  0.95660000  0.58230000  0.36307000  1.0 -0.6616337874
O  O12  1  0.95660000  0.41770000  0.63693000  1.0 -0.6616337874
O  O13  1  0.92860000  0.26260000  0.12653000  1.0 -0.6991090754
O  O14  1  0.92860000  0.73740000  0.87347000  1.0 -0.6991090754
O  O15  1  0.07140000  0.76260000  0.37347000  1.0 -0.6991090754
O  O16  1  0.07140000  0.23740000  0.62653000  1.0 -0.6991090754
O  O17  1  0.06140000  0.42130000  0.44529000  1.0 -0.6898646334
O  O18  1  0.06140000  0.57870000  0.55471000  1.0 -0.6898646334
O  O19  1  0.93860000  0.92130000  0.05471000  1.0 -0.6898646334
O  O20  1  0.93860000  0.07870000  0.94529000  1.0 -0.6898646334
O  O21  1  0.21160000  0.58210000  0.45078000  1.0 -0.626443384
O  O22  1  0.21160000  0.41790000  0.54922000  1.0 -0.626443384
O  O23  1  0.78840000  0.08210000  0.04922000  1.0 -0.626443384
O  O24  1  0.78840000  0.91790000  0.95078000  1.0 -0.626443384
O  O25  1  0.72660000  0.17200000  0.41855000  1.0 -0.5593935826
O  O26  1  0.72660000  0.82800000  0.58145000  1.0 -0.5593935826
O  O27  1  0.27340000  0.67200000  0.08145000  1.0 -0.5593935826
O  O28  1  0.27340000  0.32800000  0.91855000  1.0 -0.5593935826
O  O29  1  0.76810000  0.37480000  0.42055000  1.0 -0.7191136905
O  O30  1  0.76810000  0.62520000  0.57945000  1.0 -0.7191136905
O  O31  1  0.23190000  0.87480000  0.07945000  1.0 -0.7191136905
O  O32  1  0.23190000  0.12520000  0.92055000  1.0 -0.7191136905
O  O33  1  0.90490000  0.72670000  0.47477000  1.0 -0.7191136905
O  O34  1  0.90490000  0.27330000  0.52523000  1.0 -0.7191136905
O  O35  1  0.09510000  0.22670000  0.02523000  1.0 -0.7191136905
O  O36  1  0.09510000  0.77330000  0.97477000  1.0 -0.7191136905
O  O37  1  0.88530000  0.92340000  0.45523000  1.0 -0.5736121514
O  O38  1  0.88530000  0.07660000  0.54477000  1.0 -0.5736121514
O  O39  1  0.11470000  0.42340000  0.04477000  1.0 -0.5736121514
O  O40  1  0.11470000  0.57660000  0.95523000  1.0 -0.5736121514
O  O41  1  0.19240000  0.84700000  0.47275000  1.0 -0.6797425427
O  O42  1  0.19240000  0.15300000  0.52725000  1.0 -0.6797425427
O  O43  1  0.80760000  0.34700000  0.02725000  1.0 -0.6797425427
O  O44  1  0.80760000  0.65300000  0.97275000  1.0 -0.6797425427
O  O45  1  0.28200000  0.00880000  0.43460000  1.0 -0.5879949012
O  O46  1  0.28200000  0.99120000  0.56540000  1.0 -0.5879949012
O  O47  1  0.71800000  0.50880000  0.06540000  1.0 -0.5879949012
O  O48  1  0.71800000  0.49120000  0.93460000  1.0 -0.5879949012
O  O49  1  0.63400000  0.41660000  0.16893000  1.0 -0.4983682313
O  O50  1  0.63400000  0.58340000  0.83107000  1.0 -0.4983682313
O  O51  1  0.36600000  0.91660000  0.33107000  1.0 -0.4983682313
O  O52  1  0.36600000  0.08340000  0.66893000  1.0 -0.4983682313
