# DDEC6 charges by PACMAN v1.1 (https://github.com/mtap-research/PACMAN-charge/)
data_HOZFEJ_ASR_pacman
_symmetry_space_group_name_H-M   'P 1'
_cell_length_a   4.97480000
_cell_length_b   37.21890000
_cell_length_c   16.02460000
_cell_angle_alpha   90.00000000
_cell_angle_beta   92.58200000
_cell_angle_gamma   90.00000000
_symmetry_Int_Tables_number   1
_chemical_formula_structural   LiH17C24(NO)6
_chemical_formula_sum   'Li4 H68 C96 N24 O24'
_cell_volume   2964.04794799
_cell_formula_units_Z   4
loop_
 _symmetry_equiv_pos_site_id
 _symmetry_equiv_pos_as_xyz
  1  'x, y, z'
loop_
 _atom_site_type_symbol
 _atom_site_label
 _atom_site_symmetry_multiplicity
 _atom_site_fract_x
 _atom_site_fract_y
 _atom_site_fract_z
 _atom_site_occupancy
 _atom_site_charge
Li  Li1  1  0.20120000  0.52331000  0.48560000  1.0 0.8000301954
Li  Li2  1  0.79880000  0.02331000  0.01440000  1.0 0.8000301954
Li  Li3  1  0.79880000  0.47669000  0.51440000  1.0 0.8000301954
Li  Li4  1  0.20120000  0.97669000  0.98560000  1.0 0.8000301954
H  H1  1  0.09340000  0.67960000  0.28720000  1.0 0.2877460358
H  H2  1  0.90660000  0.17960000  0.21280000  1.0 0.2877460358
H  H3  1  0.90660000  0.32040000  0.71280000  1.0 0.2877460358
H  H4  1  0.09340000  0.82040000  0.78720000  1.0 0.2877460358
H  H5  1  0.42030000  0.57310000  0.28010000  1.0 0.1210519194
H  H6  1  0.57970000  0.07310000  0.21990000  1.0 0.1210519194
H  H7  1  0.57970000  0.42690000  0.71990000  1.0 0.1210519194
H  H8  1  0.42030000  0.92690000  0.78010000  1.0 0.1210519194
H  H9  1  0.52550000  0.62850000  0.22090000  1.0 0.1210519194
H  H10  1  0.47450000  0.12850000  0.27910000  1.0 0.1210519194
H  H11  1  0.47450000  0.37150000  0.77910000  1.0 0.1210519194
H  H12  1  0.52550000  0.87150000  0.72090000  1.0 0.1210519194
H  H13  1  0.14430000  0.63940000  0.39240000  1.0 0.1296476045
H  H14  1  0.85570000  0.13940000  0.10760000  1.0 0.1296476045
H  H15  1  0.85570000  0.36060000  0.60760000  1.0 0.1296476045
H  H16  1  0.14430000  0.86060000  0.89240000  1.0 0.1296476045
H  H17  1  0.03560000  0.58450000  0.45090000  1.0 0.1116009168
H  H18  1  0.96440000  0.08450000  0.04910000  1.0 0.1116009168
H  H19  1  0.96440000  0.41550000  0.54910000  1.0 0.1116009168
H  H20  1  0.03560000  0.91550000  0.95090000  1.0 0.1116009168
H  H21  1  0.23650000  0.67910000  0.07810000  1.0 0.2877460358
H  H22  1  0.76350000  0.17910000  0.42190000  1.0 0.2877460358
H  H23  1  0.76350000  0.32090000  0.92190000  1.0 0.2877460358
H  H24  1  0.23650000  0.82090000  0.57810000  1.0 0.2877460358
H  H25  1  0.17410000  0.75400000  0.79590000  1.0 0.3221278128
H  H26  1  0.82590000  0.25400000  0.70410000  1.0 0.3221278128
H  H27  1  0.82590000  0.24600000  0.20410000  1.0 0.3221278128
H  H28  1  0.17410000  0.74600000  0.29590000  1.0 0.3221278128
H  H29  1  0.83130000  0.79750000  0.95980000  1.0 0.1116009168
H  H30  1  0.16870000  0.29750000  0.54020000  1.0 0.1116009168
H  H31  1  0.16870000  0.20250000  0.04020000  1.0 0.1116009168
H  H32  1  0.83130000  0.70250000  0.45980000  1.0 0.1116009168
H  H33  1  0.16920000  0.77310000  0.04750000  1.0 0.1210519194
H  H34  1  0.83080000  0.27310000  0.45250000  1.0 0.1210519194
H  H35  1  0.83080000  0.22690000  0.95250000  1.0 0.1210519194
H  H36  1  0.16920000  0.72690000  0.54750000  1.0 0.1210519194
H  H37  1  0.90410000  0.67280000  0.98390000  1.0 0.1210519194
H  H38  1  0.09590000  0.17280000  0.51610000  1.0 0.1210519194
H  H39  1  0.09590000  0.32720000  0.01610000  1.0 0.1210519194
H  H40  1  0.90410000  0.82720000  0.48390000  1.0 0.1210519194
H  H41  1  0.56850000  0.69780000  0.89660000  1.0 0.1116009168
H  H42  1  0.43150000  0.19780000  0.60340000  1.0 0.1116009168
H  H43  1  0.43150000  0.30220000  0.10340000  1.0 0.1116009168
H  H44  1  0.56850000  0.80220000  0.39660000  1.0 0.1116009168
H  H45  1  0.96860000  0.79110000  0.23610000  1.0 0.2877460358
H  H46  1  0.03140000  0.29110000  0.26390000  1.0 0.2877460358
H  H47  1  0.03140000  0.20890000  0.76390000  1.0 0.2877460358
H  H48  1  0.96860000  0.70890000  0.73610000  1.0 0.2877460358
H  H49  1  0.60770000  0.97710000  0.13260000  1.0 0.3705778059
H  H50  1  0.39230000  0.47710000  0.36740000  1.0 0.3705778059
H  H51  1  0.39230000  0.02290000  0.86740000  1.0 0.3705778059
H  H52  1  0.60770000  0.52290000  0.63260000  1.0 0.3705778059
H  H53  1  0.87310000  0.90730000  0.22300000  1.0 0.1210519194
H  H54  1  0.12690000  0.40730000  0.27700000  1.0 0.1210519194
H  H55  1  0.12690000  0.09270000  0.77700000  1.0 0.1210519194
H  H56  1  0.87310000  0.59270000  0.72300000  1.0 0.1210519194
H  H57  1  0.98790000  0.84890000  0.25920000  1.0 0.1296476045
H  H58  1  0.01210000  0.34890000  0.24080000  1.0 0.1296476045
H  H59  1  0.01210000  0.15110000  0.74080000  1.0 0.1296476045
H  H60  1  0.98790000  0.65110000  0.75920000  1.0 0.1296476045
H  H61  1  0.45810000  0.81130000  0.08590000  1.0 0.1210519194
H  H62  1  0.54190000  0.31130000  0.41410000  1.0 0.1210519194
H  H63  1  0.54190000  0.18870000  0.91410000  1.0 0.1210519194
H  H64  1  0.45810000  0.68870000  0.58590000  1.0 0.1210519194
H  H65  1  0.33980000  0.86980000  0.05050000  1.0 0.1210519194
H  H66  1  0.66020000  0.36980000  0.44950000  1.0 0.1210519194
H  H67  1  0.66020000  0.13020000  0.94950000  1.0 0.1210519194
H  H68  1  0.33980000  0.63020000  0.55050000  1.0 0.1210519194
C  C1  1  0.78920000  0.69726000  0.22277000  1.0 0.5391884384
C  C2  1  0.21080000  0.19726000  0.27723000  1.0 0.5391884384
C  C3  1  0.21080000  0.30274000  0.77723000  1.0 0.5391884384
C  C4  1  0.78920000  0.80274000  0.72277000  1.0 0.5391884384
C  C5  1  0.45800000  0.71454000  0.13127000  1.0 0.5315779608
C  C6  1  0.54200000  0.21454000  0.36873000  1.0 0.5315779608
C  C7  1  0.54200000  0.28546000  0.86873000  1.0 0.5315779608
C  C8  1  0.45800000  0.78546000  0.63127000  1.0 0.5315779608
C  C9  1  0.73070000  0.75616000  0.18896000  1.0 0.5315779608
C  C10  1  0.26930000  0.25616000  0.31104000  1.0 0.5315779608
C  C11  1  0.26930000  0.24384000  0.81104000  1.0 0.5315779608
C  C12  1  0.73070000  0.74384000  0.68896000  1.0 0.5315779608
C  C13  1  0.65610000  0.53726000  0.40677000  1.0 0.6329589423
C  C14  1  0.34390000  0.03726000  0.09323000  1.0 0.6329589423
C  C15  1  0.34390000  0.46274000  0.59323000  1.0 0.6329589423
C  C16  1  0.65610000  0.96274000  0.90677000  1.0 0.6329589423
C  C17  1  0.72040000  0.57286000  0.37002000  1.0 -0.0578785028
C  C18  1  0.27960000  0.07286000  0.12998000  1.0 -0.0578785028
C  C19  1  0.27960000  0.42714000  0.62998000  1.0 -0.0578785028
C  C20  1  0.72040000  0.92714000  0.87002000  1.0 -0.0578785028
C  C21  1  0.56890000  0.58652000  0.30267000  1.0 -0.0792197927
C  C22  1  0.43110000  0.08652000  0.19733000  1.0 -0.0792197927
C  C23  1  0.43110000  0.41348000  0.69733000  1.0 -0.0792197927
C  C24  1  0.56890000  0.91348000  0.80267000  1.0 -0.0792197927
C  C25  1  0.63060000  0.61958000  0.26738000  1.0 -0.1908464457
C  C26  1  0.36940000  0.11958000  0.23262000  1.0 -0.1908464457
C  C27  1  0.36940000  0.38042000  0.73262000  1.0 -0.1908464457
C  C28  1  0.63060000  0.88042000  0.76738000  1.0 -0.1908464457
C  C29  1  0.84660000  0.63944000  0.30053000  1.0 0.2494618532
C  C30  1  0.15340000  0.13944000  0.19947000  1.0 0.2494618532
C  C31  1  0.15340000  0.36056000  0.69947000  1.0 0.2494618532
C  C32  1  0.84660000  0.86056000  0.80053000  1.0 0.2494618532
C  C33  1  0.99690000  0.62596000  0.36921000  1.0 -0.195826492
C  C34  1  0.00310000  0.12596000  0.13079000  1.0 -0.195826492
C  C35  1  0.00310000  0.37404000  0.63079000  1.0 -0.195826492
C  C36  1  0.99690000  0.87404000  0.86921000  1.0 -0.195826492
C  C37  1  0.93310000  0.59319000  0.40370000  1.0 -0.086579303
C  C38  1  0.06690000  0.09319000  0.09630000  1.0 -0.086579303
C  C39  1  0.06690000  0.40681000  0.59630000  1.0 -0.086579303
C  C40  1  0.93310000  0.90681000  0.90370000  1.0 -0.086579303
C  C41  1  0.44130000  0.76659000  0.86823000  1.0 0.5486848739
C  C42  1  0.55870000  0.26659000  0.63177000  1.0 0.5486848739
C  C43  1  0.55870000  0.23341000  0.13177000  1.0 0.5486848739
C  C44  1  0.44130000  0.73341000  0.36823000  1.0 0.5486848739
C  C45  1  0.66330000  0.75021000  0.92044000  1.0 -0.0578785028
C  C46  1  0.33670000  0.25021000  0.57956000  1.0 -0.0578785028
C  C47  1  0.33670000  0.24979000  0.07956000  1.0 -0.0578785028
C  C48  1  0.66330000  0.74979000  0.42044000  1.0 -0.0578785028
C  C49  1  0.84560000  0.77215000  0.96527000  1.0 -0.0720924612
C  C50  1  0.15440000  0.27215000  0.53473000  1.0 -0.0720924612
C  C51  1  0.15440000  0.22785000  0.03473000  1.0 -0.0720924612
C  C52  1  0.84560000  0.72785000  0.46527000  1.0 -0.0720924612
C  C53  1  0.04680000  0.75773000  0.01750000  1.0 -0.1908464457
C  C54  1  0.95320000  0.25773000  0.48250000  1.0 -0.1908464457
C  C55  1  0.95320000  0.24227000  0.98250000  1.0 -0.1908464457
C  C56  1  0.04680000  0.74227000  0.51750000  1.0 -0.1908464457
C  C57  1  0.06870000  0.72045000  0.02576000  1.0 0.2494618532
C  C58  1  0.93130000  0.22045000  0.47424000  1.0 0.2494618532
C  C59  1  0.93130000  0.27955000  0.97424000  1.0 0.2494618532
C  C60  1  0.06870000  0.77955000  0.52576000  1.0 0.2494618532
C  C61  1  0.88850000  0.69815000  0.97945000  1.0 -0.2186438802
C  C62  1  0.11150000  0.19815000  0.52055000  1.0 -0.2186438802
C  C63  1  0.11150000  0.30185000  0.02055000  1.0 -0.2186438802
C  C64  1  0.88850000  0.80185000  0.47945000  1.0 -0.2186438802
C  C65  1  0.68920000  0.71305000  0.92766000  1.0 -0.086579303
C  C66  1  0.31080000  0.21305000  0.57234000  1.0 -0.086579303
C  C67  1  0.31080000  0.28695000  0.07234000  1.0 -0.086579303
C  C68  1  0.68920000  0.78695000  0.42766000  1.0 -0.086579303
C  C69  1  0.51470000  0.93181000  0.10947000  1.0 0.583710247
C  C70  1  0.48530000  0.43181000  0.39053000  1.0 0.583710247
C  C71  1  0.48530000  0.06819000  0.89053000  1.0 0.583710247
C  C72  1  0.51470000  0.56819000  0.60947000  1.0 0.583710247
C  C73  1  0.59010000  0.89463000  0.13425000  1.0 -0.0526658564
C  C74  1  0.40990000  0.39463000  0.36575000  1.0 -0.0526658564
C  C75  1  0.40990000  0.10537000  0.86575000  1.0 -0.0526658564
C  C76  1  0.59010000  0.60537000  0.63425000  1.0 -0.0526658564
C  C77  1  0.78400000  0.88785000  0.19510000  1.0 -0.0792197927
C  C78  1  0.21600000  0.38785000  0.30490000  1.0 -0.0792197927
C  C79  1  0.21600000  0.11215000  0.80490000  1.0 -0.0792197927
C  C80  1  0.78400000  0.61215000  0.69510000  1.0 -0.0792197927
C  C81  1  0.85220000  0.85297000  0.21660000  1.0 -0.2124405864
C  C82  1  0.14780000  0.35297000  0.28340000  1.0 -0.2124405864
C  C83  1  0.14780000  0.14703000  0.78340000  1.0 -0.2124405864
C  C84  1  0.85220000  0.64703000  0.71660000  1.0 -0.2124405864
C  C85  1  0.72840000  0.82416000  0.17806000  1.0 0.2344508705
C  C86  1  0.27160000  0.32416000  0.32194000  1.0 0.2344508705
C  C87  1  0.27160000  0.17584000  0.82194000  1.0 0.2344508705
C  C88  1  0.72840000  0.67584000  0.67806000  1.0 0.2344508705
C  C89  1  0.54150000  0.83075000  0.11530000  1.0 -0.195826492
C  C90  1  0.45850000  0.33075000  0.38470000  1.0 -0.195826492
C  C91  1  0.45850000  0.16925000  0.88470000  1.0 -0.195826492
C  C92  1  0.54150000  0.66925000  0.61530000  1.0 -0.195826492
C  C93  1  0.47230000  0.86576000  0.09410000  1.0 -0.0792197927
C  C94  1  0.52770000  0.36576000  0.40590000  1.0 -0.0792197927
C  C95  1  0.52770000  0.13424000  0.90590000  1.0 -0.0792197927
C  C96  1  0.47230000  0.63424000  0.59410000  1.0 -0.0792197927
N  N1  1  0.58380000  0.68725000  0.17273000  1.0 -0.5382179681
N  N2  1  0.41620000  0.18725000  0.32727000  1.0 -0.5382179681
N  N3  1  0.41620000  0.31275000  0.82727000  1.0 -0.5382179681
N  N4  1  0.58380000  0.81275000  0.67273000  1.0 -0.5382179681
N  N5  1  0.51390000  0.74966000  0.13856000  1.0 -0.5092773351
N  N6  1  0.48610000  0.24966000  0.36144000  1.0 -0.5092773351
N  N7  1  0.48610000  0.25034000  0.86144000  1.0 -0.5092773351
N  N8  1  0.51390000  0.75034000  0.63856000  1.0 -0.5092773351
N  N9  1  0.88070000  0.73151000  0.23080000  1.0 -0.5496270719
N  N10  1  0.11930000  0.23151000  0.26920000  1.0 -0.5496270719
N  N11  1  0.11930000  0.26849000  0.76920000  1.0 -0.5496270719
N  N12  1  0.88070000  0.76849000  0.73080000  1.0 -0.5496270719
N  N13  1  0.92850000  0.67319000  0.27156000  1.0 -0.3686354223
N  N14  1  0.07150000  0.17319000  0.22844000  1.0 -0.3686354223
N  N15  1  0.07150000  0.32681000  0.72844000  1.0 -0.3686354223
N  N16  1  0.92850000  0.82681000  0.77156000  1.0 -0.3686354223
N  N17  1  0.25440000  0.70262000  0.07872000  1.0 -0.3600960511
N  N18  1  0.74560000  0.20262000  0.42128000  1.0 -0.3600960511
N  N19  1  0.74560000  0.29738000  0.92128000  1.0 -0.3600960511
N  N20  1  0.25440000  0.79738000  0.57872000  1.0 -0.3600960511
N  N21  1  0.82120000  0.79028000  0.20371000  1.0 -0.3600960511
N  N22  1  0.17880000  0.29028000  0.29629000  1.0 -0.3600960511
N  N23  1  0.17880000  0.20972000  0.79629000  1.0 -0.3600960511
N  N24  1  0.82120000  0.70972000  0.70371000  1.0 -0.3600960511
O  O1  1  0.82540000  0.52243000  0.45587000  1.0 -0.7187601688
O  O2  1  0.17460000  0.02243000  0.04413000  1.0 -0.7187601688
O  O3  1  0.17460000  0.47757000  0.54413000  1.0 -0.7187601688
O  O4  1  0.82540000  0.97757000  0.95587000  1.0 -0.7187601688
O  O5  1  0.42710000  0.52328000  0.38792000  1.0 -0.6616472664
O  O6  1  0.57290000  0.02328000  0.11208000  1.0 -0.6616472664
O  O7  1  0.57290000  0.47672000  0.61208000  1.0 -0.6616472664
O  O8  1  0.42710000  0.97672000  0.88792000  1.0 -0.6616472664
O  O9  1  0.29590000  0.74317000  0.82379000  1.0 -0.4689833585
O  O10  1  0.70410000  0.24317000  0.67621000  1.0 -0.4689833585
O  O11  1  0.70410000  0.25683000  0.17621000  1.0 -0.4689833585
O  O12  1  0.29590000  0.75683000  0.32379000  1.0 -0.4689833585
O  O13  1  0.39760000  0.79898000  0.86671000  1.0 -0.4984429243
O  O14  1  0.60240000  0.29898000  0.63329000  1.0 -0.4984429243
O  O15  1  0.60240000  0.20102000  0.13329000  1.0 -0.4984429243
O  O16  1  0.39760000  0.70102000  0.36671000  1.0 -0.4984429243
O  O17  1  0.34480000  0.93852000  0.05504000  1.0 -0.5663414213
O  O18  1  0.65520000  0.43852000  0.44496000  1.0 -0.5663414213
O  O19  1  0.65520000  0.06148000  0.94496000  1.0 -0.5663414213
O  O20  1  0.34480000  0.56148000  0.55504000  1.0 -0.5663414213
O  O21  1  0.65020000  0.95673000  0.15166000  1.0 -0.442619628
O  O22  1  0.34980000  0.45673000  0.34834000  1.0 -0.442619628
O  O23  1  0.34980000  0.04327000  0.84834000  1.0 -0.442619628
O  O24  1  0.65020000  0.54327000  0.65166000  1.0 -0.442619628
