# DDEC6 charges by PACMAN v1.1 (https://github.com/mtap-research/PACMAN-charge/)
data_HOZXEB_ASR_pacman
_symmetry_space_group_name_H-M   'P 1'
_cell_length_a   19.32590000
_cell_length_b   19.32590000
_cell_length_c   13.77900000
_cell_angle_alpha   86.25210000
_cell_angle_beta   93.74790000
_cell_angle_gamma   40.85710000
_symmetry_Int_Tables_number   1
_chemical_formula_structural   Cd9H16C8(N4Cl)10
_chemical_formula_sum   'Cd18 H32 C16 N80 Cl20'
_cell_volume   3307.03124489
_cell_formula_units_Z   2
loop_
 _symmetry_equiv_pos_site_id
 _symmetry_equiv_pos_as_xyz
  1  'x, y, z'
loop_
 _atom_site_type_symbol
 _atom_site_label
 _atom_site_symmetry_multiplicity
 _atom_site_fract_x
 _atom_site_fract_y
 _atom_site_fract_z
 _atom_site_occupancy
 _atom_site_charge
Cd  Cd1  1  0.49871000  0.20029000  0.99481000  1.0 0.6628580882
Cd  Cd2  1  0.20029000  0.49871000  0.00519000  1.0 0.6654317731
Cd  Cd3  1  0.50129000  0.79971000  0.00519000  1.0 0.6654317731
Cd  Cd4  1  0.79971000  0.50129000  0.99481000  1.0 0.6654317731
Cd  Cd5  1  0.70104000  0.11580000  0.20613000  1.0 0.6654317731
Cd  Cd6  1  0.11580000  0.70104000  0.79387000  1.0 0.6628580882
Cd  Cd7  1  0.29896000  0.88420000  0.79387000  1.0 0.6628580882
Cd  Cd8  1  0.88420000  0.29896000  0.20613000  1.0 0.6654317731
Cd  Cd9  1  0.54666000  0.34816000  0.38320000  1.0 0.7467596227
Cd  Cd10  1  0.34816000  0.54666000  0.61680000  1.0 0.7467596227
Cd  Cd11  1  0.45334000  0.65184000  0.61680000  1.0 0.7467596227
Cd  Cd12  1  0.65184000  0.45334000  0.38320000  1.0 0.7467596227
Cd  Cd13  1  0.86275000  0.84205000  0.36309000  1.0 0.741377219
Cd  Cd14  1  0.84205000  0.86275000  0.63691000  1.0 0.741377219
Cd  Cd15  1  0.13725000  0.15795000  0.63691000  1.0 0.741377219
Cd  Cd16  1  0.15795000  0.13725000  0.36309000  1.0 0.741377219
Cd  Cd17  1  0.50000000  0.00000000  0.00000000  1.0 0.7467596227
Cd  Cd18  1  0.00000000  0.50000000  0.00000000  1.0 0.7467596227
H  H1  1  0.64190000  0.22130000  0.61230000  1.0 0.3011331552
H  H2  1  0.22130000  0.64190000  0.38770000  1.0 0.3011331552
H  H3  1  0.35810000  0.77870000  0.38770000  1.0 0.3011331552
H  H4  1  0.77870000  0.35810000  0.61230000  1.0 0.3011331552
H  H5  1  0.71140000  0.11320000  0.67110000  1.0 0.3094266139
H  H6  1  0.11320000  0.71140000  0.32890000  1.0 0.3094266139
H  H7  1  0.28860000  0.88680000  0.32890000  1.0 0.3094266139
H  H8  1  0.88680000  0.28860000  0.67110000  1.0 0.3094266139
H  H9  1  0.66190000  0.81430000  0.21900000  1.0 0.3094266139
H  H10  1  0.81430000  0.66190000  0.78100000  1.0 0.3094266139
H  H11  1  0.33810000  0.18570000  0.78100000  1.0 0.3094266139
H  H12  1  0.18570000  0.33810000  0.21900000  1.0 0.3094266139
H  H13  1  0.74370000  0.77990000  0.29810000  1.0 0.3156196257
H  H14  1  0.77990000  0.74370000  0.70190000  1.0 0.3156196257
H  H15  1  0.25630000  0.22010000  0.70190000  1.0 0.3094266139
H  H16  1  0.22010000  0.25630000  0.29810000  1.0 0.3156196257
H  H17  1  0.24620000  0.13460000  0.00350000  1.0 0.3156196257
H  H18  1  0.13460000  0.24620000  0.99650000  1.0 0.3156196257
H  H19  1  0.75380000  0.86540000  0.99650000  1.0 0.3156196257
H  H20  1  0.86540000  0.75380000  0.00350000  1.0 0.3156196257
H  H21  1  0.20470000  0.54390000  0.23280000  1.0 0.3094266139
H  H22  1  0.54390000  0.20470000  0.76720000  1.0 0.3094266139
H  H23  1  0.79530000  0.45610000  0.76720000  1.0 0.3094266139
H  H24  1  0.45610000  0.79530000  0.23280000  1.0 0.3094266139
H  H25  1  0.28260000  0.51420000  0.31350000  1.0 0.3011331552
H  H26  1  0.51420000  0.28260000  0.68650000  1.0 0.3011331552
H  H27  1  0.71740000  0.48580000  0.68650000  1.0 0.3011331552
H  H28  1  0.48580000  0.71740000  0.31350000  1.0 0.3011331552
H  H29  1  0.86950000  0.08950000  0.11780000  1.0 0.3094266139
H  H30  1  0.08950000  0.86950000  0.88220000  1.0 0.3094266139
H  H31  1  0.13050000  0.91050000  0.88220000  1.0 0.3094266139
H  H32  1  0.91050000  0.13050000  0.11780000  1.0 0.3094266139
C  C1  1  0.70070000  0.11410000  0.52870000  1.0 0.4879326293
C  C2  1  0.11410000  0.70070000  0.47130000  1.0 0.4879326293
C  C3  1  0.29930000  0.88590000  0.47130000  1.0 0.4879326293
C  C4  1  0.88590000  0.29930000  0.52870000  1.0 0.4879326293
C  C5  1  0.66600000  0.91160000  0.21120000  1.0 0.4814810568
C  C6  1  0.91160000  0.66600000  0.78880000  1.0 0.4814810568
C  C7  1  0.33400000  0.08840000  0.78880000  1.0 0.4814810568
C  C8  1  0.08840000  0.33400000  0.21120000  1.0 0.4814810568
C  C9  1  0.23930000  0.23930000  0.00000000  1.0 0.4970528179
C  C10  1  0.76070000  0.76070000  0.00000000  1.0 0.4970528179
C  C11  1  0.35490000  0.42030000  0.21280000  1.0 0.4814810568
C  C12  1  0.42030000  0.35490000  0.78720000  1.0 0.4814810568
C  C13  1  0.64510000  0.57970000  0.78720000  1.0 0.4814810568
C  C14  1  0.57970000  0.64510000  0.21280000  1.0 0.4814810568
C  C15  1  0.80500000  0.19500000  0.19600000  1.0 0.4814810568
C  C16  1  0.19500000  0.80500000  0.80400000  1.0 0.4814810568
N  N1  1  0.66120000  0.16880000  0.43760000  1.0 -0.2588363519
N  N2  1  0.16880000  0.66120000  0.56240000  1.0 -0.2588363519
N  N3  1  0.33880000  0.83120000  0.56240000  1.0 -0.2588363519
N  N4  1  0.83120000  0.33880000  0.43760000  1.0 -0.2588363519
N  N5  1  0.69780000  0.09920000  0.37970000  1.0 -0.0293060708
N  N6  1  0.09920000  0.69780000  0.62030000  1.0 -0.0293060708
N  N7  1  0.30220000  0.90080000  0.62030000  1.0 -0.0293060708
N  N8  1  0.90080000  0.30220000  0.37970000  1.0 -0.0293060708
N  N9  1  0.76110000  0.00250000  0.42720000  1.0 -0.0293060708
N  N10  1  0.00250000  0.76110000  0.57280000  1.0 -0.0293060708
N  N11  1  0.23890000  0.99750000  0.57280000  1.0 -0.0293060708
N  N12  1  0.99750000  0.23890000  0.42720000  1.0 -0.0293060708
N  N13  1  0.76070000  0.01010000  0.52370000  1.0 -0.2696979797
N  N14  1  0.01010000  0.76070000  0.47630000  1.0 -0.2696979797
N  N15  1  0.23930000  0.98990000  0.47630000  1.0 -0.2696979797
N  N16  1  0.98990000  0.23930000  0.52370000  1.0 -0.2696979797
N  N17  1  0.68240000  0.15460000  0.61490000  1.0 -0.6149383789
N  N18  1  0.15460000  0.68240000  0.38510000  1.0 -0.6200556165
N  N19  1  0.31760000  0.84540000  0.38510000  1.0 -0.6149383789
N  N20  1  0.84540000  0.31760000  0.61490000  1.0 -0.6200556165
N  N21  1  0.70840000  0.93580000  0.25530000  1.0 -0.2983984916
N  N22  1  0.93580000  0.70840000  0.74470000  1.0 -0.2983984916
N  N23  1  0.29160000  0.06420000  0.74470000  1.0 -0.2983984916
N  N24  1  0.06420000  0.29160000  0.25530000  1.0 -0.2983984916
N  N25  1  0.65980000  0.02780000  0.19850000  1.0 -0.0377356509
N  N26  1  0.02780000  0.65980000  0.80150000  1.0 -0.0377356509
N  N27  1  0.34020000  0.97220000  0.80150000  1.0 -0.0377356509
N  N28  1  0.97220000  0.34020000  0.19850000  1.0 -0.0377356509
N  N29  1  0.58750000  0.05810000  0.12840000  1.0 -0.0293060708
N  N30  1  0.05810000  0.58750000  0.87160000  1.0 -0.0293060708
N  N31  1  0.41250000  0.94190000  0.87160000  1.0 -0.0293060708
N  N32  1  0.94190000  0.41250000  0.12840000  1.0 -0.0293060708
N  N33  1  0.59160000  0.98680000  0.13420000  1.0 -0.2857065207
N  N34  1  0.98680000  0.59160000  0.86580000  1.0 -0.2857065207
N  N35  1  0.40840000  0.01320000  0.86580000  1.0 -0.2828008141
N  N36  1  0.01320000  0.40840000  0.13420000  1.0 -0.2828008141
N  N37  1  0.69390000  0.82470000  0.24710000  1.0 -0.5991039431
N  N38  1  0.82470000  0.69390000  0.75290000  1.0 -0.5991039431
N  N39  1  0.30610000  0.17530000  0.75290000  1.0 -0.5991039431
N  N40  1  0.17530000  0.30610000  0.24710000  1.0 -0.5991039431
N  N41  1  0.34210000  0.18070000  0.00500000  1.0 -0.3239288709
N  N42  1  0.18070000  0.34210000  0.99500000  1.0 -0.3239288709
N  N43  1  0.65790000  0.81930000  0.99500000  1.0 -0.3239288709
N  N44  1  0.81930000  0.65790000  0.00500000  1.0 -0.3239288709
N  N45  1  0.34350000  0.25010000  0.00490000  1.0 -0.0293060708
N  N46  1  0.25010000  0.34350000  0.99510000  1.0 -0.0293060708
N  N47  1  0.65650000  0.74990000  0.99510000  1.0 -0.0293060708
N  N48  1  0.74990000  0.65650000  0.00490000  1.0 -0.0293060708
N  N49  1  0.20220000  0.20220000  0.00000000  1.0 -0.6200556165
N  N50  1  0.79780000  0.79780000  0.00000000  1.0 -0.6200556165
N  N51  1  0.34350000  0.39910000  0.13280000  1.0 -0.2983984916
N  N52  1  0.39910000  0.34350000  0.86720000  1.0 -0.2983984916
N  N53  1  0.65650000  0.60090000  0.86720000  1.0 -0.2983984916
N  N54  1  0.60090000  0.65650000  0.13280000  1.0 -0.2983984916
N  N55  1  0.44610000  0.30730000  0.11590000  1.0 -0.0586272521
N  N56  1  0.30730000  0.44610000  0.88410000  1.0 -0.0586272521
N  N57  1  0.55390000  0.69270000  0.88410000  1.0 -0.0586272521
N  N58  1  0.69270000  0.55390000  0.11590000  1.0 -0.0586272521
N  N59  1  0.51230000  0.27910000  0.19220000  1.0 -0.0293060708
N  N60  1  0.27910000  0.51230000  0.80780000  1.0 -0.0293060708
N  N61  1  0.48770000  0.72090000  0.80780000  1.0 -0.0293060708
N  N62  1  0.72090000  0.48770000  0.19220000  1.0 -0.0293060708
N  N63  1  0.45740000  0.35020000  0.25480000  1.0 -0.2828008141
N  N64  1  0.35020000  0.45740000  0.74520000  1.0 -0.2828008141
N  N65  1  0.54260000  0.64980000  0.74520000  1.0 -0.2828008141
N  N66  1  0.64980000  0.54260000  0.25480000  1.0 -0.2828008141
N  N67  1  0.26980000  0.50360000  0.25900000  1.0 -0.6290981776
N  N68  1  0.50360000  0.26980000  0.74100000  1.0 -0.6290981776
N  N69  1  0.73020000  0.49640000  0.74100000  1.0 -0.6290981776
N  N70  1  0.49640000  0.73020000  0.25900000  1.0 -0.6290981776
N  N71  1  0.73510000  0.20510000  0.22420000  1.0 -0.3096195987
N  N72  1  0.20510000  0.73510000  0.77580000  1.0 -0.3096195987
N  N73  1  0.26490000  0.79490000  0.77580000  1.0 -0.3096195987
N  N74  1  0.79490000  0.26490000  0.22420000  1.0 -0.3096195987
N  N75  1  0.67560000  0.28800000  0.27610000  1.0 -0.0293060708
N  N76  1  0.28800000  0.67560000  0.72390000  1.0 -0.0293060708
N  N77  1  0.32440000  0.71200000  0.72390000  1.0 -0.0293060708
N  N78  1  0.71200000  0.32440000  0.27610000  1.0 -0.0293060708
N  N79  1  0.87300000  0.12700000  0.13800000  1.0 -0.5991039431
N  N80  1  0.12700000  0.87300000  0.86200000  1.0 -0.5991039431
Cl  Cl1  1  0.41137000  0.41137000  0.50000000  1.0 -0.4794365273
Cl  Cl2  1  0.58863000  0.58863000  0.50000000  1.0 -0.4794365273
Cl  Cl3  1  0.66910000  0.14570000  0.01510000  1.0 -0.4794365273
Cl  Cl4  1  0.14570000  0.66910000  0.98490000  1.0 -0.4794365273
Cl  Cl5  1  0.33090000  0.85430000  0.98490000  1.0 -0.4794365273
Cl  Cl6  1  0.85430000  0.33090000  0.01510000  1.0 -0.4794365273
Cl  Cl7  1  0.89990000  0.92250000  0.24050000  1.0 -0.5280643469
Cl  Cl8  1  0.92250000  0.89990000  0.75950000  1.0 -0.5233338282
Cl  Cl9  1  0.10010000  0.07750000  0.75950000  1.0 -0.5233338282
Cl  Cl10  1  0.07750000  0.10010000  0.24050000  1.0 -0.5233338282
Cl  Cl11  1  0.65890000  0.34110000  0.50850000  1.0 -0.4384561336
Cl  Cl12  1  0.34110000  0.65890000  0.49150000  1.0 -0.4384561336
Cl  Cl13  1  0.54610000  0.07030000  0.88390000  1.0 -0.5280643469
Cl  Cl14  1  0.07030000  0.54610000  0.11610000  1.0 -0.5280643469
Cl  Cl15  1  0.45390000  0.92970000  0.11610000  1.0 -0.5280643469
Cl  Cl16  1  0.92970000  0.45390000  0.88390000  1.0 -0.5280643469
Cl  Cl17  1  0.80202000  0.80202000  0.50000000  1.0 -0.5126945084
Cl  Cl18  1  0.19798000  0.19798000  0.50000000  1.0 -0.5126945084
Cl  Cl19  1  0.45230000  0.54770000  0.29970000  1.0 -0.5991039431
Cl  Cl20  1  0.54770000  0.45230000  0.70030000  1.0 -0.5991039431
