# DDEC6 charges by PACMAN v1.1 (https://github.com/mtap-research/PACMAN-charge/)
data_HUCBEN_FSR_pacman
_symmetry_space_group_name_H-M   'P 1'
_cell_length_a   18.91210000
_cell_length_b   18.91210000
_cell_length_c   10.10590000
_cell_angle_alpha   74.86980000
_cell_angle_beta   105.13000000
_cell_angle_gamma   149.87900000
_symmetry_Int_Tables_number   1
_chemical_formula_structural   InH18(C4O)8
_chemical_formula_sum   'In2 H36 C64 O16'
_cell_volume   1746.36523207
_cell_formula_units_Z   2
loop_
 _symmetry_equiv_pos_site_id
 _symmetry_equiv_pos_as_xyz
  1  'x, y, z'
loop_
 _atom_site_type_symbol
 _atom_site_label
 _atom_site_symmetry_multiplicity
 _atom_site_fract_x
 _atom_site_fract_y
 _atom_site_fract_z
 _atom_site_occupancy
 _atom_site_charge
In  In1  1  0.89212000  0.10788000  0.06605000  1.0 1.3511495254
In  In2  1  0.10788000  0.89212000  0.93395000  1.0 1.3511495254
H  H1  1  0.39310000  0.60690000  0.06370000  1.0 0.1375543934
H  H2  1  0.28890000  0.30290000  0.15770000  1.0 0.1307954253
H  H3  1  0.69710000  0.71110000  0.15770000  1.0 0.1307954253
H  H4  1  0.34460000  0.24300000  0.21220000  1.0 0.1211018288
H  H5  1  0.75700000  0.65540000  0.21220000  1.0 0.1211018288
H  H6  1  0.41320000  0.17860000  0.27490000  1.0 0.1211018288
H  H7  1  0.82140000  0.58680000  0.27490000  1.0 0.1211018288
H  H8  1  0.84560000  0.49880000  0.44860000  1.0 0.1053985319
H  H9  1  0.50120000  0.15440000  0.44860000  1.0 0.1053985319
H  H10  1  0.90270000  0.42510000  0.52450000  1.0 0.0978653468
H  H11  1  0.57490000  0.09730000  0.52450000  1.0 0.0978653468
H  H12  1  0.79140000  0.20860000  0.66920000  1.0 0.1307954253
H  H13  1  0.89460000  0.10540000  0.59060000  1.0 0.1375543934
H  H14  1  0.79840000  0.20160000  0.27700000  1.0 0.1375543934
H  H15  1  0.52960000  0.18020000  0.18970000  1.0 0.1211018288
H  H16  1  0.81980000  0.47040000  0.18970000  1.0 0.1211018288
H  H17  1  0.58670000  0.10390000  0.27520000  1.0 0.0978653468
H  H18  1  0.89610000  0.41330000  0.27520000  1.0 0.0978653468
H  H19  1  0.60690000  0.39310000  0.93630000  1.0 0.1375543934
H  H20  1  0.30290000  0.28890000  0.84230000  1.0 0.1307954253
H  H21  1  0.71110000  0.69710000  0.84230000  1.0 0.1307954253
H  H22  1  0.24300000  0.34460000  0.78780000  1.0 0.1211018288
H  H23  1  0.65540000  0.75700000  0.78780000  1.0 0.1211018288
H  H24  1  0.17860000  0.41320000  0.72510000  1.0 0.1211018288
H  H25  1  0.58680000  0.82140000  0.72510000  1.0 0.1211018288
H  H26  1  0.49880000  0.84560000  0.55140000  1.0 0.1053985319
H  H27  1  0.15440000  0.50120000  0.55140000  1.0 0.1053985319
H  H28  1  0.42510000  0.90270000  0.47550000  1.0 0.0978653468
H  H29  1  0.09730000  0.57490000  0.47550000  1.0 0.0978653468
H  H30  1  0.20860000  0.79140000  0.33080000  1.0 0.1307954253
H  H31  1  0.10540000  0.89460000  0.40940000  1.0 0.1375543934
H  H32  1  0.20160000  0.79840000  0.72300000  1.0 0.1375543934
H  H33  1  0.18020000  0.52960000  0.81030000  1.0 0.1211018288
H  H34  1  0.47040000  0.81980000  0.81030000  1.0 0.1211018288
H  H35  1  0.10390000  0.58670000  0.72480000  1.0 0.0978653468
H  H36  1  0.41330000  0.89610000  0.72480000  1.0 0.0978653468
C  C1  1  0.16680000  0.32640000  0.09490000  1.0 0.5314678959
C  C2  1  0.67360000  0.83320000  0.09490000  1.0 0.5314678959
C  C3  1  0.32090000  0.43910000  0.11280000  1.0 0.003750397
C  C4  1  0.56090000  0.67910000  0.11280000  1.0 0.003750397
C  C5  1  0.42010000  0.57990000  0.09140000  1.0 -0.1077992433
C  C6  1  0.36020000  0.40040000  0.14770000  1.0 -0.1463176497
C  C7  1  0.59960000  0.63980000  0.14770000  1.0 -0.1463176497
C  C8  1  0.50080000  0.49920000  0.16870000  1.0 0.0707513075
C  C9  1  0.54330000  0.45670000  0.20540000  1.0 0.0707513075
C  C10  1  0.44220000  0.31420000  0.22420000  1.0 -0.1276796498
C  C11  1  0.68580000  0.55780000  0.22420000  1.0 -0.1276796498
C  C12  1  0.48320000  0.27580000  0.26060000  1.0 -0.1379647293
C  C13  1  0.72420000  0.51680000  0.26060000  1.0 -0.1379647293
C  C14  1  0.62330000  0.37670000  0.27570000  1.0 0.0611847055
C  C15  1  0.66570000  0.33430000  0.32380000  1.0 0.0611847055
C  C16  1  0.78010000  0.40830000  0.42390000  1.0 -0.0727121409
C  C17  1  0.59170000  0.21990000  0.42390000  1.0 -0.0727121409
C  C18  1  0.81710000  0.36750000  0.46860000  1.0 -0.0727121409
C  C19  1  0.63250000  0.18290000  0.46860000  1.0 -0.0727121409
C  C20  1  0.74550000  0.25450000  0.41470000  1.0 0.0448469184
C  C21  1  0.78860000  0.21140000  0.46610000  1.0 0.0611847055
C  C22  1  0.80610000  0.19390000  0.60490000  1.0 -0.16645303
C  C23  1  0.84610000  0.15390000  0.65070000  1.0 -0.0282861293
C  C24  1  0.86760000  0.13240000  0.55840000  1.0 -0.1169409492
C  C25  1  0.85010000  0.14990000  0.41770000  1.0 0.003750397
C  C26  1  0.81060000  0.18940000  0.37280000  1.0 -0.1617784836
C  C27  1  0.86340000  0.13660000  0.79970000  1.0 0.5371390245
C  C28  1  0.87310000  0.12690000  0.31580000  1.0 0.563852813
C  C29  1  0.60190000  0.22650000  0.26300000  1.0 -0.0537807672
C  C30  1  0.77350000  0.39810000  0.26300000  1.0 -0.0537807672
C  C31  1  0.63730000  0.18390000  0.30970000  1.0 -0.0727121409
C  C32  1  0.81610000  0.36270000  0.30970000  1.0 -0.0727121409
C  C33  1  0.32640000  0.16680000  0.90510000  1.0 0.5314678959
C  C34  1  0.83320000  0.67360000  0.90510000  1.0 0.5314678959
C  C35  1  0.43910000  0.32090000  0.88720000  1.0 0.003750397
C  C36  1  0.67910000  0.56090000  0.88720000  1.0 0.003750397
C  C37  1  0.57990000  0.42010000  0.90860000  1.0 -0.1077992433
C  C38  1  0.40040000  0.36020000  0.85230000  1.0 -0.1463176497
C  C39  1  0.63980000  0.59960000  0.85230000  1.0 -0.1463176497
C  C40  1  0.49920000  0.50080000  0.83130000  1.0 0.0707513075
C  C41  1  0.45670000  0.54330000  0.79460000  1.0 0.0707513075
C  C42  1  0.31420000  0.44220000  0.77580000  1.0 -0.1276796498
C  C43  1  0.55780000  0.68580000  0.77580000  1.0 -0.1276796498
C  C44  1  0.27580000  0.48320000  0.73940000  1.0 -0.1379647293
C  C45  1  0.51680000  0.72420000  0.73940000  1.0 -0.1379647293
C  C46  1  0.37670000  0.62330000  0.72430000  1.0 0.0611847055
C  C47  1  0.33430000  0.66570000  0.67620000  1.0 0.0611847055
C  C48  1  0.40830000  0.78010000  0.57610000  1.0 -0.0727121409
C  C49  1  0.21990000  0.59170000  0.57610000  1.0 -0.0727121409
C  C50  1  0.36750000  0.81710000  0.53140000  1.0 -0.0727121409
C  C51  1  0.18290000  0.63250000  0.53140000  1.0 -0.0727121409
C  C52  1  0.25450000  0.74550000  0.58530000  1.0 0.0448469184
C  C53  1  0.21140000  0.78860000  0.53390000  1.0 0.0611847055
C  C54  1  0.19390000  0.80610000  0.39510000  1.0 -0.16645303
C  C55  1  0.15390000  0.84610000  0.34930000  1.0 -0.0282861293
C  C56  1  0.13240000  0.86760000  0.44160000  1.0 -0.1169409492
C  C57  1  0.14990000  0.85010000  0.58230000  1.0 0.003750397
C  C58  1  0.18940000  0.81060000  0.62720000  1.0 -0.1617784836
C  C59  1  0.13660000  0.86340000  0.20030000  1.0 0.5371390245
C  C60  1  0.12690000  0.87310000  0.68420000  1.0 0.563852813
C  C61  1  0.22650000  0.60190000  0.73700000  1.0 -0.0537807672
C  C62  1  0.39810000  0.77350000  0.73700000  1.0 -0.0537807672
C  C63  1  0.18390000  0.63730000  0.69030000  1.0 -0.0727121409
C  C64  1  0.36270000  0.81610000  0.69030000  1.0 -0.0727121409
O  O1  1  0.08139000  0.20121000  0.12270000  1.0 -0.4915522325
O  O2  1  0.79879000  0.91861000  0.12270000  1.0 -0.4915522325
O  O3  1  0.12226000  0.35134000  0.05230000  1.0 -0.5022072531
O  O4  1  0.64866000  0.87774000  0.05230000  1.0 -0.5022072531
O  O5  1  0.90000000  0.10000000  0.84860000  1.0 -0.5458408334
O  O6  1  0.84290000  0.15710000  0.88290000  1.0 -0.5136148073
O  O7  1  0.85400000  0.14600000  0.18910000  1.0 -0.5426077583
O  O8  1  0.90790000  0.09210000  0.35350000  1.0 -0.4915522325
O  O9  1  0.20121000  0.08139000  0.87730000  1.0 -0.4915522325
O  O10  1  0.91861000  0.79879000  0.87730000  1.0 -0.4915522325
O  O11  1  0.35134000  0.12226000  0.94770000  1.0 -0.5022072531
O  O12  1  0.87774000  0.64866000  0.94770000  1.0 -0.5022072531
O  O13  1  0.10000000  0.90000000  0.15140000  1.0 -0.5458408334
O  O14  1  0.15710000  0.84290000  0.11710000  1.0 -0.5136148073
O  O15  1  0.14600000  0.85400000  0.81090000  1.0 -0.5426077583
O  O16  1  0.09210000  0.90790000  0.64650000  1.0 -0.4915522325
