# DDEC6 charges by PACMAN v1.1 (https://github.com/mtap-research/PACMAN-charge/)
data_HUCSEF_ASR_pacman
_symmetry_space_group_name_H-M   'P 1'
_cell_length_a   19.21870000
_cell_length_b   19.21870000
_cell_length_c   19.21870000
_cell_angle_alpha   120.94000000
_cell_angle_beta   120.94000000
_cell_angle_gamma   88.37940000
_symmetry_Int_Tables_number   1
_chemical_formula_structural   CuH15C15O4
_chemical_formula_sum   'Cu8 H120 C120 O32'
_cell_volume   4945.99790540
_cell_formula_units_Z   8
loop_
 _symmetry_equiv_pos_site_id
 _symmetry_equiv_pos_as_xyz
  1  'x, y, z'
loop_
 _atom_site_type_symbol
 _atom_site_label
 _atom_site_symmetry_multiplicity
 _atom_site_fract_x
 _atom_site_fract_y
 _atom_site_fract_z
 _atom_site_occupancy
 _atom_site_charge
Cu  Cu1  1  0.49375000  0.49375000  0.56232000  1.0 0.8539764234
Cu  Cu2  1  0.49375000  0.93143000  0.00000000  1.0 0.8539764234
Cu  Cu3  1  0.93143000  0.93143000  0.43768000  1.0 0.8539764234
Cu  Cu4  1  0.93143000  0.49375000  0.00000000  1.0 0.8539764234
Cu  Cu5  1  0.50625000  0.06857000  0.00000000  1.0 0.8539764234
Cu  Cu6  1  0.06857000  0.06857000  0.56232000  1.0 0.8539764234
Cu  Cu7  1  0.06857000  0.50625000  0.00000000  1.0 0.8539764234
Cu  Cu8  1  0.50625000  0.50625000  0.43768000  1.0 0.8539764234
H  H1  1  0.61350000  0.77970000  0.62120000  1.0 0.1406590316
H  H2  1  0.77970000  0.15850000  0.16620000  1.0 0.1406590316
H  H3  1  0.15850000  0.99230000  0.37880000  1.0 0.1406590316
H  H4  1  0.99230000  0.61350000  0.83380000  1.0 0.1406590316
H  H5  1  0.38650000  0.00770000  0.16620000  1.0 0.1406590316
H  H6  1  0.00770000  0.84150000  0.62120000  1.0 0.1406590316
H  H7  1  0.84150000  0.22030000  0.83380000  1.0 0.1406590316
H  H8  1  0.22030000  0.38650000  0.37880000  1.0 0.1406590316
H  H9  1  0.38650000  0.22030000  0.37880000  1.0 0.1406590316
H  H10  1  0.22030000  0.84150000  0.83380000  1.0 0.1406590316
H  H11  1  0.84150000  0.00770000  0.62120000  1.0 0.1406590316
H  H12  1  0.00770000  0.38650000  0.16620000  1.0 0.1406590316
H  H13  1  0.61350000  0.99230000  0.83380000  1.0 0.1406590316
H  H14  1  0.99230000  0.15850000  0.37880000  1.0 0.1406590316
H  H15  1  0.15850000  0.77970000  0.16620000  1.0 0.1406590316
H  H16  1  0.77970000  0.61350000  0.62120000  1.0 0.1406590316
H  H17  1  0.50760000  0.75990000  0.74770000  1.0 0.1406590316
H  H18  1  0.75990000  0.01220000  0.25230000  1.0 0.1406590316
H  H19  1  0.01220000  0.75990000  0.25230000  1.0 0.1406590316
H  H20  1  0.75990000  0.50760000  0.74770000  1.0 0.1406590316
H  H21  1  0.49240000  0.24010000  0.25230000  1.0 0.1406590316
H  H22  1  0.24010000  0.98780000  0.74770000  1.0 0.1406590316
H  H23  1  0.98780000  0.24010000  0.74770000  1.0 0.1406590316
H  H24  1  0.24010000  0.49240000  0.25230000  1.0 0.1406590316
H  H25  1  0.86700000  0.91850000  0.85090000  1.0 0.0737504759
H  H26  1  0.91850000  0.06760000  0.05150000  1.0 0.0737504759
H  H27  1  0.06760000  0.01610000  0.14910000  1.0 0.0737504759
H  H28  1  0.01610000  0.86700000  0.94850000  1.0 0.0737504759
H  H29  1  0.13300000  0.98390000  0.05150000  1.0 0.0737504759
H  H30  1  0.98390000  0.93240000  0.85090000  1.0 0.0737504759
H  H31  1  0.93240000  0.08150000  0.94850000  1.0 0.0737504759
H  H32  1  0.08150000  0.13300000  0.14910000  1.0 0.0737504759
H  H33  1  0.13300000  0.08150000  0.14910000  1.0 0.0737504759
H  H34  1  0.08150000  0.93240000  0.94850000  1.0 0.0737504759
H  H35  1  0.93240000  0.98390000  0.85090000  1.0 0.0737504759
H  H36  1  0.98390000  0.13300000  0.05150000  1.0 0.0737504759
H  H37  1  0.86700000  0.01610000  0.94850000  1.0 0.0737504759
H  H38  1  0.01610000  0.06760000  0.14910000  1.0 0.0737504759
H  H39  1  0.06760000  0.91850000  0.05150000  1.0 0.0737504759
H  H40  1  0.91850000  0.86700000  0.85090000  1.0 0.0737504759
H  H41  1  0.78350000  0.86570000  0.82020000  1.0 0.1127277934
H  H42  1  0.86570000  0.04550000  0.08220000  1.0 0.1127277934
H  H43  1  0.04550000  0.96330000  0.17980000  1.0 0.1127277934
H  H44  1  0.96330000  0.78350000  0.91780000  1.0 0.1127277934
H  H45  1  0.21650000  0.03670000  0.08220000  1.0 0.1127277934
H  H46  1  0.03670000  0.95450000  0.82020000  1.0 0.1127277934
H  H47  1  0.95450000  0.13430000  0.91780000  1.0 0.1127277934
H  H48  1  0.13430000  0.21650000  0.17980000  1.0 0.1127277934
H  H49  1  0.21650000  0.13430000  0.17980000  1.0 0.1127277934
H  H50  1  0.13430000  0.95450000  0.91780000  1.0 0.1127277934
H  H51  1  0.95450000  0.03670000  0.82020000  1.0 0.1127277934
H  H52  1  0.03670000  0.21650000  0.08220000  1.0 0.1127277934
H  H53  1  0.78350000  0.96330000  0.91780000  1.0 0.1127277934
H  H54  1  0.96330000  0.04550000  0.17980000  1.0 0.1127277934
H  H55  1  0.04550000  0.86570000  0.08220000  1.0 0.1127277934
H  H56  1  0.86570000  0.78350000  0.82020000  1.0 0.1127277934
H  H57  1  0.77700000  0.91040000  0.76900000  1.0 0.0896203616
H  H58  1  0.91040000  0.14140000  0.13340000  1.0 0.0896203616
H  H59  1  0.14140000  0.00800000  0.23100000  1.0 0.0896203616
H  H60  1  0.00800000  0.77700000  0.86660000  1.0 0.0896203616
H  H61  1  0.22300000  0.99200000  0.13340000  1.0 0.0896203616
H  H62  1  0.99200000  0.85860000  0.76900000  1.0 0.0896203616
H  H63  1  0.85860000  0.08960000  0.86660000  1.0 0.0896203616
H  H64  1  0.08960000  0.22300000  0.23100000  1.0 0.0896203616
H  H65  1  0.22300000  0.08960000  0.23100000  1.0 0.0896203616
H  H66  1  0.08960000  0.85860000  0.86660000  1.0 0.0896203616
H  H67  1  0.85860000  0.99200000  0.76900000  1.0 0.0896203616
H  H68  1  0.99200000  0.22300000  0.13340000  1.0 0.0896203616
H  H69  1  0.77700000  0.00800000  0.86660000  1.0 0.0896203616
H  H70  1  0.00800000  0.14140000  0.23100000  1.0 0.0896203616
H  H71  1  0.14140000  0.91040000  0.13340000  1.0 0.0896203616
H  H72  1  0.91040000  0.77700000  0.76900000  1.0 0.0896203616
H  H73  1  0.52560000  0.92280000  0.51080000  1.0 0.0896203616
H  H74  1  0.92280000  0.41200000  0.39720000  1.0 0.0896203616
H  H75  1  0.41200000  0.01480000  0.48920000  1.0 0.0896203616
H  H76  1  0.01480000  0.52560000  0.60280000  1.0 0.0896203616
H  H77  1  0.47440000  0.98520000  0.39720000  1.0 0.0896203616
H  H78  1  0.98520000  0.58800000  0.51080000  1.0 0.0896203616
H  H79  1  0.58800000  0.07720000  0.60280000  1.0 0.0896203616
H  H80  1  0.07720000  0.47440000  0.48920000  1.0 0.0896203616
H  H81  1  0.47440000  0.07720000  0.48920000  1.0 0.0896203616
H  H82  1  0.07720000  0.58800000  0.60280000  1.0 0.0896203616
H  H83  1  0.58800000  0.98520000  0.51080000  1.0 0.0896203616
H  H84  1  0.98520000  0.47440000  0.39720000  1.0 0.0896203616
H  H85  1  0.52560000  0.01480000  0.60280000  1.0 0.0896203616
H  H86  1  0.01480000  0.41200000  0.48920000  1.0 0.0896203616
H  H87  1  0.41200000  0.92280000  0.39720000  1.0 0.0896203616
H  H88  1  0.92280000  0.52560000  0.51080000  1.0 0.0896203616
H  H89  1  0.50030000  0.86930000  0.53900000  1.0 0.1187163316
H  H90  1  0.86930000  0.33030000  0.36900000  1.0 0.1187163316
H  H91  1  0.33030000  0.96130000  0.46100000  1.0 0.1187163316
H  H92  1  0.96130000  0.50030000  0.63100000  1.0 0.1187163316
H  H93  1  0.49970000  0.03870000  0.36900000  1.0 0.1187163316
H  H94  1  0.03870000  0.66970000  0.53900000  1.0 0.1187163316
H  H95  1  0.66970000  0.13070000  0.63100000  1.0 0.1187163316
H  H96  1  0.13070000  0.49970000  0.46100000  1.0 0.1187163316
H  H97  1  0.49970000  0.13070000  0.46100000  1.0 0.1187163316
H  H98  1  0.13070000  0.66970000  0.63100000  1.0 0.1187163316
H  H99  1  0.66970000  0.03870000  0.53900000  1.0 0.1187163316
H  H100  1  0.03870000  0.49970000  0.36900000  1.0 0.1187163316
H  H101  1  0.50030000  0.96130000  0.63100000  1.0 0.1187163316
H  H102  1  0.96130000  0.33030000  0.46100000  1.0 0.1187163316
H  H103  1  0.33030000  0.86930000  0.36900000  1.0 0.1187163316
H  H104  1  0.86930000  0.50030000  0.53900000  1.0 0.1187163316
H  H105  1  0.59710000  0.91280000  0.59230000  1.0 0.0896203616
H  H106  1  0.91280000  0.32050000  0.31570000  1.0 0.0896203616
H  H107  1  0.32050000  0.00480000  0.40770000  1.0 0.0896203616
H  H108  1  0.00480000  0.59710000  0.68430000  1.0 0.0896203616
H  H109  1  0.40290000  0.99520000  0.31570000  1.0 0.0896203616
H  H110  1  0.99520000  0.67950000  0.59230000  1.0 0.0896203616
H  H111  1  0.67950000  0.08720000  0.68430000  1.0 0.0896203616
H  H112  1  0.08720000  0.40290000  0.40770000  1.0 0.0896203616
H  H113  1  0.40290000  0.08720000  0.40770000  1.0 0.0896203616
H  H114  1  0.08720000  0.67950000  0.68430000  1.0 0.0896203616
H  H115  1  0.67950000  0.99520000  0.59230000  1.0 0.0896203616
H  H116  1  0.99520000  0.40290000  0.31570000  1.0 0.0896203616
H  H117  1  0.59710000  0.00480000  0.68430000  1.0 0.0896203616
H  H118  1  0.00480000  0.32050000  0.40770000  1.0 0.0896203616
H  H119  1  0.32050000  0.91280000  0.31570000  1.0 0.0896203616
H  H120  1  0.91280000  0.59710000  0.59230000  1.0 0.0896203616
C  C1  1  0.53004000  0.65834000  0.60210000  1.0 0.5637519681
C  C2  1  0.65834000  0.05624000  0.12830000  1.0 0.5637519681
C  C3  1  0.05624000  0.92794000  0.39790000  1.0 0.5637519681
C  C4  1  0.92794000  0.53004000  0.87170000  1.0 0.5637519681
C  C5  1  0.46996000  0.07206000  0.12830000  1.0 0.5637519681
C  C6  1  0.07206000  0.94376000  0.60210000  1.0 0.5637519681
C  C7  1  0.94376000  0.34166000  0.87170000  1.0 0.5637519681
C  C8  1  0.34166000  0.46996000  0.39790000  1.0 0.5637519681
C  C9  1  0.46996000  0.34166000  0.39790000  1.0 0.5637519681
C  C10  1  0.34166000  0.94376000  0.87170000  1.0 0.5637519681
C  C11  1  0.94376000  0.07206000  0.60210000  1.0 0.5637519681
C  C12  1  0.07206000  0.46996000  0.12830000  1.0 0.5637519681
C  C13  1  0.53004000  0.92794000  0.87170000  1.0 0.5637519681
C  C14  1  0.92794000  0.05624000  0.39790000  1.0 0.5637519681
C  C15  1  0.05624000  0.65834000  0.12830000  1.0 0.5637519681
C  C16  1  0.65834000  0.53004000  0.60210000  1.0 0.5637519681
C  C17  1  0.55505000  0.75395000  0.67270000  1.0 0.0005684198
C  C18  1  0.75395000  0.08125000  0.19890000  1.0 0.0005684198
C  C19  1  0.08125000  0.88235000  0.32730000  1.0 0.0005684198
C  C20  1  0.88235000  0.55505000  0.80110000  1.0 0.0005684198
C  C21  1  0.44495000  0.11765000  0.19890000  1.0 0.0005684198
C  C22  1  0.11765000  0.91875000  0.67270000  1.0 0.0005684198
C  C23  1  0.91875000  0.24605000  0.80110000  1.0 0.0005684198
C  C24  1  0.24605000  0.44495000  0.32730000  1.0 0.0005684198
C  C25  1  0.44495000  0.24605000  0.32730000  1.0 0.0005684198
C  C26  1  0.24605000  0.91875000  0.80110000  1.0 0.0005684198
C  C27  1  0.91875000  0.11765000  0.67270000  1.0 0.0005684198
C  C28  1  0.11765000  0.44495000  0.19890000  1.0 0.0005684198
C  C29  1  0.55505000  0.88235000  0.80110000  1.0 0.0005684198
C  C30  1  0.88235000  0.08125000  0.32730000  1.0 0.0005684198
C  C31  1  0.08125000  0.75395000  0.19890000  1.0 0.0005684198
C  C32  1  0.75395000  0.55505000  0.67270000  1.0 0.0005684198
C  C33  1  0.59952000  0.80502000  0.66650000  1.0 -0.1884817899
C  C34  1  0.80502000  0.13852000  0.20550000  1.0 -0.1884817899
C  C35  1  0.13852000  0.93302000  0.33350000  1.0 -0.1884817899
C  C36  1  0.93302000  0.59952000  0.79450000  1.0 -0.1884817899
C  C37  1  0.40048000  0.06698000  0.20550000  1.0 -0.1884817899
C  C38  1  0.06698000  0.86148000  0.66650000  1.0 -0.1884817899
C  C39  1  0.86148000  0.19498000  0.79450000  1.0 -0.1884817899
C  C40  1  0.19498000  0.40048000  0.33350000  1.0 -0.1884817899
C  C41  1  0.40048000  0.19498000  0.33350000  1.0 -0.1884817899
C  C42  1  0.19498000  0.86148000  0.79450000  1.0 -0.1884817899
C  C43  1  0.86148000  0.06698000  0.66650000  1.0 -0.1884817899
C  C44  1  0.06698000  0.40048000  0.20550000  1.0 -0.1884817899
C  C45  1  0.59952000  0.93302000  0.79450000  1.0 -0.1884817899
C  C46  1  0.93302000  0.13852000  0.33350000  1.0 -0.1884817899
C  C47  1  0.13852000  0.80502000  0.20550000  1.0 -0.1884817899
C  C48  1  0.80502000  0.59952000  0.66650000  1.0 -0.1884817899
C  C49  1  0.53490000  0.79340000  0.74150000  1.0 -0.1129911295
C  C50  1  0.79340000  0.05190000  0.25850000  1.0 -0.1129911295
C  C51  1  0.05190000  0.79340000  0.25850000  1.0 -0.1129911295
C  C52  1  0.79340000  0.53490000  0.74150000  1.0 -0.1129911295
C  C53  1  0.46510000  0.20660000  0.25850000  1.0 -0.1129911295
C  C54  1  0.20660000  0.94810000  0.74150000  1.0 -0.1129911295
C  C55  1  0.94810000  0.20660000  0.74150000  1.0 -0.1129911295
C  C56  1  0.20660000  0.46510000  0.25850000  1.0 -0.1129911295
C  C57  1  0.62250000  0.89370000  0.72880000  1.0 0.0763796702
C  C58  1  0.89370000  0.16490000  0.27120000  1.0 0.0763796702
C  C59  1  0.16490000  0.89370000  0.27120000  1.0 0.0763796702
C  C60  1  0.89370000  0.62250000  0.72880000  1.0 0.0763796702
C  C61  1  0.37750000  0.10630000  0.27120000  1.0 0.0763796702
C  C62  1  0.10630000  0.83510000  0.72880000  1.0 0.0763796702
C  C63  1  0.83510000  0.10630000  0.72880000  1.0 0.0763796702
C  C64  1  0.10630000  0.37750000  0.27120000  1.0 0.0763796702
C  C65  1  0.67930000  0.95010000  0.72920000  1.0 -0.1884817899
C  C66  1  0.95010000  0.22090000  0.27080000  1.0 -0.1884817899
C  C67  1  0.22090000  0.95010000  0.27080000  1.0 -0.1884817899
C  C68  1  0.95010000  0.67930000  0.72920000  1.0 -0.1884817899
C  C69  1  0.32070000  0.04990000  0.27080000  1.0 -0.1884817899
C  C70  1  0.04990000  0.77910000  0.72920000  1.0 -0.1884817899
C  C71  1  0.77910000  0.04990000  0.72920000  1.0 -0.1884817899
C  C72  1  0.04990000  0.32070000  0.27080000  1.0 -0.1884817899
C  C73  1  0.76590000  0.97320000  0.79270000  1.0 -0.0217545345
C  C74  1  0.97320000  0.18050000  0.20730000  1.0 -0.0217545345
C  C75  1  0.18050000  0.97320000  0.20730000  1.0 -0.0217545345
C  C76  1  0.97320000  0.76590000  0.79270000  1.0 -0.0217545345
C  C77  1  0.23410000  0.02680000  0.20730000  1.0 -0.0217545345
C  C78  1  0.02680000  0.81950000  0.79270000  1.0 -0.0217545345
C  C79  1  0.81950000  0.02680000  0.79270000  1.0 -0.0217545345
C  C80  1  0.02680000  0.23410000  0.20730000  1.0 -0.0217545345
C  C81  1  0.63860000  0.97270000  0.66590000  1.0 -0.0428468855
C  C82  1  0.97270000  0.30680000  0.33410000  1.0 -0.0428468855
C  C83  1  0.30680000  0.97270000  0.33410000  1.0 -0.0428468855
C  C84  1  0.97270000  0.63860000  0.66590000  1.0 -0.0428468855
C  C85  1  0.36140000  0.02730000  0.33410000  1.0 -0.0428468855
C  C86  1  0.02730000  0.69320000  0.66590000  1.0 -0.0428468855
C  C87  1  0.69320000  0.02730000  0.66590000  1.0 -0.0428468855
C  C88  1  0.02730000  0.36140000  0.33410000  1.0 -0.0428468855
C  C89  1  0.80920000  0.91510000  0.83030000  1.0 -0.2242856468
C  C90  1  0.91510000  0.08480000  0.10590000  1.0 -0.2242856468
C  C91  1  0.08480000  0.97890000  0.16970000  1.0 -0.2242856468
C  C92  1  0.97890000  0.80920000  0.89410000  1.0 -0.2242856468
C  C93  1  0.19080000  0.02110000  0.10590000  1.0 -0.2242856468
C  C94  1  0.02110000  0.91520000  0.83030000  1.0 -0.2242856468
C  C95  1  0.91520000  0.08490000  0.89410000  1.0 -0.2242856468
C  C96  1  0.08490000  0.19080000  0.16970000  1.0 -0.2242856468
C  C97  1  0.19080000  0.08490000  0.16970000  1.0 -0.2242856468
C  C98  1  0.08490000  0.91520000  0.89410000  1.0 -0.2242856468
C  C99  1  0.91520000  0.02110000  0.83030000  1.0 -0.2242856468
C  C100  1  0.02110000  0.19080000  0.10590000  1.0 -0.2242856468
C  C101  1  0.80920000  0.97890000  0.89410000  1.0 -0.2242856468
C  C102  1  0.97890000  0.08480000  0.16970000  1.0 -0.2242856468
C  C103  1  0.08480000  0.91510000  0.10590000  1.0 -0.2242856468
C  C104  1  0.91510000  0.80920000  0.83030000  1.0 -0.2242856468
C  C105  1  0.54110000  0.91850000  0.56420000  1.0 -0.2120022509
C  C106  1  0.91850000  0.35430000  0.37740000  1.0 -0.2120022509
C  C107  1  0.35430000  0.97690000  0.43580000  1.0 -0.2120022509
C  C108  1  0.97690000  0.54110000  0.62260000  1.0 -0.2120022509
C  C109  1  0.45890000  0.02310000  0.37740000  1.0 -0.2120022509
C  C110  1  0.02310000  0.64570000  0.56420000  1.0 -0.2120022509
C  C111  1  0.64570000  0.08150000  0.62260000  1.0 -0.2120022509
C  C112  1  0.08150000  0.45890000  0.43580000  1.0 -0.2120022509
C  C113  1  0.45890000  0.08150000  0.43580000  1.0 -0.2120022509
C  C114  1  0.08150000  0.64570000  0.62260000  1.0 -0.2120022509
C  C115  1  0.64570000  0.02310000  0.56420000  1.0 -0.2120022509
C  C116  1  0.02310000  0.45890000  0.37740000  1.0 -0.2120022509
C  C117  1  0.54110000  0.97690000  0.62260000  1.0 -0.2120022509
C  C118  1  0.97690000  0.35430000  0.43580000  1.0 -0.2120022509
C  C119  1  0.35430000  0.91850000  0.37740000  1.0 -0.2120022509
C  C120  1  0.91850000  0.54110000  0.56420000  1.0 -0.2120022509
O  O1  1  0.51477000  0.61886000  0.63301000  1.0 -0.5281817592
O  O2  1  0.61886000  0.98585000  0.10409000  1.0 -0.5281817592
O  O3  1  0.98585000  0.88176000  0.36699000  1.0 -0.5281817592
O  O4  1  0.88176000  0.51477000  0.89591000  1.0 -0.5281817592
O  O5  1  0.48523000  0.11824000  0.10409000  1.0 -0.5281817592
O  O6  1  0.11824000  0.01415000  0.63301000  1.0 -0.5281817592
O  O7  1  0.01415000  0.38114000  0.89591000  1.0 -0.5281817592
O  O8  1  0.38114000  0.48523000  0.36699000  1.0 -0.5281817592
O  O9  1  0.48523000  0.38114000  0.36699000  1.0 -0.5281817592
O  O10  1  0.38114000  0.01415000  0.89591000  1.0 -0.5281817592
O  O11  1  0.01415000  0.11824000  0.63301000  1.0 -0.5281817592
O  O12  1  0.11824000  0.48523000  0.10409000  1.0 -0.5281817592
O  O13  1  0.51477000  0.88176000  0.89591000  1.0 -0.5281817592
O  O14  1  0.88176000  0.98585000  0.36699000  1.0 -0.5281817592
O  O15  1  0.98585000  0.61886000  0.10409000  1.0 -0.5281817592
O  O16  1  0.61886000  0.51477000  0.63301000  1.0 -0.5281817592
O  O17  1  0.37414000  0.47354000  0.47340000  1.0 -0.4785540509
O  O18  1  0.47354000  0.00014000  0.09940000  1.0 -0.4785540509
O  O19  1  0.00014000  0.90074000  0.52660000  1.0 -0.4785540509
O  O20  1  0.90074000  0.37414000  0.90060000  1.0 -0.4785540509
O  O21  1  0.62586000  0.09926000  0.09940000  1.0 -0.4785540509
O  O22  1  0.09926000  0.99986000  0.47340000  1.0 -0.4785540509
O  O23  1  0.99986000  0.52646000  0.90060000  1.0 -0.4785540509
O  O24  1  0.52646000  0.62586000  0.52660000  1.0 -0.4785540509
O  O25  1  0.62586000  0.52646000  0.52660000  1.0 -0.4785540509
O  O26  1  0.52646000  0.99986000  0.90060000  1.0 -0.4785540509
O  O27  1  0.99986000  0.09926000  0.47340000  1.0 -0.4785540509
O  O28  1  0.09926000  0.62586000  0.09940000  1.0 -0.4785540509
O  O29  1  0.37414000  0.90074000  0.90060000  1.0 -0.4785540509
O  O30  1  0.90074000  0.00014000  0.52660000  1.0 -0.4785540509
O  O31  1  0.00014000  0.47354000  0.09940000  1.0 -0.4785540509
O  O32  1  0.47354000  0.37414000  0.47340000  1.0 -0.4785540509
