# DDEC6 charges by PACMAN v1.1 (https://github.com/mtap-research/PACMAN-charge/)
data_HUDWUA_ASR_pacman
_symmetry_space_group_name_H-M   'P 1'
_cell_length_a   12.07900000
_cell_length_b   12.38200000
_cell_length_c   12.56800000
_cell_angle_alpha   99.99000000
_cell_angle_beta   96.00000000
_cell_angle_gamma   91.29000000
_symmetry_Int_Tables_number   1
_chemical_formula_structural   Cu5H30(C27O10)2
_chemical_formula_sum   'Cu5 H30 C54 O20'
_cell_volume   1839.47051331
_cell_formula_units_Z   1
loop_
 _symmetry_equiv_pos_site_id
 _symmetry_equiv_pos_as_xyz
  1  'x, y, z'
loop_
 _atom_site_type_symbol
 _atom_site_label
 _atom_site_symmetry_multiplicity
 _atom_site_fract_x
 _atom_site_fract_y
 _atom_site_fract_z
 _atom_site_occupancy
 _atom_site_charge
Cu  Cu1  1  0.46319000  0.90391000  0.41747000  1.0 0.914608676
Cu  Cu2  1  0.53681000  0.09609000  0.58253000  1.0 0.9155621119
Cu  Cu3  1  0.67281000  0.03833000  0.35389000  1.0 0.9513680525
Cu  Cu4  1  0.32719000  0.96167000  0.64611000  1.0 0.9513680525
Cu  Cu5  1  0.50000000  0.00000000  0.00000000  1.0 0.9335568137
H  H1  1  0.87620000  0.53000000  0.42670000  1.0 0.1373261598
H  H2  1  0.12380000  0.47000000  0.57330000  1.0 0.1373261598
H  H3  1  0.92130000  0.61310000  0.60450000  1.0 0.112574882
H  H4  1  0.07870000  0.38690000  0.39550000  1.0 0.112574882
H  H5  1  0.76150000  0.36820000  0.70830000  1.0 0.112574882
H  H6  1  0.23850000  0.63180000  0.29170000  1.0 0.112574882
H  H7  1  0.73800000  0.50990000  0.84920000  1.0 0.112574882
H  H8  1  0.26200000  0.49010000  0.15080000  1.0 0.112574882
H  H9  1  0.95240000  0.69200000  0.07880000  1.0 0.1203262371
H  H10  1  0.04760000  0.30800000  0.92120000  1.0 0.1203262371
H  H11  1  0.03630000  0.60720000  0.77710000  1.0 0.1203262371
H  H12  1  0.96370000  0.39280000  0.22290000  1.0 0.1203262371
H  H13  1  0.69140000  0.44230000  0.00110000  1.0 0.112574882
H  H14  1  0.30860000  0.55770000  0.99890000  1.0 0.112574882
H  H15  1  0.55320000  0.44360000  0.11920000  1.0 0.1373261598
H  H16  1  0.44680000  0.55640000  0.88080000  1.0 0.1373261598
H  H17  1  0.76890000  0.75900000  0.12840000  1.0 0.1203262371
H  H18  1  0.23110000  0.24100000  0.87160000  1.0 0.1203262371
H  H19  1  0.13910000  0.69570000  0.12360000  1.0 0.0988838809
H  H20  1  0.86090000  0.30430000  0.87640000  1.0 0.0988838809
H  H21  1  0.30920000  0.79300000  0.17860000  1.0 0.1373261598
H  H22  1  0.69080000  0.20700000  0.82140000  1.0 0.1373261598
H  H23  1  0.13970000  0.77420000  0.82720000  1.0 0.112574882
H  H24  1  0.86030000  0.22580000  0.17280000  1.0 0.112574882
H  H25  1  0.50240000  0.60380000  0.31000000  1.0 0.3647852726
H  H26  1  0.49760000  0.39620000  0.69000000  1.0 0.3647852726
H  H27  1  0.76940000  0.28330000  0.34400000  1.0 0.3476796038
H  H28  1  0.23060000  0.71670000  0.65600000  1.0 0.3476796038
H  H29  1  0.64960000  0.94940000  0.50490000  1.0 0.3747246153
H  H30  1  0.35040000  0.05060000  0.49510000  1.0 0.3747246153
C  C1  1  0.68610000  0.24380000  0.52150000  1.0 0.6031074561
C  C2  1  0.31390000  0.75620000  0.47850000  1.0 0.6031074561
C  C3  1  0.75590000  0.34750000  0.54190000  1.0 -0.1609063186
C  C4  1  0.24410000  0.65250000  0.45810000  1.0 -0.1609063186
C  C5  1  0.79100000  0.39720000  0.45820000  1.0 0.2765878625
C  C6  1  0.20900000  0.60280000  0.54180000  1.0 0.2765878625
C  C7  1  0.85340000  0.49660000  0.48290000  1.0 -0.2176622264
C  C8  1  0.14660000  0.50340000  0.51710000  1.0 -0.2176622264
C  C9  1  0.88130000  0.54530000  0.58900000  1.0 -0.1100114342
C  C10  1  0.11870000  0.45470000  0.41100000  1.0 -0.1100114342
C  C11  1  0.85150000  0.49630000  0.67580000  1.0 0.0426807366
C  C12  1  0.14850000  0.50370000  0.32420000  1.0 0.0426807366
C  C13  1  0.78610000  0.39960000  0.65160000  1.0 -0.1414406069
C  C14  1  0.21390000  0.60040000  0.34840000  1.0 -0.1414406069
C  C15  1  0.88190000  0.55030000  0.79200000  1.0 0.094381947
C  C16  1  0.11810000  0.44970000  0.20800000  1.0 0.094381947
C  C17  1  0.80750000  0.54740000  0.87000000  1.0 -0.205793372
C  C18  1  0.19250000  0.45260000  0.13000000  1.0 -0.205793372
C  C19  1  0.83440000  0.59940000  0.97870000  1.0 0.0988838809
C  C20  1  0.16560000  0.40060000  0.02130000  1.0 0.0988838809
C  C21  1  0.93500000  0.65570000  0.00660000  1.0 -0.204186521
C  C22  1  0.06500000  0.34430000  0.99340000  1.0 -0.204186521
C  C23  1  0.01250000  0.66180000  0.93390000  1.0 0.0988838809
C  C24  1  0.98750000  0.33820000  0.06610000  1.0 0.0988838809
C  C25  1  0.98400000  0.60650000  0.82740000  1.0 -0.204186521
C  C26  1  0.01600000  0.39350000  0.17260000  1.0 -0.204186521
C  C27  1  0.74620000  0.59990000  0.05520000  1.0 0.0473797861
C  C28  1  0.25380000  0.40010000  0.94480000  1.0 0.0473797861
C  C29  1  0.68000000  0.50660000  0.05020000  1.0 -0.1100114342
C  C30  1  0.32000000  0.49340000  0.94980000  1.0 -0.1100114342
C  C31  1  0.59520000  0.50840000  0.11910000  1.0 -0.204186521
C  C32  1  0.40480000  0.49160000  0.88090000  1.0 -0.204186521
C  C33  1  0.57300000  0.60320000  0.18620000  1.0 0.2541192807
C  C34  1  0.42700000  0.39680000  0.81380000  1.0 0.2541192807
C  C35  1  0.63880000  0.69790000  0.19350000  1.0 -0.1414406069
C  C36  1  0.36120000  0.30210000  0.80650000  1.0 -0.1414406069
C  C37  1  0.72470000  0.69490000  0.12590000  1.0 -0.1414406069
C  C38  1  0.27530000  0.30510000  0.87410000  1.0 -0.1414406069
C  C39  1  0.61920000  0.80090000  0.26790000  1.0 0.6143980808
C  C40  1  0.38080000  0.19910000  0.73210000  1.0 0.6143980808
C  C41  1  0.12120000  0.72230000  0.96770000  1.0 0.0473797861
C  C42  1  0.87880000  0.27770000  0.03230000  1.0 0.0473797861
C  C43  1  0.17270000  0.73090000  0.07400000  1.0 -0.1340994649
C  C44  1  0.82730000  0.26910000  0.92600000  1.0 -0.1340994649
C  C45  1  0.27450000  0.79150000  0.10780000  1.0 -0.204186521
C  C46  1  0.72550000  0.20850000  0.89220000  1.0 -0.205793372
C  C47  1  0.32390000  0.84860000  0.03920000  1.0 0.3052350469
C  C48  1  0.67610000  0.15140000  0.96080000  1.0 0.3048019595
C  C49  1  0.27400000  0.83870000  0.92960000  1.0 -0.1414406069
C  C50  1  0.72600000  0.16130000  0.07040000  1.0 -0.1414406069
C  C51  1  0.17360000  0.77780000  0.89860000  1.0 -0.1414406069
C  C52  1  0.82640000  0.22220000  0.10140000  1.0 -0.1414406069
C  C53  1  0.32360000  0.89810000  0.84960000  1.0 0.6031074561
C  C54  1  0.67640000  0.10190000  0.15040000  1.0 0.6031074561
O  O1  1  0.65970000  0.19880000  0.42190000  1.0 -0.5756643229
O  O2  1  0.34030000  0.80120000  0.57810000  1.0 -0.5756643229
O  O3  1  0.65650000  0.20690000  0.60110000  1.0 -0.5069811456
O  O4  1  0.34350000  0.79310000  0.39890000  1.0 -0.5069811456
O  O5  1  0.48110000  0.59580000  0.24400000  1.0 -0.4401870407
O  O6  1  0.51890000  0.40420000  0.75600000  1.0 -0.4401870407
O  O7  1  0.53580000  0.79630000  0.32130000  1.0 -0.5493024252
O  O8  1  0.46420000  0.20370000  0.67870000  1.0 -0.5493024252
O  O9  1  0.68030000  0.88540000  0.27230000  1.0 -0.5391907357
O  O10  1  0.31970000  0.11460000  0.72770000  1.0 -0.5391907357
O  O11  1  0.41820000  0.90810000  0.07810000  1.0 -0.5391907357
O  O12  1  0.58180000  0.09190000  0.92190000  1.0 -0.5391907357
O  O13  1  0.41910000  0.94300000  0.87230000  1.0 -0.5493024252
O  O14  1  0.58090000  0.05700000  0.12770000  1.0 -0.5493024252
O  O15  1  0.26900000  0.89840000  0.76030000  1.0 -0.5217755847
O  O16  1  0.73100000  0.10160000  0.23970000  1.0 -0.5217755847
O  O17  1  0.76720000  0.35110000  0.35080000  1.0 -0.4401870407
O  O18  1  0.23280000  0.64890000  0.64920000  1.0 -0.4401870407
O  O19  1  0.60510000  0.98910000  0.47460000  1.0 -0.8160472326
O  O20  1  0.39490000  0.01090000  0.52540000  1.0 -0.8160472326
