# DDEC6 charges by PACMAN v1.1 (https://github.com/mtap-research/PACMAN-charge/)
data_HUFKUQ_ASR_pacman
_symmetry_space_group_name_H-M   'P 1'
_cell_length_a   23.88760000
_cell_length_b   23.88760000
_cell_length_c   17.09670000
_cell_angle_alpha   83.91020000
_cell_angle_beta   96.08980000
_cell_angle_gamma   67.90300000
_symmetry_Int_Tables_number   1
_chemical_formula_structural   Cd3H49C66N7O19
_chemical_formula_sum   'Cd6 H98 C132 N14 O38'
_cell_volume   8874.53105689
_cell_formula_units_Z   2
loop_
 _symmetry_equiv_pos_site_id
 _symmetry_equiv_pos_as_xyz
  1  'x, y, z'
loop_
 _atom_site_type_symbol
 _atom_site_label
 _atom_site_symmetry_multiplicity
 _atom_site_fract_x
 _atom_site_fract_y
 _atom_site_fract_z
 _atom_site_occupancy
 _atom_site_charge
Cd  Cd1  1  0.63829000  0.02413000  0.49578000  1.0 0.897336623
Cd  Cd2  1  0.02413000  0.63829000  0.50422000  1.0 0.897336623
Cd  Cd3  1  0.36171000  0.97587000  0.50422000  1.0 0.897336623
Cd  Cd4  1  0.97587000  0.36171000  0.49578000  1.0 0.897336623
Cd  Cd5  1  0.50000000  0.00000000  0.50000000  1.0 1.1171593129
Cd  Cd6  1  0.00000000  0.50000000  0.50000000  1.0 1.1171593129
H  H1  1  0.35880000  0.34120000  0.91380000  1.0 0.0986049953
H  H2  1  0.34120000  0.35880000  0.08620000  1.0 0.0986049953
H  H3  1  0.64120000  0.65880000  0.08620000  1.0 0.0986049953
H  H4  1  0.65880000  0.64120000  0.91380000  1.0 0.0986049953
H  H5  1  0.40510000  0.30110000  0.99020000  1.0 0.0986049953
H  H6  1  0.30110000  0.40510000  0.00980000  1.0 0.0986049953
H  H7  1  0.59490000  0.69890000  0.00980000  1.0 0.0986049953
H  H8  1  0.69890000  0.59490000  0.99020000  1.0 0.0986049953
H  H9  1  0.28150000  0.26130000  0.91140000  1.0 0.0933563321
H  H10  1  0.26130000  0.28150000  0.08860000  1.0 0.0933563321
H  H11  1  0.71850000  0.73870000  0.08860000  1.0 0.0933563321
H  H12  1  0.73870000  0.71850000  0.91140000  1.0 0.0933563321
H  H13  1  0.31640000  0.21860000  0.85310000  1.0 0.0986049953
H  H14  1  0.21860000  0.31640000  0.14690000  1.0 0.0986049953
H  H15  1  0.68360000  0.78140000  0.14690000  1.0 0.0986049953
H  H16  1  0.78140000  0.68360000  0.85310000  1.0 0.0986049953
H  H17  1  0.46200000  0.22880000  0.89450000  1.0 0.0986049953
H  H18  1  0.22880000  0.46200000  0.10550000  1.0 0.0986049953
H  H19  1  0.53800000  0.77120000  0.10550000  1.0 0.0986049953
H  H20  1  0.77120000  0.53800000  0.89450000  1.0 0.0986049953
H  H21  1  0.41120000  0.27140000  0.82330000  1.0 0.0986049953
H  H22  1  0.27140000  0.41120000  0.17670000  1.0 0.0986049953
H  H23  1  0.58880000  0.72860000  0.17670000  1.0 0.0986049953
H  H24  1  0.72860000  0.58880000  0.82330000  1.0 0.0986049953
H  H25  1  0.39270000  0.15930000  0.96810000  1.0 0.0986049953
H  H26  1  0.15930000  0.39270000  0.03190000  1.0 0.0986049953
H  H27  1  0.60730000  0.84070000  0.03190000  1.0 0.0986049953
H  H28  1  0.84070000  0.60730000  0.96810000  1.0 0.0986049953
H  H29  1  0.36160000  0.20500000  0.02560000  1.0 0.0986049953
H  H30  1  0.20500000  0.36160000  0.97440000  1.0 0.0986049953
H  H31  1  0.63840000  0.79500000  0.97440000  1.0 0.0986049953
H  H32  1  0.79500000  0.63840000  0.02560000  1.0 0.0986049953
H  H33  1  0.21060000  0.25660000  0.81590000  1.0 0.1202967366
H  H34  1  0.25660000  0.21060000  0.18410000  1.0 0.1202967366
H  H35  1  0.78940000  0.74340000  0.18410000  1.0 0.1202967366
H  H36  1  0.74340000  0.78940000  0.81590000  1.0 0.1202967366
H  H37  1  0.12510000  0.28170000  0.72450000  1.0 0.1202967366
H  H38  1  0.28170000  0.12510000  0.27550000  1.0 0.1202967366
H  H39  1  0.87490000  0.71830000  0.27550000  1.0 0.1202967366
H  H40  1  0.71830000  0.87490000  0.72450000  1.0 0.1202967366
H  H41  1  0.16300000  0.40960000  0.59970000  1.0 0.1202967366
H  H42  1  0.40960000  0.16300000  0.40030000  1.0 0.1202967366
H  H43  1  0.83700000  0.59040000  0.40030000  1.0 0.1202967366
H  H44  1  0.59040000  0.83700000  0.59970000  1.0 0.129360997
H  H45  1  0.24920000  0.38920000  0.69450000  1.0 0.1400423456
H  H46  1  0.38920000  0.24920000  0.30550000  1.0 0.1400423456
H  H47  1  0.75080000  0.61080000  0.30550000  1.0 0.1400423456
H  H48  1  0.61080000  0.75080000  0.69450000  1.0 0.1400423456
H  H49  1  0.41620000  0.10740000  0.74920000  1.0 0.129360997
H  H50  1  0.10740000  0.41620000  0.25080000  1.0 0.129360997
H  H51  1  0.58380000  0.89260000  0.25080000  1.0 0.129360997
H  H52  1  0.89260000  0.58380000  0.74920000  1.0 0.129360997
H  H53  1  0.46960000  0.07220000  0.64860000  1.0 0.129360997
H  H54  1  0.07220000  0.46960000  0.35140000  1.0 0.129360997
H  H55  1  0.53040000  0.92780000  0.35140000  1.0 0.129360997
H  H56  1  0.92780000  0.53040000  0.64860000  1.0 0.129360997
H  H57  1  0.56210000  0.17690000  0.67960000  1.0 0.1202967366
H  H58  1  0.17690000  0.56210000  0.32040000  1.0 0.1202967366
H  H59  1  0.43790000  0.82310000  0.32040000  1.0 0.1202967366
H  H60  1  0.82310000  0.43790000  0.67960000  1.0 0.1202967366
H  H61  1  0.50770000  0.21770000  0.77720000  1.0 0.1202967366
H  H62  1  0.21770000  0.50770000  0.22280000  1.0 0.1202967366
H  H63  1  0.49230000  0.78230000  0.22280000  1.0 0.1202967366
H  H64  1  0.78230000  0.49230000  0.77720000  1.0 0.1202967366
H  H65  1  0.40740000  0.11700000  0.11250000  1.0 0.1202967366
H  H66  1  0.11700000  0.40740000  0.88750000  1.0 0.1202967366
H  H67  1  0.59260000  0.88300000  0.88750000  1.0 0.1202967366
H  H68  1  0.88300000  0.59260000  0.11250000  1.0 0.1202967366
H  H69  1  0.44530000  0.06570000  0.24210000  1.0 0.1202967366
H  H70  1  0.06570000  0.44530000  0.75790000  1.0 0.1202967366
H  H71  1  0.55470000  0.93430000  0.75790000  1.0 0.1202967366
H  H72  1  0.93430000  0.55470000  0.24210000  1.0 0.1202967366
H  H73  1  0.57510000  0.13370000  0.25310000  1.0 0.1202967366
H  H74  1  0.13370000  0.57510000  0.74690000  1.0 0.1202967366
H  H75  1  0.42490000  0.86630000  0.74690000  1.0 0.1202967366
H  H76  1  0.86630000  0.42490000  0.25310000  1.0 0.1202967366
H  H77  1  0.54330000  0.17430000  0.11990000  1.0 0.129360997
H  H78  1  0.17430000  0.54330000  0.88010000  1.0 0.129360997
H  H79  1  0.45670000  0.82570000  0.88010000  1.0 0.129360997
H  H80  1  0.82570000  0.45670000  0.11990000  1.0 0.129360997
H  H81  1  0.71000000  0.10160000  0.58330000  1.0 0.129360997
H  H82  1  0.10160000  0.71000000  0.41670000  1.0 0.129360997
H  H83  1  0.29000000  0.89840000  0.41670000  1.0 0.129360997
H  H84  1  0.89840000  0.29000000  0.58330000  1.0 0.129360997
H  H85  1  0.75620000  0.02240000  0.39660000  1.0 0.129360997
H  H86  1  0.02240000  0.75620000  0.60340000  1.0 0.129360997
H  H87  1  0.24380000  0.97760000  0.60340000  1.0 0.129360997
H  H88  1  0.97760000  0.24380000  0.39660000  1.0 0.129360997
H  H89  1  0.83610000  0.06290000  0.43780000  1.0 0.129360997
H  H90  1  0.06290000  0.83610000  0.56220000  1.0 0.129360997
H  H91  1  0.16390000  0.93710000  0.56220000  1.0 0.129360997
H  H92  1  0.93710000  0.16390000  0.43780000  1.0 0.129360997
H  H93  1  0.78910000  0.10830000  0.67500000  1.0 0.1400423456
H  H94  1  0.10830000  0.78910000  0.32500000  1.0 0.1400423456
H  H95  1  0.21090000  0.89170000  0.32500000  1.0 0.1400423456
H  H96  1  0.89170000  0.21090000  0.67500000  1.0 0.1400423456
H  H97  1  0.84730000  0.15270000  0.47330000  1.0 0.1202967366
H  H98  1  0.15270000  0.84730000  0.52670000  1.0 0.1202967366
C  C1  1  0.37380000  0.24980000  0.92150000  1.0 0.0718459061
C  C2  1  0.24980000  0.37380000  0.07850000  1.0 0.0718459061
C  C3  1  0.62620000  0.75020000  0.07850000  1.0 0.0718459061
C  C4  1  0.75020000  0.62620000  0.92150000  1.0 0.0718459061
C  C5  1  0.36750000  0.30710000  0.95610000  1.0 -0.0905272945
C  C6  1  0.30710000  0.36750000  0.04390000  1.0 -0.0905272945
C  C7  1  0.63250000  0.69290000  0.04390000  1.0 -0.0905272945
C  C8  1  0.69290000  0.63250000  0.95610000  1.0 -0.0905272945
C  C9  1  0.31160000  0.25540000  0.87580000  1.0 -0.0905272945
C  C10  1  0.25540000  0.31160000  0.12420000  1.0 -0.0905272945
C  C11  1  0.68840000  0.74460000  0.12420000  1.0 -0.0905272945
C  C12  1  0.74460000  0.68840000  0.87580000  1.0 -0.0905272945
C  C13  1  0.42196000  0.23676000  0.86530000  1.0 -0.0805551515
C  C14  1  0.23676000  0.42196000  0.13470000  1.0 -0.0805551515
C  C15  1  0.57804000  0.76324000  0.13470000  1.0 -0.0805551515
C  C16  1  0.76324000  0.57804000  0.86530000  1.0 -0.0905272945
C  C17  1  0.39120000  0.19580000  0.98930000  1.0 -0.0905272945
C  C18  1  0.19580000  0.39120000  0.01070000  1.0 -0.0905272945
C  C19  1  0.60880000  0.80420000  0.01070000  1.0 -0.0905272945
C  C20  1  0.80420000  0.60880000  0.98930000  1.0 -0.0905272945
C  C21  1  0.23990000  0.31990000  0.76390000  1.0 0.2689233779
C  C22  1  0.31990000  0.23990000  0.23610000  1.0 0.2689233779
C  C23  1  0.76010000  0.68010000  0.23610000  1.0 0.2689233779
C  C24  1  0.68010000  0.76010000  0.76390000  1.0 0.2689233779
C  C25  1  0.20130000  0.28770000  0.77300000  1.0 -0.2479093513
C  C26  1  0.28770000  0.20130000  0.22700000  1.0 -0.2479093513
C  C27  1  0.79870000  0.71230000  0.22700000  1.0 -0.2479093513
C  C28  1  0.71230000  0.79870000  0.77300000  1.0 -0.2479093513
C  C29  1  0.15030000  0.30290000  0.71780000  1.0 -0.0563152634
C  C30  1  0.30290000  0.15030000  0.28220000  1.0 -0.0563152634
C  C31  1  0.84970000  0.69710000  0.28220000  1.0 -0.0563152634
C  C32  1  0.69710000  0.84970000  0.71780000  1.0 -0.0563152634
C  C33  1  0.13420000  0.34800000  0.65300000  1.0 -0.0706839419
C  C34  1  0.34800000  0.13420000  0.34700000  1.0 -0.0706839419
C  C35  1  0.86580000  0.65200000  0.34700000  1.0 -0.0706839419
C  C36  1  0.65200000  0.86580000  0.65300000  1.0 -0.0706839419
C  C37  1  0.17250000  0.37950000  0.64390000  1.0 -0.0706839419
C  C38  1  0.37950000  0.17250000  0.35610000  1.0 -0.0706839419
C  C39  1  0.82750000  0.62050000  0.35610000  1.0 -0.0706839419
C  C40  1  0.62050000  0.82750000  0.64390000  1.0 -0.0706839419
C  C41  1  0.22500000  0.36680000  0.70010000  1.0 -0.236250782
C  C42  1  0.36680000  0.22500000  0.29990000  1.0 -0.236250782
C  C43  1  0.77500000  0.63320000  0.29990000  1.0 -0.236250782
C  C44  1  0.63320000  0.77500000  0.70010000  1.0 -0.236250782
C  C45  1  0.07960000  0.36200000  0.59290000  1.0 0.5799936115
C  C46  1  0.36200000  0.07960000  0.40710000  1.0 0.5799936115
C  C47  1  0.92040000  0.63800000  0.40710000  1.0 0.5799936115
C  C48  1  0.63800000  0.92040000  0.59290000  1.0 0.5799936115
C  C49  1  0.45660000  0.16600000  0.77350000  1.0 0.2598864421
C  C50  1  0.16600000  0.45660000  0.22650000  1.0 0.2598864421
C  C51  1  0.54340000  0.83400000  0.22650000  1.0 0.2598864421
C  C52  1  0.83400000  0.54340000  0.77350000  1.0 0.2598864421
C  C53  1  0.44520000  0.12200000  0.73480000  1.0 -0.2138280213
C  C54  1  0.12200000  0.44520000  0.26520000  1.0 -0.2138280213
C  C55  1  0.55480000  0.87800000  0.26520000  1.0 -0.2138280213
C  C56  1  0.87800000  0.55480000  0.73480000  1.0 -0.2138280213
C  C57  1  0.47750000  0.10110000  0.67530000  1.0 -0.0905272945
C  C58  1  0.10110000  0.47750000  0.32470000  1.0 -0.0905272945
C  C59  1  0.52250000  0.89890000  0.32470000  1.0 -0.0905272945
C  C60  1  0.89890000  0.52250000  0.67530000  1.0 -0.0905272945
C  C61  1  0.52196000  0.12136000  0.65320000  1.0 -0.052126195
C  C62  1  0.12136000  0.52196000  0.34680000  1.0 -0.052126195
C  C63  1  0.47804000  0.87864000  0.34680000  1.0 -0.052126195
C  C64  1  0.87864000  0.47804000  0.65320000  1.0 -0.052126195
C  C65  1  0.53200000  0.16360000  0.69310000  1.0 -0.0706839419
C  C66  1  0.16360000  0.53200000  0.30690000  1.0 -0.0706839419
C  C67  1  0.46800000  0.83640000  0.30690000  1.0 -0.0706839419
C  C68  1  0.83640000  0.46800000  0.69310000  1.0 -0.0706839419
C  C69  1  0.50020000  0.18780000  0.75230000  1.0 -0.2479093513
C  C70  1  0.18780000  0.50020000  0.24770000  1.0 -0.2479093513
C  C71  1  0.49980000  0.81220000  0.24770000  1.0 -0.2479093513
C  C72  1  0.81220000  0.49980000  0.75230000  1.0 -0.2479093513
C  C73  1  0.55780000  0.09600000  0.58900000  1.0 0.5927257597
C  C74  1  0.09600000  0.55780000  0.41100000  1.0 0.5927257597
C  C75  1  0.44220000  0.90400000  0.41100000  1.0 0.5927257597
C  C76  1  0.90400000  0.44220000  0.58900000  1.0 0.5927257597
C  C77  1  0.46910000  0.15410000  0.10540000  1.0 0.2412687301
C  C78  1  0.15410000  0.46910000  0.89460000  1.0 0.2412687301
C  C79  1  0.53090000  0.84590000  0.89460000  1.0 0.2412687301
C  C80  1  0.84590000  0.53090000  0.10540000  1.0 0.2412687301
C  C81  1  0.44170000  0.11970000  0.14040000  1.0 -0.2479093513
C  C82  1  0.11970000  0.44170000  0.85960000  1.0 -0.2479093513
C  C83  1  0.55830000  0.88030000  0.85960000  1.0 -0.2479093513
C  C84  1  0.88030000  0.55830000  0.14040000  1.0 -0.2479093513
C  C85  1  0.46480000  0.08860000  0.21820000  1.0 -0.0706839419
C  C86  1  0.08860000  0.46480000  0.78180000  1.0 -0.0706839419
C  C87  1  0.53520000  0.91140000  0.78180000  1.0 -0.0706839419
C  C88  1  0.91140000  0.53520000  0.21820000  1.0 -0.0706839419
C  C89  1  0.51620000  0.09120000  0.26010000  1.0 -0.052126195
C  C90  1  0.09120000  0.51620000  0.73990000  1.0 -0.052126195
C  C91  1  0.48380000  0.90880000  0.73990000  1.0 -0.052126195
C  C92  1  0.90880000  0.48380000  0.26010000  1.0 -0.052126195
C  C93  1  0.54310000  0.12770000  0.22440000  1.0 -0.0905272945
C  C94  1  0.12770000  0.54310000  0.77560000  1.0 -0.0905272945
C  C95  1  0.45690000  0.87230000  0.77560000  1.0 -0.0905272945
C  C96  1  0.87230000  0.45690000  0.22440000  1.0 -0.0905272945
C  C97  1  0.52170000  0.15490000  0.14600000  1.0 -0.2183755242
C  C98  1  0.15490000  0.52170000  0.85400000  1.0 -0.2183755242
C  C99  1  0.47830000  0.84510000  0.85400000  1.0 -0.2183755242
C  C100  1  0.84510000  0.47830000  0.14600000  1.0 -0.2183755242
C  C101  1  0.54090000  0.05890000  0.34490000  1.0 0.5927257597
C  C102  1  0.05890000  0.54090000  0.65510000  1.0 0.5927257597
C  C103  1  0.45910000  0.94110000  0.65510000  1.0 0.5927257597
C  C104  1  0.94110000  0.45910000  0.34490000  1.0 0.5927257597
C  C105  1  0.73180000  0.08640000  0.54300000  1.0 0.1202967366
C  C106  1  0.08640000  0.73180000  0.45700000  1.0 0.1130478032
C  C107  1  0.26820000  0.91360000  0.45700000  1.0 0.1130478032
C  C108  1  0.91360000  0.26820000  0.54300000  1.0 0.1202967366
C  C109  1  0.75800000  0.04240000  0.44000000  1.0 -0.018276343
C  C110  1  0.04240000  0.75800000  0.56000000  1.0 -0.018276343
C  C111  1  0.24200000  0.95760000  0.56000000  1.0 -0.018276343
C  C112  1  0.95760000  0.24200000  0.44000000  1.0 -0.018276343
C  C113  1  0.80190000  0.06610000  0.46150000  1.0 -0.13302738
C  C114  1  0.06610000  0.80190000  0.53850000  1.0 -0.13302738
C  C115  1  0.19810000  0.93390000  0.53850000  1.0 -0.13302738
C  C116  1  0.93390000  0.19810000  0.46150000  1.0 -0.13302738
C  C117  1  0.81070000  0.12930000  0.56740000  1.0 0.1968160927
C  C118  1  0.12930000  0.81070000  0.43260000  1.0 0.192624098
C  C119  1  0.18930000  0.87070000  0.43260000  1.0 0.192624098
C  C120  1  0.87070000  0.18930000  0.56740000  1.0 0.1968160927
C  C121  1  0.80990000  0.12870000  0.64870000  1.0 -0.2708950878
C  C122  1  0.12870000  0.80990000  0.35130000  1.0 -0.2708950878
C  C123  1  0.19010000  0.87130000  0.35130000  1.0 -0.2708950878
C  C124  1  0.87130000  0.19010000  0.64870000  1.0 -0.2708950878
C  C125  1  0.84080000  0.15920000  0.69140000  1.0 0.1202967366
C  C126  1  0.15920000  0.84080000  0.30860000  1.0 0.1400423456
C  C127  1  0.84360000  0.15640000  0.52630000  1.0 -0.2708950878
C  C128  1  0.15640000  0.84360000  0.47370000  1.0 -0.2708950878
C  C129  1  0.82180000  0.12880000  0.81800000  1.0 -0.0967022668
C  C130  1  0.12880000  0.82180000  0.18200000  1.0 -0.0805551515
C  C131  1  0.17820000  0.87120000  0.18200000  1.0 -0.0805551515
C  C132  1  0.87120000  0.17820000  0.81800000  1.0 -0.0967022668
N  N1  1  0.71776000  0.05396000  0.49470000  1.0 -0.2979879618
N  N2  1  0.05396000  0.71776000  0.50530000  1.0 -0.2979879618
N  N3  1  0.28224000  0.94604000  0.50530000  1.0 -0.2979879618
N  N4  1  0.94604000  0.28224000  0.49470000  1.0 -0.2979879618
N  N5  1  0.78284000  0.09584000  0.52730000  1.0 0.0094167514
N  N6  1  0.09584000  0.78284000  0.47270000  1.0 0.0094167514
N  N7  1  0.21716000  0.90416000  0.47270000  1.0 0.0094167514
N  N8  1  0.90416000  0.21716000  0.52730000  1.0 0.0094167514
N  N9  1  0.84270000  0.15730000  0.77240000  1.0 -0.018276343
N  N10  1  0.15730000  0.84270000  0.22760000  1.0 -0.0967022668
N  N11  1  0.82590000  0.14270000  0.89510000  1.0 0.0401870146
N  N12  1  0.14270000  0.82590000  0.10490000  1.0 0.0809997826
N  N13  1  0.17410000  0.85730000  0.10490000  1.0 0.0809997826
N  N14  1  0.85730000  0.17410000  0.89510000  1.0 0.0401870146
O  O1  1  0.31940000  0.31940000  0.00000000  1.0 -0.1821080611
O  O2  1  0.68060000  0.68060000  0.00000000  1.0 -0.1821080611
O  O3  1  0.29257000  0.30759000  0.81360000  1.0 -0.1728959174
O  O4  1  0.30759000  0.29257000  0.18640000  1.0 -0.1728959174
O  O5  1  0.70743000  0.69241000  0.18640000  1.0 -0.1728959174
O  O6  1  0.69241000  0.70743000  0.81360000  1.0 -0.1728959174
O  O7  1  0.42232000  0.18412000  0.83280000  1.0 -0.1896265016
O  O8  1  0.18412000  0.42232000  0.16720000  1.0 -0.1896265016
O  O9  1  0.57768000  0.81588000  0.16720000  1.0 -0.1896265016
O  O10  1  0.81588000  0.57768000  0.83280000  1.0 -0.1896265016
O  O11  1  0.45047000  0.18687000  0.02980000  1.0 -0.1821080611
O  O12  1  0.18687000  0.45047000  0.97020000  1.0 -0.1896265016
O  O13  1  0.54953000  0.81313000  0.97020000  1.0 -0.1896265016
O  O14  1  0.81313000  0.54953000  0.02980000  1.0 -0.1821080611
O  O15  1  0.04642000  0.33242000  0.60590000  1.0 -0.5368125529
O  O16  1  0.33242000  0.04642000  0.39410000  1.0 -0.5368125529
O  O17  1  0.95358000  0.66758000  0.39410000  1.0 -0.5368125529
O  O18  1  0.66758000  0.95358000  0.60590000  1.0 -0.5368125529
O  O19  1  0.06856000  0.40018000  0.53070000  1.0 -0.5909133495
O  O20  1  0.40018000  0.06856000  0.46930000  1.0 -0.5909133495
O  O21  1  0.93144000  0.59982000  0.46930000  1.0 -0.5909133495
O  O22  1  0.59982000  0.93144000  0.53070000  1.0 -0.5909133495
O  O23  1  0.54063000  0.06523000  0.54440000  1.0 -0.5774547399
O  O24  1  0.06523000  0.54063000  0.45560000  1.0 -0.5774547399
O  O25  1  0.45937000  0.93477000  0.45560000  1.0 -0.5774547399
O  O26  1  0.93477000  0.45937000  0.54440000  1.0 -0.5774547399
O  O27  1  0.60631000  0.10451000  0.58310000  1.0 -0.5509651244
O  O28  1  0.10451000  0.60631000  0.41690000  1.0 -0.5509651244
O  O29  1  0.39369000  0.89549000  0.41690000  1.0 -0.5509651244
O  O30  1  0.89549000  0.39369000  0.58310000  1.0 -0.5509651244
O  O31  1  0.51276000  0.03096000  0.37680000  1.0 -0.5636706889
O  O32  1  0.03096000  0.51276000  0.62320000  1.0 -0.5636706889
O  O33  1  0.48724000  0.96904000  0.62320000  1.0 -0.5636706889
O  O34  1  0.96904000  0.48724000  0.37680000  1.0 -0.5636706889
O  O35  1  0.58775000  0.06475000  0.37580000  1.0 -0.5509651244
O  O36  1  0.06475000  0.58775000  0.62420000  1.0 -0.5509651244
O  O37  1  0.41225000  0.93525000  0.62420000  1.0 -0.5509651244
O  O38  1  0.93525000  0.41225000  0.37580000  1.0 -0.5509651244
