# DDEC6 charges by PACMAN v1.1 (https://github.com/mtap-research/PACMAN-charge/)
data_HUHZES01_ASR_pacman
_symmetry_space_group_name_H-M   'P 1'
_cell_length_a   25.22300000
_cell_length_b   25.22300000
_cell_length_c   17.12000000
_cell_angle_alpha   90.00000000
_cell_angle_beta   90.00000000
_cell_angle_gamma   120.00000000
_symmetry_Int_Tables_number   1
_chemical_formula_structural   Fe3H80C122O13
_chemical_formula_sum   'Fe3 H80 C122 O13'
_cell_volume   9432.52297757
_cell_formula_units_Z   1
loop_
 _symmetry_equiv_pos_site_id
 _symmetry_equiv_pos_as_xyz
  1  'x, y, z'
loop_
 _atom_site_type_symbol
 _atom_site_label
 _atom_site_symmetry_multiplicity
 _atom_site_fract_x
 _atom_site_fract_y
 _atom_site_fract_z
 _atom_site_occupancy
 _atom_site_charge
Fe  Fe1  1  0.95634000  0.91268000  0.00000000  1.0 1.1468246038
Fe  Fe2  1  0.95634000  0.04366000  0.00000000  1.0 1.1468246038
Fe  Fe3  1  0.08732000  0.04366000  0.00000000  1.0 1.1468246038
H  H1  1  0.81540000  0.82850000  0.82860000  1.0 0.1376821943
H  H2  1  0.73490000  0.78970000  0.74340000  1.0 0.1092055037
H  H3  1  0.63020000  0.75360000  0.74100000  1.0 0.1012226522
H  H4  1  0.55080000  0.70340000  0.64430000  1.0 0.1092055037
H  H5  1  0.68790000  0.77980000  0.63420000  1.0 0.1092055037
H  H6  1  0.61660000  0.74470000  0.53600000  1.0 0.0691813609
H  H7  1  0.01310000  0.18460000  0.82860000  1.0 0.1376821943
H  H8  1  0.05480000  0.26510000  0.74340000  1.0 0.1092055037
H  H9  1  0.12340000  0.36980000  0.74100000  1.0 0.1012226522
H  H10  1  0.15260000  0.44920000  0.64430000  1.0 0.1092055037
H  H11  1  0.09190000  0.31210000  0.63420000  1.0 0.1092055037
H  H12  1  0.12810000  0.38340000  0.53600000  1.0 0.0691813609
H  H13  1  0.17150000  0.98690000  0.82860000  1.0 0.1376821943
H  H14  1  0.21030000  0.94520000  0.74340000  1.0 0.1092055037
H  H15  1  0.24640000  0.87660000  0.74100000  1.0 0.1012226522
H  H16  1  0.29660000  0.84740000  0.64430000  1.0 0.1092055037
H  H17  1  0.22020000  0.90810000  0.63420000  1.0 0.1092055037
H  H18  1  0.25530000  0.87190000  0.53600000  1.0 0.0691813609
H  H19  1  0.81540000  0.82850000  0.17140000  1.0 0.1376821943
H  H20  1  0.73490000  0.78970000  0.25660000  1.0 0.1092055037
H  H21  1  0.63020000  0.75360000  0.25900000  1.0 0.1012226522
H  H22  1  0.55080000  0.70340000  0.35570000  1.0 0.1092055037
H  H23  1  0.68790000  0.77980000  0.36580000  1.0 0.1092055037
H  H24  1  0.61660000  0.74470000  0.46400000  1.0 0.0691813609
H  H25  1  0.01310000  0.18460000  0.17140000  1.0 0.1376821943
H  H26  1  0.05480000  0.26510000  0.25660000  1.0 0.1092055037
H  H27  1  0.12340000  0.36980000  0.25900000  1.0 0.1012226522
H  H28  1  0.15260000  0.44920000  0.35570000  1.0 0.1092055037
H  H29  1  0.09190000  0.31210000  0.36580000  1.0 0.1092055037
H  H30  1  0.12810000  0.38340000  0.46400000  1.0 0.0691813609
H  H31  1  0.17150000  0.98690000  0.17140000  1.0 0.1376821943
H  H32  1  0.21030000  0.94520000  0.25660000  1.0 0.1092055037
H  H33  1  0.24640000  0.87660000  0.25900000  1.0 0.1012226522
H  H34  1  0.29660000  0.84740000  0.35570000  1.0 0.1092055037
H  H35  1  0.22020000  0.90810000  0.36580000  1.0 0.1092055037
H  H36  1  0.25530000  0.87190000  0.46400000  1.0 0.0691813609
H  H37  1  0.01310000  0.82850000  0.82860000  1.0 0.1376821943
H  H38  1  0.05480000  0.78970000  0.74340000  1.0 0.1092055037
H  H39  1  0.12340000  0.75360000  0.74100000  1.0 0.1012226522
H  H40  1  0.15260000  0.70340000  0.64430000  1.0 0.1092055037
H  H41  1  0.09190000  0.77980000  0.63420000  1.0 0.1092055037
H  H42  1  0.12810000  0.74470000  0.53600000  1.0 0.0691813609
H  H43  1  0.17150000  0.18460000  0.82860000  1.0 0.1376821943
H  H44  1  0.21030000  0.26510000  0.74340000  1.0 0.1092055037
H  H45  1  0.24640000  0.36980000  0.74100000  1.0 0.1012226522
H  H46  1  0.29660000  0.44920000  0.64430000  1.0 0.1092055037
H  H47  1  0.22020000  0.31210000  0.63420000  1.0 0.1092055037
H  H48  1  0.25530000  0.38340000  0.53600000  1.0 0.0691813609
H  H49  1  0.81540000  0.98690000  0.82860000  1.0 0.1376821943
H  H50  1  0.73490000  0.94520000  0.74340000  1.0 0.1092055037
H  H51  1  0.63020000  0.87660000  0.74100000  1.0 0.1012226522
H  H52  1  0.55080000  0.84740000  0.64430000  1.0 0.1092055037
H  H53  1  0.68790000  0.90810000  0.63420000  1.0 0.1092055037
H  H54  1  0.61660000  0.87190000  0.53600000  1.0 0.0691813609
H  H55  1  0.01310000  0.82850000  0.17140000  1.0 0.1376821943
H  H56  1  0.05480000  0.78970000  0.25660000  1.0 0.1092055037
H  H57  1  0.12340000  0.75360000  0.25900000  1.0 0.1012226522
H  H58  1  0.15260000  0.70340000  0.35570000  1.0 0.1092055037
H  H59  1  0.09190000  0.77980000  0.36580000  1.0 0.1092055037
H  H60  1  0.12810000  0.74470000  0.46400000  1.0 0.0691813609
H  H61  1  0.17150000  0.18460000  0.17140000  1.0 0.1376821943
H  H62  1  0.21030000  0.26510000  0.25660000  1.0 0.1092055037
H  H63  1  0.24640000  0.36980000  0.25900000  1.0 0.1012226522
H  H64  1  0.29660000  0.44920000  0.35570000  1.0 0.1092055037
H  H65  1  0.22020000  0.31210000  0.36580000  1.0 0.1092055037
H  H66  1  0.25530000  0.38340000  0.46400000  1.0 0.0691813609
H  H67  1  0.81540000  0.98690000  0.17140000  1.0 0.1376821943
H  H68  1  0.73490000  0.94520000  0.25660000  1.0 0.1092055037
H  H69  1  0.63020000  0.87660000  0.25900000  1.0 0.1012226522
H  H70  1  0.55080000  0.84740000  0.35570000  1.0 0.1092055037
H  H71  1  0.68790000  0.90810000  0.36580000  1.0 0.1092055037
H  H72  1  0.61660000  0.87190000  0.46400000  1.0 0.0691813609
H  H73  1  0.45000000  0.72500000  0.63400000  1.0 0.1376821943
H  H74  1  0.27500000  0.55000000  0.63400000  1.0 0.1376821943
H  H75  1  0.27500000  0.72500000  0.63400000  1.0 0.1376821943
H  H76  1  0.45000000  0.72500000  0.36600000  1.0 0.1376821943
H  H77  1  0.27500000  0.55000000  0.36600000  1.0 0.1376821943
H  H78  1  0.27500000  0.72500000  0.36600000  1.0 0.1376821943
H  H79  1  0.33333333  0.66666667  0.62970000  1.0 0.1290263986
H  H80  1  0.33333333  0.66666667  0.37030000  1.0 0.1290263986
C  C1  1  0.79990000  0.85310000  0.81170000  1.0 -0.0894240066
C  C2  1  0.75070000  0.82980000  0.76080000  1.0 -0.1660183911
C  C3  1  0.62750000  0.77570000  0.69930000  1.0 -0.1179851052
C  C4  1  0.57590000  0.74580000  0.64320000  1.0 -0.0951940978
C  C5  1  0.61500000  0.76830000  0.57670000  1.0 -0.1354655569
C  C6  1  0.66030000  0.79400000  0.63450000  1.0 -0.0650790328
C  C7  1  0.05320000  0.20010000  0.81170000  1.0 -0.0894240066
C  C8  1  0.07910000  0.24930000  0.76080000  1.0 -0.1660183911
C  C9  1  0.14820000  0.37250000  0.69930000  1.0 -0.1179851052
C  C10  1  0.16990000  0.42410000  0.64320000  1.0 -0.0951940978
C  C11  1  0.15330000  0.38500000  0.57670000  1.0 -0.1354655569
C  C12  1  0.13370000  0.33970000  0.63450000  1.0 -0.0638703053
C  C13  1  0.14690000  0.94680000  0.81170000  1.0 -0.0894240066
C  C14  1  0.17020000  0.92090000  0.76080000  1.0 -0.1660183911
C  C15  1  0.22430000  0.85180000  0.69930000  1.0 -0.1179851052
C  C16  1  0.25420000  0.83010000  0.64320000  1.0 -0.0894240066
C  C17  1  0.23170000  0.84670000  0.57670000  1.0 -0.1354655569
C  C18  1  0.20600000  0.86630000  0.63450000  1.0 -0.0638703053
C  C19  1  0.79990000  0.85310000  0.18830000  1.0 -0.0894240066
C  C20  1  0.75070000  0.82980000  0.23920000  1.0 -0.1660183911
C  C21  1  0.62750000  0.77570000  0.30070000  1.0 -0.1179851052
C  C22  1  0.57590000  0.74580000  0.35680000  1.0 -0.0951940978
C  C23  1  0.61500000  0.76830000  0.42330000  1.0 -0.1354655569
C  C24  1  0.66030000  0.79400000  0.36550000  1.0 -0.0638703053
C  C25  1  0.05320000  0.20010000  0.18830000  1.0 -0.0894240066
C  C26  1  0.07910000  0.24930000  0.23920000  1.0 -0.1660183911
C  C27  1  0.14820000  0.37250000  0.30070000  1.0 -0.1179851052
C  C28  1  0.16990000  0.42410000  0.35680000  1.0 -0.0951940978
C  C29  1  0.15330000  0.38500000  0.42330000  1.0 -0.1354655569
C  C30  1  0.13370000  0.33970000  0.36550000  1.0 -0.0638703053
C  C31  1  0.14690000  0.94680000  0.18830000  1.0 -0.0894240066
C  C32  1  0.17020000  0.92090000  0.23920000  1.0 -0.1660183911
C  C33  1  0.22430000  0.85180000  0.30070000  1.0 -0.1179851052
C  C34  1  0.25420000  0.83010000  0.35680000  1.0 -0.0951940978
C  C35  1  0.23170000  0.84670000  0.42330000  1.0 -0.1354655569
C  C36  1  0.20600000  0.86630000  0.36550000  1.0 -0.0638703053
C  C37  1  0.05320000  0.85310000  0.81170000  1.0 -0.0894240066
C  C38  1  0.07910000  0.82980000  0.76080000  1.0 -0.1660183911
C  C39  1  0.14820000  0.77570000  0.69930000  1.0 -0.1179851052
C  C40  1  0.16990000  0.74580000  0.64320000  1.0 -0.0951940978
C  C41  1  0.15330000  0.76830000  0.57670000  1.0 -0.1354655569
C  C42  1  0.13370000  0.79400000  0.63450000  1.0 -0.0638703053
C  C43  1  0.14690000  0.20010000  0.81170000  1.0 -0.0894240066
C  C44  1  0.17020000  0.24930000  0.76080000  1.0 -0.1660183911
C  C45  1  0.22430000  0.37250000  0.69930000  1.0 -0.1179851052
C  C46  1  0.25420000  0.42410000  0.64320000  1.0 -0.0951940978
C  C47  1  0.23170000  0.38500000  0.57670000  1.0 -0.1354655569
C  C48  1  0.20600000  0.33970000  0.63450000  1.0 -0.0638703053
C  C49  1  0.79990000  0.94680000  0.81170000  1.0 -0.0894240066
C  C50  1  0.75070000  0.92090000  0.76080000  1.0 -0.1660183911
C  C51  1  0.62750000  0.85180000  0.69930000  1.0 -0.1179851052
C  C52  1  0.57590000  0.83010000  0.64320000  1.0 -0.0894240066
C  C53  1  0.61500000  0.84670000  0.57670000  1.0 -0.1354655569
C  C54  1  0.66030000  0.86630000  0.63450000  1.0 -0.0650790328
C  C55  1  0.05320000  0.85310000  0.18830000  1.0 -0.0894240066
C  C56  1  0.07910000  0.82980000  0.23920000  1.0 -0.1660183911
C  C57  1  0.14820000  0.77570000  0.30070000  1.0 -0.1179851052
C  C58  1  0.16990000  0.74580000  0.35680000  1.0 -0.0951940978
C  C59  1  0.15330000  0.76830000  0.42330000  1.0 -0.1354655569
C  C60  1  0.13370000  0.79400000  0.36550000  1.0 -0.0638703053
C  C61  1  0.14690000  0.20010000  0.18830000  1.0 -0.0894240066
C  C62  1  0.17020000  0.24930000  0.23920000  1.0 -0.1660183911
C  C63  1  0.22430000  0.37250000  0.30070000  1.0 -0.1179851052
C  C64  1  0.25420000  0.42410000  0.35680000  1.0 -0.0951940978
C  C65  1  0.23170000  0.38500000  0.42330000  1.0 -0.1354655569
C  C66  1  0.20600000  0.33970000  0.36550000  1.0 -0.0638703053
C  C67  1  0.79990000  0.94680000  0.18830000  1.0 -0.0894240066
C  C68  1  0.75070000  0.92090000  0.23920000  1.0 -0.1660183911
C  C69  1  0.62750000  0.85180000  0.30070000  1.0 -0.1179851052
C  C70  1  0.57590000  0.83010000  0.35680000  1.0 -0.0951940978
C  C71  1  0.61500000  0.84670000  0.42330000  1.0 -0.1354655569
C  C72  1  0.66030000  0.86630000  0.36550000  1.0 -0.0650790328
C  C73  1  0.87650000  0.93825000  0.89800000  1.0 0.5942954476
C  C74  1  0.82600000  0.91300000  0.83740000  1.0 -0.022594058
C  C75  1  0.72370000  0.86185000  0.73430000  1.0 0.0276967758
C  C76  1  0.67080000  0.83540000  0.69000000  1.0 0.0443829639
C  C77  1  0.56360000  0.78180000  0.58560000  1.0 0.0770410913
C  C78  1  0.50540000  0.75270000  0.54280000  1.0 0.0043767476
C  C79  1  0.45030000  0.72515000  0.57960000  1.0 -0.2004877249
C  C80  1  0.39550000  0.69775000  0.54130000  1.0 0.0276967758
C  C81  1  0.06175000  0.12350000  0.89800000  1.0 0.5942954476
C  C82  1  0.08700000  0.17400000  0.83740000  1.0 -0.022594058
C  C83  1  0.13815000  0.27630000  0.73430000  1.0 0.0276967758
C  C84  1  0.16460000  0.32920000  0.69000000  1.0 0.0443829639
C  C85  1  0.21820000  0.43640000  0.58560000  1.0 0.0770410913
C  C86  1  0.24730000  0.49460000  0.54280000  1.0 0.0043767476
C  C87  1  0.27485000  0.54970000  0.57960000  1.0 -0.2004877249
C  C88  1  0.30225000  0.60450000  0.54130000  1.0 0.0276967758
C  C89  1  0.06175000  0.93825000  0.89800000  1.0 0.5942954476
C  C90  1  0.08700000  0.91300000  0.83740000  1.0 -0.022594058
C  C91  1  0.13815000  0.86185000  0.73430000  1.0 0.0276967758
C  C92  1  0.16460000  0.83540000  0.69000000  1.0 0.0443829639
C  C93  1  0.21820000  0.78180000  0.58560000  1.0 0.0770410913
C  C94  1  0.24730000  0.75270000  0.54280000  1.0 0.0043767476
C  C95  1  0.27485000  0.72515000  0.57960000  1.0 -0.2004877249
C  C96  1  0.30225000  0.69775000  0.54130000  1.0 0.0276967758
C  C97  1  0.87650000  0.93825000  0.10200000  1.0 0.5942954476
C  C98  1  0.82600000  0.91300000  0.16260000  1.0 -0.022594058
C  C99  1  0.72370000  0.86185000  0.26570000  1.0 0.0276967758
C  C100  1  0.67080000  0.83540000  0.31000000  1.0 0.0443829639
C  C101  1  0.56360000  0.78180000  0.41440000  1.0 0.0770410913
C  C102  1  0.50540000  0.75270000  0.45720000  1.0 0.0043767476
C  C103  1  0.45030000  0.72515000  0.42040000  1.0 -0.2004877249
C  C104  1  0.39550000  0.69775000  0.45870000  1.0 0.0276967758
C  C105  1  0.06175000  0.12350000  0.10200000  1.0 0.5942954476
C  C106  1  0.08700000  0.17400000  0.16260000  1.0 -0.022594058
C  C107  1  0.13815000  0.27630000  0.26570000  1.0 0.0276967758
C  C108  1  0.16460000  0.32920000  0.31000000  1.0 0.0443829639
C  C109  1  0.21820000  0.43640000  0.41440000  1.0 0.0770410913
C  C110  1  0.24730000  0.49460000  0.45720000  1.0 0.0043767476
C  C111  1  0.27485000  0.54970000  0.42040000  1.0 -0.2004877249
C  C112  1  0.30225000  0.60450000  0.45870000  1.0 0.0276967758
C  C113  1  0.06175000  0.93825000  0.10200000  1.0 0.5942954476
C  C114  1  0.08700000  0.91300000  0.16260000  1.0 -0.022594058
C  C115  1  0.13815000  0.86185000  0.26570000  1.0 0.0276967758
C  C116  1  0.16460000  0.83540000  0.31000000  1.0 0.0443829639
C  C117  1  0.21820000  0.78180000  0.41440000  1.0 0.0770410913
C  C118  1  0.24730000  0.75270000  0.45720000  1.0 0.0043767476
C  C119  1  0.27485000  0.72515000  0.42040000  1.0 -0.2004877249
C  C120  1  0.30225000  0.69775000  0.45870000  1.0 0.0276967758
C  C121  1  0.33333333  0.66666667  0.57250000  1.0 -0.1142411599
C  C122  1  0.33333333  0.66666667  0.42750000  1.0 -0.1142411599
O  O1  1  0.89605000  0.90375000  0.91670000  1.0 -0.526301592
O  O2  1  0.00770000  0.10395000  0.91670000  1.0 -0.526301592
O  O3  1  0.09625000  0.99230000  0.91670000  1.0 -0.526301592
O  O4  1  0.89605000  0.90375000  0.08330000  1.0 -0.526301592
O  O5  1  0.00770000  0.10395000  0.08330000  1.0 -0.526301592
O  O6  1  0.09625000  0.99230000  0.08330000  1.0 -0.526301592
O  O7  1  0.00770000  0.90375000  0.91670000  1.0 -0.526301592
O  O8  1  0.09625000  0.10395000  0.91670000  1.0 -0.526301592
O  O9  1  0.89605000  0.99230000  0.91670000  1.0 -0.526301592
O  O10  1  0.00770000  0.90375000  0.08330000  1.0 -0.526301592
O  O11  1  0.09625000  0.10395000  0.08330000  1.0 -0.526301592
O  O12  1  0.89605000  0.99230000  0.08330000  1.0 -0.526301592
O  O13  1  0.00000000  0.00000000  0.00000000  1.0 -0.9158235336
