# DDEC6 charges by PACMAN v1.1 (https://github.com/mtap-research/PACMAN-charge/)
data_HUHZES_ASR_pacman
_symmetry_space_group_name_H-M   'P 1'
_cell_length_a   24.96300000
_cell_length_b   24.96300000
_cell_length_c   17.09100000
_cell_angle_alpha   90.00000000
_cell_angle_beta   90.00000000
_cell_angle_gamma   120.00000000
_symmetry_Int_Tables_number   1
_chemical_formula_structural   Fe3H80C122O13
_chemical_formula_sum   'Fe3 H80 C122 O13'
_cell_volume   9223.41307862
_cell_formula_units_Z   1
loop_
 _symmetry_equiv_pos_site_id
 _symmetry_equiv_pos_as_xyz
  1  'x, y, z'
loop_
 _atom_site_type_symbol
 _atom_site_label
 _atom_site_symmetry_multiplicity
 _atom_site_fract_x
 _atom_site_fract_y
 _atom_site_fract_z
 _atom_site_occupancy
 _atom_site_charge
Fe  Fe1  1  0.95593000  0.91186000  0.00000000  1.0 1.0940950917
Fe  Fe2  1  0.95593000  0.04407000  0.00000000  1.0 1.0989558505
Fe  Fe3  1  0.08814000  0.04407000  0.00000000  1.0 1.0940950917
H  H1  1  0.81890000  0.83120000  0.82790000  1.0 0.1310037779
H  H2  1  0.73610000  0.78850000  0.74590000  1.0 0.1089849719
H  H3  1  0.69500000  0.78750000  0.61880000  1.0 0.1089849719
H  H4  1  0.60210000  0.73490000  0.55050000  1.0 0.0997434209
H  H5  1  0.63240000  0.75170000  0.73010000  1.0 0.0997434209
H  H6  1  0.54640000  0.70770000  0.65060000  1.0 0.1089849719
H  H7  1  0.01230000  0.18110000  0.82790000  1.0 0.1310037779
H  H8  1  0.05240000  0.26390000  0.74590000  1.0 0.1089849719
H  H9  1  0.09250000  0.30500000  0.61880000  1.0 0.1089849719
H  H10  1  0.13280000  0.39790000  0.55050000  1.0 0.0997434209
H  H11  1  0.11930000  0.36760000  0.73010000  1.0 0.0997434209
H  H12  1  0.16130000  0.45360000  0.65060000  1.0 0.1089849719
H  H13  1  0.16880000  0.98770000  0.82790000  1.0 0.1310037779
H  H14  1  0.21150000  0.94760000  0.74590000  1.0 0.1089849719
H  H15  1  0.21250000  0.90750000  0.61880000  1.0 0.1089849719
H  H16  1  0.26510000  0.86720000  0.55050000  1.0 0.0997434209
H  H17  1  0.24830000  0.88070000  0.73010000  1.0 0.0997434209
H  H18  1  0.29230000  0.83870000  0.65060000  1.0 0.1089849719
H  H19  1  0.81890000  0.83120000  0.17210000  1.0 0.1310037779
H  H20  1  0.73610000  0.78850000  0.25410000  1.0 0.1089849719
H  H21  1  0.69500000  0.78750000  0.38120000  1.0 0.1089849719
H  H22  1  0.60210000  0.73490000  0.44950000  1.0 0.0997434209
H  H23  1  0.63240000  0.75170000  0.26990000  1.0 0.0997434209
H  H24  1  0.54640000  0.70770000  0.34940000  1.0 0.1089849719
H  H25  1  0.01230000  0.18110000  0.17210000  1.0 0.1310037779
H  H26  1  0.05240000  0.26390000  0.25410000  1.0 0.1089849719
H  H27  1  0.09250000  0.30500000  0.38120000  1.0 0.1089849719
H  H28  1  0.13280000  0.39790000  0.44950000  1.0 0.0997434209
H  H29  1  0.11930000  0.36760000  0.26990000  1.0 0.0997434209
H  H30  1  0.16130000  0.45360000  0.34940000  1.0 0.1089849719
H  H31  1  0.16880000  0.98770000  0.17210000  1.0 0.1310037779
H  H32  1  0.21150000  0.94760000  0.25410000  1.0 0.1089849719
H  H33  1  0.21250000  0.90750000  0.38120000  1.0 0.1089849719
H  H34  1  0.26510000  0.86720000  0.44950000  1.0 0.0997434209
H  H35  1  0.24830000  0.88070000  0.26990000  1.0 0.0997434209
H  H36  1  0.29230000  0.83870000  0.34940000  1.0 0.1089849719
H  H37  1  0.01230000  0.83120000  0.82790000  1.0 0.1310037779
H  H38  1  0.05240000  0.78850000  0.74590000  1.0 0.1089849719
H  H39  1  0.09250000  0.78750000  0.61880000  1.0 0.1089849719
H  H40  1  0.13280000  0.73490000  0.55050000  1.0 0.0997434209
H  H41  1  0.11930000  0.75170000  0.73010000  1.0 0.0997434209
H  H42  1  0.16130000  0.70770000  0.65060000  1.0 0.1089849719
H  H43  1  0.16880000  0.18110000  0.82790000  1.0 0.1310037779
H  H44  1  0.21150000  0.26390000  0.74590000  1.0 0.1089849719
H  H45  1  0.21250000  0.30500000  0.61880000  1.0 0.1089849719
H  H46  1  0.26510000  0.39790000  0.55050000  1.0 0.0997434209
H  H47  1  0.24830000  0.36760000  0.73010000  1.0 0.0997434209
H  H48  1  0.29230000  0.45360000  0.65060000  1.0 0.1089849719
H  H49  1  0.81890000  0.98770000  0.82790000  1.0 0.1310037779
H  H50  1  0.73610000  0.94760000  0.74590000  1.0 0.1089849719
H  H51  1  0.69500000  0.90750000  0.61880000  1.0 0.1089849719
H  H52  1  0.60210000  0.86720000  0.55050000  1.0 0.0997434209
H  H53  1  0.63240000  0.88070000  0.73010000  1.0 0.0997434209
H  H54  1  0.54640000  0.83870000  0.65060000  1.0 0.1089849719
H  H55  1  0.01230000  0.83120000  0.17210000  1.0 0.1310037779
H  H56  1  0.05240000  0.78850000  0.25410000  1.0 0.1089849719
H  H57  1  0.09250000  0.78750000  0.38120000  1.0 0.1089849719
H  H58  1  0.13280000  0.73490000  0.44950000  1.0 0.0997434209
H  H59  1  0.11930000  0.75170000  0.26990000  1.0 0.0997434209
H  H60  1  0.16130000  0.70770000  0.34940000  1.0 0.1089849719
H  H61  1  0.16880000  0.18110000  0.17210000  1.0 0.1310037779
H  H62  1  0.21150000  0.26390000  0.25410000  1.0 0.1089849719
H  H63  1  0.21250000  0.30500000  0.38120000  1.0 0.1089849719
H  H64  1  0.26510000  0.39790000  0.44950000  1.0 0.0997434209
H  H65  1  0.24830000  0.36760000  0.26990000  1.0 0.0997434209
H  H66  1  0.29230000  0.45360000  0.34940000  1.0 0.1089849719
H  H67  1  0.81890000  0.98770000  0.17210000  1.0 0.1310037779
H  H68  1  0.73610000  0.94760000  0.25410000  1.0 0.1089849719
H  H69  1  0.69500000  0.90750000  0.38120000  1.0 0.1089849719
H  H70  1  0.60210000  0.86720000  0.44950000  1.0 0.0997434209
H  H71  1  0.63240000  0.88070000  0.26990000  1.0 0.0997434209
H  H72  1  0.54640000  0.83870000  0.34940000  1.0 0.1089849719
H  H73  1  0.45450000  0.72725000  0.63560000  1.0 0.1310037779
H  H74  1  0.27275000  0.54550000  0.63560000  1.0 0.1310037779
H  H75  1  0.27275000  0.72725000  0.63560000  1.0 0.1310037779
H  H76  1  0.45450000  0.72725000  0.36440000  1.0 0.1310037779
H  H77  1  0.27275000  0.54550000  0.36440000  1.0 0.1310037779
H  H78  1  0.27275000  0.72725000  0.36440000  1.0 0.1310037779
H  H79  1  0.33333333  0.66666667  0.63120000  1.0 0.1310037779
H  H80  1  0.33333333  0.66666667  0.36880000  1.0 0.1310037779
C  C1  1  0.80140000  0.85459000  0.81166000  1.0 -0.0907738443
C  C2  1  0.75221000  0.82935000  0.76171000  1.0 -0.1740475836
C  C3  1  0.66340000  0.79600000  0.62910000  1.0 -0.0978750129
C  C4  1  0.60820000  0.76670000  0.58430000  1.0 -0.0978750129
C  C5  1  0.62750000  0.77580000  0.69240000  1.0 -0.0978750129
C  C6  1  0.57530000  0.74940000  0.64440000  1.0 -0.0978750129
C  C7  1  0.05319000  0.19860000  0.81166000  1.0 -0.0907738443
C  C8  1  0.07714000  0.24779000  0.76171000  1.0 -0.1740475836
C  C9  1  0.13260000  0.33660000  0.62910000  1.0 -0.0978750129
C  C10  1  0.15850000  0.39180000  0.58430000  1.0 -0.0978750129
C  C11  1  0.14830000  0.37250000  0.69240000  1.0 -0.0907738443
C  C12  1  0.17410000  0.42470000  0.64440000  1.0 -0.0978750129
C  C13  1  0.14541000  0.94681000  0.81166000  1.0 -0.0907738443
C  C14  1  0.17065000  0.92286000  0.76171000  1.0 -0.1740475836
C  C15  1  0.20400000  0.86740000  0.62910000  1.0 -0.0978750129
C  C16  1  0.23330000  0.84150000  0.58430000  1.0 -0.0978750129
C  C17  1  0.22420000  0.85170000  0.69240000  1.0 -0.0978750129
C  C18  1  0.25060000  0.82590000  0.64440000  1.0 -0.0978750129
C  C19  1  0.80140000  0.85459000  0.18834000  1.0 -0.0907738443
C  C20  1  0.75221000  0.82935000  0.23829000  1.0 -0.1740475836
C  C21  1  0.66340000  0.79600000  0.37090000  1.0 -0.0978750129
C  C22  1  0.60820000  0.76670000  0.41570000  1.0 -0.0978750129
C  C23  1  0.62750000  0.77580000  0.30760000  1.0 -0.0978750129
C  C24  1  0.57530000  0.74940000  0.35560000  1.0 -0.0978750129
C  C25  1  0.05319000  0.19860000  0.18834000  1.0 -0.0907738443
C  C26  1  0.07714000  0.24779000  0.23829000  1.0 -0.1740475836
C  C27  1  0.13260000  0.33660000  0.37090000  1.0 -0.0978750129
C  C28  1  0.15850000  0.39180000  0.41570000  1.0 -0.0978750129
C  C29  1  0.14830000  0.37250000  0.30760000  1.0 -0.0978750129
C  C30  1  0.17410000  0.42470000  0.35560000  1.0 -0.0978750129
C  C31  1  0.14541000  0.94681000  0.18834000  1.0 -0.0907738443
C  C32  1  0.17065000  0.92286000  0.23829000  1.0 -0.1740475836
C  C33  1  0.20400000  0.86740000  0.37090000  1.0 -0.0978750129
C  C34  1  0.23330000  0.84150000  0.41570000  1.0 -0.0978750129
C  C35  1  0.22420000  0.85170000  0.30760000  1.0 -0.0978750129
C  C36  1  0.25060000  0.82590000  0.35560000  1.0 -0.0978750129
C  C37  1  0.05319000  0.85459000  0.81166000  1.0 -0.0907738443
C  C38  1  0.07714000  0.82935000  0.76171000  1.0 -0.1740475836
C  C39  1  0.13260000  0.79600000  0.62910000  1.0 -0.0978750129
C  C40  1  0.15850000  0.76670000  0.58430000  1.0 -0.0978750129
C  C41  1  0.14830000  0.77580000  0.69240000  1.0 -0.0978750129
C  C42  1  0.17410000  0.74940000  0.64440000  1.0 -0.0978750129
C  C43  1  0.14541000  0.19860000  0.81166000  1.0 -0.0907738443
C  C44  1  0.17065000  0.24779000  0.76171000  1.0 -0.1740475836
C  C45  1  0.20400000  0.33660000  0.62910000  1.0 -0.0978750129
C  C46  1  0.23330000  0.39180000  0.58430000  1.0 -0.0978750129
C  C47  1  0.22420000  0.37250000  0.69240000  1.0 -0.0907738443
C  C48  1  0.25060000  0.42470000  0.64440000  1.0 -0.0978750129
C  C49  1  0.80140000  0.94681000  0.81166000  1.0 -0.0907738443
C  C50  1  0.75221000  0.92286000  0.76171000  1.0 -0.1740475836
C  C51  1  0.66340000  0.86740000  0.62910000  1.0 -0.0978750129
C  C52  1  0.60820000  0.84150000  0.58430000  1.0 -0.0978750129
C  C53  1  0.62750000  0.85170000  0.69240000  1.0 -0.0978750129
C  C54  1  0.57530000  0.82590000  0.64440000  1.0 -0.0978750129
C  C55  1  0.05319000  0.85459000  0.18834000  1.0 -0.0907738443
C  C56  1  0.07714000  0.82935000  0.23829000  1.0 -0.1740475836
C  C57  1  0.13260000  0.79600000  0.37090000  1.0 -0.0978750129
C  C58  1  0.15850000  0.76670000  0.41570000  1.0 -0.0978750129
C  C59  1  0.14830000  0.77580000  0.30760000  1.0 -0.0978750129
C  C60  1  0.17410000  0.74940000  0.35560000  1.0 -0.0978750129
C  C61  1  0.14541000  0.19860000  0.18834000  1.0 -0.0907738443
C  C62  1  0.17065000  0.24779000  0.23829000  1.0 -0.1740475836
C  C63  1  0.20400000  0.33660000  0.37090000  1.0 -0.0978750129
C  C64  1  0.23330000  0.39180000  0.41570000  1.0 -0.0978750129
C  C65  1  0.22420000  0.37250000  0.30760000  1.0 -0.0978750129
C  C66  1  0.25060000  0.42470000  0.35560000  1.0 -0.0978750129
C  C67  1  0.80140000  0.94681000  0.18834000  1.0 -0.0907738443
C  C68  1  0.75221000  0.92286000  0.23829000  1.0 -0.1740475836
C  C69  1  0.66340000  0.86740000  0.37090000  1.0 -0.0978750129
C  C70  1  0.60820000  0.84150000  0.41570000  1.0 -0.0978750129
C  C71  1  0.62750000  0.85170000  0.30760000  1.0 -0.0978750129
C  C72  1  0.57530000  0.82590000  0.35560000  1.0 -0.0978750129
C  C73  1  0.39653000  0.69827000  0.54088000  1.0 0.0071414252
C  C74  1  0.50724000  0.75362000  0.54151000  1.0 0.0071414252
C  C75  1  0.56507000  0.78253000  0.58855000  1.0 0.0227863317
C  C76  1  0.45396000  0.72698000  0.58120000  1.0 -0.2120668186
C  C77  1  0.82461000  0.91231000  0.83737000  1.0 -0.0439939095
C  C78  1  0.72545000  0.86272000  0.73383000  1.0 0.0568085655
C  C79  1  0.87559000  0.93780000  0.89587000  1.0 0.5956017482
C  C80  1  0.67023000  0.83512000  0.68480000  1.0 0.0346736058
C  C81  1  0.30173000  0.60347000  0.54088000  1.0 0.0071414252
C  C82  1  0.24638000  0.49276000  0.54151000  1.0 0.0071414252
C  C83  1  0.21747000  0.43493000  0.58855000  1.0 0.0227863317
C  C84  1  0.27302000  0.54604000  0.58120000  1.0 -0.2120668186
C  C85  1  0.08769000  0.17539000  0.83737000  1.0 -0.0439939095
C  C86  1  0.13728000  0.27455000  0.73383000  1.0 0.0568085655
C  C87  1  0.06221000  0.12441000  0.89587000  1.0 0.5956017482
C  C88  1  0.16489000  0.32977000  0.68480000  1.0 0.0346736058
C  C89  1  0.30173000  0.69827000  0.54088000  1.0 0.0071414252
C  C90  1  0.24638000  0.75362000  0.54151000  1.0 0.0071414252
C  C91  1  0.21746000  0.78253000  0.58855000  1.0 0.0227863317
C  C92  1  0.27302000  0.72698000  0.58120000  1.0 -0.2120668186
C  C93  1  0.08770000  0.91231000  0.83737000  1.0 -0.0439939095
C  C94  1  0.13728000  0.86272000  0.73383000  1.0 0.0568085655
C  C95  1  0.06221000  0.93780000  0.89587000  1.0 0.5956017482
C  C96  1  0.16489000  0.83512000  0.68480000  1.0 0.0346736058
C  C97  1  0.39653000  0.69827000  0.45912000  1.0 0.0071414252
C  C98  1  0.50724000  0.75362000  0.45849000  1.0 0.0071414252
C  C99  1  0.56507000  0.78253000  0.41145000  1.0 0.0227863317
C  C100  1  0.45396000  0.72698000  0.41880000  1.0 -0.2120668186
C  C101  1  0.82461000  0.91231000  0.16263000  1.0 -0.0439939095
C  C102  1  0.72545000  0.86272000  0.26617000  1.0 0.0568085655
C  C103  1  0.87559000  0.93780000  0.10413000  1.0 0.5956017482
C  C104  1  0.67023000  0.83512000  0.31520000  1.0 0.0346736058
C  C105  1  0.30173000  0.60347000  0.45912000  1.0 0.0071414252
C  C106  1  0.24638000  0.49276000  0.45849000  1.0 0.0071414252
C  C107  1  0.21747000  0.43493000  0.41145000  1.0 0.0227863317
C  C108  1  0.27302000  0.54604000  0.41880000  1.0 -0.2120668186
C  C109  1  0.08769000  0.17539000  0.16263000  1.0 -0.0439939095
C  C110  1  0.13728000  0.27455000  0.26617000  1.0 0.0568085655
C  C111  1  0.06221000  0.12441000  0.10413000  1.0 0.5956017482
C  C112  1  0.16489000  0.32977000  0.31520000  1.0 0.0346736058
C  C113  1  0.30173000  0.69827000  0.45912000  1.0 0.0071414252
C  C114  1  0.24638000  0.75362000  0.45849000  1.0 0.0071414252
C  C115  1  0.21746000  0.78253000  0.41145000  1.0 0.0227863317
C  C116  1  0.27302000  0.72698000  0.41880000  1.0 -0.2120668186
C  C117  1  0.08770000  0.91231000  0.16263000  1.0 -0.0439939095
C  C118  1  0.13728000  0.86272000  0.26617000  1.0 0.0568085655
C  C119  1  0.06221000  0.93780000  0.10413000  1.0 0.5956017482
C  C120  1  0.16489000  0.83512000  0.31520000  1.0 0.0346736058
C  C121  1  0.33333333  0.66666667  0.57380000  1.0 -0.0978750129
C  C122  1  0.33333333  0.66666667  0.42620000  1.0 -0.0978750129
O  O1  1  0.89602000  0.90449000  0.91772000  1.0 -0.5068821503
O  O2  1  0.00847000  0.10398000  0.91772000  1.0 -0.5068821503
O  O3  1  0.09551000  0.99153000  0.91772000  1.0 -0.5068821503
O  O4  1  0.89602000  0.90449000  0.08228000  1.0 -0.5068821503
O  O5  1  0.00847000  0.10398000  0.08228000  1.0 -0.5068821503
O  O6  1  0.09551000  0.99153000  0.08228000  1.0 -0.5068821503
O  O7  1  0.00847000  0.90449000  0.91772000  1.0 -0.5068821503
O  O8  1  0.09551000  0.10398000  0.91772000  1.0 -0.5068821503
O  O9  1  0.89602000  0.99153000  0.91772000  1.0 -0.5068821503
O  O10  1  0.00847000  0.90449000  0.08228000  1.0 -0.5068821503
O  O11  1  0.09551000  0.10398000  0.08228000  1.0 -0.5068821503
O  O12  1  0.89602000  0.99153000  0.08228000  1.0 -0.5068821503
O  O13  1  0.00000000  0.00000000  0.00000000  1.0 -0.8930856777
