# DDEC6 charges by PACMAN v1.1 (https://github.com/mtap-research/PACMAN-charge/)
data_HUKRIO_ASR_pacman
_symmetry_space_group_name_H-M   'P 1'
_cell_length_a   11.35500000
_cell_length_b   11.35500000
_cell_length_c   8.06250000
_cell_angle_alpha   90.00000000
_cell_angle_beta   90.00000000
_cell_angle_gamma   120.00000000
_symmetry_Int_Tables_number   1
_chemical_formula_structural   Co(C7N4)6
_chemical_formula_sum   'Co1 C42 N24'
_cell_volume   900.27385197
_cell_formula_units_Z   1
loop_
 _symmetry_equiv_pos_site_id
 _symmetry_equiv_pos_as_xyz
  1  'x, y, z'
loop_
 _atom_site_type_symbol
 _atom_site_label
 _atom_site_symmetry_multiplicity
 _atom_site_fract_x
 _atom_site_fract_y
 _atom_site_fract_z
 _atom_site_occupancy
 _atom_site_charge
Co  Co1  1  0.00000000  0.00000000  0.00000000  1.0 0.4995043452
C  C1  1  0.25870000  0.25870000  0.13500000  1.0 0.1960634466
C  C2  1  0.74130000  0.00000000  0.13500000  1.0 0.1960634466
C  C3  1  0.00000000  0.74130000  0.13500000  1.0 0.1960634466
C  C4  1  0.74130000  0.74130000  0.86500000  1.0 0.1960634466
C  C5  1  0.25870000  0.00000000  0.86500000  1.0 0.1960634466
C  C6  1  0.00000000  0.25870000  0.86500000  1.0 0.1960634466
C  C7  1  0.07500000  0.21500000  0.28500000  1.0 -0.0073417062
C  C8  1  0.78500000  0.86000000  0.28500000  1.0 -0.0073417062
C  C9  1  0.14000000  0.92500000  0.28500000  1.0 -0.0073417062
C  C10  1  0.21500000  0.07500000  0.28500000  1.0 -0.0073417062
C  C11  1  0.92500000  0.14000000  0.28500000  1.0 -0.0073417062
C  C12  1  0.86000000  0.78500000  0.28500000  1.0 -0.0073417062
C  C13  1  0.92500000  0.78500000  0.71500000  1.0 -0.0073417062
C  C14  1  0.21500000  0.14000000  0.71500000  1.0 -0.0073417062
C  C15  1  0.86000000  0.07500000  0.71500000  1.0 -0.0073417062
C  C16  1  0.78500000  0.92500000  0.71500000  1.0 -0.0073417062
C  C17  1  0.07500000  0.86000000  0.71500000  1.0 -0.0073417062
C  C18  1  0.14000000  0.21500000  0.71500000  1.0 -0.0073417062
C  C19  1  0.19600000  0.34000000  0.33300000  1.0 -0.066218673
C  C20  1  0.66000000  0.85600000  0.33300000  1.0 -0.066218673
C  C21  1  0.14400000  0.80400000  0.33300000  1.0 -0.066218673
C  C22  1  0.34000000  0.19600000  0.33300000  1.0 -0.066218673
C  C23  1  0.80400000  0.14400000  0.33300000  1.0 -0.064513569
C  C24  1  0.85600000  0.66000000  0.33300000  1.0 -0.066218673
C  C25  1  0.80400000  0.66000000  0.66700000  1.0 -0.066218673
C  C26  1  0.34000000  0.14400000  0.66700000  1.0 -0.066218673
C  C27  1  0.85600000  0.19600000  0.66700000  1.0 -0.066218673
C  C28  1  0.66000000  0.80400000  0.66700000  1.0 -0.066218673
C  C29  1  0.19600000  0.85600000  0.66700000  1.0 -0.066218673
C  C30  1  0.14400000  0.34000000  0.66700000  1.0 -0.066218673
C  C31  1  0.45870000  0.45870000  0.24600000  1.0 -0.1325988421
C  C32  1  0.54130000  0.00000000  0.24600000  1.0 -0.1325988421
C  C33  1  0.00000000  0.54130000  0.24600000  1.0 -0.1325988421
C  C34  1  0.54130000  0.54130000  0.75400000  1.0 -0.1325988421
C  C35  1  0.45870000  0.00000000  0.75400000  1.0 -0.1325988421
C  C36  1  0.00000000  0.45870000  0.75400000  1.0 -0.1325988421
C  C37  1  0.49200000  0.49200000  0.43100000  1.0 -0.0383915038
C  C38  1  0.50800000  0.00000000  0.43100000  1.0 -0.0383915038
C  C39  1  0.00000000  0.50800000  0.43100000  1.0 -0.0383915038
C  C40  1  0.50800000  0.50800000  0.56900000  1.0 -0.0383915038
C  C41  1  0.49200000  0.00000000  0.56900000  1.0 -0.0383915038
C  C42  1  0.00000000  0.49200000  0.56900000  1.0 -0.0383915038
N  N1  1  0.12580000  0.17210000  0.15400000  1.0 -0.0816954349
N  N2  1  0.82790000  0.95370000  0.15400000  1.0 -0.0816954349
N  N3  1  0.04630000  0.87420000  0.15400000  1.0 -0.0816954349
N  N4  1  0.17210000  0.12580000  0.15400000  1.0 -0.0816954349
N  N5  1  0.87420000  0.04630000  0.15400000  1.0 -0.0816954349
N  N6  1  0.95370000  0.82790000  0.15400000  1.0 -0.0816954349
N  N7  1  0.87420000  0.82790000  0.84600000  1.0 -0.0816954349
N  N8  1  0.17210000  0.04630000  0.84600000  1.0 -0.0816954349
N  N9  1  0.95370000  0.12580000  0.84600000  1.0 -0.0816954349
N  N10  1  0.82790000  0.87420000  0.84600000  1.0 -0.0816954349
N  N11  1  0.12580000  0.95370000  0.84600000  1.0 -0.0816954349
N  N12  1  0.04630000  0.17210000  0.84600000  1.0 -0.0816954349
N  N13  1  0.30600000  0.35700000  0.24400000  1.0 0.1009518095
N  N14  1  0.64300000  0.94900000  0.24400000  1.0 0.1009518095
N  N15  1  0.05100000  0.69400000  0.24400000  1.0 0.1009518095
N  N16  1  0.35700000  0.30600000  0.24400000  1.0 0.1009518095
N  N17  1  0.69400000  0.05100000  0.24400000  1.0 0.1009518095
N  N18  1  0.94900000  0.64300000  0.24400000  1.0 0.1009518095
N  N19  1  0.69400000  0.64300000  0.75600000  1.0 0.1009518095
N  N20  1  0.35700000  0.05100000  0.75600000  1.0 0.1009518095
N  N21  1  0.94900000  0.30600000  0.75600000  1.0 0.1009518095
N  N22  1  0.64300000  0.69400000  0.75600000  1.0 0.1009518095
N  N23  1  0.30600000  0.94900000  0.75600000  1.0 0.1009518095
N  N24  1  0.05100000  0.35700000  0.75600000  1.0 0.1009518095
