# DDEC6 charges by PACMAN v1.1 (https://github.com/mtap-research/PACMAN-charge/)
data_HULRIR_ASR_pacman
_symmetry_space_group_name_H-M   'P 1'
_cell_length_a   13.50740000
_cell_length_b   13.50740000
_cell_length_c   25.91100000
_cell_angle_alpha   82.31190000
_cell_angle_beta   97.68810000
_cell_angle_gamma   88.63220000
_symmetry_Int_Tables_number   1
_chemical_formula_structural   Cd3H10C24(NO4)3
_chemical_formula_sum   'Cd12 H40 C96 N12 O48'
_cell_volume   4638.64935869
_cell_formula_units_Z   4
loop_
 _symmetry_equiv_pos_site_id
 _symmetry_equiv_pos_as_xyz
  1  'x, y, z'
loop_
 _atom_site_type_symbol
 _atom_site_label
 _atom_site_symmetry_multiplicity
 _atom_site_fract_x
 _atom_site_fract_y
 _atom_site_fract_z
 _atom_site_occupancy
 _atom_site_charge
Cd  Cd1  1  0.22491000  0.61799000  0.42905000  1.0 0.9403624993
Cd  Cd2  1  0.61799000  0.22491000  0.07095000  1.0 0.9403624993
Cd  Cd3  1  0.77509000  0.38201000  0.57095000  1.0 0.9403624993
Cd  Cd4  1  0.38201000  0.77509000  0.92905000  1.0 0.9403624993
Cd  Cd5  1  0.20214000  0.55836000  0.29355000  1.0 0.9267444324
Cd  Cd6  1  0.55836000  0.20214000  0.20645000  1.0 0.9267444324
Cd  Cd7  1  0.79786000  0.44164000  0.70645000  1.0 0.9267444324
Cd  Cd8  1  0.44164000  0.79786000  0.79355000  1.0 0.9243132782
Cd  Cd9  1  0.21614000  0.88906000  0.43774000  1.0 0.9267444324
Cd  Cd10  1  0.88906000  0.21614000  0.06226000  1.0 0.9267444324
Cd  Cd11  1  0.78386000  0.11094000  0.56226000  1.0 0.9267444324
Cd  Cd12  1  0.11094000  0.78386000  0.93774000  1.0 0.9267444324
H  H1  1  0.19130000  0.94470000  0.16310000  1.0 0.1178685438
H  H2  1  0.94470000  0.19130000  0.33690000  1.0 0.1178685438
H  H3  1  0.80870000  0.05530000  0.83690000  1.0 0.1178685438
H  H4  1  0.05530000  0.80870000  0.66310000  1.0 0.1178685438
H  H5  1  0.41830000  0.41390000  0.32260000  1.0 0.1395477789
H  H6  1  0.41390000  0.41830000  0.17740000  1.0 0.1395477789
H  H7  1  0.58170000  0.58610000  0.67740000  1.0 0.1395477789
H  H8  1  0.58610000  0.58170000  0.82260000  1.0 0.1395477789
H  H9  1  0.64080000  0.21960000  0.38980000  1.0 0.1339004634
H  H10  1  0.21960000  0.64080000  0.11020000  1.0 0.1395477789
H  H11  1  0.35920000  0.78040000  0.61020000  1.0 0.1339004634
H  H12  1  0.78040000  0.35920000  0.88980000  1.0 0.1339004634
H  H13  1  0.99770000  0.43310000  0.44390000  1.0 0.1395477789
H  H14  1  0.43310000  0.99770000  0.05610000  1.0 0.1395477789
H  H15  1  0.00230000  0.56690000  0.55610000  1.0 0.1395477789
H  H16  1  0.56690000  0.00230000  0.94390000  1.0 0.1395477789
H  H17  1  0.51040000  0.38980000  0.47720000  1.0 0.1395477789
H  H18  1  0.38980000  0.51040000  0.02280000  1.0 0.1395477789
H  H19  1  0.48960000  0.61020000  0.52280000  1.0 0.1395477789
H  H20  1  0.61020000  0.48960000  0.97720000  1.0 0.1395477789
H  H21  1  0.99370000  0.13910000  0.49440000  1.0 0.1395477789
H  H22  1  0.13910000  0.99370000  0.00560000  1.0 0.1395477789
H  H23  1  0.00630000  0.86090000  0.50560000  1.0 0.1395477789
H  H24  1  0.86090000  0.00630000  0.99440000  1.0 0.1395477789
H  H25  1  0.15860000  0.23880000  0.38160000  1.0 0.1339004634
H  H26  1  0.23880000  0.15860000  0.11840000  1.0 0.1339004634
H  H27  1  0.84140000  0.76120000  0.61840000  1.0 0.1339004634
H  H28  1  0.76120000  0.84140000  0.88160000  1.0 0.1339004634
H  H29  1  0.19520000  0.77740000  0.19920000  1.0 0.1395477789
H  H30  1  0.77740000  0.19520000  0.30080000  1.0 0.1395477789
H  H31  1  0.80480000  0.22260000  0.80080000  1.0 0.1395477789
H  H32  1  0.22260000  0.80480000  0.69920000  1.0 0.1395477789
H  H33  1  0.20620000  0.03160000  0.31290000  1.0 0.1395477789
H  H34  1  0.03160000  0.20620000  0.18710000  1.0 0.1395477789
H  H35  1  0.79380000  0.96840000  0.68710000  1.0 0.1395477789
H  H36  1  0.96840000  0.79380000  0.81290000  1.0 0.1395477789
H  H37  1  0.21240000  0.06600000  0.22010000  1.0 0.1106903863
H  H38  1  0.06600000  0.21240000  0.27990000  1.0 0.1106903863
H  H39  1  0.78760000  0.93400000  0.77990000  1.0 0.1106903863
H  H40  1  0.93400000  0.78760000  0.72010000  1.0 0.1106903863
C  C1  1  0.65560000  0.24940000  0.48820000  1.0 0.571908505
C  C2  1  0.24940000  0.65560000  0.01180000  1.0 0.571908505
C  C3  1  0.34440000  0.75060000  0.51180000  1.0 0.571908505
C  C4  1  0.75060000  0.34440000  0.98820000  1.0 0.571908505
C  C5  1  0.53980000  0.27920000  0.29660000  1.0 0.5260964197
C  C6  1  0.27920000  0.53980000  0.20340000  1.0 0.5260964197
C  C7  1  0.46020000  0.72080000  0.70340000  1.0 0.5260964197
C  C8  1  0.72080000  0.46020000  0.79660000  1.0 0.5260964197
C  C9  1  0.91050000  0.30910000  0.51150000  1.0 0.5770107743
C  C10  1  0.30910000  0.91050000  0.98850000  1.0 0.5770107743
C  C11  1  0.08950000  0.69090000  0.48850000  1.0 0.5770107743
C  C12  1  0.69090000  0.08950000  0.01150000  1.0 0.5770107743
C  C13  1  0.12290000  0.06790000  0.43710000  1.0 0.5206350994
C  C14  1  0.06790000  0.12290000  0.06290000  1.0 0.5206350994
C  C15  1  0.87710000  0.93210000  0.56290000  1.0 0.5206350994
C  C16  1  0.93210000  0.87710000  0.93710000  1.0 0.5206350994
C  C17  1  0.08320000  0.17280000  0.43800000  1.0 -0.0208453406
C  C18  1  0.17280000  0.08320000  0.06200000  1.0 -0.0208453406
C  C19  1  0.91680000  0.82720000  0.56200000  1.0 -0.0208453406
C  C20  1  0.82720000  0.91680000  0.93800000  1.0 -0.0208453406
C  C21  1  0.19690000  0.92610000  0.19930000  1.0 -0.118378802
C  C22  1  0.92610000  0.19690000  0.30070000  1.0 -0.118378802
C  C23  1  0.80310000  0.07390000  0.80070000  1.0 -0.118378802
C  C24  1  0.07390000  0.80310000  0.69930000  1.0 -0.118378802
C  C25  1  0.45000000  0.41180000  0.40110000  1.0 -0.0208453406
C  C26  1  0.41180000  0.45000000  0.09890000  1.0 -0.0208453406
C  C27  1  0.55000000  0.58820000  0.59890000  1.0 -0.0208453406
C  C28  1  0.58820000  0.55000000  0.90110000  1.0 -0.0208453406
C  C29  1  0.46080000  0.38480000  0.35230000  1.0 -0.0844016958
C  C30  1  0.38480000  0.46080000  0.14770000  1.0 -0.0844016958
C  C31  1  0.53920000  0.61520000  0.64770000  1.0 -0.0844016958
C  C32  1  0.61520000  0.53920000  0.85230000  1.0 -0.0844016958
C  C33  1  0.59490000  0.27030000  0.39270000  1.0 -0.0888140302
C  C34  1  0.27030000  0.59490000  0.10730000  1.0 -0.0888140302
C  C35  1  0.40510000  0.72970000  0.60730000  1.0 -0.0888140302
C  C36  1  0.72970000  0.40510000  0.89270000  1.0 -0.0888140302
C  C37  1  0.37170000  0.48950000  0.40450000  1.0 0.5770107743
C  C38  1  0.48950000  0.37170000  0.09550000  1.0 0.5770107743
C  C39  1  0.62830000  0.51050000  0.59550000  1.0 0.5770107743
C  C40  1  0.51050000  0.62830000  0.90450000  1.0 0.5770107743
C  C41  1  0.01940000  0.36760000  0.44280000  1.0 -0.0888140302
C  C42  1  0.36760000  0.01940000  0.05720000  1.0 -0.0888140302
C  C43  1  0.98060000  0.63240000  0.55720000  1.0 -0.0888140302
C  C44  1  0.63240000  0.98060000  0.94280000  1.0 -0.0888140302
C  C45  1  0.98410000  0.29210000  0.47380000  1.0 -0.0115441691
C  C46  1  0.29210000  0.98410000  0.02620000  1.0 -0.0115441691
C  C47  1  0.01590000  0.70790000  0.52620000  1.0 -0.0115441691
C  C48  1  0.70790000  0.01590000  0.97380000  1.0 -0.0115441691
C  C49  1  0.08750000  0.34890000  0.40940000  1.0 -0.0301836339
C  C50  1  0.34890000  0.08750000  0.09060000  1.0 -0.0301836339
C  C51  1  0.91250000  0.65110000  0.59060000  1.0 -0.0301836339
C  C52  1  0.65110000  0.91250000  0.90940000  1.0 -0.0301836339
C  C53  1  0.58950000  0.29830000  0.44100000  1.0 -0.0301836339
C  C54  1  0.29830000  0.58950000  0.05900000  1.0 -0.0301836339
C  C55  1  0.41050000  0.70170000  0.55900000  1.0 -0.0301836339
C  C56  1  0.70170000  0.41050000  0.94100000  1.0 -0.0301836339
C  C57  1  0.12570000  0.43010000  0.37420000  1.0 0.571908505
C  C58  1  0.43010000  0.12570000  0.12580000  1.0 0.571908505
C  C59  1  0.87430000  0.56990000  0.62580000  1.0 0.571908505
C  C60  1  0.56990000  0.87430000  0.87420000  1.0 0.571908505
C  C61  1  0.51580000  0.36980000  0.44470000  1.0 -0.0888140302
C  C62  1  0.36980000  0.51580000  0.05530000  1.0 -0.0888140302
C  C63  1  0.48420000  0.63020000  0.55530000  1.0 -0.0888140302
C  C64  1  0.63020000  0.48420000  0.94470000  1.0 -0.0888140302
C  C65  1  0.01660000  0.19140000  0.47260000  1.0 -0.1018462458
C  C66  1  0.19140000  0.01660000  0.02740000  1.0 -0.1018462458
C  C67  1  0.98340000  0.80860000  0.52740000  1.0 -0.1018462458
C  C68  1  0.80860000  0.98340000  0.97260000  1.0 -0.1018462458
C  C69  1  0.11650000  0.25150000  0.40580000  1.0 -0.1018462458
C  C70  1  0.25150000  0.11650000  0.09420000  1.0 -0.1018462458
C  C71  1  0.88350000  0.74850000  0.59420000  1.0 -0.1018462458
C  C72  1  0.74850000  0.88350000  0.90580000  1.0 -0.1018462458
C  C73  1  0.53390000  0.31510000  0.34770000  1.0 -0.0208453406
C  C74  1  0.31510000  0.53390000  0.15230000  1.0 -0.0208453406
C  C75  1  0.46610000  0.68490000  0.65230000  1.0 -0.0208453406
C  C76  1  0.68490000  0.46610000  0.84770000  1.0 -0.0208453406
C  C77  1  0.20180000  0.87960000  0.30910000  1.0 0.1106903863
C  C78  1  0.87960000  0.20180000  0.19090000  1.0 0.1106903863
C  C79  1  0.79820000  0.12040000  0.69090000  1.0 0.1106903863
C  C80  1  0.12040000  0.79820000  0.80910000  1.0 0.1106903863
C  C81  1  0.20010000  0.80430000  0.27860000  1.0 0.1339004634
C  C82  1  0.80430000  0.20010000  0.22140000  1.0 0.1339004634
C  C83  1  0.79990000  0.19570000  0.72140000  1.0 0.1339004634
C  C84  1  0.19570000  0.79990000  0.77860000  1.0 0.1339004634
C  C85  1  0.19690000  0.82790000  0.22040000  1.0 -0.118378802
C  C86  1  0.82790000  0.19690000  0.27960000  1.0 -0.118378802
C  C87  1  0.80310000  0.17210000  0.77960000  1.0 -0.118378802
C  C88  1  0.17210000  0.80310000  0.72040000  1.0 -0.118378802
C  C89  1  0.20480000  0.98180000  0.29130000  1.0 -0.1764025727
C  C90  1  0.98180000  0.20480000  0.20870000  1.0 -0.1749997723
C  C91  1  0.79520000  0.01820000  0.70870000  1.0 -0.1764025727
C  C92  1  0.01820000  0.79520000  0.79130000  1.0 -0.1764025727
C  C93  1  0.20560000  0.00020000  0.23480000  1.0 -0.0356173951
C  C94  1  0.00020000  0.20560000  0.26520000  1.0 -0.0356173951
C  C95  1  0.79440000  0.99980000  0.76520000  1.0 -0.0356173951
C  C96  1  0.99980000  0.79440000  0.73480000  1.0 -0.0356173951
N  N1  1  0.20360000  0.74020000  0.35640000  1.0 -0.0301836339
N  N2  1  0.74020000  0.20360000  0.14360000  1.0 -0.0301836339
N  N3  1  0.79640000  0.25980000  0.64360000  1.0 -0.0301836339
N  N4  1  0.25980000  0.79640000  0.85640000  1.0 -0.0301836339
N  N5  1  0.20070000  0.71690000  0.30830000  1.0 -0.2256186593
N  N6  1  0.71690000  0.20070000  0.19170000  1.0 -0.2256186593
N  N7  1  0.79930000  0.28310000  0.69170000  1.0 -0.2256186593
N  N8  1  0.28310000  0.79930000  0.80830000  1.0 -0.2256186593
N  N9  1  0.20280000  0.83480000  0.35820000  1.0 -0.1862673152
N  N10  1  0.83480000  0.20280000  0.14180000  1.0 -0.1862673152
N  N11  1  0.79720000  0.16520000  0.64180000  1.0 -0.1862673152
N  N12  1  0.16520000  0.79720000  0.85820000  1.0 -0.1862673152
O  O1  1  0.70630000  0.17490000  0.48270000  1.0 -0.4986749628
O  O2  1  0.17490000  0.70630000  0.01730000  1.0 -0.4986749628
O  O3  1  0.29370000  0.82510000  0.51730000  1.0 -0.4986749628
O  O4  1  0.82510000  0.29370000  0.98270000  1.0 -0.4986749628
O  O5  1  0.65760000  0.28400000  0.53050000  1.0 -0.5600117434
O  O6  1  0.28400000  0.65760000  0.96950000  1.0 -0.5600117434
O  O7  1  0.34240000  0.71600000  0.46950000  1.0 -0.5600117434
O  O8  1  0.71600000  0.34240000  0.03050000  1.0 -0.5600117434
O  O9  1  0.61270000  0.22410000  0.29350000  1.0 -0.4882179189
O  O10  1  0.22410000  0.61270000  0.20650000  1.0 -0.4882179189
O  O11  1  0.38730000  0.77590000  0.70650000  1.0 -0.4882179189
O  O12  1  0.77590000  0.38730000  0.79350000  1.0 -0.4882179189
O  O13  1  0.48010000  0.29970000  0.25910000  1.0 -0.4210775073
O  O14  1  0.29970000  0.48010000  0.24090000  1.0 -0.4210775073
O  O15  1  0.51990000  0.70030000  0.74090000  1.0 -0.4210775073
O  O16  1  0.70030000  0.51990000  0.75910000  1.0 -0.4210775073
O  O17  1  0.89770000  0.23930000  0.54760000  1.0 -0.5837827015
O  O18  1  0.23930000  0.89770000  0.95240000  1.0 -0.5837827015
O  O19  1  0.10230000  0.76070000  0.45240000  1.0 -0.5837827015
O  O20  1  0.76070000  0.10230000  0.04760000  1.0 -0.5837827015
O  O21  1  0.86750000  0.39410000  0.50450000  1.0 -0.4986749628
O  O22  1  0.39410000  0.86750000  0.99550000  1.0 -0.4986749628
O  O23  1  0.13250000  0.60590000  0.49550000  1.0 -0.4986749628
O  O24  1  0.60590000  0.13250000  0.00450000  1.0 -0.4986749628
O  O25  1  0.16140000  0.05040000  0.39890000  1.0 -0.4986749628
O  O26  1  0.05040000  0.16140000  0.10110000  1.0 -0.4986749628
O  O27  1  0.83860000  0.94960000  0.60110000  1.0 -0.4986749628
O  O28  1  0.94960000  0.83860000  0.89890000  1.0 -0.4986749628
O  O29  1  0.11230000  0.00250000  0.47030000  1.0 -0.4210775073
O  O30  1  0.00250000  0.11230000  0.02970000  1.0 -0.4210775073
O  O31  1  0.88770000  0.99750000  0.52970000  1.0 -0.4210775073
O  O32  1  0.99750000  0.88770000  0.97030000  1.0 -0.4210775073
O  O33  1  0.33960000  0.48960000  0.44850000  1.0 -0.5062631059
O  O34  1  0.48960000  0.33960000  0.05150000  1.0 -0.5062631059
O  O35  1  0.66040000  0.51040000  0.55150000  1.0 -0.5062631059
O  O36  1  0.51040000  0.66040000  0.94850000  1.0 -0.5062631059
O  O37  1  0.11350000  0.52070000  0.38210000  1.0 -0.5854808676
O  O38  1  0.52070000  0.11350000  0.11790000  1.0 -0.5854808676
O  O39  1  0.88650000  0.47930000  0.61790000  1.0 -0.5854808676
O  O40  1  0.47930000  0.88650000  0.88210000  1.0 -0.5854808676
O  O41  1  0.17120000  0.40920000  0.33640000  1.0 -0.5191657531
O  O42  1  0.40920000  0.17120000  0.16360000  1.0 -0.5191657531
O  O43  1  0.82880000  0.59080000  0.66360000  1.0 -0.5191657531
O  O44  1  0.59080000  0.82880000  0.83640000  1.0 -0.5191657531
O  O45  1  0.33890000  0.55050000  0.36560000  1.0 -0.5600117434
O  O46  1  0.55050000  0.33890000  0.13440000  1.0 -0.5537495601
O  O47  1  0.66110000  0.44950000  0.63440000  1.0 -0.5600117434
O  O48  1  0.44950000  0.66110000  0.86560000  1.0 -0.5537495601
