# DDEC6 charges by PACMAN v1.1 (https://github.com/mtap-research/PACMAN-charge/)
data_HUNBEX_ASR_pacman
_symmetry_space_group_name_H-M   'P 1'
_cell_length_a   7.93910000
_cell_length_b   9.43820000
_cell_length_c   15.48150000
_cell_angle_alpha   82.23300000
_cell_angle_beta   82.86800000
_cell_angle_gamma   75.51300000
_symmetry_Int_Tables_number   1
_chemical_formula_structural   KZn2C6O13
_chemical_formula_sum   'K2 Zn4 C12 O26'
_cell_volume   1107.90688847
_cell_formula_units_Z   2
loop_
 _symmetry_equiv_pos_site_id
 _symmetry_equiv_pos_as_xyz
  1  'x, y, z'
loop_
 _atom_site_type_symbol
 _atom_site_label
 _atom_site_symmetry_multiplicity
 _atom_site_fract_x
 _atom_site_fract_y
 _atom_site_fract_z
 _atom_site_occupancy
 _atom_site_charge
K  K1  1  0.56430000  0.32050000  0.93500000  1.0 0.8641888902
K  K2  1  0.43570000  0.67950000  0.06500000  1.0 0.8641888902
Zn  Zn1  1  0.08060000  0.25340000  0.91420000  1.0 0.9347175167
Zn  Zn2  1  0.91940000  0.74660000  0.08580000  1.0 0.9347175167
Zn  Zn3  1  0.41220000  0.24670000  0.58240000  1.0 0.9048746631
Zn  Zn4  1  0.58780000  0.75330000  0.41760000  1.0 0.9048746631
C  C1  1  0.90200000  0.49820000  0.00340000  1.0 0.5399039791
C  C2  1  0.09800000  0.50180000  0.99660000  1.0 0.5399039791
C  C3  1  0.16980000  0.30650000  0.73120000  1.0 0.5104433925
C  C4  1  0.83020000  0.69350000  0.26880000  1.0 0.5104433925
C  C5  1  0.06730000  0.99570000  0.03280000  1.0 0.5104433925
C  C6  1  0.93270000  0.00430000  0.96720000  1.0 0.5104433925
C  C7  1  0.32870000  0.19090000  0.76620000  1.0 0.5104433925
C  C8  1  0.67130000  0.80910000  0.23380000  1.0 0.5104433925
C  C9  1  0.40270000  0.00020000  0.50190000  1.0 0.5273956761
C  C10  1  0.59730000  0.99980000  0.49810000  1.0 0.5273956761
C  C11  1  0.54840000  0.50430000  0.53940000  1.0 0.5104433925
C  C12  1  0.45160000  0.49570000  0.46060000  1.0 0.5104433925
O  O1  1  0.04190000  0.34900000  0.78730000  1.0 -0.4781703546
O  O2  1  0.95810000  0.65100000  0.21270000  1.0 -0.4781703546
O  O3  1  0.86390000  0.39710000  0.97200000  1.0 -0.522873719
O  O4  1  0.13610000  0.60290000  0.02800000  1.0 -0.522873719
O  O5  1  0.79710000  0.59980000  0.04180000  1.0 -0.5283194775
O  O6  1  0.20290000  0.40020000  0.95820000  1.0 -0.5283194775
O  O7  1  0.31910000  0.15200000  0.84790000  1.0 -0.5129384592
O  O8  1  0.68090000  0.84800000  0.15210000  1.0 -0.5129384592
O  O9  1  0.14620000  0.09790000  0.02320000  1.0 -0.4722118869
O  O10  1  0.85380000  0.90210000  0.97680000  1.0 -0.4722118869
O  O11  1  0.08790000  0.88840000  0.09100000  1.0 -0.522873719
O  O12  1  0.91210000  0.11160000  0.90900000  1.0 -0.5283194775
O  O13  1  0.29360000  0.10300000  0.53620000  1.0 -0.4327128722
O  O14  1  0.70640000  0.89700000  0.46380000  1.0 -0.4327128722
O  O15  1  0.36530000  0.90080000  0.46690000  1.0 -0.4327128722
O  O16  1  0.63470000  0.09920000  0.53310000  1.0 -0.4327128722
O  O17  1  0.54590000  0.40470000  0.60220000  1.0 -0.4480834349
O  O18  1  0.45410000  0.59530000  0.39780000  1.0 -0.4480834349
O  O19  1  0.17750000  0.35060000  0.65180000  1.0 -0.4327128722
O  O20  1  0.82250000  0.64940000  0.34820000  1.0 -0.4327128722
O  O21  1  0.62050000  0.60910000  0.53520000  1.0 -0.4390157655
O  O22  1  0.37950000  0.39090000  0.46480000  1.0 -0.4390157655
O  O23  1  0.45080000  0.14360000  0.71190000  1.0 -0.4327128722
O  O24  1  0.54920000  0.85640000  0.28810000  1.0 -0.4327128722
O  O25  1  0.50630000  0.62030000  0.87810000  1.0 -0.155533795
O  O26  1  0.49370000  0.37970000  0.12190000  1.0 -0.1540524259
