# DDEC6 charges by PACMAN v1.1 (https://github.com/mtap-research/PACMAN-charge/)
data_HUQGOR_ASR_pacman
_symmetry_space_group_name_H-M   'P 1'
_cell_length_a   19.79200000
_cell_length_b   20.60400000
_cell_length_c   21.47100000
_cell_angle_alpha   115.79900000
_cell_angle_beta   98.32200000
_cell_angle_gamma   100.88200000
_symmetry_Int_Tables_number   1
_chemical_formula_structural   Zn3H58C90(NO3)4
_chemical_formula_sum   'Zn6 H116 C180 N8 O24'
_cell_volume   7482.01805827
_cell_formula_units_Z   2
loop_
 _symmetry_equiv_pos_site_id
 _symmetry_equiv_pos_as_xyz
  1  'x, y, z'
loop_
 _atom_site_type_symbol
 _atom_site_label
 _atom_site_symmetry_multiplicity
 _atom_site_fract_x
 _atom_site_fract_y
 _atom_site_fract_z
 _atom_site_occupancy
 _atom_site_charge
Zn  Zn1  1  0.09069000  0.62928000  0.59013000  1.0 0.8247480372
Zn  Zn2  1  0.26215000  0.70252000  0.58797000  1.0 0.9564124921
Zn  Zn3  1  0.42280000  0.66659000  0.54767000  1.0 0.8275978545
Zn  Zn4  1  0.90931000  0.37072000  0.40987000  1.0 0.8247480372
Zn  Zn5  1  0.73785000  0.29748000  0.41203000  1.0 0.9564124921
Zn  Zn6  1  0.57720000  0.33341000  0.45233000  1.0 0.8275978545
H  H1  1  0.87410000  0.68870000  0.67440000  1.0 0.1284008527
H  H2  1  0.83500000  0.53950000  0.46230000  1.0 0.1501257735
H  H3  1  0.74050000  0.56850000  0.50980000  1.0 0.1396933922
H  H4  1  0.76530000  0.67570000  0.64140000  1.0 0.1196658129
H  H5  1  0.62500000  0.54830000  0.49920000  1.0 0.1396933922
H  H6  1  0.50520000  0.55730000  0.47540000  1.0 0.1023281345
H  H7  1  0.67980000  0.73070000  0.67540000  1.0 0.1396933922
H  H8  1  0.99910000  0.69020000  0.67990000  1.0 0.1107437855
H  H9  1  0.56180000  0.73880000  0.66000000  1.0 0.1196658129
H  H10  1  0.03380000  0.50890000  0.35880000  1.0 0.1196658129
H  H11  1  0.13770000  0.64070000  0.83820000  1.0 0.1196658129
H  H12  1  0.10140000  0.45280000  0.64680000  1.0 0.1196658129
H  H13  1  0.12950000  0.56340000  0.89390000  1.0 0.1107437855
H  H14  1  0.27570000  0.91330000  0.76240000  1.0 0.1107437855
H  H15  1  0.02540000  0.43760000  0.23930000  1.0 0.1107437855
H  H16  1  0.06460000  0.32400000  0.76070000  1.0 0.1196658129
H  H17  1  0.04090000  0.37370000  0.01480000  1.0 0.1284008527
H  H18  1  0.24570000  0.53310000  0.40140000  1.0 0.1284008527
H  H19  1  0.26030000  0.03230000  0.82350000  1.0 0.1107437855
H  H20  1  0.95260000  0.54590000  0.47370000  1.0 0.1107437855
H  H21  1  0.20600000  0.24900000  0.87550000  1.0 0.1196658129
H  H22  1  0.04800000  0.44020000  0.13310000  1.0 0.1196658129
H  H23  1  0.23460000  0.45830000  0.28190000  1.0 0.1023281345
H  H24  1  0.05450000  0.16560000  0.94860000  1.0 0.1284008527
H  H25  1  0.17390000  0.50410000  0.93860000  1.0 0.1196658129
H  H26  1  0.18990000  0.28110000  0.05880000  1.0 0.1196658129
H  H27  1  0.05370000  0.94630000  0.77040000  1.0 0.1196658129
H  H28  1  0.05500000  0.25510000  0.82240000  1.0 0.1396933922
H  H29  1  0.20020000  0.34870000  0.17680000  1.0 0.1107437855
H  H30  1  0.10460000  0.38490000  0.70620000  1.0 0.1107437855
H  H31  1  0.22190000  0.13000000  0.81560000  1.0 0.1107437855
H  H32  1  0.18570000  0.43470000  0.99490000  1.0 0.1396933922
H  H33  1  0.06700000  0.82860000  0.70320000  1.0 0.1196658129
H  H34  1  0.07600000  0.05200000  0.88970000  1.0 0.1107437855
H  H35  1  0.48310000  0.90770000  0.74830000  1.0 0.1284008527
H  H36  1  0.30810000  0.98090000  0.65620000  1.0 0.1196658129
H  H37  1  0.31680000  0.86180000  0.59470000  1.0 0.1284008527
H  H38  1  0.31540000  0.27140000  0.97990000  1.0 0.1196658129
H  H39  1  0.32170000  0.21900000  0.75690000  1.0 0.1284008527
H  H40  1  0.37850000  0.46720000  0.33220000  1.0 0.1107437855
H  H41  1  0.32300000  0.33810000  0.09910000  1.0 0.1107437855
H  H42  1  0.26820000  0.52120000  0.77350000  1.0 0.1023281345
H  H43  1  0.44420000  0.48140000  0.71780000  1.0 0.1107437855
H  H44  1  0.48220000  0.03100000  0.80180000  1.0 0.1196658129
H  H45  1  0.41480000  0.23050000  0.94020000  1.0 0.1196658129
H  H46  1  0.43970000  0.52590000  0.10260000  1.0 0.1023281345
H  H47  1  0.43410000  0.11530000  0.87760000  1.0 0.1196658129
H  H48  1  0.33520000  0.10310000  0.69570000  1.0 0.1196658129
H  H49  1  0.37240000  0.40020000  0.21420000  1.0 0.1196658129
H  H50  1  0.26130000  0.58630000  0.70850000  1.0 0.1284008527
H  H51  1  0.41540000  0.65670000  0.31490000  1.0 0.1196658129
H  H52  1  0.43120000  0.45340000  0.97940000  1.0 0.1196658129
H  H53  1  0.45070000  0.34860000  0.82520000  1.0 0.1284008527
H  H54  1  0.26880000  0.45420000  0.81700000  1.0 0.1023281345
H  H55  1  0.44390000  0.54900000  0.65860000  1.0 0.1107437855
H  H56  1  0.26710000  0.37540000  0.86890000  1.0 0.1196658129
H  H57  1  0.44660000  0.41690000  0.76600000  1.0 0.1107437855
H  H58  1  0.40200000  0.58480000  0.19550000  1.0 0.1196658129
H  H59  1  0.12590000  0.31130000  0.32560000  1.0 0.1284008527
H  H60  1  0.16500000  0.46050000  0.53770000  1.0 0.1501257735
H  H61  1  0.25950000  0.43150000  0.49020000  1.0 0.1396933922
H  H62  1  0.23470000  0.32430000  0.35860000  1.0 0.1196658129
H  H63  1  0.37500000  0.45170000  0.50080000  1.0 0.1396933922
H  H64  1  0.49480000  0.44270000  0.52460000  1.0 0.1023281345
H  H65  1  0.32020000  0.26930000  0.32460000  1.0 0.1396933922
H  H66  1  0.00090000  0.30980000  0.32010000  1.0 0.1107437855
H  H67  1  0.43820000  0.26120000  0.34000000  1.0 0.1196658129
H  H68  1  0.96620000  0.49110000  0.64120000  1.0 0.1196658129
H  H69  1  0.86230000  0.35930000  0.16180000  1.0 0.1196658129
H  H70  1  0.89860000  0.54720000  0.35320000  1.0 0.1196658129
H  H71  1  0.87050000  0.43660000  0.10610000  1.0 0.1107437855
H  H72  1  0.72430000  0.08670000  0.23760000  1.0 0.1107437855
H  H73  1  0.97460000  0.56240000  0.76070000  1.0 0.1107437855
H  H74  1  0.93540000  0.67600000  0.23930000  1.0 0.1196658129
H  H75  1  0.95910000  0.62630000  0.98520000  1.0 0.1284008527
H  H76  1  0.75430000  0.46690000  0.59860000  1.0 0.1284008527
H  H77  1  0.73970000  0.96770000  0.17650000  1.0 0.1107437855
H  H78  1  0.04740000  0.45410000  0.52630000  1.0 0.1107437855
H  H79  1  0.79400000  0.75100000  0.12450000  1.0 0.1196658129
H  H80  1  0.95200000  0.55980000  0.86690000  1.0 0.1196658129
H  H81  1  0.76540000  0.54170000  0.71810000  1.0 0.1023281345
H  H82  1  0.94550000  0.83440000  0.05140000  1.0 0.1284008527
H  H83  1  0.82610000  0.49590000  0.06140000  1.0 0.1196658129
H  H84  1  0.81010000  0.71890000  0.94120000  1.0 0.1196658129
H  H85  1  0.94630000  0.05370000  0.22960000  1.0 0.1196658129
H  H86  1  0.94500000  0.74490000  0.17760000  1.0 0.1396933922
H  H87  1  0.79980000  0.65130000  0.82320000  1.0 0.1107437855
H  H88  1  0.89540000  0.61510000  0.29380000  1.0 0.1107437855
H  H89  1  0.77810000  0.87000000  0.18440000  1.0 0.1107437855
H  H90  1  0.81430000  0.56530000  0.00510000  1.0 0.1396933922
H  H91  1  0.93300000  0.17140000  0.29680000  1.0 0.1196658129
H  H92  1  0.92400000  0.94800000  0.11030000  1.0 0.1107437855
H  H93  1  0.51690000  0.09230000  0.25170000  1.0 0.1284008527
H  H94  1  0.69190000  0.01910000  0.34380000  1.0 0.1196658129
H  H95  1  0.68320000  0.13820000  0.40530000  1.0 0.1284008527
H  H96  1  0.68460000  0.72860000  0.02010000  1.0 0.1196658129
H  H97  1  0.67830000  0.78100000  0.24310000  1.0 0.1284008527
H  H98  1  0.62150000  0.53280000  0.66780000  1.0 0.1107437855
H  H99  1  0.67700000  0.66190000  0.90090000  1.0 0.1107437855
H  H100  1  0.73180000  0.47880000  0.22650000  1.0 0.1023281345
H  H101  1  0.55580000  0.51860000  0.28220000  1.0 0.1107437855
H  H102  1  0.51780000  0.96900000  0.19820000  1.0 0.1196658129
H  H103  1  0.58520000  0.76950000  0.05980000  1.0 0.1196658129
H  H104  1  0.56030000  0.47410000  0.89740000  1.0 0.1023281345
H  H105  1  0.56590000  0.88470000  0.12240000  1.0 0.1196658129
H  H106  1  0.66480000  0.89690000  0.30430000  1.0 0.1196658129
H  H107  1  0.62760000  0.59980000  0.78580000  1.0 0.1196658129
H  H108  1  0.73870000  0.41370000  0.29150000  1.0 0.1284008527
H  H109  1  0.58460000  0.34330000  0.68510000  1.0 0.1196658129
H  H110  1  0.56880000  0.54660000  0.02060000  1.0 0.1196658129
H  H111  1  0.54930000  0.65140000  0.17480000  1.0 0.1284008527
H  H112  1  0.73120000  0.54580000  0.18300000  1.0 0.1023281345
H  H113  1  0.55610000  0.45100000  0.34140000  1.0 0.1107437855
H  H114  1  0.73290000  0.62460000  0.13110000  1.0 0.1196658129
H  H115  1  0.55340000  0.58310000  0.23400000  1.0 0.1107437855
H  H116  1  0.59800000  0.41520000  0.80450000  1.0 0.1196658129
C  C1  1  0.88940000  0.66010000  0.63490000  1.0 -0.2199637165
C  C2  1  0.86730000  0.57000000  0.50680000  1.0 -0.1959379932
C  C3  1  0.76900000  0.60550000  0.55450000  1.0 -0.1117684725
C  C4  1  0.84340000  0.61080000  0.56500000  1.0 0.1592606975
C  C5  1  0.73700000  0.64230000  0.59540000  1.0 -0.1117684725
C  C6  1  0.14700000  0.57380000  0.47090000  1.0 0.578048406
C  C7  1  0.61290000  0.59010000  0.53000000  1.0 -0.1799856174
C  C8  1  0.65940000  0.64320000  0.58450000  1.0 0.1196658129
C  C9  1  0.53940000  0.59540000  0.51580000  1.0 0.1196658129
C  C10  1  0.64510000  0.69620000  0.63360000  1.0 -0.1799856174
C  C11  1  0.96470000  0.66000000  0.63670000  1.0 0.1107437855
C  C12  1  0.17640000  0.78630000  0.67030000  1.0 0.5932531932
C  C13  1  0.57400000  0.70170000  0.62320000  1.0 0.0684003337
C  C14  1  0.07400000  0.49900000  0.34340000  1.0 -0.1025139889
C  C15  1  0.12740000  0.43960000  0.24610000  1.0 0.0615459966
C  C16  1  0.16940000  0.85810000  0.71890000  1.0 -0.0614493836
C  C17  1  0.11820000  0.55480000  0.73570000  1.0 -0.0492699837
C  C18  1  0.11360000  0.60000000  0.69880000  1.0 0.5331756452
C  C19  1  0.12260000  0.39820000  0.17020000  1.0 0.0615459966
C  C20  1  0.12170000  0.46750000  0.80710000  1.0 0.0684003337
C  C21  1  0.12920000  0.58900000  0.81130000  1.0 -0.1117684725
C  C22  1  0.10880000  0.47630000  0.69630000  1.0 -0.1025139889
C  C23  1  0.12720000  0.54240000  0.84530000  1.0 -0.1697878911
C  C24  1  0.23030000  0.91960000  0.76080000  1.0 -0.0883906505
C  C25  1  0.14100000  0.52710000  0.39240000  1.0 -0.0201799257
C  C26  1  0.06960000  0.45620000  0.27180000  1.0 -0.1397854893
C  C27  1  0.08660000  0.34690000  0.80940000  1.0 -0.1397854893
C  C28  1  0.07340000  0.37000000  0.04820000  1.0 -0.1594859184
C  C29  1  0.11850000  0.32590000  0.02520000  1.0 0.1396933922
C  C30  1  0.20120000  0.51300000  0.36890000  1.0 -0.1025139889
C  C31  1  0.22060000  0.99060000  0.80000000  1.0 -0.1697878911
C  C32  1  0.93740000  0.57370000  0.51360000  1.0 0.1023281345
C  C33  1  0.15530000  0.00070000  0.80500000  1.0 0.0794072155
C  C34  1  0.14880000  0.07890000  0.84880000  1.0 0.0615459966
C  C35  1  0.12260000  0.33560000  0.91610000  1.0 0.1592606975
C  C36  1  0.17880000  0.20940000  0.87910000  1.0 -0.188762897
C  C37  1  0.07610000  0.40780000  0.11810000  1.0 -0.1281338162
C  C38  1  0.19460000  0.46910000  0.29730000  1.0 -0.1508776203
C  C39  1  0.08890000  0.16010000  0.92290000  1.0 -0.1697878911
C  C40  1  0.15360000  0.45230000  0.91320000  1.0 -0.1176279804
C  C41  1  0.16310000  0.31480000  0.07460000  1.0 -0.1697878911
C  C42  1  0.13180000  0.22250000  0.91830000  1.0 0.1592606975
C  C43  1  0.09910000  0.94100000  0.76840000  1.0 -0.1508776203
C  C44  1  0.08350000  0.30460000  0.84570000  1.0 -0.1799856174
C  C45  1  0.16690000  0.35270000  0.14430000  1.0 -0.1281338162
C  C46  1  0.12170000  0.42140000  0.84500000  1.0 0.0387677579
C  C47  1  0.11080000  0.43630000  0.73250000  1.0 -0.1508776203
C  C48  1  0.18890000  0.13760000  0.84290000  1.0 -0.1508776203
C  C49  1  0.15800000  0.41120000  0.94800000  1.0 -0.188762897
C  C50  1  0.10740000  0.86960000  0.72660000  1.0 -0.0815055242
C  C51  1  0.10260000  0.09240000  0.88670000  1.0 -0.1176279804
C  C52  1  0.41180000  0.79840000  0.62360000  1.0 0.5590919832
C  C53  1  0.44910000  0.92320000  0.72800000  1.0 -0.0883906505
C  C54  1  0.34580000  0.61880000  0.63770000  1.0 0.578048406
C  C55  1  0.34860000  0.57560000  0.67600000  1.0 -0.0614493836
C  C56  1  0.34410000  0.96650000  0.67530000  1.0 -0.1508776203
C  C57  1  0.35320000  0.48800000  0.74720000  1.0 0.0794072155
C  C58  1  0.40170000  0.87390000  0.66320000  1.0 -0.0349259472
C  C59  1  0.37250000  0.35360000  0.96830000  1.0 0.1592606975
C  C60  1  0.35420000  0.44350000  0.78420000  1.0 0.0615459966
C  C61  1  0.36880000  0.24160000  0.85680000  1.0 0.1790021563
C  C62  1  0.34970000  0.89550000  0.63810000  1.0 -0.0883906505
C  C63  1  0.38960000  0.01580000  0.73870000  1.0 0.0794072155
C  C64  1  0.39630000  0.56960000  0.33810000  1.0 -0.06630574
C  C65  1  0.38310000  0.09710000  0.78260000  1.0 0.0387677579
C  C66  1  0.34090000  0.32200000  0.00460000  1.0 -0.1799856174
C  C67  1  0.34410000  0.19870000  0.78220000  1.0 -0.188762897
C  C68  1  0.38410000  0.49210000  0.30520000  1.0 -0.1025139889
C  C69  1  0.34500000  0.36170000  0.07590000  1.0 -0.1397854893
C  C70  1  0.30170000  0.52400000  0.74790000  1.0 -0.1508776203
C  C71  1  0.40640000  0.50170000  0.71490000  1.0 -0.1508776203
C  C72  1  0.44580000  0.99520000  0.76210000  1.0 -0.1594859184
C  C73  1  0.38330000  0.43950000  0.11470000  1.0 0.0615459966
C  C74  1  0.38680000  0.48370000  0.19090000  1.0 0.0684003337
C  C75  1  0.39990000  0.20580000  0.89050000  1.0 -0.188762897
C  C76  1  0.41550000  0.47500000  0.07830000  1.0 -0.1508776203
C  C77  1  0.40960000  0.13540000  0.85360000  1.0 -0.1281338162
C  C78  1  0.36110000  0.35650000  0.85480000  1.0 0.1501257735
C  C79  1  0.35130000  0.12920000  0.74530000  1.0 -0.1281338162
C  C80  1  0.38010000  0.45190000  0.23400000  1.0 -0.1594859184
C  C81  1  0.29880000  0.56540000  0.71000000  1.0 -0.0815055242
C  C82  1  0.40520000  0.60480000  0.29510000  1.0 -0.0815055242
C  C83  1  0.41020000  0.43130000  0.00420000  1.0 -0.1799856174
C  C84  1  0.40210000  0.61450000  0.41290000  1.0 0.5195605138
C  C85  1  0.41280000  0.36880000  0.82300000  1.0 -0.1697878911
C  C86  1  0.30520000  0.43140000  0.81640000  1.0 -0.1281338162
C  C87  1  0.40720000  0.54230000  0.67980000  1.0 -0.1025139889
C  C88  1  0.30490000  0.38550000  0.85020000  1.0 -0.1799856174
C  C89  1  0.41060000  0.41020000  0.78790000  1.0 -0.1281338162
C  C90  1  0.39850000  0.56120000  0.22370000  1.0 -0.1697878911
C  C91  1  0.11060000  0.33990000  0.36510000  1.0 -0.2199637165
C  C92  1  0.13270000  0.43000000  0.49320000  1.0 -0.1959379932
C  C93  1  0.23100000  0.39450000  0.44550000  1.0 -0.1117684725
C  C94  1  0.15660000  0.38920000  0.43500000  1.0 0.1592606975
C  C95  1  0.26300000  0.35770000  0.40460000  1.0 -0.1117684725
C  C96  1  0.85300000  0.42620000  0.52910000  1.0 0.578048406
C  C97  1  0.38710000  0.40990000  0.47000000  1.0 -0.1799856174
C  C98  1  0.34060000  0.35680000  0.41550000  1.0 0.1196658129
C  C99  1  0.46060000  0.40460000  0.48420000  1.0 0.1196658129
C  C100  1  0.35490000  0.30380000  0.36640000  1.0 -0.1799856174
C  C101  1  0.03530000  0.34000000  0.36330000  1.0 0.1107437855
C  C102  1  0.82360000  0.21370000  0.32970000  1.0 0.5932531932
C  C103  1  0.42600000  0.29830000  0.37680000  1.0 0.0684003337
C  C104  1  0.92600000  0.50100000  0.65660000  1.0 -0.1025139889
C  C105  1  0.87260000  0.56040000  0.75390000  1.0 0.0615459966
C  C106  1  0.83060000  0.14190000  0.28110000  1.0 -0.0614493836
C  C107  1  0.88180000  0.44520000  0.26430000  1.0 -0.0492699837
C  C108  1  0.88640000  0.40000000  0.30120000  1.0 0.5331756452
C  C109  1  0.87740000  0.60180000  0.82980000  1.0 0.0615459966
C  C110  1  0.87830000  0.53250000  0.19290000  1.0 0.0684003337
C  C111  1  0.87080000  0.41100000  0.18870000  1.0 -0.1117684725
C  C112  1  0.89120000  0.52370000  0.30370000  1.0 -0.1025139889
C  C113  1  0.87280000  0.45760000  0.15470000  1.0 -0.1697878911
C  C114  1  0.76970000  0.08040000  0.23920000  1.0 -0.0883906505
C  C115  1  0.85900000  0.47290000  0.60760000  1.0 -0.0201799257
C  C116  1  0.93040000  0.54380000  0.72820000  1.0 -0.1397854893
C  C117  1  0.91340000  0.65310000  0.19060000  1.0 -0.1397854893
C  C118  1  0.92660000  0.63000000  0.95180000  1.0 -0.1594859184
C  C119  1  0.88150000  0.67410000  0.97480000  1.0 0.1396933922
C  C120  1  0.79880000  0.48700000  0.63110000  1.0 -0.1025139889
C  C121  1  0.77940000  0.00940000  0.20000000  1.0 -0.1697878911
C  C122  1  0.06260000  0.42630000  0.48640000  1.0 0.1023281345
C  C123  1  0.84470000  0.99930000  0.19500000  1.0 0.0794072155
C  C124  1  0.85120000  0.92110000  0.15120000  1.0 0.0615459966
C  C125  1  0.87740000  0.66440000  0.08390000  1.0 0.1592606975
C  C126  1  0.82120000  0.79060000  0.12090000  1.0 -0.188762897
C  C127  1  0.92390000  0.59220000  0.88190000  1.0 -0.1281338162
C  C128  1  0.80540000  0.53090000  0.70270000  1.0 -0.1508776203
C  C129  1  0.91110000  0.83990000  0.07710000  1.0 -0.1697878911
C  C130  1  0.84640000  0.54770000  0.08680000  1.0 -0.1176279804
C  C131  1  0.83690000  0.68520000  0.92540000  1.0 -0.1697878911
C  C132  1  0.86820000  0.77750000  0.08170000  1.0 0.1592606975
C  C133  1  0.90090000  0.05900000  0.23160000  1.0 -0.1508776203
C  C134  1  0.91650000  0.69540000  0.15430000  1.0 -0.1799856174
C  C135  1  0.83310000  0.64730000  0.85570000  1.0 -0.1281338162
C  C136  1  0.87830000  0.57860000  0.15500000  1.0 0.0387677579
C  C137  1  0.88920000  0.56370000  0.26750000  1.0 -0.1508776203
C  C138  1  0.81110000  0.86240000  0.15710000  1.0 -0.1508776203
C  C139  1  0.84200000  0.58880000  0.05200000  1.0 -0.188762897
C  C140  1  0.89260000  0.13040000  0.27340000  1.0 -0.0815055242
C  C141  1  0.89740000  0.90760000  0.11330000  1.0 -0.1176279804
C  C142  1  0.58820000  0.20160000  0.37640000  1.0 0.5590919832
C  C143  1  0.55090000  0.07680000  0.27200000  1.0 -0.0883906505
C  C144  1  0.65420000  0.38120000  0.36230000  1.0 0.578048406
C  C145  1  0.65140000  0.42440000  0.32400000  1.0 -0.0614493836
C  C146  1  0.65590000  0.03350000  0.32470000  1.0 -0.1508776203
C  C147  1  0.64680000  0.51200000  0.25280000  1.0 0.0794072155
C  C148  1  0.59830000  0.12610000  0.33680000  1.0 -0.0349259472
C  C149  1  0.62750000  0.64640000  0.03170000  1.0 0.1592606975
C  C150  1  0.64580000  0.55650000  0.21580000  1.0 0.0615459966
C  C151  1  0.63120000  0.75840000  0.14320000  1.0 0.1790021563
C  C152  1  0.65030000  0.10450000  0.36190000  1.0 -0.0883906505
C  C153  1  0.61040000  0.98420000  0.26130000  1.0 0.0794072155
C  C154  1  0.60370000  0.43040000  0.66190000  1.0 -0.06630574
C  C155  1  0.61690000  0.90290000  0.21740000  1.0 0.04535613
C  C156  1  0.65910000  0.67800000  0.99540000  1.0 -0.1799856174
C  C157  1  0.65590000  0.80130000  0.21780000  1.0 -0.188762897
C  C158  1  0.61590000  0.50790000  0.69480000  1.0 -0.1025139889
C  C159  1  0.65500000  0.63830000  0.92410000  1.0 -0.1397854893
C  C160  1  0.69830000  0.47600000  0.25210000  1.0 -0.1508776203
C  C161  1  0.59360000  0.49830000  0.28510000  1.0 -0.1508776203
C  C162  1  0.55420000  0.00480000  0.23790000  1.0 -0.1594859184
C  C163  1  0.61670000  0.56050000  0.88530000  1.0 0.0615459966
C  C164  1  0.61320000  0.51630000  0.80910000  1.0 0.0684003337
C  C165  1  0.60010000  0.79420000  0.10950000  1.0 -0.188762897
C  C166  1  0.58450000  0.52500000  0.92170000  1.0 -0.1508776203
C  C167  1  0.59040000  0.86460000  0.14640000  1.0 -0.1281338162
C  C168  1  0.63890000  0.64350000  0.14520000  1.0 0.1501257735
C  C169  1  0.64870000  0.87080000  0.25470000  1.0 -0.1281338162
C  C170  1  0.61990000  0.54810000  0.76600000  1.0 -0.1594859184
C  C171  1  0.70120000  0.43460000  0.29000000  1.0 -0.0815055242
C  C172  1  0.59480000  0.39520000  0.70490000  1.0 -0.0815055242
C  C173  1  0.58980000  0.56870000  0.99580000  1.0 -0.188762897
C  C174  1  0.59790000  0.38550000  0.58710000  1.0 0.5195605138
C  C175  1  0.58720000  0.63120000  0.17700000  1.0 -0.1697878911
C  C176  1  0.69480000  0.56860000  0.18360000  1.0 -0.1281338162
C  C177  1  0.59280000  0.45770000  0.32020000  1.0 -0.1025139889
C  C178  1  0.69510000  0.61450000  0.14980000  1.0 -0.1799856174
C  C179  1  0.58940000  0.58980000  0.21210000  1.0 -0.1281338162
C  C180  1  0.60150000  0.43880000  0.77630000  1.0 -0.1697878911
N  N1  1  0.52250000  0.65310000  0.55970000  1.0 -0.2285353562
N  N2  1  0.98560000  0.61750000  0.57780000  1.0 -0.2586337199
N  N3  1  0.11640000  0.29100000  0.94920000  1.0 -0.1397854893
N  N4  1  0.36610000  0.31510000  0.89230000  1.0 -0.1697878911
N  N5  1  0.47750000  0.34690000  0.44030000  1.0 -0.2285353562
N  N6  1  0.01440000  0.38250000  0.42220000  1.0 -0.2586337199
N  N7  1  0.88360000  0.70900000  0.05080000  1.0 -0.1397854893
N  N8  1  0.63390000  0.68490000  0.10770000  1.0 -0.1697878911
O  O1  1  0.23780000  0.77800000  0.66970000  1.0 -0.532019349
O  O2  1  0.11910000  0.73550000  0.62990000  1.0 -0.5501378994
O  O3  1  0.09110000  0.58340000  0.48830000  1.0 -0.532019349
O  O4  1  0.11490000  0.56870000  0.63380000  1.0 -0.5501378994
O  O5  1  0.21050000  0.59880000  0.51320000  1.0 -0.5974769613
O  O6  1  0.10670000  0.66470000  0.73050000  1.0 -0.5501378994
O  O7  1  0.35350000  0.74380000  0.57330000  1.0 -0.6197428426
O  O8  1  0.30540000  0.66090000  0.65040000  1.0 -0.5365919491
O  O9  1  0.38240000  0.58100000  0.44750000  1.0 -0.532019349
O  O10  1  0.46700000  0.78420000  0.63210000  1.0 -0.4526612779
O  O11  1  0.43020000  0.68160000  0.44570000  1.0 -0.4737702181
O  O12  1  0.38380000  0.61120000  0.59580000  1.0 -0.532019349
O  O13  1  0.76220000  0.22200000  0.33030000  1.0 -0.532019349
O  O14  1  0.88090000  0.26450000  0.37010000  1.0 -0.5501378994
O  O15  1  0.90890000  0.41660000  0.51170000  1.0 -0.532019349
O  O16  1  0.88510000  0.43130000  0.36620000  1.0 -0.5501378994
O  O17  1  0.78950000  0.40120000  0.48680000  1.0 -0.5974769613
O  O18  1  0.89330000  0.33530000  0.26950000  1.0 -0.5501378994
O  O19  1  0.64650000  0.25620000  0.42670000  1.0 -0.6197428426
O  O20  1  0.69460000  0.33910000  0.34960000  1.0 -0.5365919491
O  O21  1  0.61760000  0.41900000  0.55250000  1.0 -0.532019349
O  O22  1  0.53300000  0.21580000  0.36790000  1.0 -0.4526612779
O  O23  1  0.56980000  0.31840000  0.55430000  1.0 -0.4737702181
O  O24  1  0.61620000  0.38880000  0.40420000  1.0 -0.532019349
