# DDEC6 charges by PACMAN v1.1 (https://github.com/mtap-research/PACMAN-charge/)
data_HUQGUX_ASR_pacman
_symmetry_space_group_name_H-M   'P 1'
_cell_length_a   19.91300000
_cell_length_b   20.88400000
_cell_length_c   22.43470000
_cell_angle_alpha   59.34250000
_cell_angle_beta   70.69870000
_cell_angle_gamma   78.33900000
_symmetry_Int_Tables_number   1
_chemical_formula_structural   Cu3H58C90(NO3)4
_chemical_formula_sum   'Cu6 H116 C180 N8 O24'
_cell_volume   7568.16848049
_cell_formula_units_Z   2
loop_
 _symmetry_equiv_pos_site_id
 _symmetry_equiv_pos_as_xyz
  1  'x, y, z'
loop_
 _atom_site_type_symbol
 _atom_site_label
 _atom_site_symmetry_multiplicity
 _atom_site_fract_x
 _atom_site_fract_y
 _atom_site_fract_z
 _atom_site_occupancy
 _atom_site_charge
Cu  Cu1  1  0.41048000  0.53634000  0.09287000  1.0 0.7897333091
Cu  Cu2  1  0.23653000  0.61301000  0.09075000  1.0 0.9179267472
Cu  Cu3  1  0.07611000  0.61738000  0.04995000  1.0 0.7996108716
Cu  Cu4  1  0.58952000  0.46366000  0.90713000  1.0 0.7897333091
Cu  Cu5  1  0.76347000  0.38699000  0.90925000  1.0 0.9179267472
Cu  Cu6  1  0.92389000  0.38262000  0.95005000  1.0 0.7996108716
H  H1  1  0.62920000  0.52460000  0.16550000  1.0 0.1197485966
H  H2  1  0.66500000  0.57800000  0.96210000  1.0 0.1494081336
H  H3  1  0.40140000  0.30350000  0.14730000  1.0 0.1197485966
H  H4  1  0.50390000  0.50220000  0.18540000  1.0 0.1197485966
H  H5  1  0.47540000  0.70100000  0.73940000  1.0 0.1101213578
H  H6  1  0.46380000  0.64850000  0.85910000  1.0 0.1197485966
H  H7  1  0.76250000  0.55950000  0.01110000  1.0 0.1370890338
H  H8  1  0.73750000  0.52810000  0.14700000  1.0 0.1197485966
H  H9  1  0.99230000  0.58450000  0.97630000  1.0 0.1101213578
H  H10  1  0.26420000  0.67580000  0.78860000  1.0 0.1101213578
H  H11  1  0.54970000  0.57030000  0.97660000  1.0 0.1101213578
H  H12  1  0.40090000  0.17890000  0.20500000  1.0 0.1197485966
H  H13  1  0.88630000  0.53210000  0.00820000  1.0 0.1494081336
H  H14  1  0.80490000  0.55570000  0.17800000  1.0 0.1370890338
H  H15  1  0.25510000  0.62600000  0.90650000  1.0 0.1281938447
H  H16  1  0.93530000  0.58210000  0.16460000  1.0 0.1197485966
H  H17  1  0.30080000  0.66910000  0.68030000  1.0 0.1101213578
H  H18  1  0.36590000  0.16830000  0.39650000  1.0 0.1101213578
H  H19  1  0.44890000  0.80590000  0.63420000  1.0 0.1197485966
H  H20  1  0.22860000  0.70470000  0.33200000  1.0 0.1023252654
H  H21  1  0.36110000  0.29560000  0.34300000  1.0 0.1281938447
H  H22  1  0.43140000  0.62250000  0.20530000  1.0 0.1197485966
H  H23  1  0.22300000  0.65040000  0.26360000  1.0 0.1101213578
H  H24  1  0.44560000  0.67400000  0.27160000  1.0 0.1101213578
H  H25  1  0.31630000  0.06400000  0.44050000  1.0 0.1197485966
H  H26  1  0.30440000  0.72720000  0.56080000  1.0 0.1197485966
H  H27  1  0.31040000  0.94010000  0.49780000  1.0 0.1370890338
H  H28  1  0.45870000  0.85780000  0.51310000  1.0 0.1281938447
H  H29  1  0.42080000  0.66170000  0.39470000  1.0 0.1101213578
H  H30  1  0.43800000  0.93750000  0.31360000  1.0 0.1370890338
H  H31  1  0.43850000  0.05870000  0.26340000  1.0 0.1197485966
H  H32  1  0.27740000  0.81450000  0.31470000  1.0 0.1101213578
H  H33  1  0.28600000  0.87290000  0.37760000  1.0 0.1197485966
H  H34  1  0.44390000  0.72220000  0.44760000  1.0 0.1281938447
H  H35  1  0.16250000  0.90620000  0.19390000  1.0 0.1197485966
H  H36  1  0.07030000  0.73970000  0.37390000  1.0 0.1197485966
H  H37  1  0.01260000  0.66666667  0.24420000  1.0 0.1281938447
H  H38  1  0.19370000  0.82230000  0.15390000  1.0 0.1281938447
H  H39  1  0.18340000  0.76560000  0.09390000  1.0 0.1281938447
H  H40  1  0.01630000  0.73670000  0.29880000  1.0 0.1197485966
H  H41  1  0.12130000  0.63570000  0.83090000  1.0 0.1197485966
H  H42  1  0.07110000  0.97370000  0.48100000  1.0 0.1281938447
H  H43  1  0.17740000  0.78870000  0.48020000  1.0 0.1197485966
H  H44  1  0.23900000  0.37800000  0.20870000  1.0 0.1197485966
H  H45  1  0.12810000  0.68420000  0.71540000  1.0 0.1197485966
H  H46  1  0.18440000  0.95980000  0.25520000  1.0 0.1281938447
H  H47  1  0.08760000  0.84030000  0.81360000  1.0 0.1197485966
H  H48  1  0.17720000  0.74300000  0.59640000  1.0 0.1101213578
H  H49  1  0.06180000  0.15620000  0.25510000  1.0 0.1101213578
H  H50  1  0.23410000  0.24720000  0.27110000  1.0 0.1023252654
H  H51  1  0.23420000  0.00870000  0.36730000  1.0 0.1197485966
H  H52  1  0.06180000  0.91860000  0.60230000  1.0 0.1101213578
H  H53  1  0.07330000  0.79830000  0.43950000  1.0 0.1197485966
H  H54  1  0.07270000  0.39280000  0.14380000  1.0 0.1101213578
H  H55  1  0.05100000  0.26780000  0.21990000  1.0 0.1101213578
H  H56  1  0.04940000  0.02300000  0.32320000  1.0 0.1197485966
H  H57  1  0.22600000  0.13420000  0.32150000  1.0 0.1101213578
H  H58  1  0.09710000  0.88610000  0.69660000  1.0 0.1197485966
H  H59  1  0.37080000  0.47540000  0.83450000  1.0 0.1281938447
H  H60  1  0.33500000  0.42200000  0.03790000  1.0 0.1494081336
H  H61  1  0.59860000  0.69650000  0.85270000  1.0 0.1197485966
H  H62  1  0.49610000  0.49780000  0.81460000  1.0 0.1197485966
H  H63  1  0.52460000  0.29900000  0.26060000  1.0 0.1101213578
H  H64  1  0.53620000  0.35150000  0.14090000  1.0 0.1197485966
H  H65  1  0.23750000  0.44050000  0.98890000  1.0 0.1370890338
H  H66  1  0.26250000  0.47190000  0.85300000  1.0 0.1197485966
H  H67  1  0.00770000  0.41550000  0.02370000  1.0 0.1101213578
H  H68  1  0.73580000  0.32420000  0.21140000  1.0 0.1101213578
H  H69  1  0.45030000  0.42970000  0.02340000  1.0 0.1101213578
H  H70  1  0.59910000  0.82110000  0.79500000  1.0 0.1197485966
H  H71  1  0.11370000  0.46790000  0.99180000  1.0 0.1494081336
H  H72  1  0.19510000  0.44430000  0.82200000  1.0 0.1370890338
H  H73  1  0.74490000  0.37400000  0.09350000  1.0 0.1281938447
H  H74  1  0.06470000  0.41790000  0.83540000  1.0 0.1197485966
H  H75  1  0.69920000  0.33090000  0.31970000  1.0 0.1101213578
H  H76  1  0.63410000  0.83170000  0.60350000  1.0 0.1101213578
H  H77  1  0.55110000  0.19410000  0.36580000  1.0 0.1197485966
H  H78  1  0.77140000  0.29530000  0.66800000  1.0 0.1023252654
H  H79  1  0.63890000  0.70440000  0.65700000  1.0 0.1281938447
H  H80  1  0.56860000  0.37750000  0.79470000  1.0 0.1197485966
H  H81  1  0.77700000  0.34960000  0.73640000  1.0 0.1101213578
H  H82  1  0.55440000  0.32600000  0.72840000  1.0 0.1101213578
H  H83  1  0.68370000  0.93600000  0.55950000  1.0 0.1197485966
H  H84  1  0.69560000  0.27280000  0.43920000  1.0 0.1197485966
H  H85  1  0.68960000  0.05990000  0.50220000  1.0 0.1370890338
H  H86  1  0.54130000  0.14220000  0.48690000  1.0 0.1281938447
H  H87  1  0.57920000  0.33830000  0.60530000  1.0 0.1101213578
H  H88  1  0.56200000  0.06250000  0.68640000  1.0 0.1370890338
H  H89  1  0.56150000  0.94130000  0.73660000  1.0 0.1197485966
H  H90  1  0.72260000  0.18550000  0.68530000  1.0 0.1101213578
H  H91  1  0.71400000  0.12710000  0.62240000  1.0 0.1197485966
H  H92  1  0.55610000  0.27780000  0.55240000  1.0 0.1281938447
H  H93  1  0.83750000  0.09380000  0.80610000  1.0 0.1197485966
H  H94  1  0.92970000  0.26030000  0.62610000  1.0 0.1197485966
H  H95  1  0.98740000  0.33340000  0.75580000  1.0 0.1281938447
H  H96  1  0.80630000  0.17770000  0.84610000  1.0 0.1281938447
H  H97  1  0.81660000  0.23440000  0.90610000  1.0 0.1281938447
H  H98  1  0.98370000  0.26330000  0.70120000  1.0 0.1197485966
H  H99  1  0.87870000  0.36430000  0.16910000  1.0 0.1197485966
H  H100  1  0.92890000  0.02630000  0.51900000  1.0 0.1281938447
H  H101  1  0.82260000  0.21130000  0.51980000  1.0 0.1197485966
H  H102  1  0.76100000  0.62200000  0.79130000  1.0 0.1197485966
H  H103  1  0.87190000  0.31580000  0.28460000  1.0 0.1197485966
H  H104  1  0.81560000  0.04020000  0.74480000  1.0 0.1281938447
H  H105  1  0.91240000  0.15970000  0.18640000  1.0 0.1197485966
H  H106  1  0.82280000  0.25700000  0.40360000  1.0 0.1101213578
H  H107  1  0.93820000  0.84380000  0.74490000  1.0 0.1101213578
H  H108  1  0.76590000  0.75280000  0.72890000  1.0 0.1023252654
H  H109  1  0.76580000  0.99130000  0.63270000  1.0 0.1197485966
H  H110  1  0.93820000  0.08140000  0.39770000  1.0 0.1101213578
H  H111  1  0.92670000  0.20170000  0.56050000  1.0 0.1197485966
H  H112  1  0.92730000  0.60720000  0.85620000  1.0 0.1101213578
H  H113  1  0.94900000  0.73220000  0.78010000  1.0 0.1101213578
H  H114  1  0.95060000  0.97700000  0.67680000  1.0 0.1197485966
H  H115  1  0.77400000  0.86580000  0.67850000  1.0 0.1101213578
H  H116  1  0.90290000  0.11390000  0.30340000  1.0 0.1197485966
C  C1  1  0.65850000  0.54410000  0.06700000  1.0 0.1370890338
C  C2  1  0.61410000  0.52940000  0.12830000  1.0 -0.1579616981
C  C3  1  0.63330000  0.56270000  0.00760000  1.0 -0.1706053519
C  C4  1  0.35250000  0.60140000  0.97440000  1.0 0.5674673504
C  C5  1  0.39260000  0.27750000  0.19710000  1.0 -0.1083177218
C  C6  1  0.53560000  0.51980000  0.13980000  1.0 0.1023252654
C  C7  1  0.37030000  0.69300000  0.74870000  1.0 0.078179485
C  C8  1  0.35930000  0.63420000  0.89640000  1.0 -0.0290665577
C  C9  1  0.37980000  0.31720000  0.23840000  1.0 -0.0080084269
C  C10  1  0.32880000  0.63830000  0.22250000  1.0 -0.0290665577
C  C11  1  0.37610000  0.73040000  0.66990000  1.0 0.0581306951
C  C12  1  0.43130000  0.68560000  0.77230000  1.0 -0.1486757842
C  C13  1  0.42330000  0.65530000  0.84420000  1.0 -0.0888783647
C  C14  1  0.32090000  0.61340000  0.17370000  1.0 0.5963387078
C  C15  1  0.34220000  0.69590000  0.30610000  1.0 0.0898262633
C  C16  1  0.73310000  0.55030000  0.05640000  1.0 -0.1083177218
C  C17  1  0.76370000  0.54500000  0.09920000  1.0 -0.1706053519
C  C18  1  0.95740000  0.57810000  0.01830000  1.0 0.0581306951
C  C19  1  0.38390000  0.40020000  0.19940000  1.0 0.5225064343
C  C20  1  0.30500000  0.67030000  0.80260000  1.0 -0.1486757842
C  C21  1  0.83920000  0.56380000  0.07930000  1.0 0.1370890338
C  C22  1  0.56410000  0.55850000  0.01660000  1.0 0.078179485
C  C23  1  0.39140000  0.20280000  0.23250000  1.0 -0.1486757842
C  C24  1  0.89230000  0.55470000  0.03250000  1.0 -0.1486757842
C  C25  1  0.37710000  0.15780000  0.30720000  1.0 0.0581306951
C  C26  1  0.84300000  0.56400000  0.13760000  1.0 -0.245420743
C  C27  1  0.29900000  0.64140000  0.87300000  1.0 -0.0888783647
C  C28  1  0.92350000  0.58070000  0.12850000  1.0 0.1281938447
C  C29  1  0.37700000  0.92000000  0.41450000  1.0 0.1494081336
C  C30  1  0.36400000  0.80520000  0.41790000  1.0 0.1618411875
C  C31  1  0.33150000  0.70770000  0.64690000  1.0 -0.1311114158
C  C32  1  0.37000000  0.19610000  0.34740000  1.0 -0.1486757842
C  C33  1  0.42140000  0.78890000  0.61920000  1.0 -0.1311114158
C  C34  1  0.26930000  0.68950000  0.30630000  1.0 -0.1706053519
C  C35  1  0.36890000  0.27250000  0.31500000  1.0 -0.1185238562
C  C36  1  0.34990000  0.73320000  0.34590000  1.0 0.050278481
C  C37  1  0.39140000  0.64100000  0.22870000  1.0 -0.0825268851
C  C38  1  0.26710000  0.65820000  0.26400000  1.0 -0.0888783647
C  C39  1  0.40040000  0.67130000  0.26970000  1.0 -0.1579616981
C  C40  1  0.37590000  0.07800000  0.34280000  1.0 0.0269640282
C  C41  1  0.33980000  0.03790000  0.41550000  1.0 -0.1185238562
C  C42  1  0.33370000  0.74230000  0.57590000  1.0 -0.182076165
C  C43  1  0.33750000  0.96410000  0.45020000  1.0 -0.182076165
C  C44  1  0.42550000  0.82180000  0.54680000  1.0 -0.182076165
C  C45  1  0.38100000  0.80160000  0.52460000  1.0 0.1618411875
C  C46  1  0.39600000  0.70650000  0.38850000  1.0 -0.1311114158
C  C47  1  0.41360000  0.96160000  0.34040000  1.0 -0.1579616981
C  C48  1  0.41220000  0.03360000  0.31120000  1.0 -0.1185238562
C  C49  1  0.30970000  0.79510000  0.34230000  1.0 -0.1387569236
C  C50  1  0.31540000  0.83160000  0.37960000  1.0 -0.2009343022
C  C51  1  0.40900000  0.74010000  0.42310000  1.0 -0.182076165
C  C52  1  0.09650000  0.71160000  0.16500000  1.0 -0.0156011341
C  C53  1  0.11030000  0.78070000  0.23600000  1.0 0.078179485
C  C54  1  0.11680000  0.81890000  0.27830000  1.0 0.0401173195
C  C55  1  0.14740000  0.88260000  0.24390000  1.0 -0.1311114158
C  C56  1  0.09090000  0.78570000  0.34990000  1.0 -0.1486757842
C  C57  1  0.04850000  0.69960000  0.22480000  1.0 -0.0825268851
C  C58  1  0.15630000  0.79090000  0.17350000  1.0 -0.1486757842
C  C59  1  0.15580000  0.48290000  0.13570000  1.0 0.5813222116
C  C60  1  0.15040000  0.75730000  0.13740000  1.0 -0.0888783647
C  C61  1  0.05310000  0.73920000  0.25930000  1.0 -0.1706053519
C  C62  1  0.13000000  0.88670000  0.35390000  1.0 0.1815494186
C  C63  1  0.14860000  0.24330000  0.24260000  1.0 0.0898262633
C  C64  1  0.15150000  0.40140000  0.17510000  1.0 -0.0464888831
C  C65  1  0.11570000  0.68720000  0.80420000  1.0 -0.0888783647
C  C66  1  0.09050000  0.92590000  0.50470000  1.0 -0.182076165
C  C67  1  0.15530000  0.81610000  0.50410000  1.0 -0.1706053519
C  C68  1  0.20230000  0.35610000  0.20930000  1.0 -0.0888783647
C  C69  1  0.11980000  0.71620000  0.73470000  1.0 -0.1486757842
C  C70  1  0.11390000  0.82330000  0.61260000  1.0 0.0581306951
C  C71  1  0.10320000  0.73000000  0.84000000  1.0 -0.0733001159
C  C72  1  0.14670000  0.15880000  0.28160000  1.0 0.0581306951
C  C73  1  0.09900000  0.70430000  0.91300000  1.0 0.5065186804
C  C74  1  0.12550000  0.88610000  0.46780000  1.0 0.1657214796
C  C75  1  0.15830000  0.91710000  0.28060000  1.0 -0.1864141588
C  C76  1  0.09600000  0.80790000  0.79480000  1.0 -0.0825268851
C  C77  1  0.14130000  0.00480000  0.35080000  1.0 0.1494081336
C  C78  1  0.15250000  0.78760000  0.57400000  1.0 -0.1311114158
C  C79  1  0.09430000  0.12600000  0.28110000  1.0 -0.1486757842
C  C80  1  0.20080000  0.27630000  0.24580000  1.0 -0.1579616981
C  C81  1  0.19650000  0.03690000  0.34860000  1.0 -0.1706053519
C  C82  1  0.08540000  0.89280000  0.57710000  1.0 -0.1387569236
C  C83  1  0.09440000  0.82000000  0.39010000  1.0 -0.1864141588
C  C84  1  0.11220000  0.79060000  0.69110000  1.0 0.078179485
C  C85  1  0.10200000  0.36400000  0.17390000  1.0 -0.1029469484
C  C86  1  0.09210000  0.28810000  0.21320000  1.0 -0.1579616981
C  C87  1  0.08750000  0.04520000  0.31990000  1.0 -0.1864141588
C  C88  1  0.08810000  0.67480000  0.12380000  1.0 0.5674673504
C  C89  1  0.19260000  0.11250000  0.31730000  1.0 -0.1311114158
C  C90  1  0.10110000  0.83470000  0.72480000  1.0 -0.1579616981
C  C91  1  0.34150000  0.45590000  0.93300000  1.0 0.1370890338
C  C92  1  0.38590000  0.47060000  0.87170000  1.0 -0.1579616981
C  C93  1  0.36670000  0.43730000  0.99240000  1.0 -0.1706053519
C  C94  1  0.64750000  0.39860000  0.02560000  1.0 0.5674673504
C  C95  1  0.60740000  0.72250000  0.80290000  1.0 -0.1083177218
C  C96  1  0.46440000  0.48020000  0.86020000  1.0 0.1023252654
C  C97  1  0.62970000  0.30700000  0.25130000  1.0 0.078179485
C  C98  1  0.64070000  0.36580000  0.10360000  1.0 -0.0290665577
C  C99  1  0.62020000  0.68280000  0.76160000  1.0 -0.0080084269
C  C100  1  0.67120000  0.36170000  0.77750000  1.0 -0.0290665577
C  C101  1  0.62390000  0.26960000  0.33010000  1.0 0.0581306951
C  C102  1  0.56870000  0.31440000  0.22770000  1.0 -0.1486757842
C  C103  1  0.57670000  0.34470000  0.15580000  1.0 -0.0888783647
C  C104  1  0.67910000  0.38660000  0.82630000  1.0 0.5963387078
C  C105  1  0.65780000  0.30410000  0.69390000  1.0 0.0898262633
C  C106  1  0.26690000  0.44970000  0.94360000  1.0 -0.1083177218
C  C107  1  0.23630000  0.45500000  0.90080000  1.0 -0.1706053519
C  C108  1  0.04260000  0.42190000  0.98170000  1.0 0.050278481
C  C109  1  0.61610000  0.59980000  0.80060000  1.0 0.5225064343
C  C110  1  0.69500000  0.32970000  0.19740000  1.0 -0.1486757842
C  C111  1  0.16080000  0.43620000  0.92070000  1.0 0.1370890338
C  C112  1  0.43590000  0.44150000  0.98340000  1.0 0.078179485
C  C113  1  0.60860000  0.79720000  0.76750000  1.0 -0.1486757842
C  C114  1  0.10770000  0.44530000  0.96750000  1.0 -0.1486757842
C  C115  1  0.62290000  0.84220000  0.69280000  1.0 0.0581306951
C  C116  1  0.15700000  0.43600000  0.86240000  1.0 -0.245420743
C  C117  1  0.70100000  0.35860000  0.12700000  1.0 -0.0888783647
C  C118  1  0.07650000  0.41930000  0.87150000  1.0 0.1281938447
C  C119  1  0.62300000  0.08000000  0.58550000  1.0 0.1494081336
C  C120  1  0.63600000  0.19480000  0.58210000  1.0 0.1618411875
C  C121  1  0.66850000  0.29230000  0.35310000  1.0 -0.1311114158
C  C122  1  0.63000000  0.80390000  0.65260000  1.0 -0.1486757842
C  C123  1  0.57860000  0.21110000  0.38080000  1.0 -0.1311114158
C  C124  1  0.73070000  0.31050000  0.69370000  1.0 -0.1706053519
C  C125  1  0.63110000  0.72750000  0.68500000  1.0 -0.1185238562
C  C126  1  0.65010000  0.26680000  0.65410000  1.0 0.050278481
C  C127  1  0.60860000  0.35900000  0.77130000  1.0 -0.0825268851
C  C128  1  0.73290000  0.34180000  0.73600000  1.0 -0.0888783647
C  C129  1  0.59960000  0.32870000  0.73030000  1.0 -0.1579616981
C  C130  1  0.62410000  0.92200000  0.65720000  1.0 0.0269640282
C  C131  1  0.66020000  0.96210000  0.58450000  1.0 -0.1185238562
C  C132  1  0.66630000  0.25770000  0.42410000  1.0 -0.182076165
C  C133  1  0.66250000  0.03590000  0.54980000  1.0 -0.1706053519
C  C134  1  0.57450000  0.17820000  0.45320000  1.0 -0.182076165
C  C135  1  0.61900000  0.19840000  0.47540000  1.0 0.1618411875
C  C136  1  0.60400000  0.29350000  0.61150000  1.0 -0.1311114158
C  C137  1  0.58640000  0.03840000  0.65960000  1.0 -0.1579616981
C  C138  1  0.58780000  0.96640000  0.68880000  1.0 -0.1185238562
C  C139  1  0.69030000  0.20490000  0.65770000  1.0 -0.1387569236
C  C140  1  0.68460000  0.16840000  0.62040000  1.0 -0.2009343022
C  C141  1  0.59100000  0.25990000  0.57690000  1.0 -0.182076165
C  C142  1  0.90350000  0.28840000  0.83500000  1.0 -0.0156011341
C  C143  1  0.88970000  0.21930000  0.76400000  1.0 0.078179485
C  C144  1  0.88320000  0.18110000  0.72170000  1.0 0.0401173195
C  C145  1  0.85260000  0.11740000  0.75610000  1.0 -0.1311114158
C  C146  1  0.90910000  0.21430000  0.65010000  1.0 -0.1486757842
C  C147  1  0.95150000  0.30040000  0.77520000  1.0 -0.0825268851
C  C148  1  0.84370000  0.20910000  0.82650000  1.0 -0.1486757842
C  C149  1  0.84420000  0.51710000  0.86430000  1.0 0.5813222116
C  C150  1  0.84960000  0.24270000  0.86260000  1.0 -0.0888783647
C  C151  1  0.94690000  0.26080000  0.74070000  1.0 -0.1706053519
C  C152  1  0.87000000  0.11330000  0.64610000  1.0 0.1815494186
C  C153  1  0.85140000  0.75670000  0.75740000  1.0 0.0898262633
C  C154  1  0.84850000  0.59860000  0.82490000  1.0 -0.0464888831
C  C155  1  0.88430000  0.31280000  0.19580000  1.0 -0.0888783647
C  C156  1  0.90950000  0.07410000  0.49530000  1.0 -0.182076165
C  C157  1  0.84470000  0.18390000  0.49590000  1.0 -0.1706053519
C  C158  1  0.79770000  0.64390000  0.79070000  1.0 -0.0888783647
C  C159  1  0.88020000  0.28380000  0.26530000  1.0 -0.1486757842
C  C160  1  0.88610000  0.17670000  0.38740000  1.0 0.0581306951
C  C161  1  0.89680000  0.27000000  0.16000000  1.0 -0.0733001159
C  C162  1  0.85330000  0.84120000  0.71840000  1.0 0.0581306951
C  C163  1  0.90100000  0.29570000  0.08700000  1.0 0.5065186804
C  C164  1  0.87450000  0.11390000  0.53220000  1.0 0.1657214796
C  C165  1  0.84170000  0.08290000  0.71940000  1.0 -0.182076165
C  C166  1  0.90400000  0.19210000  0.20520000  1.0 -0.0825268851
C  C167  1  0.85870000  0.99520000  0.64920000  1.0 0.1494081336
C  C168  1  0.84750000  0.21240000  0.42600000  1.0 -0.1311114158
C  C169  1  0.90570000  0.87400000  0.71890000  1.0 -0.1486757842
C  C170  1  0.79920000  0.72370000  0.75420000  1.0 -0.1579616981
C  C171  1  0.80350000  0.96310000  0.65140000  1.0 -0.1706053519
C  C172  1  0.91460000  0.10720000  0.42290000  1.0 -0.1387569236
C  C173  1  0.90560000  0.18000000  0.60990000  1.0 -0.182076165
C  C174  1  0.88780000  0.20940000  0.30890000  1.0 0.078179485
C  C175  1  0.89800000  0.63600000  0.82610000  1.0 -0.1029469484
C  C176  1  0.90790000  0.71190000  0.78680000  1.0 -0.1579616981
C  C177  1  0.91250000  0.95480000  0.68010000  1.0 -0.182076165
C  C178  1  0.91190000  0.32520000  0.87620000  1.0 0.5674673504
C  C179  1  0.80740000  0.88750000  0.68270000  1.0 -0.1311114158
C  C180  1  0.89890000  0.16530000  0.27520000  1.0 -0.1579616981
N  N1  1  0.97140000  0.59230000  0.06640000  1.0 -0.2583295965
N  N2  1  0.51340000  0.53780000  0.08090000  1.0 -0.2776883954
N  N3  1  0.37960000  0.84290000  0.45060000  1.0 -0.1579616981
N  N4  1  0.13260000  0.92510000  0.38850000  1.0 -0.1706053519
N  N5  1  0.02860000  0.40770000  0.93360000  1.0 -0.2583295965
N  N6  1  0.48660000  0.46220000  0.91910000  1.0 -0.2776883954
N  N7  1  0.62040000  0.15710000  0.54940000  1.0 -0.1579616981
N  N8  1  0.86740000  0.07490000  0.61150000  1.0 -0.1706053519
O  O1  1  0.26060000  0.60920000  0.17160000  1.0 -0.5235681945
O  O2  1  0.38380000  0.43350000  0.13650000  1.0 -0.5067750031
O  O3  1  0.40980000  0.59280000  0.99070000  1.0 -0.5280800724
O  O4  1  0.39250000  0.43010000  0.23400000  1.0 -0.5770755523
O  O5  1  0.37970000  0.59910000  0.13580000  1.0 -0.5462468678
O  O6  1  0.29250000  0.58360000  0.01850000  1.0 -0.5639709645
O  O7  1  0.19500000  0.51030000  0.15270000  1.0 -0.5440382177
O  O8  1  0.14700000  0.66770000  0.07480000  1.0 -0.630988937
O  O9  1  0.03420000  0.65410000  0.12930000  1.0 -0.4396100456
O  O10  1  0.06950000  0.73480000  0.94870000  1.0 -0.4737365508
O  O11  1  0.11680000  0.63560000  0.94690000  1.0 -0.5280800724
O  O12  1  0.10960000  0.51320000  0.10270000  1.0 -0.5235681945
O  O13  1  0.73940000  0.39080000  0.82840000  1.0 -0.5235681945
O  O14  1  0.61620000  0.56650000  0.86350000  1.0 -0.5067750031
O  O15  1  0.59020000  0.40720000  0.00930000  1.0 -0.5280800724
O  O16  1  0.60750000  0.56990000  0.76600000  1.0 -0.5770755523
O  O17  1  0.62030000  0.40090000  0.86420000  1.0 -0.5462468678
O  O18  1  0.70750000  0.41640000  0.98150000  1.0 -0.5639709645
O  O19  1  0.80500000  0.48970000  0.84730000  1.0 -0.5440382177
O  O20  1  0.85300000  0.33230000  0.92520000  1.0 -0.630988937
O  O21  1  0.96580000  0.34590000  0.87070000  1.0 -0.4396100456
O  O22  1  0.93050000  0.26520000  0.05130000  1.0 -0.4737365508
O  O23  1  0.88320000  0.36440000  0.05310000  1.0 -0.5280800724
O  O24  1  0.89040000  0.48680000  0.89730000  1.0 -0.5235681945
