# DDEC6 charges by PACMAN v1.1 (https://github.com/mtap-research/PACMAN-charge/)
data_HUQHEI_ASR_pacman
_symmetry_space_group_name_H-M   'P 1'
_cell_length_a   19.61200000
_cell_length_b   20.64000000
_cell_length_c   22.40440000
_cell_angle_alpha   59.97100000
_cell_angle_beta   71.56110000
_cell_angle_gamma   79.57900000
_symmetry_Int_Tables_number   1
_chemical_formula_structural   Zn3H56C88(NO2)6
_chemical_formula_sum   'Zn6 H112 C176 N12 O24'
_cell_volume   7445.86943343
_cell_formula_units_Z   2
loop_
 _symmetry_equiv_pos_site_id
 _symmetry_equiv_pos_as_xyz
  1  'x, y, z'
loop_
 _atom_site_type_symbol
 _atom_site_label
 _atom_site_symmetry_multiplicity
 _atom_site_fract_x
 _atom_site_fract_y
 _atom_site_fract_z
 _atom_site_occupancy
 _atom_site_charge
Zn  Zn1  1  0.23525000  0.11163000  0.09087000  1.0 0.9503905522
Zn  Zn2  1  0.40817000  0.03680000  0.09238000  1.0 0.8271665918
Zn  Zn3  1  0.07367000  0.11456000  0.05037000  1.0 0.8271665918
Zn  Zn4  1  0.76475000  0.88837000  0.90913000  1.0 0.9503905522
Zn  Zn5  1  0.59183000  0.96320000  0.90762000  1.0 0.8271665918
Zn  Zn6  1  0.92633000  0.88544000  0.94963000  1.0 0.8271665918
H  H1  1  0.43660000  0.13130000  0.19930000  1.0 0.1197395369
H  H2  1  0.44790000  0.17380000  0.27270000  1.0 0.1197395369
H  H3  1  0.23490000  0.19800000  0.33310000  1.0 0.1109404364
H  H4  1  0.22220000  0.15070000  0.26390000  1.0 0.1197395369
H  H5  1  0.43040000  0.15960000  0.39190000  1.0 0.1109404364
H  H6  1  0.27520000  0.30970000  0.32190000  1.0 0.1109404364
H  H7  1  0.39710000  0.80390000  0.14990000  1.0 0.1197395369
H  H8  1  0.39730000  0.67630000  0.20780000  1.0 0.1109404364
H  H9  1  0.36550000  0.67300000  0.39530000  1.0 0.1109404364
H  H10  1  0.36540000  0.80100000  0.33790000  1.0 0.1197395369
H  H11  1  0.43740000  0.56030000  0.26210000  1.0 0.1197395369
H  H12  1  0.44020000  0.43220000  0.32130000  1.0 0.1291584636
H  H13  1  0.31990000  0.56300000  0.44180000  1.0 0.1197395369
H  H14  1  0.46460000  0.14620000  0.86200000  1.0 0.1197395369
H  H15  1  0.47510000  0.19560000  0.74200000  1.0 0.1109404364
H  H16  1  0.26320000  0.17690000  0.78520000  1.0 0.1109404364
H  H17  1  0.25290000  0.12630000  0.90440000  1.0 0.1291584636
H  H18  1  0.45490000  0.29910000  0.63700000  1.0 0.1197395369
H  H19  1  0.45740000  0.36000000  0.51940000  1.0 0.1291584636
H  H20  1  0.30590000  0.22600000  0.55980000  1.0 0.1197395369
H  H21  1  0.30200000  0.16670000  0.67850000  1.0 0.1197395369
H  H22  1  0.32160000  0.43350000  0.49940000  1.0 0.1291584636
H  H23  1  0.29130000  0.37020000  0.37770000  1.0 0.1197395369
H  H24  1  0.44490000  0.22030000  0.44950000  1.0 0.1291584636
H  H25  1  0.54660000  0.07140000  0.97580000  1.0 0.1109404364
H  H26  1  0.50650000  0.01100000  0.17980000  1.0 0.1197395369
H  H27  1  0.62330000  0.02160000  0.16770000  1.0 0.1291584636
H  H28  1  0.66710000  0.07880000  0.96040000  1.0 0.1531129377
H  H29  1  0.98960000  0.08530000  0.97480000  1.0 0.1036646115
H  H30  1  0.87340000  0.05620000  0.99070000  1.0 0.141946693
H  H31  1  0.93560000  0.06160000  0.16520000  1.0 0.1197395369
H  H32  1  0.82290000  0.02970000  0.18480000  1.0 0.141946693
H  H33  1  0.06230000  0.88720000  0.15270000  1.0 0.1109404364
H  H34  1  0.05840000  0.75930000  0.21170000  1.0 0.1109404364
H  H35  1  0.04830000  0.64790000  0.27480000  1.0 0.1109404364
H  H36  1  0.23760000  0.63180000  0.31140000  1.0 0.1036646115
H  H37  1  0.00820000  0.16170000  0.24670000  1.0 0.1291584636
H  H38  1  0.01890000  0.21790000  0.31080000  1.0 0.1197395369
H  H39  1  0.19290000  0.32040000  0.15870000  1.0 0.1197395369
H  H40  1  0.18170000  0.26360000  0.09540000  1.0 0.1197395369
H  H41  1  0.06690000  0.23310000  0.38190000  1.0 0.1197395369
H  H42  1  0.11730000  0.13300000  0.83520000  1.0 0.1197395369
H  H43  1  0.12520000  0.18190000  0.71680000  1.0 0.1109404364
H  H44  1  0.10550000  0.38780000  0.69500000  1.0 0.1109404364
H  H45  1  0.09260000  0.33770000  0.81590000  1.0 0.1197395369
H  H46  1  0.16950000  0.23410000  0.60160000  1.0 0.1109404364
H  H47  1  0.17880000  0.28560000  0.48200000  1.0 0.1197395369
H  H48  1  0.07750000  0.47190000  0.48190000  1.0 0.1197395369
H  H49  1  0.07350000  0.42360000  0.59960000  1.0 0.1109404364
H  H50  1  0.04450000  0.51870000  0.33170000  1.0 0.1291584636
H  H51  1  0.23440000  0.50560000  0.36600000  1.0 0.1197395369
H  H52  1  0.07880000  0.29060000  0.44330000  1.0 0.1291584636
H  H53  1  0.16550000  0.40290000  0.19850000  1.0 0.1109404364
H  H54  1  0.17590000  0.45950000  0.25990000  1.0 0.1291584636
H  H55  1  0.23350000  0.87630000  0.21620000  1.0 0.1197395369
H  H56  1  0.23130000  0.74730000  0.27390000  1.0 0.1036646115
H  H57  1  0.56340000  0.86870000  0.80070000  1.0 0.1197395369
H  H58  1  0.55210000  0.82620000  0.72730000  1.0 0.1197395369
H  H59  1  0.76510000  0.80200000  0.66690000  1.0 0.1109404364
H  H60  1  0.77780000  0.84930000  0.73610000  1.0 0.1197395369
H  H61  1  0.56960000  0.84040000  0.60810000  1.0 0.1109404364
H  H62  1  0.72480000  0.69030000  0.67810000  1.0 0.1109404364
H  H63  1  0.60290000  0.19610000  0.85010000  1.0 0.1197395369
H  H64  1  0.60270000  0.32370000  0.79220000  1.0 0.1109404364
H  H65  1  0.63450000  0.32700000  0.60470000  1.0 0.1109404364
H  H66  1  0.63460000  0.19900000  0.66210000  1.0 0.1197395369
H  H67  1  0.56260000  0.43970000  0.73790000  1.0 0.1197395369
H  H68  1  0.55980000  0.56780000  0.67870000  1.0 0.1291584636
H  H69  1  0.68010000  0.43700000  0.55820000  1.0 0.1197395369
H  H70  1  0.53540000  0.85380000  0.13800000  1.0 0.1109404364
H  H71  1  0.52490000  0.80440000  0.25800000  1.0 0.1109404364
H  H72  1  0.73680000  0.82310000  0.21480000  1.0 0.1109404364
H  H73  1  0.74710000  0.87370000  0.09560000  1.0 0.1291584636
H  H74  1  0.54510000  0.70090000  0.36300000  1.0 0.1197395369
H  H75  1  0.54260000  0.64000000  0.48060000  1.0 0.1291584636
H  H76  1  0.69410000  0.77400000  0.44020000  1.0 0.1197395369
H  H77  1  0.69800000  0.83330000  0.32150000  1.0 0.1197395369
H  H78  1  0.67840000  0.56650000  0.50060000  1.0 0.1291584636
H  H79  1  0.70870000  0.62980000  0.62230000  1.0 0.1197395369
H  H80  1  0.55510000  0.77970000  0.55050000  1.0 0.1291584636
H  H81  1  0.45340000  0.92860000  0.02420000  1.0 0.1109404364
H  H82  1  0.49350000  0.98900000  0.82020000  1.0 0.1197395369
H  H83  1  0.37670000  0.97840000  0.83230000  1.0 0.1291584636
H  H84  1  0.33290000  0.92120000  0.03960000  1.0 0.1531129377
H  H85  1  0.01040000  0.91470000  0.02520000  1.0 0.1036646115
H  H86  1  0.12660000  0.94380000  0.00930000  1.0 0.141946693
H  H87  1  0.06440000  0.93840000  0.83480000  1.0 0.1197395369
H  H88  1  0.17710000  0.97030000  0.81520000  1.0 0.141946693
H  H89  1  0.93770000  0.11280000  0.84730000  1.0 0.1109404364
H  H90  1  0.94160000  0.24070000  0.78830000  1.0 0.1109404364
H  H91  1  0.95170000  0.35210000  0.72520000  1.0 0.1109404364
H  H92  1  0.76240000  0.36820000  0.68860000  1.0 0.1036646115
H  H93  1  0.99180000  0.83830000  0.75330000  1.0 0.1291584636
H  H94  1  0.98110000  0.78210000  0.68920000  1.0 0.1197395369
H  H95  1  0.80710000  0.67960000  0.84130000  1.0 0.1197395369
H  H96  1  0.81830000  0.73640000  0.90460000  1.0 0.1197395369
H  H97  1  0.93310000  0.76690000  0.61810000  1.0 0.1197395369
H  H98  1  0.88270000  0.86700000  0.16480000  1.0 0.1197395369
H  H99  1  0.87480000  0.81810000  0.28320000  1.0 0.1109404364
H  H100  1  0.89450000  0.61220000  0.30500000  1.0 0.1109404364
H  H101  1  0.90740000  0.66230000  0.18410000  1.0 0.1197395369
H  H102  1  0.83050000  0.76590000  0.39840000  1.0 0.1109404364
H  H103  1  0.82120000  0.71440000  0.51800000  1.0 0.1197395369
H  H104  1  0.92250000  0.52810000  0.51810000  1.0 0.1197395369
H  H105  1  0.92650000  0.57640000  0.40040000  1.0 0.1109404364
H  H106  1  0.95550000  0.48130000  0.66830000  1.0 0.1291584636
H  H107  1  0.76560000  0.49440000  0.63400000  1.0 0.1197395369
H  H108  1  0.92120000  0.70940000  0.55670000  1.0 0.1291584636
H  H109  1  0.83450000  0.59710000  0.80150000  1.0 0.1109404364
H  H110  1  0.82410000  0.54050000  0.74010000  1.0 0.1291584636
H  H111  1  0.76650000  0.12370000  0.78380000  1.0 0.1197395369
H  H112  1  0.76870000  0.25270000  0.72610000  1.0 0.1036646115
C  C1  1  0.32150000  0.11402000  0.17239000  1.0 0.5999130653
C  C2  1  0.32817000  0.13801000  0.22258000  1.0 -0.0391672579
C  C3  1  0.39568000  0.14470000  0.22630000  1.0 -0.0911101492
C  C4  1  0.40242000  0.17110000  0.26960000  1.0 -0.1497123244
C  C5  1  0.34267000  0.19359000  0.30878000  1.0 0.0779674715
C  C6  1  0.27574000  0.18473000  0.30599000  1.0 -0.1614670512
C  C7  1  0.26792000  0.15687000  0.26420000  1.0 -0.0911101492
C  C8  1  0.35064000  0.22884000  0.34980000  1.0 0.0602942951
C  C9  1  0.40220000  0.20193000  0.38910000  1.0 -0.132091172
C  C10  1  0.30980000  0.29152000  0.34726000  1.0 -0.132091172
C  C11  1  0.38497000  0.89951000  0.20089000  1.0 0.5371371257
C  C12  1  0.38109000  0.81669000  0.23731000  1.0 -0.0391672579
C  C13  1  0.39060000  0.77786000  0.19917000  1.0 -0.1072373287
C  C14  1  0.39031000  0.70116000  0.23434000  1.0 -0.1614670512
C  C15  1  0.37997000  0.65855000  0.30845000  1.0 0.0602942951
C  C16  1  0.37139000  0.69905000  0.34615000  1.0 -0.1614670512
C  C17  1  0.37158000  0.77575000  0.31175000  1.0 -0.1072373287
C  C18  1  0.37940000  0.57700000  0.34500000  1.0 0.043539797
C  C19  1  0.41410000  0.53540000  0.31060000  1.0 -0.132091172
C  C20  1  0.41530000  0.45820000  0.34600000  1.0 -0.1793304784
C  C21  1  0.34440000  0.53750000  0.41650000  1.0 -0.1406099094
C  C22  1  0.35116000  0.09971000  0.97359000  1.0 0.58655182
C  C23  1  0.35812000  0.13176000  0.89521000  1.0 -0.0329169057
C  C24  1  0.42407000  0.15228000  0.84651000  1.0 -0.0991436643
C  C25  1  0.43022000  0.18197000  0.77461000  1.0 -0.1497123244
C  C26  1  0.36988000  0.19189000  0.75007000  1.0 0.0713553271
C  C27  1  0.30406000  0.17059000  0.80041000  1.0 -0.1406099094
C  C28  1  0.29766000  0.14075000  0.87157000  1.0 -0.0911101492
C  C29  1  0.37667000  0.22771000  0.67211000  1.0 0.0602942951
C  C30  1  0.42390000  0.28492000  0.62191000  1.0 -0.132091172
C  C31  1  0.42620000  0.32090000  0.55130000  1.0 -0.1699768208
C  C32  1  0.38230000  0.29959000  0.52650000  1.0 0.1712852376
C  C33  1  0.33560000  0.24117000  0.57542000  1.0 -0.1793304784
C  C34  1  0.33320000  0.20593000  0.64650000  1.0 -0.132091172
C  C35  1  0.38020000  0.41900000  0.41750000  1.0 0.160077362
C  C36  1  0.34560000  0.45890000  0.45120000  1.0 -0.1793304784
C  C37  1  0.31910000  0.32753000  0.38107000  1.0 -0.1793304784
C  C38  1  0.41080000  0.23830000  0.42360000  1.0 -0.1793304784
C  C39  1  0.56290000  0.06058000  0.01469000  1.0 0.0899488228
C  C40  1  0.53918000  0.02547000  0.13517000  1.0 0.0899488228
C  C41  1  0.60860000  0.03100000  0.12840000  1.0 -0.1990162087
C  C42  1  0.65873000  0.05090000  0.06220000  1.0 0.1919133486
C  C43  1  0.63485000  0.06562000  0.00510000  1.0 -0.1882200548
C  C44  1  0.83380000  0.04840000  0.08690000  1.0 0.1919133486
C  C45  1  0.36920000  0.30152000  0.42018000  1.0 0.160077362
C  C46  1  0.95480000  0.07780000  0.01690000  1.0 0.1109404364
C  C47  1  0.88440000  0.05990000  0.02630000  1.0 -0.2105064718
C  C48  1  0.92290000  0.06350000  0.12770000  1.0 0.0713553271
C  C49  1  0.85490000  0.04490000  0.13970000  1.0 -0.2105064718
C  C50  1  0.15013000  0.97844000  0.14100000  1.0 0.5999130653
C  C51  1  0.14862000  0.89515000  0.17857000  1.0 -0.0329169057
C  C52  1  0.09640000  0.85920000  0.17750000  1.0 -0.1072373287
C  C53  1  0.09440000  0.78210000  0.21280000  1.0 -0.1497123244
C  C54  1  0.14397000  0.73773000  0.24968000  1.0 0.0779674715
C  C55  1  0.14239000  0.65605000  0.28549000  1.0 0.0602942951
C  C56  1  0.08630000  0.61960000  0.29330000  1.0 -0.132091172
C  C57  1  0.19820000  0.60970000  0.31500000  1.0 -0.132091172
C  C58  1  0.08620000  0.17060000  0.12490000  1.0 0.5821962404
C  C59  1  0.09436000  0.20680000  0.16490000  1.0 -0.0470815217
C  C60  1  0.04590000  0.19370000  0.22860000  1.0 -0.0785389048
C  C61  1  0.05230000  0.22777000  0.26730000  1.0 -0.1497123244
C  C62  1  0.15520000  0.28832000  0.17710000  1.0 -0.1497123244
C  C63  1  0.14860000  0.25397000  0.13892000  1.0 -0.0911101492
C  C64  1  0.11393000  0.31054000  0.28320000  1.0 0.0542603654
C  C65  1  0.08913000  0.27900000  0.35649000  1.0 -0.1406099094
C  C66  1  0.09550000  0.19720000  0.91670000  1.0 0.5371371257
C  C67  1  0.10410000  0.23020000  0.83860000  1.0 -0.0329169057
C  C68  1  0.11403000  0.18461000  0.80729000  1.0 -0.1072373287
C  C69  1  0.11911000  0.21407000  0.73598000  1.0 -0.1614670512
C  C70  1  0.11547000  0.28980000  0.69226000  1.0 0.0713553271
C  C71  1  0.10680000  0.33620000  0.72330000  1.0 -0.1614670512
C  C72  1  0.10000000  0.30600000  0.79600000  1.0 -0.0911101492
C  C73  1  0.11956000  0.32203000  0.61614000  1.0 0.0542603654
C  C74  1  0.15135000  0.28245000  0.57781000  1.0 -0.1406099094
C  C75  1  0.15655000  0.31303000  0.50593000  1.0 -0.1793304784
C  C76  1  0.12894000  0.38411000  0.46928000  1.0 0.1712852376
C  C77  1  0.09690000  0.42434000  0.50575000  1.0 -0.1882200548
C  C78  1  0.09360000  0.39470000  0.57680000  1.0 -0.1406099094
C  C79  1  0.13920000  0.49978000  0.35601000  1.0 0.1531129377
C  C80  1  0.08340000  0.54180000  0.32780000  1.0 -0.1793304784
C  C81  1  0.19610000  0.53420000  0.34820000  1.0 -0.1614670512
C  C82  1  0.12870000  0.38105000  0.35839000  1.0 0.1712852376
C  C83  1  0.09625000  0.31361000  0.39380000  1.0 -0.1882200548
C  C84  1  0.14740000  0.37969000  0.24796000  1.0 -0.132091172
C  C85  1  0.15390000  0.41340000  0.28493000  1.0 -0.1882200548
C  C86  1  0.19817000  0.85290000  0.21480000  1.0 -0.0911101492
C  C87  1  0.10630000  0.27498000  0.24191000  1.0 0.0713553271
C  C88  1  0.19650000  0.77510000  0.24980000  1.0 -0.1497123244
C  C89  1  0.67850000  0.88598000  0.82761000  1.0 0.5999130653
C  C90  1  0.67183000  0.86199000  0.77742000  1.0 -0.0391672579
C  C91  1  0.60432000  0.85530000  0.77370000  1.0 -0.0911101492
C  C92  1  0.59758000  0.82890000  0.73040000  1.0 -0.1497123244
C  C93  1  0.65733000  0.80641000  0.69122000  1.0 0.0779674715
C  C94  1  0.72426000  0.81527000  0.69401000  1.0 -0.1614670512
C  C95  1  0.73208000  0.84313000  0.73580000  1.0 -0.0911101492
C  C96  1  0.64936000  0.77116000  0.65020000  1.0 0.0602942951
C  C97  1  0.59780000  0.79807000  0.61090000  1.0 -0.132091172
C  C98  1  0.69020000  0.70848000  0.65274000  1.0 -0.132091172
C  C99  1  0.61503000  0.10049000  0.79911000  1.0 0.5371371257
C  C100  1  0.61891000  0.18331000  0.76269000  1.0 -0.0391672579
C  C101  1  0.60940000  0.22214000  0.80083000  1.0 -0.1072373287
C  C102  1  0.60969000  0.29884000  0.76566000  1.0 -0.1614670512
C  C103  1  0.62003000  0.34145000  0.69155000  1.0 0.0602942951
C  C104  1  0.62861000  0.30095000  0.65385000  1.0 -0.1614670512
C  C105  1  0.62842000  0.22425000  0.68825000  1.0 -0.1072373287
C  C106  1  0.62060000  0.42300000  0.65500000  1.0 0.043539797
C  C107  1  0.58590000  0.46460000  0.68940000  1.0 -0.132091172
C  C108  1  0.58470000  0.54180000  0.65400000  1.0 -0.1793304784
C  C109  1  0.65560000  0.46250000  0.58350000  1.0 -0.1406099094
C  C110  1  0.64884000  0.90029000  0.02641000  1.0 0.58655182
C  C111  1  0.64188000  0.86824000  0.10479000  1.0 -0.0329169057
C  C112  1  0.57593000  0.84772000  0.15349000  1.0 -0.0991436643
C  C113  1  0.56978000  0.81803000  0.22539000  1.0 -0.1497123244
C  C114  1  0.63012000  0.80811000  0.24993000  1.0 0.0713553271
C  C115  1  0.69594000  0.82941000  0.19959000  1.0 -0.1406099094
C  C116  1  0.70234000  0.85925000  0.12843000  1.0 -0.0911101492
C  C117  1  0.62333000  0.77229000  0.32789000  1.0 0.0602942951
C  C118  1  0.57610000  0.71508000  0.37809000  1.0 -0.132091172
C  C119  1  0.57380000  0.67910000  0.44870000  1.0 -0.1699768208
C  C120  1  0.61770000  0.70041000  0.47350000  1.0 0.160077362
C  C121  1  0.66440000  0.75883000  0.42458000  1.0 -0.1793304784
C  C122  1  0.66680000  0.79407000  0.35350000  1.0 -0.132091172
C  C123  1  0.61980000  0.58100000  0.58250000  1.0 0.160077362
C  C124  1  0.65440000  0.54110000  0.54880000  1.0 -0.1793304784
C  C125  1  0.68090000  0.67247000  0.61893000  1.0 -0.1793304784
C  C126  1  0.58920000  0.76170000  0.57640000  1.0 -0.1793304784
C  C127  1  0.43710000  0.93942000  0.98531000  1.0 0.0899488228
C  C128  1  0.46082000  0.97453000  0.86483000  1.0 0.0899488228
C  C129  1  0.39140000  0.96900000  0.87160000  1.0 -0.1990162087
C  C130  1  0.34127000  0.94910000  0.93780000  1.0 0.1919133486
C  C131  1  0.36515000  0.93438000  0.99490000  1.0 -0.1882200548
C  C132  1  0.16620000  0.95160000  0.91310000  1.0 0.1919133486
C  C133  1  0.63080000  0.69848000  0.57982000  1.0 0.160077362
C  C134  1  0.04520000  0.92220000  0.98310000  1.0 0.1109404364
C  C135  1  0.11560000  0.94010000  0.97370000  1.0 -0.2105064718
C  C136  1  0.07710000  0.93650000  0.87230000  1.0 0.0713553271
C  C137  1  0.14510000  0.95510000  0.86030000  1.0 -0.2105064718
C  C138  1  0.84987000  0.02156000  0.85900000  1.0 0.5999130653
C  C139  1  0.85138000  0.10485000  0.82143000  1.0 -0.0329169057
C  C140  1  0.90360000  0.14080000  0.82250000  1.0 -0.1072373287
C  C141  1  0.90560000  0.21790000  0.78720000  1.0 -0.1497123244
C  C142  1  0.85603000  0.26227000  0.75032000  1.0 0.0779674715
C  C143  1  0.85761000  0.34395000  0.71451000  1.0 0.0602942951
C  C144  1  0.91370000  0.38040000  0.70670000  1.0 -0.132091172
C  C145  1  0.80180000  0.39030000  0.68500000  1.0 -0.132091172
C  C146  1  0.91380000  0.82940000  0.87510000  1.0 0.5821962404
C  C147  1  0.90564000  0.79320000  0.83510000  1.0 -0.0470815217
C  C148  1  0.95410000  0.80630000  0.77140000  1.0 -0.0785389048
C  C149  1  0.94770000  0.77223000  0.73270000  1.0 -0.1497123244
C  C150  1  0.84480000  0.71168000  0.82290000  1.0 -0.1497123244
C  C151  1  0.85140000  0.74603000  0.86108000  1.0 -0.0911101492
C  C152  1  0.88607000  0.68946000  0.71680000  1.0 0.0542603654
C  C153  1  0.91087000  0.72100000  0.64351000  1.0 -0.1406099094
C  C154  1  0.90450000  0.80280000  0.08330000  1.0 0.5371371257
C  C155  1  0.89590000  0.76980000  0.16140000  1.0 -0.0329169057
C  C156  1  0.88597000  0.81539000  0.19271000  1.0 -0.1072373287
C  C157  1  0.88089000  0.78593000  0.26402000  1.0 -0.1614670512
C  C158  1  0.88453000  0.71020000  0.30774000  1.0 0.0713553271
C  C159  1  0.89320000  0.66380000  0.27670000  1.0 -0.1614670512
C  C160  1  0.90000000  0.69400000  0.20400000  1.0 -0.0911101492
C  C161  1  0.88044000  0.67797000  0.38386000  1.0 0.0602942951
C  C162  1  0.84865000  0.71755000  0.42219000  1.0 -0.1406099094
C  C163  1  0.84345000  0.68697000  0.49407000  1.0 -0.1793304784
C  C164  1  0.87106000  0.61589000  0.53072000  1.0 0.1712852376
C  C165  1  0.90310000  0.57566000  0.49425000  1.0 -0.1882200548
C  C166  1  0.90640000  0.60530000  0.42320000  1.0 -0.1406099094
C  C167  1  0.86080000  0.50022000  0.64399000  1.0 0.1531129377
C  C168  1  0.91660000  0.45820000  0.67220000  1.0 -0.1793304784
C  C169  1  0.80390000  0.46580000  0.65180000  1.0 -0.1614670512
C  C170  1  0.87130000  0.61895000  0.64161000  1.0 0.1712852376
C  C171  1  0.90375000  0.68639000  0.60620000  1.0 -0.1882200548
C  C172  1  0.85260000  0.62031000  0.75204000  1.0 -0.132091172
C  C173  1  0.84610000  0.58660000  0.71507000  1.0 -0.1882200548
C  C174  1  0.80183000  0.14710000  0.78520000  1.0 -0.0911101492
C  C175  1  0.89370000  0.72502000  0.75809000  1.0 0.0713553271
C  C176  1  0.80350000  0.22490000  0.75020000  1.0 -0.1497123244
N  N1  1  0.51520000  0.04028000  0.07940000  1.0 -0.2338431728
N  N2  1  0.73560000  0.05943000  0.04831000  1.0 -0.056088361
N  N3  1  0.75796000  0.03500000  0.10070000  1.0 -0.0911101492
N  N4  1  0.97250000  0.08437000  0.06484000  1.0 -0.2105064718
N  N5  1  0.38260000  0.34056000  0.45268000  1.0 -0.1699768208
N  N6  1  0.13594000  0.41942000  0.39400000  1.0 -0.1990162087
N  N7  1  0.48480000  0.95972000  0.92060000  1.0 -0.2338431728
N  N8  1  0.26440000  0.94057000  0.95169000  1.0 -0.056088361
N  N9  1  0.24204000  0.96500000  0.89930000  1.0 -0.0911101492
N  N10  1  0.02750000  0.91563000  0.93516000  1.0 -0.2105064718
N  N11  1  0.61740000  0.65944000  0.54732000  1.0 -0.1614670512
N  N12  1  0.86406000  0.58058000  0.60600000  1.0 -0.1990162087
O  O1  1  0.37909000  0.10550000  0.13162000  1.0 -0.5509497476
O  O2  1  0.25937000  0.10727000  0.17156000  1.0 -0.5296817673
O  O3  1  0.38291000  0.93397000  0.13482000  1.0 -0.5602742536
O  O4  1  0.28924000  0.08311000  0.01619000  1.0 -0.5659722341
O  O5  1  0.40829000  0.09153000  0.99123000  1.0 -0.5384327325
O  O6  1  0.39222000  0.93200000  0.23185000  1.0 -0.5296817673
O  O7  1  0.19088000  0.00914000  0.15241000  1.0 -0.5384327325
O  O8  1  0.14003000  0.16533000  0.07711000  1.0 -0.5602742536
O  O9  1  0.02711000  0.14798000  0.13449000  1.0 -0.4976002229
O  O10  1  0.11465000  0.12962000  0.95058000  1.0 -0.5384327325
O  O11  1  0.10932000  0.01087000  0.10019000  1.0 -0.5509497476
O  O12  1  0.06802000  0.23428000  0.94797000  1.0 -0.5058656884
O  O13  1  0.62091000  0.89450000  0.86838000  1.0 -0.5509497476
O  O14  1  0.74063000  0.89273000  0.82844000  1.0 -0.5296817673
O  O15  1  0.61709000  0.06603000  0.86518000  1.0 -0.5602742536
O  O16  1  0.71076000  0.91689000  0.98381000  1.0 -0.5659722341
O  O17  1  0.59171000  0.90847000  0.00877000  1.0 -0.5384327325
O  O18  1  0.60778000  0.06800000  0.76815000  1.0 -0.5296817673
O  O19  1  0.80912000  0.99086000  0.84759000  1.0 -0.5384327325
O  O20  1  0.85997000  0.83467000  0.92289000  1.0 -0.5602742536
O  O21  1  0.97289000  0.85202000  0.86551000  1.0 -0.4976002229
O  O22  1  0.88535000  0.87038000  0.04942000  1.0 -0.5384327325
O  O23  1  0.89068000  0.98913000  0.89981000  1.0 -0.5509497476
O  O24  1  0.93198000  0.76572000  0.05203000  1.0 -0.5058656884
