# DDEC6 charges by PACMAN v1.1 (https://github.com/mtap-research/PACMAN-charge/)
data_HURFOR_ASR_pacman
_symmetry_space_group_name_H-M   'P 1'
_cell_length_a   15.57800000
_cell_length_b   19.13100000
_cell_length_c   25.03900000
_cell_angle_alpha   90.00000000
_cell_angle_beta   90.00000000
_cell_angle_gamma   90.00000000
_symmetry_Int_Tables_number   1
_chemical_formula_structural   Zn5H35C36N9O16
_chemical_formula_sum   'Zn20 H140 C144 N36 O64'
_cell_volume   7462.19083600
_cell_formula_units_Z   4
loop_
 _symmetry_equiv_pos_site_id
 _symmetry_equiv_pos_as_xyz
  1  'x, y, z'
loop_
 _atom_site_type_symbol
 _atom_site_label
 _atom_site_symmetry_multiplicity
 _atom_site_fract_x
 _atom_site_fract_y
 _atom_site_fract_z
 _atom_site_occupancy
 _atom_site_charge
Zn  Zn1  1  0.54678000  0.16217000  0.72594000  1.0 0.7576583749
Zn  Zn2  1  0.95322000  0.83783000  0.22594000  1.0 0.7576583749
Zn  Zn3  1  0.45322000  0.66217000  0.27406000  1.0 0.7576583749
Zn  Zn4  1  0.04678000  0.33783000  0.77406000  1.0 0.7576583749
Zn  Zn5  1  0.45322000  0.83783000  0.27406000  1.0 0.7576583749
Zn  Zn6  1  0.04678000  0.16217000  0.77406000  1.0 0.7576583749
Zn  Zn7  1  0.54678000  0.33783000  0.72594000  1.0 0.7576583749
Zn  Zn8  1  0.95322000  0.66217000  0.22594000  1.0 0.7576583749
Zn  Zn9  1  0.67700000  0.25000000  0.80116000  1.0 0.7341917283
Zn  Zn10  1  0.82300000  0.75000000  0.30116000  1.0 0.7341917283
Zn  Zn11  1  0.32300000  0.75000000  0.19884000  1.0 0.7341917283
Zn  Zn12  1  0.17700000  0.25000000  0.69884000  1.0 0.7341917283
Zn  Zn13  1  0.52553000  0.03584000  0.94986000  1.0 0.8607906676
Zn  Zn14  1  0.97447000  0.96416000  0.44986000  1.0 0.8607906676
Zn  Zn15  1  0.47447000  0.53584000  0.05014000  1.0 0.8607906676
Zn  Zn16  1  0.02553000  0.46416000  0.55014000  1.0 0.8607906676
Zn  Zn17  1  0.47447000  0.96416000  0.05014000  1.0 0.8607906676
Zn  Zn18  1  0.02553000  0.03584000  0.55014000  1.0 0.8607906676
Zn  Zn19  1  0.52553000  0.46416000  0.94986000  1.0 0.8607906676
Zn  Zn20  1  0.97447000  0.53584000  0.44986000  1.0 0.8607906676
H  H1  1  0.66250000  0.25000000  0.71140000  1.0 0.3909497344
H  H2  1  0.83750000  0.75000000  0.21140000  1.0 0.3909497344
H  H3  1  0.33750000  0.75000000  0.28860000  1.0 0.3909497344
H  H4  1  0.16250000  0.25000000  0.78860000  1.0 0.3909497344
H  H5  1  0.40730000  0.04980000  0.82560000  1.0 0.159225308
H  H6  1  0.09270000  0.95020000  0.32560000  1.0 0.159225308
H  H7  1  0.59270000  0.54980000  0.17440000  1.0 0.159225308
H  H8  1  0.90730000  0.45020000  0.67440000  1.0 0.159225308
H  H9  1  0.59270000  0.95020000  0.17440000  1.0 0.159225308
H  H10  1  0.90730000  0.04980000  0.67440000  1.0 0.159225308
H  H11  1  0.40730000  0.45020000  0.82560000  1.0 0.159225308
H  H12  1  0.09270000  0.54980000  0.32560000  1.0 0.159225308
H  H13  1  0.47220000  0.98820000  0.83440000  1.0 0.1535874035
H  H14  1  0.02780000  0.01180000  0.33440000  1.0 0.1535874035
H  H15  1  0.52780000  0.48820000  0.16560000  1.0 0.1535874035
H  H16  1  0.97220000  0.51180000  0.66560000  1.0 0.1535874035
H  H17  1  0.52780000  0.01180000  0.16560000  1.0 0.1535874035
H  H18  1  0.97220000  0.98820000  0.66560000  1.0 0.1535874035
H  H19  1  0.47220000  0.51180000  0.83440000  1.0 0.1535874035
H  H20  1  0.02780000  0.48820000  0.33440000  1.0 0.1535874035
H  H21  1  0.46640000  0.02510000  0.77860000  1.0 0.141282171
H  H22  1  0.03360000  0.97490000  0.27860000  1.0 0.141282171
H  H23  1  0.53360000  0.52510000  0.22140000  1.0 0.141282171
H  H24  1  0.96640000  0.47490000  0.72140000  1.0 0.141282171
H  H25  1  0.53360000  0.97490000  0.22140000  1.0 0.141282171
H  H26  1  0.96640000  0.02510000  0.72140000  1.0 0.141282171
H  H27  1  0.46640000  0.47490000  0.77860000  1.0 0.141282171
H  H28  1  0.03360000  0.52510000  0.27860000  1.0 0.141282171
H  H29  1  0.37290000  0.09060000  0.71790000  1.0 0.1535874035
H  H30  1  0.12710000  0.90940000  0.21790000  1.0 0.1535874035
H  H31  1  0.62710000  0.59060000  0.28210000  1.0 0.1535874035
H  H32  1  0.87290000  0.40940000  0.78210000  1.0 0.1535874035
H  H33  1  0.62710000  0.90940000  0.28210000  1.0 0.1535874035
H  H34  1  0.87290000  0.09060000  0.78210000  1.0 0.1535874035
H  H35  1  0.37290000  0.40940000  0.71790000  1.0 0.1535874035
H  H36  1  0.12710000  0.59060000  0.21790000  1.0 0.1535874035
H  H37  1  0.30790000  0.10920000  0.67230000  1.0 0.1535874035
H  H38  1  0.19210000  0.89080000  0.17230000  1.0 0.1535874035
H  H39  1  0.69210000  0.60920000  0.32770000  1.0 0.1535874035
H  H40  1  0.80790000  0.39080000  0.82770000  1.0 0.1535874035
H  H41  1  0.69210000  0.89080000  0.32770000  1.0 0.1535874035
H  H42  1  0.80790000  0.10920000  0.82770000  1.0 0.1535874035
H  H43  1  0.30790000  0.39080000  0.67230000  1.0 0.1535874035
H  H44  1  0.19210000  0.60920000  0.17230000  1.0 0.1535874035
H  H45  1  0.27900000  0.11330000  0.73210000  1.0 0.159225308
H  H46  1  0.22100000  0.88670000  0.23210000  1.0 0.159225308
H  H47  1  0.72100000  0.61330000  0.26790000  1.0 0.159225308
H  H48  1  0.77900000  0.38670000  0.76790000  1.0 0.159225308
H  H49  1  0.72100000  0.88670000  0.26790000  1.0 0.159225308
H  H50  1  0.77900000  0.11330000  0.76790000  1.0 0.159225308
H  H51  1  0.27900000  0.38670000  0.73210000  1.0 0.159225308
H  H52  1  0.22100000  0.61330000  0.23210000  1.0 0.159225308
H  H53  1  0.69520000  0.11440000  0.94380000  1.0 0.159225308
H  H54  1  0.80480000  0.88560000  0.44380000  1.0 0.159225308
H  H55  1  0.30480000  0.61440000  0.05620000  1.0 0.159225308
H  H56  1  0.19520000  0.38560000  0.55620000  1.0 0.159225308
H  H57  1  0.30480000  0.88560000  0.05620000  1.0 0.159225308
H  H58  1  0.19520000  0.11440000  0.55620000  1.0 0.159225308
H  H59  1  0.69520000  0.38560000  0.94380000  1.0 0.159225308
H  H60  1  0.80480000  0.61440000  0.44380000  1.0 0.159225308
H  H61  1  0.65280000  0.18860000  0.94650000  1.0 0.159225308
H  H62  1  0.84720000  0.81140000  0.44650000  1.0 0.159225308
H  H63  1  0.34720000  0.68860000  0.05350000  1.0 0.159225308
H  H64  1  0.15280000  0.31140000  0.55350000  1.0 0.159225308
H  H65  1  0.34720000  0.81140000  0.05350000  1.0 0.159225308
H  H66  1  0.15280000  0.18860000  0.55350000  1.0 0.159225308
H  H67  1  0.65280000  0.31140000  0.94650000  1.0 0.159225308
H  H68  1  0.84720000  0.68860000  0.44650000  1.0 0.159225308
H  H69  1  0.73200000  0.17570000  0.90910000  1.0 0.141282171
H  H70  1  0.76800000  0.82430000  0.40910000  1.0 0.141282171
H  H71  1  0.26800000  0.67570000  0.09090000  1.0 0.141282171
H  H72  1  0.23200000  0.32430000  0.59090000  1.0 0.141282171
H  H73  1  0.26800000  0.82430000  0.09090000  1.0 0.141282171
H  H74  1  0.23200000  0.17570000  0.59090000  1.0 0.141282171
H  H75  1  0.73200000  0.32430000  0.90910000  1.0 0.141282171
H  H76  1  0.76800000  0.67570000  0.40910000  1.0 0.141282171
H  H77  1  0.47350000  0.14600000  0.14840000  1.0 0.114174427
H  H78  1  0.02650000  0.85400000  0.64840000  1.0 0.114174427
H  H79  1  0.52650000  0.64600000  0.85160000  1.0 0.114174427
H  H80  1  0.97350000  0.35400000  0.35160000  1.0 0.114174427
H  H81  1  0.52650000  0.85400000  0.85160000  1.0 0.114174427
H  H82  1  0.97350000  0.14600000  0.35160000  1.0 0.114174427
H  H83  1  0.47350000  0.35400000  0.14840000  1.0 0.114174427
H  H84  1  0.02650000  0.64600000  0.64840000  1.0 0.114174427
H  H85  1  0.51110000  0.25000000  0.01400000  1.0 0.1258685304
H  H86  1  0.98890000  0.75000000  0.51400000  1.0 0.1258685304
H  H87  1  0.48890000  0.75000000  0.98600000  1.0 0.1258685304
H  H88  1  0.01110000  0.25000000  0.48600000  1.0 0.1258685304
H  H89  1  0.20630000  0.94840000  0.01100000  1.0 0.1169424597
H  H90  1  0.29370000  0.05160000  0.51100000  1.0 0.1169424597
H  H91  1  0.79370000  0.44840000  0.98900000  1.0 0.1169424597
H  H92  1  0.70630000  0.55160000  0.48900000  1.0 0.1169424597
H  H93  1  0.79370000  0.05160000  0.98900000  1.0 0.1169424597
H  H94  1  0.70630000  0.94840000  0.48900000  1.0 0.1169424597
H  H95  1  0.20630000  0.55160000  0.01100000  1.0 0.1169424597
H  H96  1  0.29370000  0.44840000  0.51100000  1.0 0.1169424597
H  H97  1  0.26800000  0.06830000  0.88620000  1.0 0.141282171
H  H98  1  0.23200000  0.93170000  0.38620000  1.0 0.141282171
H  H99  1  0.73200000  0.56830000  0.11380000  1.0 0.141282171
H  H100  1  0.76800000  0.43170000  0.61380000  1.0 0.141282171
H  H101  1  0.73200000  0.93170000  0.11380000  1.0 0.141282171
H  H102  1  0.76800000  0.06830000  0.61380000  1.0 0.141282171
H  H103  1  0.26800000  0.43170000  0.88620000  1.0 0.141282171
H  H104  1  0.23200000  0.56830000  0.38620000  1.0 0.141282171
H  H105  1  0.02440000  0.99450000  0.90180000  1.0 0.1258685304
H  H106  1  0.47560000  0.00550000  0.40180000  1.0 0.1258685304
H  H107  1  0.97560000  0.49450000  0.09820000  1.0 0.1258685304
H  H108  1  0.52440000  0.50550000  0.59820000  1.0 0.1258685304
H  H109  1  0.97560000  0.00550000  0.09820000  1.0 0.1258685304
H  H110  1  0.52440000  0.99450000  0.59820000  1.0 0.1258685304
H  H111  1  0.02440000  0.50550000  0.90180000  1.0 0.1258685304
H  H112  1  0.47560000  0.49450000  0.40180000  1.0 0.1258685304
H  H113  1  0.06450000  0.90810000  0.01530000  1.0 0.2309488686
H  H114  1  0.43550000  0.09190000  0.51530000  1.0 0.2309488686
H  H115  1  0.93550000  0.40810000  0.98470000  1.0 0.2309488686
H  H116  1  0.56450000  0.59190000  0.48470000  1.0 0.2309488686
H  H117  1  0.93550000  0.09190000  0.98470000  1.0 0.2309488686
H  H118  1  0.56450000  0.90810000  0.48470000  1.0 0.2309488686
H  H119  1  0.06450000  0.59190000  0.01530000  1.0 0.2309488686
H  H120  1  0.43550000  0.40810000  0.51530000  1.0 0.2309488686
H  H121  1  0.45520000  0.25000000  0.19490000  1.0 0.1258685304
H  H122  1  0.04480000  0.75000000  0.69490000  1.0 0.1258685304
H  H123  1  0.54480000  0.75000000  0.80510000  1.0 0.1258685304
H  H124  1  0.95520000  0.25000000  0.30510000  1.0 0.1258685304
H  H125  1  0.06980000  0.93460000  0.97750000  1.0 0.141282171
H  H126  1  0.43020000  0.06540000  0.47750000  1.0 0.141282171
H  H127  1  0.93020000  0.43460000  0.02250000  1.0 0.141282171
H  H128  1  0.56980000  0.56540000  0.52250000  1.0 0.141282171
H  H129  1  0.93020000  0.06540000  0.02250000  1.0 0.141282171
H  H130  1  0.56980000  0.93460000  0.52250000  1.0 0.141282171
H  H131  1  0.06980000  0.56540000  0.97750000  1.0 0.141282171
H  H132  1  0.43020000  0.43460000  0.47750000  1.0 0.141282171
H  H133  1  0.41550000  0.26760000  0.22130000  1.0 0.159225308
H  H134  1  0.08450000  0.73240000  0.72130000  1.0 0.159225308
H  H135  1  0.58450000  0.76760000  0.77870000  1.0 0.159225308
H  H136  1  0.91550000  0.23240000  0.27870000  1.0 0.159225308
H  H137  1  0.58450000  0.73240000  0.77870000  1.0 0.159225308
H  H138  1  0.91550000  0.26760000  0.27870000  1.0 0.159225308
H  H139  1  0.41550000  0.23240000  0.22130000  1.0 0.159225308
H  H140  1  0.08450000  0.76760000  0.72130000  1.0 0.159225308
C  C1  1  0.52890000  0.08210000  0.83310000  1.0 0.3909497344
C  C2  1  0.97110000  0.91790000  0.33310000  1.0 0.3909497344
C  C3  1  0.47110000  0.58210000  0.16690000  1.0 0.3909497344
C  C4  1  0.02890000  0.41790000  0.66690000  1.0 0.3909497344
C  C5  1  0.47110000  0.91790000  0.16690000  1.0 0.3909497344
C  C6  1  0.02890000  0.08210000  0.66690000  1.0 0.3909497344
C  C7  1  0.52890000  0.41790000  0.83310000  1.0 0.3909497344
C  C8  1  0.97110000  0.58210000  0.33310000  1.0 0.3909497344
C  C9  1  0.35400000  0.19490000  0.71020000  1.0 0.3909497344
C  C10  1  0.14600000  0.80510000  0.21020000  1.0 0.3909497344
C  C11  1  0.64600000  0.69490000  0.28980000  1.0 0.3909497344
C  C12  1  0.85400000  0.30510000  0.78980000  1.0 0.3909497344
C  C13  1  0.64600000  0.80510000  0.28980000  1.0 0.3909497344
C  C14  1  0.85400000  0.19490000  0.78980000  1.0 0.3909497344
C  C15  1  0.35400000  0.30510000  0.71020000  1.0 0.3909497344
C  C16  1  0.14600000  0.69490000  0.21020000  1.0 0.3909497344
C  C17  1  0.62200000  0.13590000  0.87940000  1.0 0.3909497344
C  C18  1  0.87800000  0.86410000  0.37940000  1.0 0.3909497344
C  C19  1  0.37800000  0.63590000  0.12060000  1.0 0.3909497344
C  C20  1  0.12200000  0.36410000  0.62060000  1.0 0.3909497344
C  C21  1  0.37800000  0.86410000  0.12060000  1.0 0.3909497344
C  C22  1  0.12200000  0.13590000  0.62060000  1.0 0.3909497344
C  C23  1  0.62200000  0.36410000  0.87940000  1.0 0.3909497344
C  C24  1  0.87800000  0.63590000  0.37940000  1.0 0.3909497344
C  C25  1  0.46300000  0.03200000  0.81650000  1.0 -0.5486445003
C  C26  1  0.03700000  0.96800000  0.31650000  1.0 -0.5486445003
C  C27  1  0.53700000  0.53200000  0.18350000  1.0 -0.5486445003
C  C28  1  0.96300000  0.46800000  0.68350000  1.0 -0.5486445003
C  C29  1  0.53700000  0.96800000  0.18350000  1.0 -0.5486445003
C  C30  1  0.96300000  0.03200000  0.68350000  1.0 -0.5486445003
C  C31  1  0.46300000  0.46800000  0.81650000  1.0 -0.5486445003
C  C32  1  0.03700000  0.53200000  0.31650000  1.0 -0.5486445003
C  C33  1  0.32600000  0.12030000  0.70790000  1.0 -0.5420594835
C  C34  1  0.17400000  0.87970000  0.20790000  1.0 -0.5420594835
C  C35  1  0.67400000  0.62030000  0.29210000  1.0 -0.5420594835
C  C36  1  0.82600000  0.37970000  0.79210000  1.0 -0.5420594835
C  C37  1  0.67400000  0.87970000  0.29210000  1.0 -0.5420594835
C  C38  1  0.82600000  0.12030000  0.79210000  1.0 -0.5420594835
C  C39  1  0.32600000  0.37970000  0.70790000  1.0 -0.5420594835
C  C40  1  0.17400000  0.62030000  0.20790000  1.0 -0.5420594835
C  C41  1  0.68070000  0.15540000  0.92360000  1.0 -0.5486445003
C  C42  1  0.81930000  0.84460000  0.42360000  1.0 -0.5486445003
C  C43  1  0.31930000  0.65540000  0.07640000  1.0 -0.5486445003
C  C44  1  0.18070000  0.34460000  0.57640000  1.0 -0.5486445003
C  C45  1  0.31930000  0.84460000  0.07640000  1.0 -0.5486445003
C  C46  1  0.18070000  0.15540000  0.57640000  1.0 -0.5486445003
C  C47  1  0.68070000  0.34460000  0.92360000  1.0 -0.5486445003
C  C48  1  0.81930000  0.65540000  0.42360000  1.0 -0.5486445003
C  C49  1  0.49370000  0.11940000  0.04810000  1.0 0.5807355172
C  C50  1  0.00630000  0.88060000  0.54810000  1.0 0.5807355172
C  C51  1  0.50630000  0.61940000  0.95190000  1.0 0.5807355172
C  C52  1  0.99370000  0.38060000  0.45190000  1.0 0.5807355172
C  C53  1  0.50630000  0.88060000  0.95190000  1.0 0.5807355172
C  C54  1  0.99370000  0.11940000  0.45190000  1.0 0.5807355172
C  C55  1  0.49370000  0.38060000  0.04810000  1.0 0.5807355172
C  C56  1  0.00630000  0.61940000  0.54810000  1.0 0.5807355172
C  C57  1  0.34280000  0.01200000  0.96950000  1.0 0.5807355172
C  C58  1  0.15720000  0.98800000  0.46950000  1.0 0.5807355172
C  C59  1  0.65720000  0.51200000  0.03050000  1.0 0.5807355172
C  C60  1  0.84280000  0.48800000  0.53050000  1.0 0.5807355172
C  C61  1  0.65720000  0.98800000  0.03050000  1.0 0.5807355172
C  C62  1  0.84280000  0.01200000  0.53050000  1.0 0.5807355172
C  C63  1  0.34280000  0.48800000  0.96950000  1.0 0.5807355172
C  C64  1  0.15720000  0.51200000  0.46950000  1.0 0.5807355172
C  C65  1  0.48890000  0.18700000  0.07690000  1.0 -0.0285962452
C  C66  1  0.01110000  0.81300000  0.57690000  1.0 -0.0285962452
C  C67  1  0.51110000  0.68700000  0.92310000  1.0 -0.0285962452
C  C68  1  0.98890000  0.31300000  0.42310000  1.0 -0.0285962452
C  C69  1  0.51110000  0.81300000  0.92310000  1.0 -0.0285962452
C  C70  1  0.98890000  0.18700000  0.42310000  1.0 -0.0285962452
C  C71  1  0.48890000  0.31300000  0.07690000  1.0 -0.0285962452
C  C72  1  0.01110000  0.68700000  0.57690000  1.0 -0.0285962452
C  C73  1  0.25080000  0.00980000  0.95180000  1.0 -0.0149092521
C  C74  1  0.24920000  0.99020000  0.45180000  1.0 -0.0149092521
C  C75  1  0.74920000  0.50980000  0.04820000  1.0 -0.0149092521
C  C76  1  0.75080000  0.49020000  0.54820000  1.0 -0.0149092521
C  C77  1  0.74920000  0.99020000  0.04820000  1.0 -0.0149092521
C  C78  1  0.75080000  0.00980000  0.54820000  1.0 -0.0149092521
C  C79  1  0.25080000  0.49020000  0.95180000  1.0 -0.0149092521
C  C80  1  0.24920000  0.50980000  0.45180000  1.0 -0.0149092521
C  C81  1  0.47620000  0.18820000  0.13010000  1.0 -0.1506398343
C  C82  1  0.02380000  0.81180000  0.63010000  1.0 -0.1506398343
C  C83  1  0.52380000  0.68820000  0.86990000  1.0 -0.1506398343
C  C84  1  0.97620000  0.31180000  0.36990000  1.0 -0.1506398343
C  C85  1  0.52380000  0.81180000  0.86990000  1.0 -0.1506398343
C  C86  1  0.97620000  0.18820000  0.36990000  1.0 -0.1506398343
C  C87  1  0.47620000  0.31180000  0.13010000  1.0 -0.1506398343
C  C88  1  0.02380000  0.68820000  0.63010000  1.0 -0.1506398343
C  C89  1  0.49830000  0.25000000  0.05020000  1.0 -0.1193007925
C  C90  1  0.00170000  0.75000000  0.55020000  1.0 -0.1193007925
C  C91  1  0.50170000  0.75000000  0.94980000  1.0 -0.1193007925
C  C92  1  0.99830000  0.25000000  0.44980000  1.0 -0.1193007925
C  C93  1  0.19100000  0.97040000  0.97930000  1.0 -0.1902936087
C  C94  1  0.30900000  0.02960000  0.47930000  1.0 -0.1902936087
C  C95  1  0.80900000  0.47040000  0.02070000  1.0 -0.1902936087
C  C96  1  0.69100000  0.52960000  0.52070000  1.0 -0.1902936087
C  C97  1  0.80900000  0.02960000  0.02070000  1.0 -0.1902936087
C  C98  1  0.69100000  0.97040000  0.52070000  1.0 -0.1902936087
C  C99  1  0.19100000  0.52960000  0.97930000  1.0 -0.1902936087
C  C100  1  0.30900000  0.47040000  0.47930000  1.0 -0.1902936087
C  C101  1  0.22710000  0.04390000  0.90580000  1.0 -0.1193007925
C  C102  1  0.27290000  0.95610000  0.40580000  1.0 -0.1193007925
C  C103  1  0.77290000  0.54390000  0.09420000  1.0 -0.1193007925
C  C104  1  0.72710000  0.45610000  0.59420000  1.0 -0.1193007925
C  C105  1  0.77290000  0.95610000  0.09420000  1.0 -0.1193007925
C  C106  1  0.72710000  0.04390000  0.59420000  1.0 -0.1193007925
C  C107  1  0.22710000  0.45610000  0.90580000  1.0 -0.1193007925
C  C108  1  0.27290000  0.54390000  0.40580000  1.0 -0.1193007925
C  C109  1  0.11540000  0.08390000  0.84080000  1.0 0.5177115327
C  C110  1  0.38460000  0.91610000  0.34080000  1.0 0.5177115327
C  C111  1  0.88460000  0.58390000  0.15920000  1.0 0.5177115327
C  C112  1  0.61540000  0.41610000  0.65920000  1.0 0.5177115327
C  C113  1  0.88460000  0.91610000  0.15920000  1.0 0.5177115327
C  C114  1  0.61540000  0.08390000  0.65920000  1.0 0.5177115327
C  C115  1  0.11540000  0.41610000  0.84080000  1.0 0.5177115327
C  C116  1  0.38460000  0.58390000  0.34080000  1.0 0.5177115327
C  C117  1  0.46700000  0.25000000  0.15850000  1.0 0.170789124
C  C118  1  0.03300000  0.75000000  0.65850000  1.0 0.170789124
C  C119  1  0.53300000  0.75000000  0.84150000  1.0 0.170789124
C  C120  1  0.96700000  0.25000000  0.34150000  1.0 0.170789124
C  C121  1  0.10800000  0.96370000  0.95970000  1.0 0.1169424597
C  C122  1  0.39200000  0.03630000  0.45970000  1.0 0.1169424597
C  C123  1  0.89200000  0.46370000  0.04030000  1.0 0.1169424597
C  C124  1  0.60800000  0.53630000  0.54030000  1.0 0.1169424597
C  C125  1  0.89200000  0.03630000  0.04030000  1.0 0.1169424597
C  C126  1  0.60800000  0.96370000  0.54030000  1.0 0.1169424597
C  C127  1  0.10800000  0.53630000  0.95970000  1.0 0.1169424597
C  C128  1  0.39200000  0.46370000  0.45970000  1.0 0.1169424597
C  C129  1  0.14280000  0.04230000  0.88850000  1.0 0.0028662118
C  C130  1  0.35720000  0.95770000  0.38850000  1.0 0.0028662118
C  C131  1  0.85720000  0.54230000  0.11150000  1.0 0.0028662118
C  C132  1  0.64280000  0.45770000  0.61150000  1.0 0.0028662118
C  C133  1  0.85720000  0.95770000  0.11150000  1.0 0.0028662118
C  C134  1  0.64280000  0.04230000  0.61150000  1.0 0.0028662118
C  C135  1  0.14280000  0.45770000  0.88850000  1.0 0.0028662118
C  C136  1  0.35720000  0.54230000  0.38850000  1.0 0.0028662118
C  C137  1  0.08030000  0.99880000  0.91460000  1.0 -0.1902936087
C  C138  1  0.41970000  0.00120000  0.41460000  1.0 -0.1902936087
C  C139  1  0.91970000  0.49880000  0.08540000  1.0 -0.1902936087
C  C140  1  0.58030000  0.50120000  0.58540000  1.0 -0.1902936087
C  C141  1  0.91970000  0.00120000  0.08540000  1.0 -0.1902936087
C  C142  1  0.58030000  0.99880000  0.58540000  1.0 -0.1902936087
C  C143  1  0.08030000  0.50120000  0.91460000  1.0 -0.1902936087
C  C144  1  0.41970000  0.49880000  0.41460000  1.0 -0.1902936087
N  N1  1  0.56140000  0.12990000  0.80187000  1.0 -0.2901435946
N  N2  1  0.93860000  0.87010000  0.30187000  1.0 -0.2901435946
N  N3  1  0.43860000  0.62990000  0.19813000  1.0 -0.2901435946
N  N4  1  0.06140000  0.37010000  0.69813000  1.0 -0.2901435946
N  N5  1  0.43860000  0.87010000  0.19813000  1.0 -0.2901435946
N  N6  1  0.06140000  0.12990000  0.69813000  1.0 -0.2901435946
N  N7  1  0.56140000  0.37010000  0.80187000  1.0 -0.2901435946
N  N8  1  0.93860000  0.62990000  0.30187000  1.0 -0.2901435946
N  N9  1  0.43390000  0.21410000  0.71910000  1.0 -0.2637262629
N  N10  1  0.06610000  0.78590000  0.21910000  1.0 -0.2637262629
N  N11  1  0.56610000  0.71410000  0.28090000  1.0 -0.2637262629
N  N12  1  0.93390000  0.28590000  0.78090000  1.0 -0.2637262629
N  N13  1  0.56610000  0.78590000  0.28090000  1.0 -0.2637262629
N  N14  1  0.93390000  0.21410000  0.78090000  1.0 -0.2637262629
N  N15  1  0.43390000  0.28590000  0.71910000  1.0 -0.2637262629
N  N16  1  0.06610000  0.71410000  0.21910000  1.0 -0.2637262629
N  N17  1  0.62210000  0.16550000  0.83217000  1.0 -0.2901435946
N  N18  1  0.87790000  0.83450000  0.33217000  1.0 -0.2901435946
N  N19  1  0.37790000  0.66550000  0.16783000  1.0 -0.2901435946
N  N20  1  0.12210000  0.33450000  0.66783000  1.0 -0.2901435946
N  N21  1  0.37790000  0.83450000  0.16783000  1.0 -0.2901435946
N  N22  1  0.12210000  0.16550000  0.66783000  1.0 -0.2901435946
N  N23  1  0.62210000  0.33450000  0.83217000  1.0 -0.2901435946
N  N24  1  0.87790000  0.66550000  0.33217000  1.0 -0.2901435946
N  N25  1  0.56340000  0.08450000  0.88260000  1.0 -0.404055106
N  N26  1  0.93660000  0.91550000  0.38260000  1.0 -0.404055106
N  N27  1  0.43660000  0.58450000  0.11740000  1.0 -0.404055106
N  N28  1  0.06340000  0.41550000  0.61740000  1.0 -0.404055106
N  N29  1  0.43660000  0.91550000  0.11740000  1.0 -0.404055106
N  N30  1  0.06340000  0.08450000  0.61740000  1.0 -0.404055106
N  N31  1  0.56340000  0.41550000  0.88260000  1.0 -0.404055106
N  N32  1  0.93660000  0.58450000  0.38260000  1.0 -0.404055106
N  N33  1  0.30260000  0.25000000  0.70480000  1.0 -0.4377763444
N  N34  1  0.19740000  0.75000000  0.20480000  1.0 -0.4377763444
N  N35  1  0.69740000  0.75000000  0.29520000  1.0 -0.4377763444
N  N36  1  0.80260000  0.25000000  0.79520000  1.0 -0.4377763444
O  O1  1  0.61810000  0.25000000  0.73090000  1.0 -0.7672657841
O  O2  1  0.88190000  0.75000000  0.23090000  1.0 -0.7672657841
O  O3  1  0.38190000  0.75000000  0.26910000  1.0 -0.7672657841
O  O4  1  0.11810000  0.25000000  0.76910000  1.0 -0.7672657841
O  O5  1  0.66790000  0.10290000  0.69030000  1.0 -0.4772659166
O  O6  1  0.83210000  0.89710000  0.19030000  1.0 -0.4772659166
O  O7  1  0.33210000  0.60290000  0.30970000  1.0 -0.4740595394
O  O8  1  0.16790000  0.39710000  0.80970000  1.0 -0.4740595394
O  O9  1  0.33210000  0.89710000  0.30970000  1.0 -0.4740595394
O  O10  1  0.16790000  0.10290000  0.80970000  1.0 -0.4740595394
O  O11  1  0.66790000  0.39710000  0.69030000  1.0 -0.4772659166
O  O12  1  0.83210000  0.60290000  0.19030000  1.0 -0.4772659166
O  O13  1  0.53860000  0.09550000  0.66700000  1.0 -0.4772659166
O  O14  1  0.96140000  0.90450000  0.16700000  1.0 -0.4772659166
O  O15  1  0.46140000  0.59550000  0.33300000  1.0 -0.4772659166
O  O16  1  0.03860000  0.40450000  0.83300000  1.0 -0.4772659166
O  O17  1  0.46140000  0.90450000  0.33300000  1.0 -0.4772659166
O  O18  1  0.03860000  0.09550000  0.83300000  1.0 -0.4772659166
O  O19  1  0.53860000  0.40450000  0.66700000  1.0 -0.4772659166
O  O20  1  0.96140000  0.59550000  0.16700000  1.0 -0.4772659166
O  O21  1  0.51400000  0.12050000  0.99900000  1.0 -0.5265785033
O  O22  1  0.98600000  0.87950000  0.49900000  1.0 -0.5265785033
O  O23  1  0.48600000  0.62050000  0.00100000  1.0 -0.5265785033
O  O24  1  0.01400000  0.37950000  0.50100000  1.0 -0.5265785033
O  O25  1  0.48600000  0.87950000  0.00100000  1.0 -0.5265785033
O  O26  1  0.01400000  0.12050000  0.50100000  1.0 -0.5265785033
O  O27  1  0.51400000  0.37950000  0.99900000  1.0 -0.5265785033
O  O28  1  0.98600000  0.62050000  0.49900000  1.0 -0.5265785033
O  O29  1  0.39570000  0.03920000  0.93950000  1.0 -0.5067541698
O  O30  1  0.10430000  0.96080000  0.43950000  1.0 -0.5067541698
O  O31  1  0.60430000  0.53920000  0.06050000  1.0 -0.5067541698
O  O32  1  0.89570000  0.46080000  0.56050000  1.0 -0.5067541698
O  O33  1  0.60430000  0.96080000  0.06050000  1.0 -0.5067541698
O  O34  1  0.89570000  0.03920000  0.56050000  1.0 -0.5067541698
O  O35  1  0.39570000  0.46080000  0.93950000  1.0 -0.5067541698
O  O36  1  0.10430000  0.53920000  0.43950000  1.0 -0.5067541698
O  O37  1  0.64040000  0.01620000  0.98630000  1.0 -0.5420594835
O  O38  1  0.85960000  0.98380000  0.48630000  1.0 -0.5420594835
O  O39  1  0.35960000  0.51620000  0.01370000  1.0 -0.5420594835
O  O40  1  0.14040000  0.48380000  0.51370000  1.0 -0.5420594835
O  O41  1  0.35960000  0.98380000  0.01370000  1.0 -0.5420594835
O  O42  1  0.14040000  0.01620000  0.51370000  1.0 -0.5420594835
O  O43  1  0.64040000  0.48380000  0.98630000  1.0 -0.5420594835
O  O44  1  0.85960000  0.51620000  0.48630000  1.0 -0.5420594835
O  O45  1  0.52160000  0.93400000  0.92590000  1.0 -0.5232237824
O  O46  1  0.97840000  0.06600000  0.42590000  1.0 -0.5232237824
O  O47  1  0.47840000  0.43400000  0.07410000  1.0 -0.5232237824
O  O48  1  0.02160000  0.56600000  0.57410000  1.0 -0.5232237824
O  O49  1  0.47840000  0.06600000  0.07410000  1.0 -0.5232237824
O  O50  1  0.02160000  0.93400000  0.57410000  1.0 -0.5232237824
O  O51  1  0.52160000  0.56600000  0.92590000  1.0 -0.5232237824
O  O52  1  0.97840000  0.43400000  0.42590000  1.0 -0.5232237824
O  O53  1  0.46120000  0.25000000  0.21220000  1.0 -0.2348037783
O  O54  1  0.03880000  0.75000000  0.71220000  1.0 -0.2348037783
O  O55  1  0.53880000  0.75000000  0.78780000  1.0 -0.2348037783
O  O56  1  0.96120000  0.25000000  0.28780000  1.0 -0.235755133
O  O57  1  0.05200000  0.91390000  0.98380000  1.0 -0.3613877916
O  O58  1  0.44800000  0.08610000  0.48380000  1.0 -0.3613877916
O  O59  1  0.94800000  0.41390000  0.01620000  1.0 -0.3613877916
O  O60  1  0.55200000  0.58610000  0.51620000  1.0 -0.3613877916
O  O61  1  0.94800000  0.08610000  0.01620000  1.0 -0.3613877916
O  O62  1  0.55200000  0.91390000  0.51620000  1.0 -0.3613877916
O  O63  1  0.05200000  0.58610000  0.98380000  1.0 -0.3613877916
O  O64  1  0.44800000  0.41390000  0.48380000  1.0 -0.3613877916
