# DDEC6 charges by PACMAN v1.1 (https://github.com/mtap-research/PACMAN-charge/)
data_HUSSOG_ion_pacman
_symmetry_space_group_name_H-M   'P 1'
_cell_length_a   13.05830000
_cell_length_b   13.05830000
_cell_length_c   34.55390000
_cell_angle_alpha   90.00000000
_cell_angle_beta   90.00000000
_cell_angle_gamma   120.00000000
_symmetry_Int_Tables_number   1
_chemical_formula_structural   Fe2B2H51C60I9N24(O3F4)2
_chemical_formula_sum   'Fe4 B4 H102 C120 I18 N48 O12 F16'
_cell_volume   5102.71117981
_cell_formula_units_Z   2
loop_
 _symmetry_equiv_pos_site_id
 _symmetry_equiv_pos_as_xyz
  1  'x, y, z'
loop_
 _atom_site_type_symbol
 _atom_site_label
 _atom_site_symmetry_multiplicity
 _atom_site_fract_x
 _atom_site_fract_y
 _atom_site_fract_z
 _atom_site_occupancy
 _atom_site_charge
Fe  Fe1  1  0.66666667  0.33333333  0.91817000  1.0 0.3296850524
Fe  Fe2  1  0.66666667  0.33333333  0.58183000  1.0 0.3296850524
Fe  Fe3  1  0.33333333  0.66666667  0.41817000  1.0 0.3296850524
Fe  Fe4  1  0.33333333  0.66666667  0.08183000  1.0 0.3296850524
B  B1  1  0.66666667  0.33333333  0.07870000  1.0 1.0458776705
B  B2  1  0.33333333  0.66666667  0.57870000  1.0 1.0458776705
B  B3  1  0.33333333  0.66666667  0.92130000  1.0 1.0458776705
B  B4  1  0.66666667  0.33333333  0.42130000  1.0 1.0458776705
H  H1  1  0.77370000  0.54040000  0.85150000  1.0 0.2864084593
H  H2  1  0.84270000  0.66910000  0.80820000  1.0 0.1053226542
H  H3  1  0.41410000  0.49070000  0.94890000  1.0 0.1305686635
H  H4  1  0.49800000  0.21010000  0.98780000  1.0 0.1305686635
H  H5  1  0.62810000  0.63300000  0.87350000  1.0 0.1602718584
H  H6  1  0.55110000  0.62140000  0.90980000  1.0 0.1505683116
H  H7  1  0.49070000  0.54850000  0.87230000  1.0 0.1739478014
H  H8  1  0.35060000  0.22890000  0.01720000  1.0 0.1305686635
H  H9  1  0.76670000  0.22630000  0.85150000  1.0 0.2864084593
H  H10  1  0.82640000  0.15730000  0.80820000  1.0 0.1053226542
H  H11  1  0.07660000  0.58590000  0.94890000  1.0 0.1305686635
H  H12  1  0.71210000  0.50200000  0.98780000  1.0 0.1305686635
H  H13  1  0.00490000  0.37190000  0.87350000  1.0 0.1602718584
H  H14  1  0.07030000  0.44890000  0.90980000  1.0 0.1505683116
H  H15  1  0.05780000  0.50930000  0.87230000  1.0 0.1739478014
H  H16  1  0.87830000  0.64940000  0.01720000  1.0 0.1305686635
H  H17  1  0.45960000  0.23330000  0.85150000  1.0 0.2864084593
H  H18  1  0.33090000  0.17360000  0.80820000  1.0 0.1053226542
H  H19  1  0.50930000  0.92340000  0.94890000  1.0 0.1305686635
H  H20  1  0.78990000  0.28790000  0.98780000  1.0 0.1305686635
H  H21  1  0.36700000  0.99510000  0.87350000  1.0 0.1602718584
H  H22  1  0.37860000  0.92970000  0.90980000  1.0 0.1505683116
H  H23  1  0.45150000  0.94220000  0.87230000  1.0 0.1739478014
H  H24  1  0.77110000  0.12170000  0.01720000  1.0 0.1305686635
H  H25  1  0.77370000  0.54040000  0.64850000  1.0 0.2864084593
H  H26  1  0.84270000  0.66910000  0.69180000  1.0 0.1053226542
H  H27  1  0.41410000  0.49070000  0.55110000  1.0 0.1305686635
H  H28  1  0.49800000  0.21010000  0.51220000  1.0 0.1305686635
H  H29  1  0.62810000  0.63300000  0.62650000  1.0 0.1602718584
H  H30  1  0.55110000  0.62140000  0.59020000  1.0 0.1505683116
H  H31  1  0.49070000  0.54850000  0.62770000  1.0 0.1739478014
H  H32  1  0.35060000  0.22890000  0.48280000  1.0 0.1305686635
H  H33  1  0.76670000  0.22630000  0.64850000  1.0 0.2864084593
H  H34  1  0.82640000  0.15730000  0.69180000  1.0 0.1053226542
H  H35  1  0.07660000  0.58590000  0.55110000  1.0 0.1305686635
H  H36  1  0.71210000  0.50200000  0.51220000  1.0 0.1305686635
H  H37  1  0.00490000  0.37190000  0.62650000  1.0 0.1602718584
H  H38  1  0.07030000  0.44890000  0.59020000  1.0 0.1505683116
H  H39  1  0.05780000  0.50930000  0.62770000  1.0 0.1739478014
H  H40  1  0.87830000  0.64940000  0.48280000  1.0 0.1305686635
H  H41  1  0.45960000  0.23330000  0.64850000  1.0 0.2864084593
H  H42  1  0.33090000  0.17360000  0.69180000  1.0 0.1053226542
H  H43  1  0.50930000  0.92340000  0.55110000  1.0 0.1305686635
H  H44  1  0.78990000  0.28790000  0.51220000  1.0 0.1305686635
H  H45  1  0.36700000  0.99510000  0.62650000  1.0 0.1602718584
H  H46  1  0.37860000  0.92970000  0.59020000  1.0 0.1505683116
H  H47  1  0.45150000  0.94220000  0.62770000  1.0 0.1739478014
H  H48  1  0.77110000  0.12170000  0.48280000  1.0 0.1305686635
H  H49  1  0.55860000  0.41630000  0.75000000  1.0 0.1213553153
H  H50  1  0.85770000  0.44140000  0.75000000  1.0 0.1213553153
H  H51  1  0.58370000  0.14230000  0.75000000  1.0 0.1213553153
H  H52  1  0.22630000  0.45960000  0.35150000  1.0 0.2864084593
H  H53  1  0.15730000  0.33090000  0.30820000  1.0 0.1053226542
H  H54  1  0.58590000  0.50930000  0.44890000  1.0 0.1305686635
H  H55  1  0.50200000  0.78990000  0.48780000  1.0 0.1305686635
H  H56  1  0.37190000  0.36700000  0.37350000  1.0 0.1602718584
H  H57  1  0.44890000  0.37860000  0.40980000  1.0 0.1505683116
H  H58  1  0.50930000  0.45150000  0.37230000  1.0 0.1739478014
H  H59  1  0.64940000  0.77110000  0.51720000  1.0 0.1305686635
H  H60  1  0.23330000  0.77370000  0.35150000  1.0 0.2864084593
H  H61  1  0.17360000  0.84270000  0.30820000  1.0 0.1053226542
H  H62  1  0.92340000  0.41410000  0.44890000  1.0 0.1305686635
H  H63  1  0.28790000  0.49800000  0.48780000  1.0 0.1305686635
H  H64  1  0.99510000  0.62810000  0.37350000  1.0 0.1602718584
H  H65  1  0.92970000  0.55110000  0.40980000  1.0 0.1505683116
H  H66  1  0.94220000  0.49070000  0.37230000  1.0 0.1739478014
H  H67  1  0.12170000  0.35060000  0.51720000  1.0 0.1305686635
H  H68  1  0.54040000  0.76670000  0.35150000  1.0 0.2864084593
H  H69  1  0.66910000  0.82640000  0.30820000  1.0 0.1053226542
H  H70  1  0.49070000  0.07660000  0.44890000  1.0 0.1305686635
H  H71  1  0.21010000  0.71210000  0.48780000  1.0 0.1305686635
H  H72  1  0.63300000  0.00490000  0.37350000  1.0 0.1602718584
H  H73  1  0.62140000  0.07030000  0.40980000  1.0 0.1505683116
H  H74  1  0.54850000  0.05780000  0.37230000  1.0 0.1739478014
H  H75  1  0.22890000  0.87830000  0.51720000  1.0 0.1305686635
H  H76  1  0.22630000  0.45960000  0.14850000  1.0 0.2864084593
H  H77  1  0.15730000  0.33090000  0.19180000  1.0 0.1053226542
H  H78  1  0.58590000  0.50930000  0.05110000  1.0 0.1305686635
H  H79  1  0.50200000  0.78990000  0.01220000  1.0 0.1305686635
H  H80  1  0.37190000  0.36700000  0.12650000  1.0 0.1602718584
H  H81  1  0.44890000  0.37860000  0.09020000  1.0 0.1505683116
H  H82  1  0.50930000  0.45150000  0.12770000  1.0 0.1739478014
H  H83  1  0.64940000  0.77110000  0.98280000  1.0 0.1305686635
H  H84  1  0.23330000  0.77370000  0.14850000  1.0 0.2864084593
H  H85  1  0.17360000  0.84270000  0.19180000  1.0 0.1053226542
H  H86  1  0.92340000  0.41410000  0.05110000  1.0 0.1305686635
H  H87  1  0.28790000  0.49800000  0.01220000  1.0 0.1305686635
H  H88  1  0.99510000  0.62810000  0.12650000  1.0 0.1602718584
H  H89  1  0.92970000  0.55110000  0.09020000  1.0 0.1505683116
H  H90  1  0.94220000  0.49070000  0.12770000  1.0 0.1739478014
H  H91  1  0.12170000  0.35060000  0.98280000  1.0 0.1305686635
H  H92  1  0.54040000  0.76670000  0.14850000  1.0 0.2864084593
H  H93  1  0.66910000  0.82640000  0.19180000  1.0 0.1053226542
H  H94  1  0.49070000  0.07660000  0.05110000  1.0 0.1305686635
H  H95  1  0.21010000  0.71210000  0.01220000  1.0 0.1305686635
H  H96  1  0.63300000  0.00490000  0.12650000  1.0 0.1602718584
H  H97  1  0.62140000  0.07030000  0.09020000  1.0 0.1505683116
H  H98  1  0.54850000  0.05780000  0.12770000  1.0 0.1739478014
H  H99  1  0.22890000  0.87830000  0.98280000  1.0 0.1305686635
H  H100  1  0.44140000  0.58370000  0.25000000  1.0 0.1213553153
H  H101  1  0.14230000  0.55860000  0.25000000  1.0 0.1213553153
H  H102  1  0.41630000  0.85770000  0.25000000  1.0 0.1213553153
C  C1  1  0.62870000  0.47820000  0.82110000  1.0 0.4236718071
C  C2  1  0.57470000  0.48340000  0.90270000  1.0 0.2234164677
C  C3  1  0.69410000  0.53340000  0.78508000  1.0 -0.0208597653
C  C4  1  0.80540000  0.63500000  0.78500000  1.0 -0.1422666943
C  C5  1  0.51200000  0.41690000  0.93710000  1.0 0.0729654173
C  C6  1  0.42870000  0.43080000  0.95650000  1.0 -0.0138145581
C  C7  1  0.48070000  0.26680000  0.97880000  1.0 0.016398477
C  C8  1  0.55990000  0.57970000  0.88840000  1.0 -0.4710521944
C  C9  1  0.39250000  0.27940000  0.99690000  1.0 0.0482499576
C  C10  1  0.84950000  0.37130000  0.82110000  1.0 0.4236718071
C  C11  1  0.90870000  0.42530000  0.90270000  1.0 0.2234164677
C  C12  1  0.83930000  0.30590000  0.78508000  1.0 -0.0208597653
C  C13  1  0.82960000  0.19460000  0.78500000  1.0 -0.1422666943
C  C14  1  0.90490000  0.48800000  0.93710000  1.0 0.0729654173
C  C15  1  0.00210000  0.57130000  0.95650000  1.0 -0.0138145581
C  C16  1  0.78610000  0.51930000  0.97880000  1.0 0.016398477
C  C17  1  0.01980000  0.44010000  0.88840000  1.0 -0.4710521944
C  C18  1  0.88690000  0.60750000  0.99690000  1.0 0.0482499576
C  C19  1  0.52180000  0.15050000  0.82110000  1.0 0.4236718071
C  C20  1  0.51660000  0.09130000  0.90270000  1.0 0.2234164677
C  C21  1  0.46660000  0.16070000  0.78508000  1.0 -0.0208597653
C  C22  1  0.36500000  0.17040000  0.78500000  1.0 -0.1422666943
C  C23  1  0.58310000  0.09510000  0.93710000  1.0 0.0729654173
C  C24  1  0.56920000  0.99790000  0.95650000  1.0 -0.0138145581
C  C25  1  0.73320000  0.21390000  0.97880000  1.0 0.016398477
C  C26  1  0.42030000  0.98020000  0.88840000  1.0 -0.4710521944
C  C27  1  0.72060000  0.11310000  0.99690000  1.0 0.0482499576
C  C28  1  0.62870000  0.47820000  0.67890000  1.0 0.4236718071
C  C29  1  0.57470000  0.48340000  0.59730000  1.0 0.2234164677
C  C30  1  0.69410000  0.53340000  0.71492000  1.0 -0.0208597653
C  C31  1  0.80540000  0.63500000  0.71500000  1.0 -0.1422666943
C  C32  1  0.51200000  0.41690000  0.56290000  1.0 0.0729654173
C  C33  1  0.42870000  0.43080000  0.54350000  1.0 -0.0138145581
C  C34  1  0.48070000  0.26680000  0.52120000  1.0 0.016398477
C  C35  1  0.55990000  0.57970000  0.61160000  1.0 -0.4710521944
C  C36  1  0.39250000  0.27940000  0.50310000  1.0 0.0482499576
C  C37  1  0.84950000  0.37130000  0.67890000  1.0 0.4236718071
C  C38  1  0.90870000  0.42530000  0.59730000  1.0 0.2234164677
C  C39  1  0.83930000  0.30590000  0.71492000  1.0 -0.0208597653
C  C40  1  0.82960000  0.19460000  0.71500000  1.0 -0.1422666943
C  C41  1  0.90490000  0.48800000  0.56290000  1.0 0.0729654173
C  C42  1  0.00210000  0.57130000  0.54350000  1.0 -0.0138145581
C  C43  1  0.78610000  0.51930000  0.52120000  1.0 0.016398477
C  C44  1  0.01980000  0.44010000  0.61160000  1.0 -0.4710521944
C  C45  1  0.88690000  0.60750000  0.50310000  1.0 0.0482499576
C  C46  1  0.52180000  0.15050000  0.67890000  1.0 0.4236718071
C  C47  1  0.51660000  0.09130000  0.59730000  1.0 0.2234164677
C  C48  1  0.46660000  0.16070000  0.71492000  1.0 -0.0208597653
C  C49  1  0.36500000  0.17040000  0.71500000  1.0 -0.1422666943
C  C50  1  0.58310000  0.09510000  0.56290000  1.0 0.0729654173
C  C51  1  0.56920000  0.99790000  0.54350000  1.0 -0.0138145581
C  C52  1  0.73320000  0.21390000  0.52120000  1.0 0.016398477
C  C53  1  0.42030000  0.98020000  0.61160000  1.0 -0.4710521944
C  C54  1  0.72060000  0.11310000  0.50310000  1.0 0.0482499576
C  C55  1  0.63450000  0.48190000  0.75000000  1.0 -0.065081174
C  C56  1  0.86090000  0.68560000  0.75000000  1.0 0.0811394294
C  C57  1  0.84740000  0.36550000  0.75000000  1.0 -0.065081174
C  C58  1  0.82470000  0.13910000  0.75000000  1.0 0.0811394294
C  C59  1  0.51810000  0.15260000  0.75000000  1.0 -0.065081174
C  C60  1  0.31440000  0.17530000  0.75000000  1.0 0.0811394294
C  C61  1  0.37130000  0.52180000  0.32110000  1.0 0.4236718071
C  C62  1  0.42530000  0.51660000  0.40270000  1.0 0.2234164677
C  C63  1  0.30590000  0.46660000  0.28508000  1.0 -0.0208597653
C  C64  1  0.19460000  0.36500000  0.28500000  1.0 -0.1422666943
C  C65  1  0.48800000  0.58310000  0.43710000  1.0 0.0729654173
C  C66  1  0.57130000  0.56920000  0.45650000  1.0 -0.0138145581
C  C67  1  0.51930000  0.73320000  0.47880000  1.0 0.016398477
C  C68  1  0.44010000  0.42030000  0.38840000  1.0 -0.4710521944
C  C69  1  0.60750000  0.72060000  0.49690000  1.0 0.0482499576
C  C70  1  0.15050000  0.62870000  0.32110000  1.0 0.4236718071
C  C71  1  0.09130000  0.57470000  0.40270000  1.0 0.2234164677
C  C72  1  0.16070000  0.69410000  0.28508000  1.0 -0.0208597653
C  C73  1  0.17040000  0.80540000  0.28500000  1.0 -0.1422666943
C  C74  1  0.09510000  0.51200000  0.43710000  1.0 0.0729654173
C  C75  1  0.99790000  0.42870000  0.45650000  1.0 -0.0138145581
C  C76  1  0.21390000  0.48070000  0.47880000  1.0 0.016398477
C  C77  1  0.98020000  0.55990000  0.38840000  1.0 -0.4710521944
C  C78  1  0.11310000  0.39250000  0.49690000  1.0 0.0482499576
C  C79  1  0.47820000  0.84950000  0.32110000  1.0 0.4236718071
C  C80  1  0.48340000  0.90870000  0.40270000  1.0 0.2234164677
C  C81  1  0.53340000  0.83930000  0.28508000  1.0 -0.0208597653
C  C82  1  0.63500000  0.82960000  0.28500000  1.0 -0.1422666943
C  C83  1  0.41690000  0.90490000  0.43710000  1.0 0.0729654173
C  C84  1  0.43080000  0.00210000  0.45650000  1.0 -0.0138145581
C  C85  1  0.26680000  0.78610000  0.47880000  1.0 0.016398477
C  C86  1  0.57970000  0.01980000  0.38840000  1.0 -0.4710521944
C  C87  1  0.27940000  0.88690000  0.49690000  1.0 0.0482499576
C  C88  1  0.37130000  0.52180000  0.17890000  1.0 0.4236718071
C  C89  1  0.42530000  0.51660000  0.09730000  1.0 0.2234164677
C  C90  1  0.30590000  0.46660000  0.21492000  1.0 -0.0208597653
C  C91  1  0.19460000  0.36500000  0.21500000  1.0 -0.1422666943
C  C92  1  0.48800000  0.58310000  0.06290000  1.0 0.0729654173
C  C93  1  0.57130000  0.56920000  0.04350000  1.0 -0.0138145581
C  C94  1  0.51930000  0.73320000  0.02120000  1.0 0.016398477
C  C95  1  0.44010000  0.42030000  0.11160000  1.0 -0.4710521944
C  C96  1  0.60750000  0.72060000  0.00310000  1.0 0.0482499576
C  C97  1  0.15050000  0.62870000  0.17890000  1.0 0.4236718071
C  C98  1  0.09130000  0.57470000  0.09730000  1.0 0.2234164677
C  C99  1  0.16070000  0.69410000  0.21492000  1.0 -0.0208597653
C  C100  1  0.17040000  0.80540000  0.21500000  1.0 -0.1422666943
C  C101  1  0.09510000  0.51200000  0.06290000  1.0 0.0729654173
C  C102  1  0.99790000  0.42870000  0.04350000  1.0 -0.0138145581
C  C103  1  0.21390000  0.48070000  0.02120000  1.0 0.016398477
C  C104  1  0.98020000  0.55990000  0.11160000  1.0 -0.4710521944
C  C105  1  0.11310000  0.39250000  0.00310000  1.0 0.0482499576
C  C106  1  0.47820000  0.84950000  0.17890000  1.0 0.4236718071
C  C107  1  0.48340000  0.90870000  0.09730000  1.0 0.2234164677
C  C108  1  0.53340000  0.83930000  0.21492000  1.0 -0.0208597653
C  C109  1  0.63500000  0.82960000  0.21500000  1.0 -0.1422666943
C  C110  1  0.41690000  0.90490000  0.06290000  1.0 0.0729654173
C  C111  1  0.43080000  0.00210000  0.04350000  1.0 -0.0138145581
C  C112  1  0.26680000  0.78610000  0.02120000  1.0 0.016398477
C  C113  1  0.57970000  0.01980000  0.11160000  1.0 -0.4710521944
C  C114  1  0.27940000  0.88690000  0.00310000  1.0 0.0482499576
C  C115  1  0.36550000  0.51810000  0.25000000  1.0 -0.065081174
C  C116  1  0.13910000  0.31440000  0.25000000  1.0 0.0811394294
C  C117  1  0.15260000  0.63450000  0.25000000  1.0 -0.065081174
C  C118  1  0.17530000  0.86090000  0.25000000  1.0 0.0811394294
C  C119  1  0.48190000  0.84740000  0.25000000  1.0 -0.065081174
C  C120  1  0.68560000  0.82470000  0.25000000  1.0 0.0811394294
I  I1  1  0.97750000  0.87370000  0.74910000  1.0 0.0012081874
I  I2  1  0.89620000  0.02250000  0.74910000  1.0 0.0012081874
I  I3  1  0.12630000  0.10380000  0.74910000  1.0 0.0012081874
I  I4  1  0.97750000  0.87370000  0.75090000  1.0 0.0012081874
I  I5  1  0.89620000  0.02250000  0.75090000  1.0 0.0012081874
I  I6  1  0.12630000  0.10380000  0.75090000  1.0 0.0012081874
I  I7  1  0.02414000  0.83714000  0.75000000  1.0 -0.0416288144
I  I8  1  0.81300000  0.97586000  0.75000000  1.0 -0.0416288144
I  I9  1  0.16286000  0.18700000  0.75000000  1.0 -0.0416288144
I  I10  1  0.02250000  0.12630000  0.24910000  1.0 0.0012081874
I  I11  1  0.10380000  0.97750000  0.24910000  1.0 0.0012081874
I  I12  1  0.87370000  0.89620000  0.24910000  1.0 0.0012081874
I  I13  1  0.02250000  0.12630000  0.25090000  1.0 0.0012081874
I  I14  1  0.10380000  0.97750000  0.25090000  1.0 0.0012081874
I  I15  1  0.87370000  0.89620000  0.25090000  1.0 0.0012081874
I  I16  1  0.97586000  0.16286000  0.25000000  1.0 -0.0416288144
I  I17  1  0.18700000  0.02414000  0.25000000  1.0 -0.0416288144
I  I18  1  0.83714000  0.81300000  0.25000000  1.0 -0.0416288144
N  N1  1  0.69800000  0.49800000  0.85319000  1.0 -0.2988723117
N  N2  1  0.64500000  0.44910000  0.88879000  1.0 -0.1615322131
N  N3  1  0.54100000  0.33440000  0.94878000  1.0 -0.1615322131
N  N4  1  0.36680000  0.35990000  0.98630000  1.0 -0.221463998
N  N5  1  0.80000000  0.30200000  0.85319000  1.0 -0.2988723117
N  N6  1  0.80410000  0.35500000  0.88879000  1.0 -0.1615322131
N  N7  1  0.79340000  0.45900000  0.94878000  1.0 -0.1615322131
N  N8  1  0.99310000  0.63320000  0.98630000  1.0 -0.221463998
N  N9  1  0.50200000  0.20000000  0.85319000  1.0 -0.2988723117
N  N10  1  0.55090000  0.19590000  0.88879000  1.0 -0.1615322131
N  N11  1  0.66560000  0.20660000  0.94878000  1.0 -0.1615322131
N  N12  1  0.64010000  0.00690000  0.98630000  1.0 -0.221463998
N  N13  1  0.69800000  0.49800000  0.64681000  1.0 -0.2988723117
N  N14  1  0.64500000  0.44910000  0.61121000  1.0 -0.1615322131
N  N15  1  0.54100000  0.33440000  0.55122000  1.0 -0.1615322131
N  N16  1  0.36680000  0.35990000  0.51370000  1.0 -0.221463998
N  N17  1  0.80000000  0.30200000  0.64681000  1.0 -0.2988723117
N  N18  1  0.80410000  0.35500000  0.61121000  1.0 -0.1615322131
N  N19  1  0.79340000  0.45900000  0.55122000  1.0 -0.1615322131
N  N20  1  0.99310000  0.63320000  0.51370000  1.0 -0.221463998
N  N21  1  0.50200000  0.20000000  0.64681000  1.0 -0.2988723117
N  N22  1  0.55090000  0.19590000  0.61121000  1.0 -0.1615322131
N  N23  1  0.66560000  0.20660000  0.55122000  1.0 -0.1615322131
N  N24  1  0.64010000  0.00690000  0.51370000  1.0 -0.221463998
N  N25  1  0.30200000  0.50200000  0.35319000  1.0 -0.2988723117
N  N26  1  0.35500000  0.55090000  0.38879000  1.0 -0.1615322131
N  N27  1  0.45900000  0.66560000  0.44878000  1.0 -0.1615322131
N  N28  1  0.63320000  0.64010000  0.48630000  1.0 -0.221463998
N  N29  1  0.20000000  0.69800000  0.35319000  1.0 -0.2988723117
N  N30  1  0.19590000  0.64500000  0.38879000  1.0 -0.1615322131
N  N31  1  0.20660000  0.54100000  0.44878000  1.0 -0.1615322131
N  N32  1  0.00690000  0.36680000  0.48630000  1.0 -0.221463998
N  N33  1  0.49800000  0.80000000  0.35319000  1.0 -0.2988723117
N  N34  1  0.44910000  0.80410000  0.38879000  1.0 -0.1615322131
N  N35  1  0.33440000  0.79340000  0.44878000  1.0 -0.1615322131
N  N36  1  0.35990000  0.99310000  0.48630000  1.0 -0.221463998
N  N37  1  0.30200000  0.50200000  0.14681000  1.0 -0.2988723117
N  N38  1  0.35500000  0.55090000  0.11121000  1.0 -0.1615322131
N  N39  1  0.45900000  0.66560000  0.05122000  1.0 -0.1615322131
N  N40  1  0.63320000  0.64010000  0.01370000  1.0 -0.221463998
N  N41  1  0.20000000  0.69800000  0.14681000  1.0 -0.2988723117
N  N42  1  0.19590000  0.64500000  0.11121000  1.0 -0.1615322131
N  N43  1  0.20660000  0.54100000  0.05122000  1.0 -0.1615322131
N  N44  1  0.00690000  0.36680000  0.01370000  1.0 -0.221463998
N  N45  1  0.49800000  0.80000000  0.14681000  1.0 -0.2988723117
N  N46  1  0.44910000  0.80410000  0.11121000  1.0 -0.1615322131
N  N47  1  0.33440000  0.79340000  0.05122000  1.0 -0.1615322131
N  N48  1  0.35990000  0.99310000  0.01370000  1.0 -0.221463998
O  O1  1  0.52100000  0.41910000  0.82259000  1.0 -0.4402682232
O  O2  1  0.89810000  0.47900000  0.82259000  1.0 -0.4402682232
O  O3  1  0.58090000  0.10190000  0.82259000  1.0 -0.4402682232
O  O4  1  0.52100000  0.41910000  0.67741000  1.0 -0.4402682232
O  O5  1  0.89810000  0.47900000  0.67741000  1.0 -0.4402682232
O  O6  1  0.58090000  0.10190000  0.67741000  1.0 -0.4402682232
O  O7  1  0.47900000  0.58090000  0.32259000  1.0 -0.4402682232
O  O8  1  0.10190000  0.52100000  0.32259000  1.0 -0.4402682232
O  O9  1  0.41910000  0.89810000  0.32259000  1.0 -0.4402682232
O  O10  1  0.47900000  0.58090000  0.17741000  1.0 -0.4402682232
O  O11  1  0.10190000  0.52100000  0.17741000  1.0 -0.4402682232
O  O12  1  0.41910000  0.89810000  0.17741000  1.0 -0.4402682232
F  F1  1  0.55270000  0.27450000  0.06720000  1.0 -0.4788895794
F  F2  1  0.72180000  0.44730000  0.06720000  1.0 -0.4788895794
F  F3  1  0.72550000  0.27820000  0.06720000  1.0 -0.4788895794
F  F4  1  0.66666667  0.33333333  0.11830000  1.0 -0.449990774
F  F5  1  0.44730000  0.72550000  0.56720000  1.0 -0.4788895794
F  F6  1  0.27820000  0.55270000  0.56720000  1.0 -0.4788895794
F  F7  1  0.27450000  0.72180000  0.56720000  1.0 -0.4788895794
F  F8  1  0.33333333  0.66666667  0.61830000  1.0 -0.449990774
F  F9  1  0.44730000  0.72550000  0.93280000  1.0 -0.4788895794
F  F10  1  0.27820000  0.55270000  0.93280000  1.0 -0.4788895794
F  F11  1  0.27450000  0.72180000  0.93280000  1.0 -0.4788895794
F  F12  1  0.33333333  0.66666667  0.88170000  1.0 -0.449990774
F  F13  1  0.55270000  0.27450000  0.43280000  1.0 -0.4788895794
F  F14  1  0.72180000  0.44730000  0.43280000  1.0 -0.4788895794
F  F15  1  0.72550000  0.27820000  0.43280000  1.0 -0.4788895794
F  F16  1  0.66666667  0.33333333  0.38170000  1.0 -0.449990774
