# DDEC6 charges by PACMAN v1.1 (https://github.com/mtap-research/PACMAN-charge/)
data_HUTXEB01_FSR_pacman
_symmetry_space_group_name_H-M   'P 1'
_cell_length_a   8.27330000
_cell_length_b   10.09670000
_cell_length_c   15.66410000
_cell_angle_alpha   90.98900000
_cell_angle_beta   104.59200000
_cell_angle_gamma   101.00900000
_symmetry_Int_Tables_number   1
_chemical_formula_structural   CoH14C20(NO)4
_chemical_formula_sum   'Co2 H28 C40 N8 O8'
_cell_volume   1240.01477446
_cell_formula_units_Z   2
loop_
 _symmetry_equiv_pos_site_id
 _symmetry_equiv_pos_as_xyz
  1  'x, y, z'
loop_
 _atom_site_type_symbol
 _atom_site_label
 _atom_site_symmetry_multiplicity
 _atom_site_fract_x
 _atom_site_fract_y
 _atom_site_fract_z
 _atom_site_occupancy
 _atom_site_charge
Co  Co1  1  0.66238000  0.87000000  0.54536000  1.0 0.8473367927
Co  Co2  1  0.33762000  0.13000000  0.45464000  1.0 0.8473367927
H  H1  1  0.42320000  0.71140000  0.64560000  1.0 0.1103653805
H  H2  1  0.37410000  0.69720000  0.78470000  1.0 0.1319626582
H  H3  1  0.83020000  0.99740000  0.73560000  1.0 0.1103653805
H  H4  1  0.79650000  0.98920000  0.87780000  1.0 0.1373618258
H  H5  1  0.45280000  0.77030000  0.94300000  1.0 0.1153609765
H  H6  1  0.80260000  0.00650000  0.13770000  1.0 0.1103653805
H  H7  1  0.87380000  0.04770000  0.43810000  1.0 0.1103653805
H  H8  1  0.89060000  0.07750000  0.29450000  1.0 0.1373618258
H  H9  1  0.50620000  0.75030000  0.21390000  1.0 0.1319626582
H  H10  1  0.50020000  0.73020000  0.36000000  1.0 0.1103653805
H  H11  1  0.11880000  0.64640000  0.64560000  1.0 0.1103653805
H  H12  1  0.23400000  0.45410000  0.68020000  1.0 0.1103653805
H  H13  1  0.06190000  0.23940000  0.64150000  1.0 0.1103653805
H  H14  1  0.65870000  0.40810000  0.52920000  1.0 0.1319626582
H  H15  1  0.57680000  0.28860000  0.35440000  1.0 0.1103653805
H  H16  1  0.62590000  0.30280000  0.21530000  1.0 0.1319626582
H  H17  1  0.16980000  0.00260000  0.26440000  1.0 0.1103653805
H  H18  1  0.20350000  0.01080000  0.12220000  1.0 0.1373618258
H  H19  1  0.54720000  0.22970000  0.05700000  1.0 0.1153609765
H  H20  1  0.19740000  0.99350000  0.86230000  1.0 0.1103653805
H  H21  1  0.12620000  0.95230000  0.56190000  1.0 0.1103653805
H  H22  1  0.10940000  0.92250000  0.70550000  1.0 0.1373618258
H  H23  1  0.49380000  0.24970000  0.78610000  1.0 0.1319626582
H  H24  1  0.49980000  0.26980000  0.64000000  1.0 0.1103653805
H  H25  1  0.88120000  0.35360000  0.35440000  1.0 0.1103653805
H  H26  1  0.76600000  0.54590000  0.31980000  1.0 0.1103653805
H  H27  1  0.93810000  0.76060000  0.35850000  1.0 0.1103653805
H  H28  1  0.34130000  0.59190000  0.47080000  1.0 0.1319626582
C  C1  1  0.49890000  0.76930000  0.69332000  1.0 0.0952696887
C  C2  1  0.46930000  0.75980000  0.77632000  1.0 -0.2062830763
C  C3  1  0.57930000  0.84220000  0.84712000  1.0 0.1103653805
C  C4  1  0.73630000  0.93550000  0.74603000  1.0 0.0872263697
C  C5  1  0.71710000  0.93170000  0.83106000  1.0 -0.1818665849
C  C6  1  0.55130000  0.82970000  0.93542000  1.0 0.0357174309
C  C7  1  0.71470000  0.93760000  0.14728000  1.0 0.0286134755
C  C8  1  0.79780000  0.98707000  0.39188000  1.0 0.1103653805
C  C9  1  0.80870000  0.00544000  0.30630000  1.0 -0.1883703557
C  C10  1  0.69960000  0.91838000  0.23760000  1.0 0.1103653805
C  C11  1  0.58250000  0.81300000  0.25881000  1.0 -0.1818665849
C  C12  1  0.58000000  0.80193000  0.34608000  1.0 0.0806534378
C  C13  1  0.79970000  0.66900000  0.56704000  1.0 0.5332459447
C  C14  1  0.87720000  0.54573000  0.58588000  1.0 -0.0038155995
C  C15  1  0.04850000  0.55900000  0.62962000  1.0 -0.1082729461
C  C16  1  0.11700000  0.44480000  0.64998000  1.0 -0.1082729461
C  C17  1  0.01510000  0.31740000  0.62637000  1.0 -0.0929784092
C  C18  1  0.84460000  0.30279000  0.58067000  1.0 -0.0294563814
C  C19  1  0.77520000  0.41739000  0.56033000  1.0 -0.1285238775
C  C20  1  0.73410000  0.16448000  0.55156000  1.0 0.5651479004
C  C21  1  0.50110000  0.23070000  0.30668000  1.0 0.0952696887
C  C22  1  0.53070000  0.24020000  0.22368000  1.0 -0.2062830763
C  C23  1  0.42070000  0.15780000  0.15288000  1.0 0.1103653805
C  C24  1  0.26370000  0.06450000  0.25397000  1.0 0.0872263697
C  C25  1  0.28290000  0.06830000  0.16894000  1.0 -0.1818665849
C  C26  1  0.44870000  0.17030000  0.06458000  1.0 0.0357174309
C  C27  1  0.28530000  0.06240000  0.85272000  1.0 0.0286134755
C  C28  1  0.20220000  0.01293000  0.60812000  1.0 0.1103653805
C  C29  1  0.19130000  0.99456000  0.69370000  1.0 -0.1883703557
C  C30  1  0.30040000  0.08162000  0.76240000  1.0 0.1103653805
C  C31  1  0.41750000  0.18700000  0.74119000  1.0 -0.1818665849
C  C32  1  0.42000000  0.19807000  0.65392000  1.0 0.0806534378
C  C33  1  0.20030000  0.33100000  0.43296000  1.0 0.5332459447
C  C34  1  0.12280000  0.45427000  0.41412000  1.0 -0.0038155995
C  C35  1  0.95150000  0.44100000  0.37038000  1.0 -0.1082729461
C  C36  1  0.88300000  0.55520000  0.35002000  1.0 -0.1082729461
C  C37  1  0.98490000  0.68260000  0.37363000  1.0 -0.0929784092
C  C38  1  0.15540000  0.69721000  0.41933000  1.0 -0.0294563814
C  C39  1  0.22480000  0.58261000  0.43967000  1.0 -0.1285238775
C  C40  1  0.26590000  0.83552000  0.44844000  1.0 0.5651479004
N  N1  1  0.62940000  0.85646000  0.67752000  1.0 -0.2275126638
N  N2  1  0.65790000  0.89771000  0.00221000  1.0 -0.1883703557
N  N3  1  0.61320000  0.86448000  0.08133000  1.0 -0.1883703557
N  N4  1  0.68480000  0.88761000  0.41274000  1.0 -0.2538536551
N  N5  1  0.37060000  0.14354000  0.32248000  1.0 -0.2275126638
N  N6  1  0.34210000  0.10229000  0.99779000  1.0 -0.1883703557
N  N7  1  0.38680000  0.13552000  0.91867000  1.0 -0.1883703557
N  N8  1  0.31520000  0.11239000  0.58726000  1.0 -0.2538536551
O  O1  1  0.64380000  0.65474000  0.52954000  1.0 -0.5271490576
O  O2  1  0.89138000  0.78465000  0.59057000  1.0 -0.5474010768
O  O3  1  0.79261000  0.06368000  0.58322000  1.0 -0.5474010768
O  O4  1  0.59377000  0.15629000  0.49677000  1.0 -0.5634378257
O  O5  1  0.35620000  0.34526000  0.47046000  1.0 -0.5271490576
O  O6  1  0.10862000  0.21535000  0.40943000  1.0 -0.5474010768
O  O7  1  0.20739000  0.93632000  0.41678000  1.0 -0.5474010768
O  O8  1  0.40623000  0.84371000  0.50323000  1.0 -0.5634378257
