# DDEC6 charges by PACMAN v1.1 (https://github.com/mtap-research/PACMAN-charge/)
data_HUWMEU_ASR_pacman
_symmetry_space_group_name_H-M   'P 1'
_cell_length_a   14.43800000
_cell_length_b   14.43800000
_cell_length_c   16.11080000
_cell_angle_alpha   90.00000000
_cell_angle_beta   90.00000000
_cell_angle_gamma   120.00000000
_symmetry_Int_Tables_number   1
_chemical_formula_structural   K6V12Zn3Fe4H36(C24O41)2
_chemical_formula_sum   'K6 V12 Zn3 Fe4 H36 C48 O82'
_cell_volume   2908.45141220
_cell_formula_units_Z   1
loop_
 _symmetry_equiv_pos_site_id
 _symmetry_equiv_pos_as_xyz
  1  'x, y, z'
loop_
 _atom_site_type_symbol
 _atom_site_label
 _atom_site_symmetry_multiplicity
 _atom_site_fract_x
 _atom_site_fract_y
 _atom_site_fract_z
 _atom_site_occupancy
 _atom_site_charge
K  K1  1  0.95290000  0.65360000  0.00000000  1.0 0.9509766153
K  K2  1  0.70070000  0.04710000  0.00000000  1.0 0.9509766153
K  K3  1  0.34640000  0.29930000  0.00000000  1.0 0.9509766153
K  K4  1  0.04710000  0.34640000  0.00000000  1.0 0.9509766153
K  K5  1  0.29930000  0.95290000  0.00000000  1.0 0.9509766153
K  K6  1  0.65360000  0.70070000  0.00000000  1.0 0.9509766153
V  V1  1  0.65274000  0.45771000  0.10652000  1.0 1.9034373315
V  V2  1  0.80497000  0.34726000  0.10652000  1.0 1.9034373315
V  V3  1  0.54229000  0.19503000  0.10652000  1.0 1.9034373315
V  V4  1  0.34726000  0.54229000  0.10652000  1.0 1.9034373315
V  V5  1  0.19503000  0.65274000  0.10652000  1.0 1.9034373315
V  V6  1  0.45771000  0.80497000  0.10652000  1.0 1.9034373315
V  V7  1  0.34726000  0.54229000  0.89348000  1.0 1.9034373315
V  V8  1  0.19503000  0.65274000  0.89348000  1.0 1.9034373315
V  V9  1  0.45771000  0.80497000  0.89348000  1.0 1.9034373315
V  V10  1  0.65274000  0.45771000  0.89348000  1.0 1.9034373315
V  V11  1  0.80497000  0.34726000  0.89348000  1.0 1.9034373315
V  V12  1  0.54229000  0.19503000  0.89348000  1.0 1.9034373315
Zn  Zn1  1  0.00000000  0.50000000  0.50000000  1.0 0.992905155
Zn  Zn2  1  0.50000000  0.00000000  0.50000000  1.0 0.992905155
Zn  Zn3  1  0.50000000  0.50000000  0.50000000  1.0 0.992905155
Fe  Fe1  1  0.66666667  0.33333333  0.29110000  1.0 1.278805569
Fe  Fe2  1  0.33333333  0.66666667  0.29110000  1.0 1.278805569
Fe  Fe3  1  0.33333333  0.66666667  0.70890000  1.0 1.278805569
Fe  Fe4  1  0.66666667  0.33333333  0.70890000  1.0 1.278805569
H  H1  1  0.71045000  0.56495000  0.31319000  1.0 0.119802572
H  H2  1  0.90373000  0.58638000  0.24509000  1.0 0.1588287523
H  H3  1  0.90258000  0.66735000  0.31204000  1.0 0.1588287523
H  H4  1  0.85450000  0.28955000  0.31319000  1.0 0.119802572
H  H5  1  0.68265000  0.09627000  0.24509000  1.0 0.1588287523
H  H6  1  0.76477000  0.09742000  0.31204000  1.0 0.1588287523
H  H7  1  0.43505000  0.14550000  0.31319000  1.0 0.119802572
H  H8  1  0.41362000  0.31735000  0.24509000  1.0 0.1588287523
H  H9  1  0.33265000  0.23523000  0.31204000  1.0 0.1588287523
H  H10  1  0.28955000  0.43505000  0.31319000  1.0 0.119802572
H  H11  1  0.09627000  0.41362000  0.24509000  1.0 0.1588287523
H  H12  1  0.09742000  0.33265000  0.31204000  1.0 0.1588287523
H  H13  1  0.14550000  0.71045000  0.31319000  1.0 0.119802572
H  H14  1  0.31735000  0.90373000  0.24509000  1.0 0.1588287523
H  H15  1  0.23523000  0.90258000  0.31204000  1.0 0.1588287523
H  H16  1  0.56495000  0.85450000  0.31319000  1.0 0.119802572
H  H17  1  0.58638000  0.68265000  0.24509000  1.0 0.1588287523
H  H18  1  0.66735000  0.76477000  0.31204000  1.0 0.1588287523
H  H19  1  0.28955000  0.43505000  0.68681000  1.0 0.119802572
H  H20  1  0.09627000  0.41362000  0.75491000  1.0 0.1588287523
H  H21  1  0.09742000  0.33265000  0.68796000  1.0 0.1588287523
H  H22  1  0.14550000  0.71045000  0.68681000  1.0 0.119802572
H  H23  1  0.31735000  0.90373000  0.75491000  1.0 0.1588287523
H  H24  1  0.23523000  0.90258000  0.68796000  1.0 0.1588287523
H  H25  1  0.56495000  0.85450000  0.68681000  1.0 0.119802572
H  H26  1  0.58638000  0.68265000  0.75491000  1.0 0.1588287523
H  H27  1  0.66735000  0.76477000  0.68796000  1.0 0.1588287523
H  H28  1  0.71045000  0.56495000  0.68681000  1.0 0.119802572
H  H29  1  0.90373000  0.58638000  0.75491000  1.0 0.1588287523
H  H30  1  0.90258000  0.66735000  0.68796000  1.0 0.1588287523
H  H31  1  0.85450000  0.28955000  0.68681000  1.0 0.119802572
H  H32  1  0.68265000  0.09627000  0.75491000  1.0 0.1588287523
H  H33  1  0.76477000  0.09742000  0.68796000  1.0 0.1588287523
H  H34  1  0.43505000  0.14550000  0.68681000  1.0 0.119802572
H  H35  1  0.41362000  0.31735000  0.75491000  1.0 0.1588287523
H  H36  1  0.33265000  0.23523000  0.68796000  1.0 0.1588287523
C  C1  1  0.76280000  0.64890000  0.20060000  1.0 0.5569102915
C  C2  1  0.75320000  0.56470000  0.26450000  1.0 0.0986640976
C  C3  1  0.86660000  0.52350000  0.36140000  1.0 0.6768194588
C  C4  1  0.86420000  0.59200000  0.29320000  1.0 -0.4035213241
C  C5  1  0.88610000  0.23720000  0.20060000  1.0 0.5569102915
C  C6  1  0.81150000  0.24680000  0.26450000  1.0 0.0986640976
C  C7  1  0.65690000  0.13340000  0.36140000  1.0 0.6768194588
C  C8  1  0.72780000  0.13580000  0.29320000  1.0 -0.4035213241
C  C9  1  0.35110000  0.11390000  0.20060000  1.0 0.5569102915
C  C10  1  0.43530000  0.18850000  0.26450000  1.0 0.0986640976
C  C11  1  0.47650000  0.34310000  0.36140000  1.0 0.6768194588
C  C12  1  0.40800000  0.27220000  0.29320000  1.0 -0.4035213241
C  C13  1  0.23720000  0.35110000  0.20060000  1.0 0.5569102915
C  C14  1  0.24680000  0.43530000  0.26450000  1.0 0.0986640976
C  C15  1  0.13340000  0.47650000  0.36140000  1.0 0.6768194588
C  C16  1  0.13580000  0.40800000  0.29320000  1.0 -0.4035213241
C  C17  1  0.11390000  0.76280000  0.20060000  1.0 0.5569102915
C  C18  1  0.18850000  0.75320000  0.26450000  1.0 0.0986640976
C  C19  1  0.34310000  0.86660000  0.36140000  1.0 0.6768194588
C  C20  1  0.27220000  0.86420000  0.29320000  1.0 -0.4035213241
C  C21  1  0.64890000  0.88610000  0.20060000  1.0 0.5569102915
C  C22  1  0.56470000  0.81150000  0.26450000  1.0 0.0986640976
C  C23  1  0.52350000  0.65690000  0.36140000  1.0 0.6768194588
C  C24  1  0.59200000  0.72780000  0.29320000  1.0 -0.4035213241
C  C25  1  0.23720000  0.35110000  0.79940000  1.0 0.5569102915
C  C26  1  0.24680000  0.43530000  0.73550000  1.0 0.0986640976
C  C27  1  0.13340000  0.47650000  0.63860000  1.0 0.6768194588
C  C28  1  0.13580000  0.40800000  0.70680000  1.0 -0.4035213241
C  C29  1  0.11390000  0.76280000  0.79940000  1.0 0.5569102915
C  C30  1  0.18850000  0.75320000  0.73550000  1.0 0.0986640976
C  C31  1  0.34310000  0.86660000  0.63860000  1.0 0.6768194588
C  C32  1  0.27220000  0.86420000  0.70680000  1.0 -0.4035213241
C  C33  1  0.64890000  0.88610000  0.79940000  1.0 0.5569102915
C  C34  1  0.56470000  0.81150000  0.73550000  1.0 0.0986640976
C  C35  1  0.52350000  0.65690000  0.63860000  1.0 0.6768194588
C  C36  1  0.59200000  0.72780000  0.70680000  1.0 -0.4035213241
C  C37  1  0.76280000  0.64890000  0.79940000  1.0 0.5569102915
C  C38  1  0.75320000  0.56470000  0.73550000  1.0 0.0986640976
C  C39  1  0.86660000  0.52350000  0.63860000  1.0 0.6768194588
C  C40  1  0.86420000  0.59200000  0.70680000  1.0 -0.4035213241
C  C41  1  0.88610000  0.23720000  0.79940000  1.0 0.5569102915
C  C42  1  0.81150000  0.24680000  0.73550000  1.0 0.0986640976
C  C43  1  0.65690000  0.13340000  0.63860000  1.0 0.6768194588
C  C44  1  0.72780000  0.13580000  0.70680000  1.0 -0.4035213241
C  C45  1  0.35110000  0.11390000  0.79940000  1.0 0.5569102915
C  C46  1  0.43530000  0.18850000  0.73550000  1.0 0.0986640976
C  C47  1  0.47650000  0.34310000  0.63860000  1.0 0.6768194588
C  C48  1  0.40800000  0.27220000  0.70680000  1.0 -0.4035213241
O  O1  1  0.69930000  0.46350000  0.22502000  1.0 -0.6702899782
O  O2  1  0.78820000  0.42770000  0.36930000  1.0 -0.5513164797
O  O3  1  0.71940000  0.61200000  0.12990000  1.0 -0.6401606052
O  O4  1  0.94680000  0.56230000  0.40700000  1.0 -0.53796719
O  O5  1  0.80890000  0.74500000  0.21900000  1.0 -0.4400235214
O  O6  1  0.52630000  0.40730000  0.10590000  1.0 -0.7097887743
O  O7  1  0.76420000  0.30070000  0.22502000  1.0 -0.6702899782
O  O8  1  0.63950000  0.21180000  0.36930000  1.0 -0.5513164797
O  O9  1  0.89260000  0.28060000  0.12990000  1.0 -0.6401606052
O  O10  1  0.61550000  0.05320000  0.40700000  1.0 -0.53796719
O  O11  1  0.93610000  0.19110000  0.21900000  1.0 -0.4400235214
O  O12  1  0.88100000  0.47370000  0.10590000  1.0 -0.7097887743
O  O13  1  0.53650000  0.23580000  0.22502000  1.0 -0.6702899782
O  O14  1  0.57230000  0.36050000  0.36930000  1.0 -0.5513164797
O  O15  1  0.38800000  0.10740000  0.12990000  1.0 -0.6401606052
O  O16  1  0.43770000  0.38450000  0.40700000  1.0 -0.53796719
O  O17  1  0.25500000  0.06390000  0.21900000  1.0 -0.4400235214
O  O18  1  0.59270000  0.11900000  0.10590000  1.0 -0.7097887743
O  O19  1  0.30070000  0.53650000  0.22502000  1.0 -0.6702899782
O  O20  1  0.21180000  0.57230000  0.36930000  1.0 -0.5513164797
O  O21  1  0.28060000  0.38800000  0.12990000  1.0 -0.6401606052
O  O22  1  0.05320000  0.43770000  0.40700000  1.0 -0.53796719
O  O23  1  0.19110000  0.25500000  0.21900000  1.0 -0.4400235214
O  O24  1  0.47370000  0.59270000  0.10590000  1.0 -0.7097887743
O  O25  1  0.23580000  0.69930000  0.22502000  1.0 -0.6702899782
O  O26  1  0.36050000  0.78820000  0.36930000  1.0 -0.5513164797
O  O27  1  0.10740000  0.71940000  0.12990000  1.0 -0.6401606052
O  O28  1  0.38450000  0.94680000  0.40700000  1.0 -0.53796719
O  O29  1  0.06390000  0.80890000  0.21900000  1.0 -0.4400235214
O  O30  1  0.11900000  0.52630000  0.10590000  1.0 -0.7097887743
O  O31  1  0.46350000  0.76420000  0.22502000  1.0 -0.6702899782
O  O32  1  0.42770000  0.63950000  0.36930000  1.0 -0.5513164797
O  O33  1  0.61200000  0.89260000  0.12990000  1.0 -0.6401606052
O  O34  1  0.56230000  0.61550000  0.40700000  1.0 -0.53796719
O  O35  1  0.74500000  0.93610000  0.21900000  1.0 -0.4400235214
O  O36  1  0.40730000  0.88100000  0.10590000  1.0 -0.7097887743
O  O37  1  0.30070000  0.53650000  0.77498000  1.0 -0.6702899782
O  O38  1  0.21180000  0.57230000  0.63070000  1.0 -0.5513164797
O  O39  1  0.28060000  0.38800000  0.87010000  1.0 -0.6401606052
O  O40  1  0.05320000  0.43770000  0.59300000  1.0 -0.53796719
O  O41  1  0.19110000  0.25500000  0.78100000  1.0 -0.4400235214
O  O42  1  0.47370000  0.59270000  0.89410000  1.0 -0.7097887743
O  O43  1  0.23580000  0.69930000  0.77498000  1.0 -0.6702899782
O  O44  1  0.36050000  0.78820000  0.63070000  1.0 -0.5513164797
O  O45  1  0.10740000  0.71940000  0.87010000  1.0 -0.6401606052
O  O46  1  0.38450000  0.94680000  0.59300000  1.0 -0.53796719
O  O47  1  0.06390000  0.80890000  0.78100000  1.0 -0.4400235214
O  O48  1  0.11900000  0.52630000  0.89410000  1.0 -0.7097887743
O  O49  1  0.46350000  0.76420000  0.77498000  1.0 -0.6702899782
O  O50  1  0.42770000  0.63950000  0.63070000  1.0 -0.5513164797
O  O51  1  0.61200000  0.89260000  0.87010000  1.0 -0.6401606052
O  O52  1  0.56230000  0.61550000  0.59300000  1.0 -0.53796719
O  O53  1  0.74500000  0.93610000  0.78100000  1.0 -0.4400235214
O  O54  1  0.40730000  0.88100000  0.89410000  1.0 -0.7097887743
O  O55  1  0.69930000  0.46350000  0.77498000  1.0 -0.6702899782
O  O56  1  0.78820000  0.42770000  0.63070000  1.0 -0.5513164797
O  O57  1  0.71940000  0.61200000  0.87010000  1.0 -0.6401606052
O  O58  1  0.94680000  0.56230000  0.59300000  1.0 -0.53796719
O  O59  1  0.80890000  0.74500000  0.78100000  1.0 -0.4400235214
O  O60  1  0.52630000  0.40730000  0.89410000  1.0 -0.7097887743
O  O61  1  0.76420000  0.30070000  0.77498000  1.0 -0.6702899782
O  O62  1  0.63950000  0.21180000  0.63070000  1.0 -0.5513164797
O  O63  1  0.89260000  0.28060000  0.87010000  1.0 -0.6401606052
O  O64  1  0.61550000  0.05320000  0.59300000  1.0 -0.53796719
O  O65  1  0.93610000  0.19110000  0.78100000  1.0 -0.4400235214
O  O66  1  0.88100000  0.47370000  0.89410000  1.0 -0.7097887743
O  O67  1  0.53650000  0.23580000  0.77498000  1.0 -0.6702899782
O  O68  1  0.57230000  0.36050000  0.63070000  1.0 -0.5513164797
O  O69  1  0.38800000  0.10740000  0.87010000  1.0 -0.6401606052
O  O70  1  0.43770000  0.38450000  0.59300000  1.0 -0.53796719
O  O71  1  0.25500000  0.06390000  0.78100000  1.0 -0.4400235214
O  O72  1  0.59270000  0.11900000  0.89410000  1.0 -0.7097887743
O  O73  1  0.69690000  0.49260000  0.00000000  1.0 -1.0078676788
O  O74  1  0.79570000  0.30310000  0.00000000  1.0 -1.0078676788
O  O75  1  0.50740000  0.20430000  0.00000000  1.0 -1.0078676788
O  O76  1  0.30310000  0.50740000  0.00000000  1.0 -1.0078676788
O  O77  1  0.20430000  0.69690000  0.00000000  1.0 -1.0078676788
O  O78  1  0.49260000  0.79570000  0.00000000  1.0 -1.0078676788
O  O79  1  0.66666667  0.33333333  0.10320000  1.0 -1.098817989
O  O80  1  0.33333333  0.66666667  0.10320000  1.0 -1.098817989
O  O81  1  0.33333333  0.66666667  0.89680000  1.0 -1.098817989
O  O82  1  0.66666667  0.33333333  0.89680000  1.0 -1.098817989
