# DDEC6 charges by PACMAN v1.1 (https://github.com/mtap-research/PACMAN-charge/)
data_HUWZIK_ASR_pacman
_symmetry_space_group_name_H-M   'P 1'
_cell_length_a   17.61100000
_cell_length_b   8.26320000
_cell_length_c   9.49390000
_cell_angle_alpha   90.00000000
_cell_angle_beta   96.12800000
_cell_angle_gamma   90.00000000
_symmetry_Int_Tables_number   1
_chemical_formula_structural   CdH4(CN)8
_chemical_formula_sum   'Cd4 H16 C32 N32'
_cell_volume   1373.68834327
_cell_formula_units_Z   4
loop_
 _symmetry_equiv_pos_site_id
 _symmetry_equiv_pos_as_xyz
  1  'x, y, z'
loop_
 _atom_site_type_symbol
 _atom_site_label
 _atom_site_symmetry_multiplicity
 _atom_site_fract_x
 _atom_site_fract_y
 _atom_site_fract_z
 _atom_site_occupancy
 _atom_site_charge
Cd  Cd1  1  0.25000000  0.25000000  0.00000000  1.0 0.7265811988
Cd  Cd2  1  0.75000000  0.75000000  0.00000000  1.0 0.7265811988
Cd  Cd3  1  0.75000000  0.25000000  0.50000000  1.0 0.7265811988
Cd  Cd4  1  0.25000000  0.75000000  0.50000000  1.0 0.7265811988
H  H1  1  0.43356000  0.26392000  0.52417000  1.0 0.1180952915
H  H2  1  0.56644000  0.73608000  0.47583000  1.0 0.1180952915
H  H3  1  0.56644000  0.26392000  0.97583000  1.0 0.1180952915
H  H4  1  0.43356000  0.73608000  0.02417000  1.0 0.1180952915
H  H5  1  0.93356000  0.76392000  0.52417000  1.0 0.1180952915
H  H6  1  0.06644000  0.23608000  0.47583000  1.0 0.1180952915
H  H7  1  0.06644000  0.76392000  0.97583000  1.0 0.1180952915
H  H8  1  0.93356000  0.23608000  0.02417000  1.0 0.1180952915
H  H9  1  0.54344000  0.24700000  0.38056000  1.0 0.1078675368
H  H10  1  0.45656000  0.75300000  0.61944000  1.0 0.1078675368
H  H11  1  0.45656000  0.24700000  0.11944000  1.0 0.1078675368
H  H12  1  0.54344000  0.75300000  0.88056000  1.0 0.1078675368
H  H13  1  0.04344000  0.74700000  0.38056000  1.0 0.1078675368
H  H14  1  0.95656000  0.25300000  0.61944000  1.0 0.1078675368
H  H15  1  0.95656000  0.74700000  0.11944000  1.0 0.1078675368
H  H16  1  0.04344000  0.25300000  0.88056000  1.0 0.1078675368
C  C1  1  0.37458000  0.02275000  0.66982000  1.0 0.2435926587
C  C2  1  0.62542000  0.97725000  0.33018000  1.0 0.2435926587
C  C3  1  0.62542000  0.02275000  0.83018000  1.0 0.2435926587
C  C4  1  0.37458000  0.97725000  0.16982000  1.0 0.2435926587
C  C5  1  0.87458000  0.52275000  0.66982000  1.0 0.2435926587
C  C6  1  0.12542000  0.47725000  0.33018000  1.0 0.2435926587
C  C7  1  0.12542000  0.52275000  0.83018000  1.0 0.2435926587
C  C8  1  0.87458000  0.47725000  0.16982000  1.0 0.2435926587
C  C9  1  0.43783000  0.00972000  0.58165000  1.0 0.0391574667
C  C10  1  0.56217000  0.99028000  0.41835000  1.0 0.0391574667
C  C11  1  0.56217000  0.00973000  0.91835000  1.0 0.0391574667
C  C12  1  0.43783000  0.99027000  0.08165000  1.0 0.0391574667
C  C13  1  0.93783000  0.50972000  0.58165000  1.0 0.0391574667
C  C14  1  0.06217000  0.49028000  0.41835000  1.0 0.0391574667
C  C15  1  0.06217000  0.50973000  0.91835000  1.0 0.0391574667
C  C16  1  0.93783000  0.49027000  0.08165000  1.0 0.0391574667
C  C17  1  0.46320000  0.14840000  0.51452000  1.0 -0.0896825961
C  C18  1  0.53680000  0.85160000  0.48548000  1.0 -0.0896825961
C  C19  1  0.53680000  0.14840000  0.98548000  1.0 -0.0896825961
C  C20  1  0.46320000  0.85160000  0.01452000  1.0 -0.0896825961
C  C21  1  0.96320000  0.64840000  0.51452000  1.0 -0.0896825961
C  C22  1  0.03680000  0.35160000  0.48548000  1.0 -0.0896825961
C  C23  1  0.03680000  0.64840000  0.98548000  1.0 -0.0896825961
C  C24  1  0.96320000  0.35160000  0.01452000  1.0 -0.0896825961
C  C25  1  0.52474000  0.13836000  0.43354000  1.0 -0.1016515729
C  C26  1  0.47526000  0.86164000  0.56646000  1.0 -0.1016515729
C  C27  1  0.47526000  0.13836000  0.06646000  1.0 -0.1016515729
C  C28  1  0.52474000  0.86164000  0.93354000  1.0 -0.1016515729
C  C29  1  0.02474000  0.63836000  0.43354000  1.0 -0.1016515729
C  C30  1  0.97526000  0.36164000  0.56646000  1.0 -0.1016515729
C  C31  1  0.97526000  0.63836000  0.06646000  1.0 -0.1016515729
C  C32  1  0.02474000  0.36164000  0.93354000  1.0 -0.1016515729
N  N1  1  0.36730000  0.14618000  0.76159000  1.0 -0.2644748476
N  N2  1  0.63270000  0.85382000  0.23841000  1.0 -0.2644748476
N  N3  1  0.63270000  0.14618000  0.73841000  1.0 -0.2660350507
N  N4  1  0.36730000  0.85382000  0.26159000  1.0 -0.2644748476
N  N5  1  0.86730000  0.64618000  0.76159000  1.0 -0.2644748476
N  N6  1  0.13270000  0.35382000  0.23841000  1.0 -0.2660350507
N  N7  1  0.13270000  0.64618000  0.73841000  1.0 -0.2660350507
N  N8  1  0.86730000  0.35382000  0.26159000  1.0 -0.2644748476
N  N9  1  0.30281000  0.10779000  0.82219000  1.0 -0.0483128874
N  N10  1  0.69719000  0.89221000  0.17781000  1.0 -0.0483128874
N  N11  1  0.69719000  0.10779000  0.67781000  1.0 -0.0483128874
N  N12  1  0.30281000  0.89221000  0.32219000  1.0 -0.0483128874
N  N13  1  0.80281000  0.60779000  0.82219000  1.0 -0.0483128874
N  N14  1  0.19719000  0.39221000  0.17781000  1.0 -0.0483128874
N  N15  1  0.19719000  0.60779000  0.67781000  1.0 -0.0483128874
N  N16  1  0.80281000  0.39221000  0.32219000  1.0 -0.0483128874
N  N17  1  0.27164000  0.96870000  0.77190000  1.0 -0.1016515729
N  N18  1  0.72836000  0.03130000  0.22810000  1.0 -0.1016515729
N  N19  1  0.72836000  0.96870000  0.72810000  1.0 -0.1016515729
N  N20  1  0.27164000  0.03130000  0.27190000  1.0 -0.1016515729
N  N21  1  0.77164000  0.46870000  0.77190000  1.0 -0.1016515729
N  N22  1  0.22836000  0.53130000  0.22810000  1.0 -0.1016515729
N  N23  1  0.22836000  0.46870000  0.72810000  1.0 -0.1016515729
N  N24  1  0.77164000  0.53130000  0.27190000  1.0 -0.1016515729
N  N25  1  0.31647000  0.91202000  0.67377000  1.0 -0.2660350507
N  N26  1  0.68353000  0.08798000  0.32623000  1.0 -0.2660350507
N  N27  1  0.68353000  0.91203000  0.82623000  1.0 -0.2660350507
N  N28  1  0.31647000  0.08797000  0.17377000  1.0 -0.2644748476
N  N29  1  0.81647000  0.41202000  0.67377000  1.0 -0.2644748476
N  N30  1  0.18353000  0.58798000  0.32623000  1.0 -0.2660350507
N  N31  1  0.18353000  0.41203000  0.82623000  1.0 -0.2660350507
N  N32  1  0.81647000  0.58797000  0.17377000  1.0 -0.2660350507
