# DDEC6 charges by PACMAN v1.1 (https://github.com/mtap-research/PACMAN-charge/)
data_HUXPOI_FSR_pacman
_symmetry_space_group_name_H-M   'P 1'
_cell_length_a   24.72500000
_cell_length_b   24.72500000
_cell_length_c   24.72500000
_cell_angle_alpha   144.01400000
_cell_angle_beta   143.93600000
_cell_angle_gamma   51.86460000
_symmetry_Int_Tables_number   1
_chemical_formula_structural   ZnH16C36(NO2)4
_chemical_formula_sum   'Zn4 H64 C144 N16 O32'
_cell_volume   5199.07621573
_cell_formula_units_Z   4
loop_
 _symmetry_equiv_pos_site_id
 _symmetry_equiv_pos_as_xyz
  1  'x, y, z'
loop_
 _atom_site_type_symbol
 _atom_site_label
 _atom_site_symmetry_multiplicity
 _atom_site_fract_x
 _atom_site_fract_y
 _atom_site_fract_z
 _atom_site_occupancy
 _atom_site_charge
Zn  Zn1  1  0.78277000  0.78277000  0.00000000  1.0 0.8279741533
Zn  Zn2  1  0.71723000  0.71723000  0.00000000  1.0 0.8279741533
Zn  Zn3  1  0.21723000  0.21723000  0.00000000  1.0 0.8279741533
Zn  Zn4  1  0.28277000  0.28277000  0.00000000  1.0 0.8279741533
H  H1  1  0.67668000  0.32597000  0.60737000  1.0 0.1183497777
H  H2  1  0.67694000  0.47984000  0.71578000  1.0 0.127752968
H  H3  1  0.53972000  0.73604000  0.71572000  1.0 0.127752968
H  H4  1  0.42849000  0.78159000  0.60676000  1.0 0.1183497777
H  H5  1  0.90127000  0.94127000  0.17624000  1.0 0.1183497777
H  H6  1  0.95463000  0.99255000  0.17850000  1.0 0.1183497777
H  H7  1  0.18220000  0.93812000  0.17144000  1.0 0.102664094
H  H8  1  0.12916000  0.82605000  0.00581000  1.0 0.1068772527
H  H9  1  0.71860000  0.06931000  0.39263000  1.0 0.1183497777
H  H10  1  0.76406000  0.96116000  0.28422000  1.0 0.127752968
H  H11  1  0.02032000  0.82400000  0.28428000  1.0 0.127752968
H  H12  1  0.17483000  0.82173000  0.39324000  1.0 0.1183497777
H  H13  1  0.76503000  0.72503000  0.82376000  1.0 0.1183497777
H  H14  1  0.81405000  0.77613000  0.82150000  1.0 0.1183497777
H  H15  1  0.76668000  0.01076000  0.82856000  1.0 0.1068772527
H  H16  1  0.82024000  0.12335000  0.99419000  1.0 0.1068772527
H  H17  1  0.78140000  0.17403000  0.35071000  1.0 0.1183497777
H  H18  1  0.73594000  0.02016000  0.19710000  1.0 0.127752968
H  H19  1  0.47968000  0.76396000  0.80368000  1.0 0.127752968
H  H20  1  0.32517000  0.71841000  0.64690000  1.0 0.1183497777
H  H21  1  0.73497000  0.55873000  0.96000000  1.0 0.1183497777
H  H22  1  0.68595000  0.50745000  0.96208000  1.0 0.1183497777
H  H23  1  0.73332000  0.56188000  0.24408000  1.0 0.102664094
H  H24  1  0.67976000  0.67395000  0.30311000  1.0 0.1068772527
H  H25  1  0.82332000  0.43069000  0.64929000  1.0 0.1183497777
H  H26  1  0.82306000  0.53884000  0.80290000  1.0 0.127752968
H  H27  1  0.96028000  0.67600000  0.19632000  1.0 0.127752968
H  H28  1  0.07151000  0.67827000  0.35310000  1.0 0.1183497777
H  H29  1  0.59873000  0.77497000  0.04000000  1.0 0.1183497777
H  H30  1  0.54537000  0.72387000  0.03792000  1.0 0.1183497777
H  H31  1  0.31780000  0.48924000  0.75592000  1.0 0.1068772527
H  H32  1  0.37084000  0.37665000  0.69689000  1.0 0.1068772527
H  H33  1  0.32332000  0.67403000  0.39263000  1.0 0.1183497777
H  H34  1  0.32306000  0.52016000  0.28422000  1.0 0.127752968
H  H35  1  0.46028000  0.26396000  0.28428000  1.0 0.127752968
H  H36  1  0.57151000  0.21841000  0.39324000  1.0 0.1183497777
H  H37  1  0.09873000  0.05873000  0.82376000  1.0 0.1183497777
H  H38  1  0.04537000  0.00745000  0.82150000  1.0 0.1183497777
H  H39  1  0.81780000  0.06188000  0.82856000  1.0 0.1068772527
H  H40  1  0.87084000  0.17395000  0.99419000  1.0 0.1068772527
H  H41  1  0.28140000  0.93069000  0.60737000  1.0 0.1183497777
H  H42  1  0.23594000  0.03884000  0.71578000  1.0 0.127752968
H  H43  1  0.97968000  0.17600000  0.71572000  1.0 0.127752968
H  H44  1  0.82517000  0.17827000  0.60676000  1.0 0.1183497777
H  H45  1  0.23497000  0.27497000  0.17624000  1.0 0.127752968
H  H46  1  0.18595000  0.22387000  0.17850000  1.0 0.1183497777
H  H47  1  0.23332000  0.98924000  0.17144000  1.0 0.102664094
H  H48  1  0.17976000  0.87665000  0.00581000  1.0 0.1068772527
H  H49  1  0.21860000  0.82597000  0.64929000  1.0 0.1183497777
H  H50  1  0.26406000  0.97984000  0.80290000  1.0 0.127752968
H  H51  1  0.52032000  0.23604000  0.19632000  1.0 0.127752968
H  H52  1  0.67483000  0.28159000  0.35310000  1.0 0.1183497777
H  H53  1  0.26503000  0.44127000  0.04000000  1.0 0.1183497777
H  H54  1  0.31405000  0.49255000  0.03792000  1.0 0.1183497777
H  H55  1  0.26668000  0.43812000  0.75592000  1.0 0.1068772527
H  H56  1  0.32024000  0.32605000  0.69689000  1.0 0.1068772527
H  H57  1  0.17668000  0.56931000  0.35071000  1.0 0.1183497777
H  H58  1  0.17694000  0.46116000  0.19710000  1.0 0.127752968
H  H59  1  0.03972000  0.32400000  0.80368000  1.0 0.127752968
H  H60  1  0.92849000  0.32173000  0.64690000  1.0 0.1183497777
H  H61  1  0.40127000  0.22503000  0.96000000  1.0 0.1183497777
H  H62  1  0.45463000  0.27613000  0.96208000  1.0 0.1183497777
H  H63  1  0.68220000  0.51076000  0.24408000  1.0 0.102664094
H  H64  1  0.62916000  0.62335000  0.30311000  1.0 0.1068772527
C  C1  1  0.63438000  0.63368000  0.76650000  1.0 0.5896267421
C  C2  1  0.56460000  0.56430000  0.62850000  1.0 -0.1067263721
C  C3  1  0.56729000  0.47049000  0.56640000  1.0 0.0607947312
C  C4  1  0.49914000  0.59584000  0.56570000  1.0 0.0607947312
C  C5  1  0.63336000  0.34626000  0.56510000  1.0 -0.0972401358
C  C6  1  0.63362000  0.43782000  0.62980000  1.0 -0.1423803151
C  C7  1  0.49653000  0.69203000  0.62970000  1.0 -0.1423803151
C  C8  1  0.43088000  0.71888000  0.56460000  1.0 -0.0933837855
C  C9  1  0.88354000  0.90664000  0.10330000  1.0 0.102664094
C  C10  1  0.91531000  0.93791000  0.10500000  1.0 -0.3103890032
C  C11  1  0.01930000  0.92270000  0.07060000  1.0 0.2172048632
C  C12  1  0.05090000  0.95830000  0.07320000  1.0 -0.0086351191
C  C13  1  0.02110000  0.89990000  0.98460000  1.0 -0.0086351191
C  C14  1  0.98990000  0.87010000  0.98880000  1.0 0.1964103383
C  C15  1  0.14000000  0.95920000  0.13040000  1.0 -0.1423803151
C  C16  1  0.96590000  0.94990000  0.94400000  1.0 -0.0086351191
C  C17  1  0.09750000  0.86920000  0.99710000  1.0 -0.1272109881
C  C18  1  0.86718000  0.86788000  0.23350000  1.0 0.5896267421
C  C19  1  0.93580000  0.93610000  0.37150000  1.0 -0.1067263721
C  C20  1  0.90409000  0.00089000  0.43360000  1.0 0.0607947312
C  C21  1  0.03014000  0.93344000  0.43430000  1.0 0.0607947312
C  C22  1  0.78116000  0.06826000  0.43490000  1.0 -0.0972401358
C  C23  1  0.80802000  0.00382000  0.37020000  1.0 -0.1423803151
C  C24  1  0.06233000  0.86683000  0.37030000  1.0 -0.1423803151
C  C25  1  0.15428000  0.86628000  0.43540000  1.0 -0.0933837855
C  C26  1  0.80334000  0.78024000  0.89670000  1.0 0.102664094
C  C27  1  0.83291000  0.81031000  0.89500000  1.0 -0.3103890032
C  C28  1  0.85210000  0.94870000  0.92940000  1.0 0.2172048632
C  C29  1  0.88510000  0.97770000  0.92680000  1.0 -0.0043633501
C  C30  1  0.91530000  0.03650000  0.01540000  1.0 -0.0086351191
C  C31  1  0.88130000  0.00110000  0.01120000  1.0 0.1942619361
C  C32  1  0.82880000  0.00960000  0.86960000  1.0 -0.1507091065
C  C33  1  0.00590000  0.02190000  0.05600000  1.0 -0.0155815691
C  C34  1  0.87210000  0.10040000  0.00290000  1.0 -0.1272109881
C  C35  1  0.63282000  0.86632000  0.00070000  1.0 0.5896267421
C  C36  1  0.56420000  0.93570000  0.00030000  1.0 -0.1067263721
C  C37  1  0.59591000  0.02951000  0.09680000  1.0 0.0607947312
C  C38  1  0.46986000  0.90416000  0.90330000  1.0 0.0607947312
C  C39  1  0.71884000  0.15374000  0.28710000  1.0 -0.0972401358
C  C40  1  0.69198000  0.06218000  0.19580000  1.0 -0.1423803151
C  C41  1  0.43767000  0.80797000  0.80450000  1.0 -0.1423803151
C  C42  1  0.34572000  0.78112000  0.71200000  1.0 -0.0933837855
C  C43  1  0.69666000  0.59336000  0.97690000  1.0 0.102664094
C  C44  1  0.66709000  0.56209000  0.97740000  1.0 -0.3103890032
C  C45  1  0.64790000  0.57730000  0.09660000  1.0 0.2172048632
C  C46  1  0.61490000  0.54170000  0.09260000  1.0 -0.0086351191
C  C47  1  0.58470000  0.60010000  0.12120000  1.0 -0.0086351191
C  C48  1  0.61870000  0.62990000  0.11980000  1.0 0.1964103383
C  C49  1  0.67120000  0.54080000  0.18080000  1.0 -0.1507091065
C  C50  1  0.49410000  0.55010000  0.01600000  1.0 -0.0086351191
C  C51  1  0.62790000  0.63080000  0.22830000  1.0 -0.1272109881
C  C52  1  0.86562000  0.63212000  0.99930000  1.0 0.5896267421
C  C53  1  0.93540000  0.56390000  0.99970000  1.0 -0.1067263721
C  C54  1  0.93271000  0.49911000  0.90320000  1.0 0.0607947312
C  C55  1  0.00086000  0.56656000  0.09670000  1.0 0.0607947312
C  C56  1  0.86664000  0.43174000  0.71290000  1.0 -0.0972401358
C  C57  1  0.86638000  0.49618000  0.80420000  1.0 -0.1423803151
C  C58  1  0.00347000  0.63317000  0.19550000  1.0 -0.1423803151
C  C59  1  0.06912000  0.63372000  0.28800000  1.0 -0.0933837855
C  C60  1  0.61646000  0.71976000  0.02310000  1.0 0.102664094
C  C61  1  0.58469000  0.68969000  0.02260000  1.0 -0.3103890032
C  C62  1  0.48070000  0.55130000  0.90340000  1.0 0.2172048632
C  C63  1  0.44910000  0.52230000  0.90740000  1.0 -0.0086351191
C  C64  1  0.47890000  0.46350000  0.87880000  1.0 -0.0086351191
C  C65  1  0.51010000  0.49890000  0.88020000  1.0 0.1964103383
C  C66  1  0.36000000  0.49040000  0.81920000  1.0 -0.1423803151
C  C67  1  0.53410000  0.47810000  0.98400000  1.0 -0.0155815691
C  C68  1  0.40250000  0.39960000  0.77170000  1.0 -0.1272109881
C  C69  1  0.36562000  0.36632000  0.23350000  1.0 0.5896267421
C  C70  1  0.43540000  0.43570000  0.37150000  1.0 -0.1067263721
C  C71  1  0.43271000  0.52951000  0.43360000  1.0 0.0607947312
C  C72  1  0.50086000  0.40416000  0.43430000  1.0 0.0607947312
C  C73  1  0.36664000  0.65374000  0.43490000  1.0 -0.0972401358
C  C74  1  0.36638000  0.56218000  0.37020000  1.0 -0.1423803151
C  C75  1  0.50347000  0.30797000  0.37030000  1.0 -0.1423803151
C  C76  1  0.56912000  0.28112000  0.43540000  1.0 -0.0933837855
C  C77  1  0.11646000  0.09336000  0.89670000  1.0 0.102664094
C  C78  1  0.08469000  0.06209000  0.89500000  1.0 -0.3103890032
C  C79  1  0.98070000  0.07730000  0.92940000  1.0 0.2172048632
C  C80  1  0.94910000  0.04170000  0.92680000  1.0 -0.0086351191
C  C81  1  0.97890000  0.10010000  0.01540000  1.0 -0.0086351191
C  C82  1  0.01010000  0.12990000  0.01120000  1.0 0.1942619361
C  C83  1  0.86000000  0.04080000  0.86960000  1.0 -0.1423803151
C  C84  1  0.03410000  0.05010000  0.05600000  1.0 -0.0086351191
C  C85  1  0.90250000  0.13080000  0.00290000  1.0 -0.1272109881
C  C86  1  0.13282000  0.13212000  0.76650000  1.0 0.5896267421
C  C87  1  0.06420000  0.06390000  0.62850000  1.0 -0.1067263721
C  C88  1  0.09591000  0.99911000  0.56640000  1.0 0.0607947312
C  C89  1  0.96986000  0.06656000  0.56570000  1.0 0.0607947312
C  C90  1  0.21884000  0.93174000  0.56510000  1.0 -0.0972401358
C  C91  1  0.19198000  0.99618000  0.62980000  1.0 -0.1423803151
C  C92  1  0.93767000  0.13317000  0.62970000  1.0 -0.1423803151
C  C93  1  0.84572000  0.13372000  0.56460000  1.0 -0.0933837855
C  C94  1  0.19666000  0.21976000  0.10330000  1.0 0.102664094
C  C95  1  0.16709000  0.18969000  0.10500000  1.0 -0.3103890032
C  C96  1  0.14790000  0.05130000  0.07060000  1.0 0.2172048632
C  C97  1  0.11490000  0.02230000  0.07320000  1.0 -0.0043633501
C  C98  1  0.08470000  0.96350000  0.98460000  1.0 -0.0086351191
C  C99  1  0.11870000  0.99890000  0.98880000  1.0 0.1964103383
C  C100  1  0.17120000  0.99040000  0.13040000  1.0 -0.1423803151
C  C101  1  0.99410000  0.97810000  0.94400000  1.0 -0.0086351191
C  C102  1  0.12790000  0.89960000  0.99710000  1.0 -0.1272109881
C  C103  1  0.36718000  0.13368000  0.99930000  1.0 0.5896267421
C  C104  1  0.43580000  0.06430000  0.99970000  1.0 -0.1067263721
C  C105  1  0.40409000  0.97049000  0.90320000  1.0 0.0607947312
C  C106  1  0.53014000  0.09584000  0.09670000  1.0 0.0607947312
C  C107  1  0.28116000  0.84626000  0.71290000  1.0 -0.0972401358
C  C108  1  0.30802000  0.93782000  0.80420000  1.0 -0.1423803151
C  C109  1  0.56233000  0.19203000  0.19550000  1.0 -0.1423803151
C  C110  1  0.65428000  0.21888000  0.28800000  1.0 -0.0933837855
C  C111  1  0.30334000  0.40664000  0.02310000  1.0 0.102664094
C  C112  1  0.33291000  0.43791000  0.02260000  1.0 -0.3103890032
C  C113  1  0.35210000  0.42270000  0.90340000  1.0 0.2172048632
C  C114  1  0.38510000  0.45830000  0.90740000  1.0 -0.0086351191
C  C115  1  0.41530000  0.39990000  0.87880000  1.0 -0.0086351191
C  C116  1  0.38130000  0.37010000  0.88020000  1.0 0.1964103383
C  C117  1  0.32880000  0.45920000  0.81920000  1.0 -0.1423803151
C  C118  1  0.50590000  0.44990000  0.98400000  1.0 -0.0155815691
C  C119  1  0.37210000  0.36920000  0.77170000  1.0 -0.1272109881
C  C120  1  0.13438000  0.36788000  0.00070000  1.0 0.5896267421
C  C121  1  0.06460000  0.43610000  0.00030000  1.0 -0.1067263721
C  C122  1  0.06729000  0.50089000  0.09680000  1.0 0.0607947312
C  C123  1  0.99914000  0.43344000  0.90330000  1.0 0.0607947312
C  C124  1  0.13336000  0.56826000  0.28710000  1.0 -0.0972401358
C  C125  1  0.13362000  0.50382000  0.19580000  1.0 -0.1423803151
C  C126  1  0.99653000  0.36683000  0.80450000  1.0 -0.1423803151
C  C127  1  0.93088000  0.36628000  0.71200000  1.0 -0.0933837855
C  C128  1  0.38354000  0.28024000  0.97690000  1.0 0.102664094
C  C129  1  0.41531000  0.31031000  0.97740000  1.0 -0.3103890032
C  C130  1  0.51930000  0.44870000  0.09660000  1.0 0.2172048632
C  C131  1  0.55090000  0.47770000  0.09260000  1.0 -0.0086351191
C  C132  1  0.52110000  0.53650000  0.12120000  1.0 -0.0086351191
C  C133  1  0.48990000  0.50110000  0.11980000  1.0 0.1964103383
C  C134  1  0.64000000  0.50960000  0.18080000  1.0 -0.1507091065
C  C135  1  0.46590000  0.52190000  0.01600000  1.0 -0.0086351191
C  C136  1  0.59750000  0.60040000  0.22830000  1.0 -0.1272109881
C  C137  1  0.88961000  0.88961000  0.00000000  1.0 0.2172048632
C  C138  1  0.98370000  0.98370000  0.00000000  1.0 0.0607947312
C  C139  1  0.61039000  0.61039000  0.00000000  1.0 0.2117566791
C  C140  1  0.51630000  0.51630000  0.00000000  1.0 0.0607947312
C  C141  1  0.11039000  0.11039000  0.00000000  1.0 0.2117566791
C  C142  1  0.01630000  0.01630000  0.00000000  1.0 0.0607947312
C  C143  1  0.38961000  0.38961000  0.00000000  1.0 0.2117566791
C  C144  1  0.48370000  0.48370000  0.00000000  1.0 0.0607947312
N  N1  1  0.90140000  0.88540000  0.94600000  1.0 -0.0933837855
N  N2  1  0.93940000  0.95540000  0.05400000  1.0 -0.0933837855
N  N3  1  0.56060000  0.61460000  0.01600000  1.0 -0.0933837855
N  N4  1  0.59860000  0.54460000  0.98400000  1.0 -0.0933837855
N  N5  1  0.09860000  0.11460000  0.05400000  1.0 -0.0972401358
N  N6  1  0.06060000  0.04460000  0.94600000  1.0 -0.0933837855
N  N7  1  0.43940000  0.38540000  0.98400000  1.0 -0.0933837855
N  N8  1  0.40140000  0.45540000  0.01600000  1.0 -0.0972401358
N  N9  1  0.92130000  0.92130000  0.00000000  1.0 0.0722038922
N  N10  1  0.82751000  0.82751000  0.00000000  1.0 -0.2097999402
N  N11  1  0.57870000  0.57870000  0.00000000  1.0 0.0607947312
N  N12  1  0.67249000  0.67249000  0.00000000  1.0 -0.2097999402
N  N13  1  0.07870000  0.07870000  0.00000000  1.0 0.0722038922
N  N14  1  0.17249000  0.17249000  0.00000000  1.0 -0.2097999402
N  N15  1  0.42130000  0.42130000  0.00000000  1.0 0.0722038922
N  N16  1  0.32751000  0.32751000  0.00000000  1.0 -0.2097999402
O  O1  1  0.70081000  0.66653000  0.81838000  1.0 -0.5232635014
O  O2  1  0.61994000  0.65351000  0.81989000  1.0 -0.5306097292
O  O3  1  0.02990000  0.82010000  0.00920000  1.0 -0.1563972899
O  O4  1  0.06580000  0.89330000  0.11930000  1.0 -0.1563972899
O  O5  1  0.84815000  0.88243000  0.18162000  1.0 -0.5232635014
O  O6  1  0.83362000  0.80005000  0.18011000  1.0 -0.5306097292
O  O7  1  0.81090000  0.02070000  0.99080000  1.0 -0.1563972899
O  O8  1  0.77400000  0.94650000  0.88070000  1.0 -0.1563972899
O  O9  1  0.65185000  0.83347000  0.03428000  1.0 -0.5232635014
O  O10  1  0.66638000  0.84649000  0.96643000  1.0 -0.5306097292
O  O11  1  0.68910000  0.67990000  0.20980000  1.0 -0.1507091065
O  O12  1  0.72600000  0.60670000  0.17250000  1.0 -0.1563972899
O  O13  1  0.79919000  0.61757000  0.96572000  1.0 -0.5232635014
O  O14  1  0.88006000  0.69995000  0.03357000  1.0 -0.5306097292
O  O15  1  0.47010000  0.47930000  0.79020000  1.0 -0.1507091065
O  O16  1  0.43420000  0.55350000  0.82750000  1.0 -0.1563972899
O  O17  1  0.29919000  0.33347000  0.18162000  1.0 -0.5232635014
O  O18  1  0.38006000  0.34649000  0.18011000  1.0 -0.5306097292
O  O19  1  0.97010000  0.17990000  0.99080000  1.0 -0.1563972899
O  O20  1  0.93420000  0.10670000  0.88070000  1.0 -0.1563972899
O  O21  1  0.15185000  0.11757000  0.81838000  1.0 -0.5232635014
O  O22  1  0.16638000  0.19995000  0.81989000  1.0 -0.5306097292
O  O23  1  0.18910000  0.97930000  0.00920000  1.0 -0.1507091065
O  O24  1  0.22600000  0.05350000  0.11930000  1.0 -0.1563972899
O  O25  1  0.34815000  0.16653000  0.96572000  1.0 -0.5232635014
O  O26  1  0.33362000  0.15351000  0.03357000  1.0 -0.5306097292
O  O27  1  0.31090000  0.32010000  0.79020000  1.0 -0.1507091065
O  O28  1  0.27400000  0.39330000  0.82750000  1.0 -0.1563972899
O  O29  1  0.20081000  0.38243000  0.03428000  1.0 -0.5232635014
O  O30  1  0.11994000  0.30005000  0.96643000  1.0 -0.5306097292
O  O31  1  0.52990000  0.52070000  0.20980000  1.0 -0.1507091065
O  O32  1  0.56580000  0.44650000  0.17250000  1.0 -0.1507091065
