# DDEC6 charges by PACMAN v1.1 (https://github.com/mtap-research/PACMAN-charge/)
data_HUYLUL_FSR_pacman
_symmetry_space_group_name_H-M   'P 1'
_cell_length_a   15.38070000
_cell_length_b   15.38070000
_cell_length_c   15.31050000
_cell_angle_alpha   90.00000000
_cell_angle_beta   90.00000000
_cell_angle_gamma   120.00000000
_symmetry_Int_Tables_number   1
_chemical_formula_structural   Eu2Mg3H42C42(NO5)6
_chemical_formula_sum   'Eu4 Mg6 H84 C84 N12 O60'
_cell_volume   3136.69439738
_cell_formula_units_Z   2
loop_
 _symmetry_equiv_pos_site_id
 _symmetry_equiv_pos_as_xyz
  1  'x, y, z'
loop_
 _atom_site_type_symbol
 _atom_site_label
 _atom_site_symmetry_multiplicity
 _atom_site_fract_x
 _atom_site_fract_y
 _atom_site_fract_z
 _atom_site_occupancy
 _atom_site_charge
Eu  Eu1  1  0.66666667  0.33333333  0.25000000  1.0 1.8530736726
Eu  Eu2  1  0.33333333  0.66666667  0.25000000  1.0 1.8530736726
Eu  Eu3  1  0.33333333  0.66666667  0.75000000  1.0 1.8530736726
Eu  Eu4  1  0.66666667  0.33333333  0.75000000  1.0 1.8530736726
Mg  Mg1  1  0.00000000  0.50000000  0.00000000  1.0 1.2716751954
Mg  Mg2  1  0.50000000  0.50000000  0.00000000  1.0 1.2716751954
Mg  Mg3  1  0.50000000  0.00000000  0.00000000  1.0 1.2716751954
Mg  Mg4  1  0.50000000  0.00000000  0.50000000  1.0 1.2716751954
Mg  Mg5  1  0.50000000  0.50000000  0.50000000  1.0 1.2716751954
Mg  Mg6  1  0.00000000  0.50000000  0.50000000  1.0 1.2716751954
H  H1  1  0.94750000  0.71082000  0.15562000  1.0 0.1332913648
H  H2  1  0.11886000  0.68798000  0.98278000  1.0 0.1556436722
H  H3  1  0.17337000  0.64553000  0.96226000  1.0 0.1868272485
H  H4  1  0.28918000  0.23668000  0.15562000  1.0 0.1332913648
H  H5  1  0.31202000  0.43088000  0.98278000  1.0 0.1556436722
H  H6  1  0.35447000  0.52784000  0.96226000  1.0 0.1868272485
H  H7  1  0.76332000  0.05250000  0.15562000  1.0 0.1332913648
H  H8  1  0.56912000  0.88114000  0.98278000  1.0 0.1556436722
H  H9  1  0.47216000  0.82663000  0.96226000  1.0 0.1868272485
H  H10  1  0.05250000  0.28918000  0.15562000  1.0 0.1332913648
H  H11  1  0.88114000  0.31202000  0.98278000  1.0 0.1556436722
H  H12  1  0.82663000  0.35447000  0.96226000  1.0 0.1868272485
H  H13  1  0.71082000  0.76332000  0.15562000  1.0 0.1332913648
H  H14  1  0.68798000  0.56912000  0.98278000  1.0 0.1556436722
H  H15  1  0.64553000  0.47216000  0.96226000  1.0 0.1868272485
H  H16  1  0.23668000  0.94750000  0.15562000  1.0 0.1332913648
H  H17  1  0.43088000  0.11886000  0.98278000  1.0 0.1542580884
H  H18  1  0.52784000  0.17337000  0.96226000  1.0 0.1868272485
H  H19  1  0.71082000  0.94750000  0.34438000  1.0 0.1332913648
H  H20  1  0.68798000  0.11886000  0.51722000  1.0 0.1542580884
H  H21  1  0.64553000  0.17337000  0.53774000  1.0 0.1868272485
H  H22  1  0.23668000  0.28918000  0.34438000  1.0 0.1332913648
H  H23  1  0.43088000  0.31202000  0.51722000  1.0 0.1542580884
H  H24  1  0.52784000  0.35447000  0.53774000  1.0 0.1868272485
H  H25  1  0.05250000  0.76332000  0.34438000  1.0 0.1332913648
H  H26  1  0.88114000  0.56912000  0.51722000  1.0 0.1556436722
H  H27  1  0.82663000  0.47216000  0.53774000  1.0 0.1868272485
H  H28  1  0.28918000  0.05250000  0.34438000  1.0 0.1332913648
H  H29  1  0.31202000  0.88114000  0.51722000  1.0 0.1556436722
H  H30  1  0.35447000  0.82663000  0.53774000  1.0 0.1868272485
H  H31  1  0.76332000  0.71082000  0.34438000  1.0 0.1332913648
H  H32  1  0.56912000  0.68798000  0.51722000  1.0 0.1556436722
H  H33  1  0.47216000  0.64553000  0.53774000  1.0 0.1868272485
H  H34  1  0.94750000  0.23668000  0.34438000  1.0 0.1332913648
H  H35  1  0.11886000  0.43088000  0.51722000  1.0 0.1542580884
H  H36  1  0.17337000  0.52784000  0.53774000  1.0 0.1868272485
H  H37  1  0.05250000  0.28918000  0.84438000  1.0 0.1332913648
H  H38  1  0.88114000  0.31202000  0.01722000  1.0 0.1556436722
H  H39  1  0.82663000  0.35447000  0.03774000  1.0 0.1868272485
H  H40  1  0.71082000  0.76332000  0.84438000  1.0 0.1332913648
H  H41  1  0.68798000  0.56912000  0.01722000  1.0 0.1556436722
H  H42  1  0.64553000  0.47216000  0.03774000  1.0 0.1868272485
H  H43  1  0.23668000  0.94750000  0.84438000  1.0 0.1332913648
H  H44  1  0.43088000  0.11886000  0.01722000  1.0 0.1542580884
H  H45  1  0.52784000  0.17337000  0.03774000  1.0 0.1868272485
H  H46  1  0.94750000  0.71082000  0.84438000  1.0 0.1332913648
H  H47  1  0.11886000  0.68798000  0.01722000  1.0 0.1556436722
H  H48  1  0.17337000  0.64553000  0.03774000  1.0 0.1868272485
H  H49  1  0.28918000  0.23668000  0.84438000  1.0 0.1332913648
H  H50  1  0.31202000  0.43088000  0.01722000  1.0 0.1556436722
H  H51  1  0.35447000  0.52784000  0.03774000  1.0 0.1868272485
H  H52  1  0.76332000  0.05250000  0.84438000  1.0 0.1332913648
H  H53  1  0.56912000  0.88114000  0.01722000  1.0 0.1556436722
H  H54  1  0.47216000  0.82663000  0.03774000  1.0 0.1868272485
H  H55  1  0.28918000  0.05250000  0.65562000  1.0 0.1332913648
H  H56  1  0.31202000  0.88114000  0.48278000  1.0 0.1556436722
H  H57  1  0.35447000  0.82663000  0.46226000  1.0 0.1868272485
H  H58  1  0.76332000  0.71082000  0.65562000  1.0 0.1332913648
H  H59  1  0.56912000  0.68798000  0.48278000  1.0 0.1556436722
H  H60  1  0.47216000  0.64553000  0.46226000  1.0 0.1868272485
H  H61  1  0.94750000  0.23668000  0.65562000  1.0 0.1332913648
H  H62  1  0.11886000  0.43088000  0.48278000  1.0 0.1556436722
H  H63  1  0.17337000  0.52784000  0.46226000  1.0 0.1868272485
H  H64  1  0.71082000  0.94750000  0.65562000  1.0 0.1332913648
H  H65  1  0.68798000  0.11886000  0.48278000  1.0 0.1556436722
H  H66  1  0.64553000  0.17337000  0.46226000  1.0 0.1868272485
H  H67  1  0.23668000  0.28918000  0.65562000  1.0 0.1332913648
H  H68  1  0.43088000  0.31202000  0.48278000  1.0 0.1556436722
H  H69  1  0.52784000  0.35447000  0.46226000  1.0 0.1868272485
H  H70  1  0.05250000  0.76332000  0.65562000  1.0 0.1332913648
H  H71  1  0.88114000  0.56912000  0.48278000  1.0 0.1556436722
H  H72  1  0.82663000  0.47216000  0.46226000  1.0 0.1868272485
H  H73  1  0.90023000  0.80046000  0.25000000  1.0 0.1096660415
H  H74  1  0.19954000  0.09977000  0.25000000  1.0 0.1096660415
H  H75  1  0.90023000  0.09977000  0.25000000  1.0 0.1096660415
H  H76  1  0.09977000  0.19954000  0.25000000  1.0 0.1096660415
H  H77  1  0.80046000  0.90023000  0.25000000  1.0 0.1096660415
H  H78  1  0.09977000  0.90023000  0.25000000  1.0 0.1096660415
H  H79  1  0.09977000  0.19954000  0.75000000  1.0 0.1096660415
H  H80  1  0.80046000  0.90023000  0.75000000  1.0 0.1096660415
H  H81  1  0.09977000  0.90023000  0.75000000  1.0 0.1096660415
H  H82  1  0.90023000  0.80046000  0.75000000  1.0 0.1096660415
H  H83  1  0.19954000  0.09977000  0.75000000  1.0 0.1096660415
H  H84  1  0.90023000  0.09977000  0.75000000  1.0 0.1096660415
C  C1  1  0.83910000  0.57300000  0.19640000  1.0 0.1096660415
C  C2  1  0.89250000  0.67640000  0.19440000  1.0 -0.1408507366
C  C3  1  0.86260000  0.50810000  0.13950000  1.0 0.5603840784
C  C4  1  0.42700000  0.26610000  0.19640000  1.0 0.1096660415
C  C5  1  0.32360000  0.21610000  0.19440000  1.0 -0.1408507366
C  C6  1  0.49190000  0.35450000  0.13950000  1.0 0.5603840784
C  C7  1  0.73390000  0.16090000  0.19640000  1.0 0.1096660415
C  C8  1  0.78390000  0.10750000  0.19440000  1.0 -0.1408507366
C  C9  1  0.64550000  0.13740000  0.13950000  1.0 0.5603840784
C  C10  1  0.16090000  0.42700000  0.19640000  1.0 0.1096660415
C  C11  1  0.10750000  0.32360000  0.19440000  1.0 -0.1408507366
C  C12  1  0.13740000  0.49190000  0.13950000  1.0 0.5603840784
C  C13  1  0.57300000  0.73390000  0.19640000  1.0 0.1096660415
C  C14  1  0.67640000  0.78390000  0.19440000  1.0 -0.1408507366
C  C15  1  0.50810000  0.64550000  0.13950000  1.0 0.5603840784
C  C16  1  0.26610000  0.83910000  0.19640000  1.0 0.1096660415
C  C17  1  0.21610000  0.89250000  0.19440000  1.0 -0.1408507366
C  C18  1  0.35450000  0.86260000  0.13950000  1.0 0.5603840784
C  C19  1  0.57300000  0.83910000  0.30360000  1.0 0.1096660415
C  C20  1  0.67640000  0.89250000  0.30560000  1.0 -0.1408507366
C  C21  1  0.50810000  0.86260000  0.36050000  1.0 0.5603840784
C  C22  1  0.26610000  0.42700000  0.30360000  1.0 0.1096660415
C  C23  1  0.21610000  0.32360000  0.30560000  1.0 -0.1408507366
C  C24  1  0.35450000  0.49190000  0.36050000  1.0 0.5603840784
C  C25  1  0.16090000  0.73390000  0.30360000  1.0 0.1096660415
C  C26  1  0.10750000  0.78390000  0.30560000  1.0 -0.1408507366
C  C27  1  0.13740000  0.64550000  0.36050000  1.0 0.5603840784
C  C28  1  0.42700000  0.16090000  0.30360000  1.0 0.1096660415
C  C29  1  0.32360000  0.10750000  0.30560000  1.0 -0.1408507366
C  C30  1  0.49190000  0.13740000  0.36050000  1.0 0.5603840784
C  C31  1  0.73390000  0.57300000  0.30360000  1.0 0.1096660415
C  C32  1  0.78390000  0.67640000  0.30560000  1.0 -0.1408507366
C  C33  1  0.64550000  0.50810000  0.36050000  1.0 0.5603840784
C  C34  1  0.83910000  0.26610000  0.30360000  1.0 0.1096660415
C  C35  1  0.89250000  0.21610000  0.30560000  1.0 -0.1408507366
C  C36  1  0.86260000  0.35450000  0.36050000  1.0 0.5603840784
C  C37  1  0.16090000  0.42700000  0.80360000  1.0 0.1096660415
C  C38  1  0.10750000  0.32360000  0.80560000  1.0 -0.1408507366
C  C39  1  0.13740000  0.49190000  0.86050000  1.0 0.5603840784
C  C40  1  0.57300000  0.73390000  0.80360000  1.0 0.1096660415
C  C41  1  0.67640000  0.78390000  0.80560000  1.0 -0.1408507366
C  C42  1  0.50810000  0.64550000  0.86050000  1.0 0.5603840784
C  C43  1  0.26610000  0.83910000  0.80360000  1.0 0.1096660415
C  C44  1  0.21610000  0.89250000  0.80560000  1.0 -0.1408507366
C  C45  1  0.35450000  0.86260000  0.86050000  1.0 0.5603840784
C  C46  1  0.83910000  0.57300000  0.80360000  1.0 0.1096660415
C  C47  1  0.89250000  0.67640000  0.80560000  1.0 -0.1408507366
C  C48  1  0.86260000  0.50810000  0.86050000  1.0 0.5603840784
C  C49  1  0.42700000  0.26610000  0.80360000  1.0 0.1096660415
C  C50  1  0.32360000  0.21610000  0.80560000  1.0 -0.1408507366
C  C51  1  0.49190000  0.35450000  0.86050000  1.0 0.5603840784
C  C52  1  0.73390000  0.16090000  0.80360000  1.0 0.1096660415
C  C53  1  0.78390000  0.10750000  0.80560000  1.0 -0.1408507366
C  C54  1  0.64550000  0.13740000  0.86050000  1.0 0.5603840784
C  C55  1  0.42700000  0.16090000  0.69640000  1.0 0.1096660415
C  C56  1  0.32360000  0.10750000  0.69440000  1.0 -0.1408507366
C  C57  1  0.49190000  0.13740000  0.63950000  1.0 0.5603840784
C  C58  1  0.73390000  0.57300000  0.69640000  1.0 0.1096660415
C  C59  1  0.78390000  0.67640000  0.69440000  1.0 -0.1408507366
C  C60  1  0.64550000  0.50810000  0.63950000  1.0 0.5603840784
C  C61  1  0.83910000  0.26610000  0.69640000  1.0 0.1096660415
C  C62  1  0.89250000  0.21610000  0.69440000  1.0 -0.1408507366
C  C63  1  0.86260000  0.35450000  0.63950000  1.0 0.5603840784
C  C64  1  0.57300000  0.83910000  0.69640000  1.0 0.1096660415
C  C65  1  0.67640000  0.89250000  0.69440000  1.0 -0.1408507366
C  C66  1  0.50810000  0.86260000  0.63950000  1.0 0.5603840784
C  C67  1  0.26610000  0.42700000  0.69640000  1.0 0.1096660415
C  C68  1  0.21610000  0.32360000  0.69440000  1.0 -0.1408507366
C  C69  1  0.35450000  0.49190000  0.63950000  1.0 0.5603840784
C  C70  1  0.16090000  0.73390000  0.69640000  1.0 0.1096660415
C  C71  1  0.10750000  0.78390000  0.69440000  1.0 -0.1408507366
C  C72  1  0.13740000  0.64550000  0.63950000  1.0 0.5603840784
C  C73  1  0.86455000  0.72910000  0.25000000  1.0 -0.0615839686
C  C74  1  0.27090000  0.13545000  0.25000000  1.0 -0.0615839686
C  C75  1  0.86455000  0.13545000  0.25000000  1.0 -0.0615839686
C  C76  1  0.13545000  0.27090000  0.25000000  1.0 -0.0615839686
C  C77  1  0.72910000  0.86455000  0.25000000  1.0 -0.0615839686
C  C78  1  0.13545000  0.86455000  0.25000000  1.0 -0.0615839686
C  C79  1  0.13545000  0.27090000  0.75000000  1.0 -0.0615839686
C  C80  1  0.72910000  0.86455000  0.75000000  1.0 -0.0615839686
C  C81  1  0.13545000  0.86455000  0.75000000  1.0 -0.0615839686
C  C82  1  0.86455000  0.72910000  0.75000000  1.0 -0.0615839686
C  C83  1  0.27090000  0.13545000  0.75000000  1.0 -0.0615839686
C  C84  1  0.86455000  0.13545000  0.75000000  1.0 -0.0615839686
N  N1  1  0.76110000  0.52220000  0.25000000  1.0 -0.3637046827
N  N2  1  0.47780000  0.23890000  0.25000000  1.0 -0.3637046827
N  N3  1  0.76110000  0.23890000  0.25000000  1.0 -0.3637046827
N  N4  1  0.23890000  0.47780000  0.25000000  1.0 -0.3637046827
N  N5  1  0.52220000  0.76110000  0.25000000  1.0 -0.3637046827
N  N6  1  0.23890000  0.76110000  0.25000000  1.0 -0.3637046827
N  N7  1  0.23890000  0.47780000  0.75000000  1.0 -0.3637046827
N  N8  1  0.52220000  0.76110000  0.75000000  1.0 -0.3637046827
N  N9  1  0.23890000  0.76110000  0.75000000  1.0 -0.3637046827
N  N10  1  0.76110000  0.52220000  0.75000000  1.0 -0.3637046827
N  N11  1  0.47780000  0.23890000  0.75000000  1.0 -0.3637046827
N  N12  1  0.76110000  0.23890000  0.75000000  1.0 -0.3637046827
O  O1  1  0.93940000  0.55030000  0.09260000  1.0 -0.6101985736
O  O2  1  0.80190000  0.41510000  0.14270000  1.0 -0.5958877567
O  O3  1  0.44970000  0.38910000  0.09260000  1.0 -0.6101985736
O  O4  1  0.58490000  0.38680000  0.14270000  1.0 -0.5958877567
O  O5  1  0.61090000  0.06060000  0.09260000  1.0 -0.6101985736
O  O6  1  0.61320000  0.19810000  0.14270000  1.0 -0.5958877567
O  O7  1  0.06060000  0.44970000  0.09260000  1.0 -0.6101985736
O  O8  1  0.19810000  0.58490000  0.14270000  1.0 -0.5958877567
O  O9  1  0.55030000  0.61090000  0.09260000  1.0 -0.6101985736
O  O10  1  0.41510000  0.61320000  0.14270000  1.0 -0.5958877567
O  O11  1  0.38910000  0.93940000  0.09260000  1.0 -0.6101985736
O  O12  1  0.38680000  0.80190000  0.14270000  1.0 -0.5958877567
O  O13  1  0.55030000  0.93940000  0.40740000  1.0 -0.6101985736
O  O14  1  0.41510000  0.80190000  0.35730000  1.0 -0.5958877567
O  O15  1  0.38910000  0.44970000  0.40740000  1.0 -0.6101985736
O  O16  1  0.38680000  0.58490000  0.35730000  1.0 -0.5958877567
O  O17  1  0.06060000  0.61090000  0.40740000  1.0 -0.6101985736
O  O18  1  0.19810000  0.61320000  0.35730000  1.0 -0.5958877567
O  O19  1  0.44970000  0.06060000  0.40740000  1.0 -0.6101985736
O  O20  1  0.58490000  0.19810000  0.35730000  1.0 -0.5958877567
O  O21  1  0.61090000  0.55030000  0.40740000  1.0 -0.6101985736
O  O22  1  0.61320000  0.41510000  0.35730000  1.0 -0.5958877567
O  O23  1  0.93940000  0.38910000  0.40740000  1.0 -0.6101985736
O  O24  1  0.80190000  0.38680000  0.35730000  1.0 -0.5958877567
O  O25  1  0.06060000  0.44970000  0.90740000  1.0 -0.6101985736
O  O26  1  0.19810000  0.58490000  0.85730000  1.0 -0.5958877567
O  O27  1  0.55030000  0.61090000  0.90740000  1.0 -0.6101985736
O  O28  1  0.41510000  0.61320000  0.85730000  1.0 -0.5958877567
O  O29  1  0.38910000  0.93940000  0.90740000  1.0 -0.6101985736
O  O30  1  0.38680000  0.80190000  0.85730000  1.0 -0.5958877567
O  O31  1  0.93940000  0.55030000  0.90740000  1.0 -0.6101985736
O  O32  1  0.80190000  0.41510000  0.85730000  1.0 -0.5958877567
O  O33  1  0.44970000  0.38910000  0.90740000  1.0 -0.6101985736
O  O34  1  0.58490000  0.38680000  0.85730000  1.0 -0.5958877567
O  O35  1  0.61090000  0.06060000  0.90740000  1.0 -0.6101985736
O  O36  1  0.61320000  0.19810000  0.85730000  1.0 -0.5958877567
O  O37  1  0.44970000  0.06060000  0.59260000  1.0 -0.6101985736
O  O38  1  0.58490000  0.19810000  0.64270000  1.0 -0.5958877567
O  O39  1  0.61090000  0.55030000  0.59260000  1.0 -0.6101985736
O  O40  1  0.61320000  0.41510000  0.64270000  1.0 -0.5958877567
O  O41  1  0.93940000  0.38910000  0.59260000  1.0 -0.6101985736
O  O42  1  0.80190000  0.38680000  0.64270000  1.0 -0.5958877567
O  O43  1  0.55030000  0.93940000  0.59260000  1.0 -0.6101985736
O  O44  1  0.41510000  0.80190000  0.64270000  1.0 -0.5958877567
O  O45  1  0.38910000  0.44970000  0.59260000  1.0 -0.6101985736
O  O46  1  0.38680000  0.58490000  0.64270000  1.0 -0.5958877567
O  O47  1  0.06060000  0.61090000  0.59260000  1.0 -0.6101985736
O  O48  1  0.19810000  0.61320000  0.64270000  1.0 -0.5958877567
O  O49  1  0.13160000  0.64300000  0.00000000  1.0 -0.5356936592
O  O50  1  0.35700000  0.48860000  0.00000000  1.0 -0.5356936592
O  O51  1  0.51140000  0.86840000  0.00000000  1.0 -0.5344654658
O  O52  1  0.86840000  0.35700000  0.00000000  1.0 -0.5344654658
O  O53  1  0.64300000  0.51140000  0.00000000  1.0 -0.5344654658
O  O54  1  0.48860000  0.13160000  0.00000000  1.0 -0.5356936592
O  O55  1  0.64300000  0.13160000  0.50000000  1.0 -0.5356936592
O  O56  1  0.48860000  0.35700000  0.50000000  1.0 -0.5356936592
O  O57  1  0.86840000  0.51140000  0.50000000  1.0 -0.5344654658
O  O58  1  0.35700000  0.86840000  0.50000000  1.0 -0.5344654658
O  O59  1  0.51140000  0.64300000  0.50000000  1.0 -0.5344654658
O  O60  1  0.13160000  0.48860000  0.50000000  1.0 -0.5356936592
