# DDEC6 charges by PACMAN v1.1 (https://github.com/mtap-research/PACMAN-charge/)
data_HUYMAS_ASR_pacman
_symmetry_space_group_name_H-M   'P 1'
_cell_length_a   15.26910000
_cell_length_b   15.26910000
_cell_length_c   15.41830000
_cell_angle_alpha   90.00000000
_cell_angle_beta   90.00000000
_cell_angle_gamma   120.00000000
_symmetry_Int_Tables_number   1
_chemical_formula_structural   Tb2Mg3H18C42(NO4)6
_chemical_formula_sum   'Tb4 Mg6 H36 C84 N12 O48'
_cell_volume   3113.10667111
_cell_formula_units_Z   2
loop_
 _symmetry_equiv_pos_site_id
 _symmetry_equiv_pos_as_xyz
  1  'x, y, z'
loop_
 _atom_site_type_symbol
 _atom_site_label
 _atom_site_symmetry_multiplicity
 _atom_site_fract_x
 _atom_site_fract_y
 _atom_site_fract_z
 _atom_site_occupancy
 _atom_site_charge
Tb  Tb1  1  0.66666667  0.33333333  0.25000000  1.0 1.818865949
Tb  Tb2  1  0.33333333  0.66666667  0.25000000  1.0 1.818865949
Tb  Tb3  1  0.33333333  0.66666667  0.75000000  1.0 1.818865949
Tb  Tb4  1  0.66666667  0.33333333  0.75000000  1.0 1.818865949
Mg  Mg1  1  0.00000000  0.50000000  0.00000000  1.0 1.3898311695
Mg  Mg2  1  0.50000000  0.50000000  0.00000000  1.0 1.3898311695
Mg  Mg3  1  0.50000000  0.00000000  0.00000000  1.0 1.3898311695
Mg  Mg4  1  0.50000000  0.00000000  0.50000000  1.0 1.3898311695
Mg  Mg5  1  0.50000000  0.50000000  0.50000000  1.0 1.3898311695
Mg  Mg6  1  0.00000000  0.50000000  0.50000000  1.0 1.3898311695
H  H1  1  0.94771000  0.71203000  0.15516000  1.0 0.1306260321
H  H2  1  0.28797000  0.23568000  0.15516000  1.0 0.1306260321
H  H3  1  0.76432000  0.05229000  0.15516000  1.0 0.1306260321
H  H4  1  0.05229000  0.28797000  0.15516000  1.0 0.1306260321
H  H5  1  0.71203000  0.76432000  0.15516000  1.0 0.1306260321
H  H6  1  0.23568000  0.94771000  0.15516000  1.0 0.1306260321
H  H7  1  0.71203000  0.94771000  0.34484000  1.0 0.1306260321
H  H8  1  0.23568000  0.28797000  0.34484000  1.0 0.1306260321
H  H9  1  0.05229000  0.76432000  0.34484000  1.0 0.1306260321
H  H10  1  0.28797000  0.05229000  0.34484000  1.0 0.1306260321
H  H11  1  0.76432000  0.71203000  0.34484000  1.0 0.1306260321
H  H12  1  0.94771000  0.23568000  0.34484000  1.0 0.1306260321
H  H13  1  0.05229000  0.28797000  0.84484000  1.0 0.1306260321
H  H14  1  0.71203000  0.76432000  0.84484000  1.0 0.1306260321
H  H15  1  0.23568000  0.94771000  0.84484000  1.0 0.1306260321
H  H16  1  0.94771000  0.71203000  0.84484000  1.0 0.1306260321
H  H17  1  0.28797000  0.23568000  0.84484000  1.0 0.1306260321
H  H18  1  0.76432000  0.05229000  0.84484000  1.0 0.1306260321
H  H19  1  0.28797000  0.05229000  0.65516000  1.0 0.1306260321
H  H20  1  0.76432000  0.71203000  0.65516000  1.0 0.1306260321
H  H21  1  0.94771000  0.23568000  0.65516000  1.0 0.1306260321
H  H22  1  0.71203000  0.94771000  0.65516000  1.0 0.1306260321
H  H23  1  0.23568000  0.28797000  0.65516000  1.0 0.1306260321
H  H24  1  0.05229000  0.76432000  0.65516000  1.0 0.1306260321
H  H25  1  0.90116000  0.80231000  0.25000000  1.0 0.1042793557
H  H26  1  0.19769000  0.09885000  0.25000000  1.0 0.1042793557
H  H27  1  0.90116000  0.09885000  0.25000000  1.0 0.1042793557
H  H28  1  0.09885000  0.19769000  0.25000000  1.0 0.1042793557
H  H29  1  0.80231000  0.90116000  0.25000000  1.0 0.1042793557
H  H30  1  0.09884000  0.90116000  0.25000000  1.0 0.1042793557
H  H31  1  0.09885000  0.19769000  0.75000000  1.0 0.1042793557
H  H32  1  0.80231000  0.90116000  0.75000000  1.0 0.1042793557
H  H33  1  0.09884000  0.90116000  0.75000000  1.0 0.1042793557
H  H34  1  0.90116000  0.80231000  0.75000000  1.0 0.1042793557
H  H35  1  0.19769000  0.09885000  0.75000000  1.0 0.1042793557
H  H36  1  0.90116000  0.09885000  0.75000000  1.0 0.1042793557
C  C1  1  0.83900000  0.57290000  0.19630000  1.0 0.1306260321
C  C2  1  0.89280000  0.67730000  0.19420000  1.0 -0.132042589
C  C3  1  0.86200000  0.50730000  0.13900000  1.0 0.5892350912
C  C4  1  0.42710000  0.26610000  0.19630000  1.0 0.1306260321
C  C5  1  0.32270000  0.21550000  0.19420000  1.0 -0.132042589
C  C6  1  0.49270000  0.35470000  0.13900000  1.0 0.5892350912
C  C7  1  0.73390000  0.16100000  0.19630000  1.0 0.1306260321
C  C8  1  0.78450000  0.10720000  0.19420000  1.0 -0.132042589
C  C9  1  0.64530000  0.13800000  0.13900000  1.0 0.5892350912
C  C10  1  0.16100000  0.42710000  0.19630000  1.0 0.1306260321
C  C11  1  0.10720000  0.32270000  0.19420000  1.0 -0.132042589
C  C12  1  0.13800000  0.49270000  0.13900000  1.0 0.5892350912
C  C13  1  0.57290000  0.73390000  0.19630000  1.0 0.1306260321
C  C14  1  0.67730000  0.78450000  0.19420000  1.0 -0.132042589
C  C15  1  0.50730000  0.64530000  0.13900000  1.0 0.5892350912
C  C16  1  0.26610000  0.83900000  0.19630000  1.0 0.1306260321
C  C17  1  0.21550000  0.89280000  0.19420000  1.0 -0.132042589
C  C18  1  0.35470000  0.86200000  0.13900000  1.0 0.5892350912
C  C19  1  0.57290000  0.83900000  0.30370000  1.0 0.1306260321
C  C20  1  0.67730000  0.89280000  0.30580000  1.0 -0.132042589
C  C21  1  0.50730000  0.86200000  0.36100000  1.0 0.5892350912
C  C22  1  0.26610000  0.42710000  0.30370000  1.0 0.1306260321
C  C23  1  0.21550000  0.32270000  0.30580000  1.0 -0.132042589
C  C24  1  0.35470000  0.49270000  0.36100000  1.0 0.5892350912
C  C25  1  0.16100000  0.73390000  0.30370000  1.0 0.1306260321
C  C26  1  0.10720000  0.78450000  0.30580000  1.0 -0.132042589
C  C27  1  0.13800000  0.64530000  0.36100000  1.0 0.5892350912
C  C28  1  0.42710000  0.16100000  0.30370000  1.0 0.1306260321
C  C29  1  0.32270000  0.10720000  0.30580000  1.0 -0.132042589
C  C30  1  0.49270000  0.13800000  0.36100000  1.0 0.5892350912
C  C31  1  0.73390000  0.57290000  0.30370000  1.0 0.1306260321
C  C32  1  0.78450000  0.67730000  0.30580000  1.0 -0.132042589
C  C33  1  0.64530000  0.50730000  0.36100000  1.0 0.5892350912
C  C34  1  0.83900000  0.26610000  0.30370000  1.0 0.1306260321
C  C35  1  0.89280000  0.21550000  0.30580000  1.0 -0.132042589
C  C36  1  0.86200000  0.35470000  0.36100000  1.0 0.5892350912
C  C37  1  0.16100000  0.42710000  0.80370000  1.0 0.1306260321
C  C38  1  0.10720000  0.32270000  0.80580000  1.0 -0.132042589
C  C39  1  0.13800000  0.49270000  0.86100000  1.0 0.5892350912
C  C40  1  0.57290000  0.73390000  0.80370000  1.0 0.1306260321
C  C41  1  0.67730000  0.78450000  0.80580000  1.0 -0.132042589
C  C42  1  0.50730000  0.64530000  0.86100000  1.0 0.5892350912
C  C43  1  0.26610000  0.83900000  0.80370000  1.0 0.1306260321
C  C44  1  0.21550000  0.89280000  0.80580000  1.0 -0.132042589
C  C45  1  0.35470000  0.86200000  0.86100000  1.0 0.5892350912
C  C46  1  0.83900000  0.57290000  0.80370000  1.0 0.1306260321
C  C47  1  0.89280000  0.67730000  0.80580000  1.0 -0.132042589
C  C48  1  0.86200000  0.50730000  0.86100000  1.0 0.5892350912
C  C49  1  0.42710000  0.26610000  0.80370000  1.0 0.1306260321
C  C50  1  0.32270000  0.21550000  0.80580000  1.0 -0.132042589
C  C51  1  0.49270000  0.35470000  0.86100000  1.0 0.5892350912
C  C52  1  0.73390000  0.16100000  0.80370000  1.0 0.1306260321
C  C53  1  0.78450000  0.10720000  0.80580000  1.0 -0.132042589
C  C54  1  0.64530000  0.13800000  0.86100000  1.0 0.5892350912
C  C55  1  0.42710000  0.16100000  0.69630000  1.0 0.1306260321
C  C56  1  0.32270000  0.10720000  0.69420000  1.0 -0.132042589
C  C57  1  0.49270000  0.13800000  0.63900000  1.0 0.5892350912
C  C58  1  0.73390000  0.57290000  0.69630000  1.0 0.1306260321
C  C59  1  0.78450000  0.67730000  0.69420000  1.0 -0.132042589
C  C60  1  0.64530000  0.50730000  0.63900000  1.0 0.5892350912
C  C61  1  0.83900000  0.26610000  0.69630000  1.0 0.1306260321
C  C62  1  0.89280000  0.21550000  0.69420000  1.0 -0.132042589
C  C63  1  0.86200000  0.35470000  0.63900000  1.0 0.5892350912
C  C64  1  0.57290000  0.83900000  0.69630000  1.0 0.1306260321
C  C65  1  0.67730000  0.89280000  0.69420000  1.0 -0.132042589
C  C66  1  0.50730000  0.86200000  0.63900000  1.0 0.5892350912
C  C67  1  0.26610000  0.42710000  0.69630000  1.0 0.1306260321
C  C68  1  0.21550000  0.32270000  0.69420000  1.0 -0.132042589
C  C69  1  0.35470000  0.49270000  0.63900000  1.0 0.5892350912
C  C70  1  0.16100000  0.73390000  0.69630000  1.0 0.1306260321
C  C71  1  0.10720000  0.78450000  0.69420000  1.0 -0.132042589
C  C72  1  0.13800000  0.64530000  0.63900000  1.0 0.5892350912
C  C73  1  0.86525000  0.73050000  0.25000000  1.0 -0.0601207739
C  C74  1  0.26950000  0.13475000  0.25000000  1.0 -0.0601207739
C  C75  1  0.86525000  0.13475000  0.25000000  1.0 -0.0601207739
C  C76  1  0.13475000  0.26950000  0.25000000  1.0 -0.0601207739
C  C77  1  0.73050000  0.86525000  0.25000000  1.0 -0.0601207739
C  C78  1  0.13475000  0.86525000  0.25000000  1.0 -0.0601207739
C  C79  1  0.13475000  0.26950000  0.75000000  1.0 -0.0601207739
C  C80  1  0.73050000  0.86525000  0.75000000  1.0 -0.0601207739
C  C81  1  0.13475000  0.86525000  0.75000000  1.0 -0.0601207739
C  C82  1  0.86525000  0.73050000  0.75000000  1.0 -0.0601207739
C  C83  1  0.26950000  0.13475000  0.75000000  1.0 -0.0601207739
C  C84  1  0.86525000  0.13475000  0.75000000  1.0 -0.0601207739
N  N1  1  0.76090000  0.52180000  0.25000000  1.0 -0.339486436
N  N2  1  0.47820000  0.23910000  0.25000000  1.0 -0.339486436
N  N3  1  0.76090000  0.23910000  0.25000000  1.0 -0.339486436
N  N4  1  0.23910000  0.47820000  0.25000000  1.0 -0.339486436
N  N5  1  0.52180000  0.76090000  0.25000000  1.0 -0.339486436
N  N6  1  0.23910000  0.76090000  0.25000000  1.0 -0.339486436
N  N7  1  0.23910000  0.47820000  0.75000000  1.0 -0.339486436
N  N8  1  0.52180000  0.76090000  0.75000000  1.0 -0.339486436
N  N9  1  0.23910000  0.76090000  0.75000000  1.0 -0.339486436
N  N10  1  0.76090000  0.52180000  0.75000000  1.0 -0.339486436
N  N11  1  0.47820000  0.23910000  0.75000000  1.0 -0.339486436
N  N12  1  0.76090000  0.23910000  0.75000000  1.0 -0.339486436
O  O1  1  0.93830000  0.54970000  0.09190000  1.0 -0.6251879096
O  O2  1  0.80110000  0.41310000  0.14350000  1.0 -0.5961948469
O  O3  1  0.45030000  0.38860000  0.09190000  1.0 -0.6251879096
O  O4  1  0.58690000  0.38800000  0.14350000  1.0 -0.5961948469
O  O5  1  0.61140000  0.06170000  0.09190000  1.0 -0.6251879096
O  O6  1  0.61200000  0.19890000  0.14350000  1.0 -0.5961948469
O  O7  1  0.06170000  0.45030000  0.09190000  1.0 -0.6251879096
O  O8  1  0.19890000  0.58690000  0.14350000  1.0 -0.5961948469
O  O9  1  0.54970000  0.61140000  0.09190000  1.0 -0.6251879096
O  O10  1  0.41310000  0.61200000  0.14350000  1.0 -0.5961948469
O  O11  1  0.38860000  0.93830000  0.09190000  1.0 -0.6251879096
O  O12  1  0.38800000  0.80110000  0.14350000  1.0 -0.5961948469
O  O13  1  0.54970000  0.93830000  0.40810000  1.0 -0.6251879096
O  O14  1  0.41310000  0.80110000  0.35650000  1.0 -0.5961948469
O  O15  1  0.38860000  0.45030000  0.40810000  1.0 -0.6251879096
O  O16  1  0.38800000  0.58690000  0.35650000  1.0 -0.5961948469
O  O17  1  0.06170000  0.61140000  0.40810000  1.0 -0.6251879096
O  O18  1  0.19890000  0.61200000  0.35650000  1.0 -0.5961948469
O  O19  1  0.45030000  0.06170000  0.40810000  1.0 -0.6251879096
O  O20  1  0.58690000  0.19890000  0.35650000  1.0 -0.5961948469
O  O21  1  0.61140000  0.54970000  0.40810000  1.0 -0.6251879096
O  O22  1  0.61200000  0.41310000  0.35650000  1.0 -0.5961948469
O  O23  1  0.93830000  0.38860000  0.40810000  1.0 -0.6251879096
O  O24  1  0.80110000  0.38800000  0.35650000  1.0 -0.5961948469
O  O25  1  0.06170000  0.45030000  0.90810000  1.0 -0.6251879096
O  O26  1  0.19890000  0.58690000  0.85650000  1.0 -0.5961948469
O  O27  1  0.54970000  0.61140000  0.90810000  1.0 -0.6251879096
O  O28  1  0.41310000  0.61200000  0.85650000  1.0 -0.5961948469
O  O29  1  0.38860000  0.93830000  0.90810000  1.0 -0.6251879096
O  O30  1  0.38800000  0.80110000  0.85650000  1.0 -0.5961948469
O  O31  1  0.93830000  0.54970000  0.90810000  1.0 -0.6251879096
O  O32  1  0.80110000  0.41310000  0.85650000  1.0 -0.5961948469
O  O33  1  0.45030000  0.38860000  0.90810000  1.0 -0.6251879096
O  O34  1  0.58690000  0.38800000  0.85650000  1.0 -0.5961948469
O  O35  1  0.61140000  0.06170000  0.90810000  1.0 -0.6251879096
O  O36  1  0.61200000  0.19890000  0.85650000  1.0 -0.5961948469
O  O37  1  0.45030000  0.06170000  0.59190000  1.0 -0.6251879096
O  O38  1  0.58690000  0.19890000  0.64350000  1.0 -0.5961948469
O  O39  1  0.61140000  0.54970000  0.59190000  1.0 -0.6251879096
O  O40  1  0.61200000  0.41310000  0.64350000  1.0 -0.5961948469
O  O41  1  0.93830000  0.38860000  0.59190000  1.0 -0.6251879096
O  O42  1  0.80110000  0.38800000  0.64350000  1.0 -0.5961948469
O  O43  1  0.54970000  0.93830000  0.59190000  1.0 -0.6251879096
O  O44  1  0.41310000  0.80110000  0.64350000  1.0 -0.5961948469
O  O45  1  0.38860000  0.45030000  0.59190000  1.0 -0.6251879096
O  O46  1  0.38800000  0.58690000  0.64350000  1.0 -0.5961948469
O  O47  1  0.06170000  0.61140000  0.59190000  1.0 -0.6251879096
O  O48  1  0.19890000  0.61200000  0.64350000  1.0 -0.5961948469
