# DDEC6 charges by PACMAN v1.1 (https://github.com/mtap-research/PACMAN-charge/)
data_IBABOF01_FSR_pacman
_symmetry_space_group_name_H-M   'P 1'
_cell_length_a   12.66610000
_cell_length_b   17.95980000
_cell_length_c   21.83860000
_cell_angle_alpha   90.00000000
_cell_angle_beta   90.00000000
_cell_angle_gamma   90.00000000
_symmetry_Int_Tables_number   1
_chemical_formula_structural   Co2H20C30S2N5O12
_chemical_formula_sum   'Co8 H80 C120 S8 N20 O48'
_cell_volume   4967.85832864
_cell_formula_units_Z   4
loop_
 _symmetry_equiv_pos_site_id
 _symmetry_equiv_pos_as_xyz
  1  'x, y, z'
loop_
 _atom_site_type_symbol
 _atom_site_label
 _atom_site_symmetry_multiplicity
 _atom_site_fract_x
 _atom_site_fract_y
 _atom_site_fract_z
 _atom_site_occupancy
 _atom_site_charge
Co  Co1  1  0.03432000  0.33797000  0.72853000  1.0 0.9325942603
Co  Co2  1  0.53432000  0.66203000  0.27147000  1.0 0.9325942603
Co  Co3  1  0.53432000  0.16203000  0.22853000  1.0 0.9325942603
Co  Co4  1  0.03432000  0.83797000  0.77147000  1.0 0.9325942603
Co  Co5  1  0.02574000  0.17465000  0.72006000  1.0 0.9470329938
Co  Co6  1  0.52574000  0.82535000  0.27994000  1.0 0.9470329938
Co  Co7  1  0.52574000  0.32535000  0.22006000  1.0 0.9470329938
Co  Co8  1  0.02574000  0.67465000  0.77994000  1.0 0.9470329938
H  H1  1  0.87630000  0.47570000  0.71200000  1.0 0.3312478887
H  H2  1  0.37630000  0.52430000  0.28800000  1.0 0.3312478887
H  H3  1  0.37630000  0.02430000  0.21200000  1.0 0.3312478887
H  H4  1  0.87630000  0.97570000  0.78800000  1.0 0.3312478887
H  H5  1  0.87050000  0.55480000  0.73230000  1.0 0.3312478887
H  H6  1  0.37050000  0.44520000  0.26770000  1.0 0.3312478887
H  H7  1  0.37050000  0.94520000  0.23230000  1.0 0.3312478887
H  H8  1  0.87050000  0.05480000  0.76770000  1.0 0.3312478887
H  H9  1  0.25110000  0.54160000  0.86860000  1.0 0.3312478887
H  H10  1  0.75110000  0.45840000  0.13140000  1.0 0.3312478887
H  H11  1  0.75110000  0.95840000  0.36860000  1.0 0.3312478887
H  H12  1  0.25110000  0.04160000  0.63140000  1.0 0.3312478887
H  H13  1  0.18760000  0.61110000  0.86340000  1.0 0.3312478887
H  H14  1  0.68760000  0.38890000  0.13660000  1.0 0.3312478887
H  H15  1  0.68760000  0.88890000  0.36340000  1.0 0.3312478887
H  H16  1  0.18760000  0.11110000  0.63660000  1.0 0.3312478887
H  H17  1  0.72120000  0.16350000  0.67690000  1.0 0.1285264224
H  H18  1  0.22120000  0.83650000  0.32310000  1.0 0.1285264224
H  H19  1  0.22120000  0.33650000  0.17690000  1.0 0.1285264224
H  H20  1  0.72120000  0.66350000  0.82310000  1.0 0.1285264224
H  H21  1  0.69830000  0.38550000  0.66350000  1.0 0.1285264224
H  H22  1  0.19830000  0.61450000  0.33650000  1.0 0.1285264224
H  H23  1  0.19830000  0.11450000  0.16350000  1.0 0.1285264224
H  H24  1  0.69830000  0.88550000  0.83650000  1.0 0.1285264224
H  H25  1  0.38330000  0.34630000  0.77120000  1.0 0.1285264224
H  H26  1  0.88330000  0.65370000  0.22880000  1.0 0.1285264224
H  H27  1  0.88330000  0.15370000  0.27120000  1.0 0.1285264224
H  H28  1  0.38330000  0.84630000  0.72880000  1.0 0.1285264224
H  H29  1  0.33440000  0.12630000  0.78020000  1.0 0.1285264224
H  H30  1  0.83440000  0.87370000  0.21980000  1.0 0.1285264224
H  H31  1  0.83440000  0.37370000  0.28020000  1.0 0.1285264224
H  H32  1  0.33440000  0.62630000  0.71980000  1.0 0.1285264224
H  H33  1  0.54930000  0.15120000  0.64260000  1.0 0.1285264224
H  H34  1  0.04930000  0.84880000  0.35740000  1.0 0.1285264224
H  H35  1  0.04930000  0.34880000  0.14260000  1.0 0.1285264224
H  H36  1  0.54930000  0.65120000  0.85740000  1.0 0.1285264224
H  H37  1  0.52680000  0.37470000  0.63020000  1.0 0.1285264224
H  H38  1  0.02680000  0.62530000  0.36980000  1.0 0.1285264224
H  H39  1  0.02680000  0.12530000  0.13020000  1.0 0.1285264224
H  H40  1  0.52680000  0.87470000  0.86980000  1.0 0.1285264224
H  H41  1  0.55850000  0.32890000  0.80010000  1.0 0.124289496
H  H42  1  0.05850000  0.67110000  0.19990000  1.0 0.124289496
H  H43  1  0.05850000  0.17110000  0.30010000  1.0 0.124289496
H  H44  1  0.55850000  0.82890000  0.69990000  1.0 0.124289496
H  H45  1  0.50990000  0.10890000  0.81000000  1.0 0.1285264224
H  H46  1  0.00990000  0.89110000  0.19000000  1.0 0.1285264224
H  H47  1  0.00990000  0.39110000  0.31000000  1.0 0.1285264224
H  H48  1  0.50990000  0.60890000  0.69000000  1.0 0.1285264224
H  H49  1  0.44230000  0.14760000  0.51300000  1.0 0.1285264224
H  H50  1  0.94230000  0.85240000  0.48700000  1.0 0.1285264224
H  H51  1  0.94230000  0.35240000  0.01300000  1.0 0.1285264224
H  H52  1  0.44230000  0.64760000  0.98700000  1.0 0.1285264224
H  H53  1  0.38590000  0.36810000  0.51820000  1.0 0.1285264224
H  H54  1  0.88590000  0.63190000  0.48180000  1.0 0.1285264224
H  H55  1  0.88590000  0.13190000  0.01820000  1.0 0.1285264224
H  H56  1  0.38590000  0.86810000  0.98180000  1.0 0.1285264224
H  H57  1  0.68770000  0.32490000  0.92440000  1.0 0.124289496
H  H58  1  0.18770000  0.67510000  0.07560000  1.0 0.1285264224
H  H59  1  0.18770000  0.17510000  0.42440000  1.0 0.124289496
H  H60  1  0.68770000  0.82490000  0.57560000  1.0 0.1285264224
H  H61  1  0.62310000  0.10610000  0.93350000  1.0 0.1285264224
H  H62  1  0.12310000  0.89390000  0.06650000  1.0 0.1285264224
H  H63  1  0.12310000  0.39390000  0.43350000  1.0 0.1285264224
H  H64  1  0.62310000  0.60610000  0.56650000  1.0 0.1285264224
H  H65  1  0.47310000  0.15680000  0.40780000  1.0 0.1285264224
H  H66  1  0.97310000  0.84320000  0.59220000  1.0 0.1285264224
H  H67  1  0.97310000  0.34320000  0.90780000  1.0 0.1285264224
H  H68  1  0.47310000  0.65680000  0.09220000  1.0 0.1285264224
H  H69  1  0.42080000  0.37650000  0.41420000  1.0 0.1285264224
H  H70  1  0.92080000  0.62350000  0.58580000  1.0 0.1285264224
H  H71  1  0.92080000  0.12350000  0.91420000  1.0 0.1285264224
H  H72  1  0.42080000  0.87650000  0.08580000  1.0 0.1285264224
H  H73  1  0.65440000  0.33520000  0.02870000  1.0 0.124289496
H  H74  1  0.15440000  0.66480000  0.97130000  1.0 0.124289496
H  H75  1  0.15440000  0.16480000  0.52870000  1.0 0.124289496
H  H76  1  0.65440000  0.83520000  0.47130000  1.0 0.124289496
H  H77  1  0.59000000  0.11680000  0.03590000  1.0 0.1285264224
H  H78  1  0.09000000  0.88320000  0.96410000  1.0 0.1285264224
H  H79  1  0.09000000  0.38320000  0.53590000  1.0 0.1285264224
H  H80  1  0.59000000  0.61680000  0.46410000  1.0 0.1285264224
C  C1  1  0.99770000  0.50560000  0.75950000  1.0 0.5111184997
C  C2  1  0.49770000  0.49440000  0.24050000  1.0 0.5111184997
C  C3  1  0.49770000  0.99440000  0.25950000  1.0 0.5111184997
C  C4  1  0.99770000  0.00560000  0.74050000  1.0 0.5111184997
C  C5  1  0.84000000  0.28140000  0.69190000  1.0 0.5966818166
C  C6  1  0.34000000  0.71860000  0.30810000  1.0 0.5966818166
C  C7  1  0.34000000  0.21860000  0.19190000  1.0 0.5966818166
C  C8  1  0.84000000  0.78140000  0.80810000  1.0 0.5966818166
C  C9  1  0.22710000  0.25120000  0.75550000  1.0 0.5920782519
C  C10  1  0.72710000  0.74880000  0.24450000  1.0 0.5920782519
C  C11  1  0.72710000  0.24880000  0.25550000  1.0 0.5920782519
C  C12  1  0.22710000  0.75120000  0.74450000  1.0 0.5920782519
C  C13  1  0.13080000  0.53070000  0.81690000  1.0 0.4998921437
C  C14  1  0.63080000  0.46930000  0.18310000  1.0 0.4998921437
C  C15  1  0.63080000  0.96930000  0.31690000  1.0 0.4998921437
C  C16  1  0.13080000  0.03070000  0.68310000  1.0 0.4998921437
C  C17  1  0.72730000  0.27560000  0.67190000  1.0 -0.009635559
C  C18  1  0.22730000  0.72440000  0.32810000  1.0 -0.009635559
C  C19  1  0.22730000  0.22440000  0.17190000  1.0 -0.009635559
C  C20  1  0.72730000  0.77560000  0.82810000  1.0 -0.009635559
C  C21  1  0.34190000  0.23850000  0.77380000  1.0 0.0005812022
C  C22  1  0.84190000  0.76150000  0.22620000  1.0 0.0005812022
C  C23  1  0.84190000  0.26150000  0.27380000  1.0 0.0005812022
C  C24  1  0.34190000  0.73850000  0.72620000  1.0 0.0005812022
C  C25  1  0.68210000  0.20550000  0.66690000  1.0 -0.0795202471
C  C26  1  0.18210000  0.79450000  0.33310000  1.0 -0.0795202471
C  C27  1  0.18210000  0.29450000  0.16690000  1.0 -0.0795202471
C  C28  1  0.68210000  0.70550000  0.83310000  1.0 -0.0795202471
C  C29  1  0.66810000  0.33860000  0.65900000  1.0 -0.0882985535
C  C30  1  0.16810000  0.66140000  0.34100000  1.0 -0.0882985535
C  C31  1  0.16810000  0.16140000  0.15900000  1.0 -0.0882985535
C  C32  1  0.66810000  0.83860000  0.84100000  1.0 -0.0882985535
C  C33  1  0.40830000  0.29860000  0.77930000  1.0 -0.0795202471
C  C34  1  0.90830000  0.70140000  0.22070000  1.0 -0.0795202471
C  C35  1  0.90830000  0.20140000  0.27930000  1.0 -0.0795202471
C  C36  1  0.40830000  0.79860000  0.72070000  1.0 -0.0795202471
C  C37  1  0.37900000  0.16710000  0.78480000  1.0 -0.0795202471
C  C38  1  0.87900000  0.83290000  0.21520000  1.0 -0.0795202471
C  C39  1  0.87900000  0.33290000  0.28480000  1.0 -0.0795202471
C  C40  1  0.37900000  0.66710000  0.71520000  1.0 -0.0795202471
C  C41  1  0.57950000  0.19810000  0.64710000  1.0 -0.1099175499
C  C42  1  0.07950000  0.80190000  0.35290000  1.0 -0.1099175499
C  C43  1  0.07950000  0.30190000  0.14710000  1.0 -0.1099175499
C  C44  1  0.57950000  0.69810000  0.85290000  1.0 -0.1099175499
C  C45  1  0.56630000  0.33260000  0.63960000  1.0 -0.1099175499
C  C46  1  0.06630000  0.66740000  0.36040000  1.0 -0.1099175499
C  C47  1  0.06630000  0.16740000  0.13960000  1.0 -0.1099175499
C  C48  1  0.56630000  0.83260000  0.86040000  1.0 -0.1099175499
C  C49  1  0.51310000  0.28840000  0.79700000  1.0 -0.0979093256
C  C50  1  0.01310000  0.71160000  0.20300000  1.0 -0.0979093256
C  C51  1  0.01310000  0.21160000  0.29700000  1.0 -0.0979093256
C  C52  1  0.51310000  0.78840000  0.70300000  1.0 -0.0979093256
C  C53  1  0.48390000  0.15660000  0.80290000  1.0 -0.1099175499
C  C54  1  0.98390000  0.84340000  0.19710000  1.0 -0.1099175499
C  C55  1  0.98390000  0.34340000  0.30290000  1.0 -0.1099175499
C  C56  1  0.48390000  0.65660000  0.69710000  1.0 -0.1099175499
C  C57  1  0.52260000  0.26110000  0.63410000  1.0 -0.0647104437
C  C58  1  0.02260000  0.73890000  0.36590000  1.0 -0.0647104437
C  C59  1  0.02260000  0.23890000  0.13410000  1.0 -0.0647104437
C  C60  1  0.52260000  0.76110000  0.86590000  1.0 -0.0723772402
C  C61  1  0.54810000  0.21810000  0.80990000  1.0 -0.0723772402
C  C62  1  0.04810000  0.78190000  0.19010000  1.0 -0.0723772402
C  C63  1  0.04810000  0.28190000  0.30990000  1.0 -0.0723772402
C  C64  1  0.54810000  0.71810000  0.69010000  1.0 -0.0723772402
C  C65  1  0.41200000  0.25730000  0.52450000  1.0 -0.0723772402
C  C66  1  0.91200000  0.74270000  0.47550000  1.0 -0.0723772402
C  C67  1  0.91200000  0.24270000  0.02450000  1.0 -0.0723772402
C  C68  1  0.41200000  0.75730000  0.97550000  1.0 -0.0723772402
C  C69  1  0.65830000  0.21440000  0.91910000  1.0 -0.0795202471
C  C70  1  0.15830000  0.78560000  0.08090000  1.0 -0.0795202471
C  C71  1  0.15830000  0.28560000  0.41910000  1.0 -0.0795202471
C  C72  1  0.65830000  0.71440000  0.58090000  1.0 -0.0795202471
C  C73  1  0.43770000  0.19330000  0.49310000  1.0 -0.1099175499
C  C74  1  0.93770000  0.80670000  0.50690000  1.0 -0.1099175499
C  C75  1  0.93770000  0.30670000  0.99310000  1.0 -0.1099175499
C  C76  1  0.43770000  0.69330000  0.00690000  1.0 -0.1099175499
C  C77  1  0.40430000  0.32590000  0.49600000  1.0 -0.1099175499
C  C78  1  0.90430000  0.67410000  0.50400000  1.0 -0.1099175499
C  C79  1  0.90430000  0.17410000  0.99600000  1.0 -0.1099175499
C  C80  1  0.40430000  0.82590000  0.00400000  1.0 -0.1099175499
C  C81  1  0.66790000  0.28330000  0.94700000  1.0 -0.0979093256
C  C82  1  0.16790000  0.71670000  0.05300000  1.0 -0.0979093256
C  C83  1  0.16790000  0.21670000  0.44700000  1.0 -0.0979093256
C  C84  1  0.66790000  0.78330000  0.55300000  1.0 -0.0979093256
C  C85  1  0.62900000  0.15220000  0.95260000  1.0 -0.1099175499
C  C86  1  0.12900000  0.84780000  0.04740000  1.0 -0.1099175499
C  C87  1  0.12900000  0.34780000  0.45260000  1.0 -0.1099175499
C  C88  1  0.62900000  0.65220000  0.54740000  1.0 -0.1099175499
C  C89  1  0.45640000  0.19920000  0.43020000  1.0 -0.0723772402
C  C90  1  0.95640000  0.80080000  0.56980000  1.0 -0.0723772402
C  C91  1  0.95640000  0.30080000  0.93020000  1.0 -0.0723772402
C  C92  1  0.45640000  0.69920000  0.06980000  1.0 -0.0723772402
C  C93  1  0.42460000  0.33070000  0.43390000  1.0 -0.0795202471
C  C94  1  0.92460000  0.66930000  0.56610000  1.0 -0.0795202471
C  C95  1  0.92460000  0.16930000  0.93390000  1.0 -0.0795202471
C  C96  1  0.42460000  0.83070000  0.06610000  1.0 -0.0795202471
C  C97  1  0.64740000  0.28930000  0.00940000  1.0 -0.0882985535
C  C98  1  0.14740000  0.71070000  0.99060000  1.0 -0.0882985535
C  C99  1  0.14740000  0.21070000  0.50940000  1.0 -0.0882985535
C  C100  1  0.64740000  0.78930000  0.49060000  1.0 -0.0882985535
C  C101  1  0.60900000  0.15880000  0.01360000  1.0 -0.0795202471
C  C102  1  0.10900000  0.84120000  0.98640000  1.0 -0.0795202471
C  C103  1  0.10900000  0.34120000  0.51360000  1.0 -0.0795202471
C  C104  1  0.60900000  0.65880000  0.48640000  1.0 -0.0795202471
C  C105  1  0.45070000  0.26720000  0.40100000  1.0 -0.0240213386
C  C106  1  0.95070000  0.73280000  0.59900000  1.0 -0.0240213386
C  C107  1  0.95070000  0.23280000  0.90100000  1.0 -0.0240213386
C  C108  1  0.45070000  0.76720000  0.09900000  1.0 -0.0240213386
C  C109  1  0.61630000  0.22700000  0.04320000  1.0 -0.009635559
C  C110  1  0.11630000  0.77300000  0.95680000  1.0 -0.009635559
C  C111  1  0.11630000  0.27300000  0.54320000  1.0 -0.009635559
C  C112  1  0.61630000  0.72700000  0.45680000  1.0 -0.009635559
C  C113  1  0.47580000  0.27190000  0.33500000  1.0 0.5920782519
C  C114  1  0.97580000  0.72810000  0.66500000  1.0 0.5920782519
C  C115  1  0.97580000  0.22810000  0.83500000  1.0 0.5920782519
C  C116  1  0.47580000  0.77190000  0.16500000  1.0 0.5920782519
C  C117  1  0.58830000  0.23410000  0.10950000  1.0 0.5920782519
C  C118  1  0.08830000  0.76590000  0.89050000  1.0 0.5920782519
C  C119  1  0.08830000  0.26590000  0.60950000  1.0 0.5920782519
C  C120  1  0.58830000  0.73410000  0.39050000  1.0 0.5920782519
S  S1  1  0.39150000  0.25130000  0.60461000  1.0 0.9325942603
S  S2  1  0.89150000  0.74870000  0.39539000  1.0 0.9325942603
S  S3  1  0.89150000  0.24870000  0.10461000  1.0 0.9325942603
S  S4  1  0.39150000  0.75130000  0.89539000  1.0 0.9325942603
S  S5  1  0.67811000  0.20597000  0.83886000  1.0 0.9470329938
S  S6  1  0.17811000  0.79403000  0.16114000  1.0 0.9470329938
S  S7  1  0.17811000  0.29403000  0.33886000  1.0 0.9470329938
S  S8  1  0.67811000  0.70597000  0.66114000  1.0 0.9470329938
N  N1  1  0.05300000  0.44380000  0.76000000  1.0 -0.3387749361
N  N2  1  0.55300000  0.55620000  0.24000000  1.0 -0.3387749361
N  N3  1  0.55300000  0.05620000  0.26000000  1.0 -0.3387749361
N  N4  1  0.05300000  0.94380000  0.74000000  1.0 -0.3387749361
N  N5  1  0.04040000  0.56180000  0.79290000  1.0 -0.5257352161
N  N6  1  0.54040000  0.43820000  0.20710000  1.0 -0.5257352161
N  N7  1  0.54040000  0.93820000  0.29290000  1.0 -0.5257352161
N  N8  1  0.04040000  0.06180000  0.70710000  1.0 -0.5257352161
N  N9  1  0.13820000  0.45970000  0.79900000  1.0 -0.2900291028
N  N10  1  0.63820000  0.54030000  0.20100000  1.0 -0.2900291028
N  N11  1  0.63820000  0.04030000  0.29900000  1.0 -0.2900291028
N  N12  1  0.13820000  0.95970000  0.70100000  1.0 -0.2900291028
N  N13  1  0.90340000  0.51290000  0.73110000  1.0 -0.5963638591
N  N14  1  0.40340000  0.48710000  0.26890000  1.0 -0.5963638591
N  N15  1  0.40340000  0.98710000  0.23110000  1.0 -0.5963638591
N  N16  1  0.90340000  0.01290000  0.76890000  1.0 -0.5963638591
N  N17  1  0.19760000  0.56520000  0.85400000  1.0 -0.5693914461
N  N18  1  0.69760000  0.43480000  0.14600000  1.0 -0.5693914461
N  N19  1  0.69760000  0.93480000  0.35400000  1.0 -0.5693914461
N  N20  1  0.19760000  0.06520000  0.64600000  1.0 -0.5693914461
O  O1  1  0.87800000  0.34550000  0.70320000  1.0 -0.5513273763
O  O2  1  0.37800000  0.65450000  0.29680000  1.0 -0.5513273763
O  O3  1  0.37800000  0.15450000  0.20320000  1.0 -0.5513273763
O  O4  1  0.87800000  0.84550000  0.79680000  1.0 -0.5513273763
O  O5  1  0.19540000  0.31640000  0.75070000  1.0 -0.5019581186
O  O6  1  0.69540000  0.68360000  0.24930000  1.0 -0.5019581186
O  O7  1  0.69540000  0.18360000  0.25070000  1.0 -0.5019581186
O  O8  1  0.19540000  0.81640000  0.74930000  1.0 -0.5019581186
O  O9  1  0.50200000  0.21340000  0.30760000  1.0 -0.5513273763
O  O10  1  0.00200000  0.78660000  0.69240000  1.0 -0.5513273763
O  O11  1  0.00200000  0.28660000  0.80760000  1.0 -0.5513273763
O  O12  1  0.50200000  0.71340000  0.19240000  1.0 -0.5513273763
O  O13  1  0.57220000  0.17470000  0.13930000  1.0 -0.5366774591
O  O14  1  0.07220000  0.82530000  0.86070000  1.0 -0.5366774591
O  O15  1  0.07220000  0.32530000  0.63930000  1.0 -0.5366774591
O  O16  1  0.57220000  0.67470000  0.36070000  1.0 -0.5366774591
O  O17  1  0.89200000  0.22210000  0.69340000  1.0 -0.5693914461
O  O18  1  0.39200000  0.77790000  0.30660000  1.0 -0.5693914461
O  O19  1  0.39200000  0.27790000  0.19340000  1.0 -0.5693914461
O  O20  1  0.89200000  0.72210000  0.80660000  1.0 -0.5693914461
O  O21  1  0.17380000  0.19180000  0.74820000  1.0 -0.5608541138
O  O22  1  0.67380000  0.80820000  0.25180000  1.0 -0.5608541138
O  O23  1  0.67380000  0.30820000  0.24820000  1.0 -0.5608541138
O  O24  1  0.17380000  0.69180000  0.75180000  1.0 -0.5608541138
O  O25  1  0.47320000  0.33530000  0.30860000  1.0 -0.5366774591
O  O26  1  0.97320000  0.66470000  0.69140000  1.0 -0.5366774591
O  O27  1  0.97320000  0.16470000  0.80860000  1.0 -0.5366774591
O  O28  1  0.47320000  0.83530000  0.19140000  1.0 -0.5366774591
O  O29  1  0.58370000  0.29860000  0.13140000  1.0 -0.5513273763
O  O30  1  0.08370000  0.70140000  0.86860000  1.0 -0.5608541138
O  O31  1  0.08370000  0.20140000  0.63140000  1.0 -0.5513273763
O  O32  1  0.58370000  0.79860000  0.36860000  1.0 -0.5608541138
O  O33  1  0.35440000  0.17780000  0.61920000  1.0 -0.5120987314
O  O34  1  0.85440000  0.82220000  0.38080000  1.0 -0.5120987314
O  O35  1  0.85440000  0.32220000  0.11920000  1.0 -0.5120987314
O  O36  1  0.35440000  0.67780000  0.88080000  1.0 -0.5120987314
O  O37  1  0.32980000  0.31440000  0.62380000  1.0 -0.4823281931
O  O38  1  0.82980000  0.68560000  0.37620000  1.0 -0.4823281931
O  O39  1  0.82980000  0.18560000  0.12380000  1.0 -0.4823281931
O  O40  1  0.32980000  0.81440000  0.87620000  1.0 -0.4823281931
O  O41  1  0.71090000  0.13060000  0.82550000  1.0 -0.5120987314
O  O42  1  0.21090000  0.86940000  0.17450000  1.0 -0.5120987314
O  O43  1  0.21090000  0.36940000  0.32550000  1.0 -0.5120987314
O  O44  1  0.71090000  0.63060000  0.67450000  1.0 -0.5120987314
O  O45  1  0.74170000  0.26790000  0.81900000  1.0 -0.4873667526
O  O46  1  0.24170000  0.73210000  0.18100000  1.0 -0.4873667526
O  O47  1  0.24170000  0.23210000  0.31900000  1.0 -0.4873667526
O  O48  1  0.74170000  0.76790000  0.68100000  1.0 -0.4873667526
