# DDEC6 charges by PACMAN v1.1 (https://github.com/mtap-research/PACMAN-charge/)
data_IBABUL_ASR_pacman
_symmetry_space_group_name_H-M   'P 1'
_cell_length_a   12.67320000
_cell_length_b   18.07200000
_cell_length_c   21.78500000
_cell_angle_alpha   90.00000000
_cell_angle_beta   90.00000000
_cell_angle_gamma   90.00000000
_symmetry_Int_Tables_number   1
_chemical_formula_structural   Co2H20C30S2N5O12
_chemical_formula_sum   'Co8 H80 C120 S8 N20 O48'
_cell_volume   4989.42008366
_cell_formula_units_Z   4
loop_
 _symmetry_equiv_pos_site_id
 _symmetry_equiv_pos_as_xyz
  1  'x, y, z'
loop_
 _atom_site_type_symbol
 _atom_site_label
 _atom_site_symmetry_multiplicity
 _atom_site_fract_x
 _atom_site_fract_y
 _atom_site_fract_z
 _atom_site_occupancy
 _atom_site_charge
Co  Co1  1  0.03295000  0.33838000  0.72868000  1.0 0.9412520931
Co  Co2  1  0.53295000  0.66162000  0.27132000  1.0 0.9412520931
Co  Co3  1  0.53295000  0.16162000  0.22868000  1.0 0.9412520931
Co  Co4  1  0.03295000  0.83838000  0.77132000  1.0 0.9412520931
Co  Co5  1  0.02650000  0.17469000  0.72211000  1.0 0.9453840608
Co  Co6  1  0.52650000  0.82531000  0.27789000  1.0 0.9453840608
Co  Co7  1  0.52650000  0.32531000  0.22211000  1.0 0.9453840608
Co  Co8  1  0.02650000  0.67469000  0.77789000  1.0 0.9453840608
H  H1  1  0.87730000  0.47790000  0.70840000  1.0 0.327490476
H  H2  1  0.37730000  0.52210000  0.29160000  1.0 0.327490476
H  H3  1  0.37730000  0.02210000  0.20840000  1.0 0.327490476
H  H4  1  0.87730000  0.97790000  0.79160000  1.0 0.327490476
H  H5  1  0.87230000  0.55630000  0.72930000  1.0 0.327490476
H  H6  1  0.37230000  0.44370000  0.27070000  1.0 0.327490476
H  H7  1  0.37230000  0.94370000  0.22930000  1.0 0.327490476
H  H8  1  0.87230000  0.05630000  0.77070000  1.0 0.327490476
H  H9  1  0.24990000  0.54170000  0.86640000  1.0 0.327490476
H  H10  1  0.74990000  0.45830000  0.13360000  1.0 0.327490476
H  H11  1  0.74990000  0.95830000  0.36640000  1.0 0.327490476
H  H12  1  0.24990000  0.04170000  0.63360000  1.0 0.327490476
H  H13  1  0.18780000  0.61130000  0.86020000  1.0 0.327490476
H  H14  1  0.68780000  0.38870000  0.13980000  1.0 0.327490476
H  H15  1  0.68780000  0.88870000  0.36020000  1.0 0.327490476
H  H16  1  0.18780000  0.11130000  0.63980000  1.0 0.327490476
H  H17  1  0.73200000  0.16260000  0.66430000  1.0 0.1281389467
H  H18  1  0.23200000  0.83740000  0.33570000  1.0 0.1281389467
H  H19  1  0.23200000  0.33740000  0.16430000  1.0 0.1281389467
H  H20  1  0.73200000  0.66260000  0.83570000  1.0 0.1281389467
H  H21  1  0.55790000  0.14920000  0.63220000  1.0 0.1281389467
H  H22  1  0.05790000  0.85080000  0.36780000  1.0 0.1281389467
H  H23  1  0.05790000  0.35080000  0.13220000  1.0 0.1281389467
H  H24  1  0.55790000  0.64920000  0.86780000  1.0 0.1281389467
H  H25  1  0.51310000  0.36610000  0.64670000  1.0 0.1281389467
H  H26  1  0.01310000  0.63390000  0.35330000  1.0 0.1281389467
H  H27  1  0.01310000  0.13390000  0.14670000  1.0 0.1281389467
H  H28  1  0.51310000  0.86610000  0.85330000  1.0 0.1281389467
H  H29  1  0.68930000  0.38110000  0.67920000  1.0 0.1228544051
H  H30  1  0.18930000  0.61890000  0.32080000  1.0 0.1228544051
H  H31  1  0.18930000  0.11890000  0.17920000  1.0 0.1228544051
H  H32  1  0.68930000  0.88110000  0.82080000  1.0 0.1228544051
H  H33  1  0.44520000  0.14570000  0.51410000  1.0 0.1281389467
H  H34  1  0.94520000  0.85430000  0.48590000  1.0 0.1281389467
H  H35  1  0.94520000  0.35430000  0.01410000  1.0 0.1281389467
H  H36  1  0.44520000  0.64570000  0.98590000  1.0 0.1281389467
H  H37  1  0.47450000  0.15310000  0.40940000  1.0 0.1357506523
H  H38  1  0.97450000  0.84690000  0.59060000  1.0 0.1357506523
H  H39  1  0.97450000  0.34690000  0.90940000  1.0 0.1357506523
H  H40  1  0.47450000  0.65310000  0.09060000  1.0 0.1357506523
H  H41  1  0.41130000  0.37040000  0.41620000  1.0 0.1281389467
H  H42  1  0.91130000  0.62960000  0.58380000  1.0 0.1281389467
H  H43  1  0.91130000  0.12960000  0.91620000  1.0 0.1281389467
H  H44  1  0.41130000  0.87040000  0.08380000  1.0 0.1281389467
H  H45  1  0.38200000  0.36130000  0.52060000  1.0 0.1281389467
H  H46  1  0.88200000  0.63870000  0.47940000  1.0 0.1281389467
H  H47  1  0.88200000  0.13870000  0.02060000  1.0 0.1281389467
H  H48  1  0.38200000  0.86130000  0.97940000  1.0 0.1281389467
H  H49  1  0.37450000  0.34840000  0.79140000  1.0 0.1281389467
H  H50  1  0.87450000  0.65160000  0.20860000  1.0 0.1281389467
H  H51  1  0.87450000  0.15160000  0.29140000  1.0 0.1281389467
H  H52  1  0.37450000  0.84840000  0.70860000  1.0 0.1281389467
H  H53  1  0.54780000  0.33250000  0.81780000  1.0 0.1228544051
H  H54  1  0.04780000  0.66750000  0.18220000  1.0 0.1228544051
H  H55  1  0.04780000  0.16750000  0.31780000  1.0 0.1228544051
H  H56  1  0.54780000  0.83250000  0.68220000  1.0 0.1228544051
H  H57  1  0.51270000  0.11270000  0.79820000  1.0 0.1228544051
H  H58  1  0.01270000  0.88730000  0.20180000  1.0 0.1228544051
H  H59  1  0.01270000  0.38730000  0.29820000  1.0 0.1228544051
H  H60  1  0.51270000  0.61270000  0.70180000  1.0 0.1228544051
H  H61  1  0.34250000  0.13110000  0.76210000  1.0 0.1281389467
H  H62  1  0.84250000  0.86890000  0.23790000  1.0 0.1281389467
H  H63  1  0.84250000  0.36890000  0.26210000  1.0 0.1281389467
H  H64  1  0.34250000  0.63110000  0.73790000  1.0 0.1281389467
H  H65  1  0.68930000  0.32520000  0.92530000  1.0 0.1281389467
H  H66  1  0.18930000  0.67480000  0.07470000  1.0 0.1281389467
H  H67  1  0.18930000  0.17480000  0.42530000  1.0 0.1281389467
H  H68  1  0.68930000  0.82520000  0.57470000  1.0 0.1281389467
H  H69  1  0.65510000  0.33650000  0.02950000  1.0 0.1281389467
H  H70  1  0.15510000  0.66350000  0.97050000  1.0 0.1281389467
H  H71  1  0.15510000  0.16350000  0.52950000  1.0 0.1281389467
H  H72  1  0.65510000  0.83650000  0.47050000  1.0 0.1281389467
H  H73  1  0.58800000  0.12050000  0.03870000  1.0 0.1281389467
H  H74  1  0.08800000  0.87950000  0.96130000  1.0 0.1281389467
H  H75  1  0.08800000  0.37950000  0.53870000  1.0 0.1281389467
H  H76  1  0.58800000  0.62050000  0.46130000  1.0 0.1281389467
H  H77  1  0.62070000  0.11180000  0.93330000  1.0 0.1281389467
H  H78  1  0.12070000  0.88820000  0.06670000  1.0 0.1281389467
H  H79  1  0.12070000  0.38820000  0.43330000  1.0 0.1281389467
H  H80  1  0.62070000  0.61180000  0.56670000  1.0 0.1281389467
C  C1  1  0.84120000  0.28080000  0.69260000  1.0 0.5910064475
C  C2  1  0.34120000  0.71920000  0.30740000  1.0 0.5910064475
C  C3  1  0.34120000  0.21920000  0.19260000  1.0 0.5910064475
C  C4  1  0.84120000  0.78080000  0.80740000  1.0 0.5910064475
C  C5  1  0.72800000  0.27340000  0.67470000  1.0 -0.0094747811
C  C6  1  0.22800000  0.72660000  0.32530000  1.0 -0.0094747811
C  C7  1  0.22800000  0.22660000  0.17470000  1.0 -0.0094747811
C  C8  1  0.72800000  0.77340000  0.82530000  1.0 -0.0094747811
C  C9  1  0.68880000  0.20390000  0.66070000  1.0 -0.079857886
C  C10  1  0.18880000  0.79610000  0.33930000  1.0 -0.0696695116
C  C11  1  0.18880000  0.29610000  0.16070000  1.0 -0.0696695116
C  C12  1  0.68880000  0.70390000  0.83930000  1.0 -0.0696695116
C  C13  1  0.58490000  0.19570000  0.64130000  1.0 -0.1096639565
C  C14  1  0.08490000  0.80430000  0.35870000  1.0 -0.1096639565
C  C15  1  0.08490000  0.30430000  0.14130000  1.0 -0.1096639565
C  C16  1  0.58490000  0.69570000  0.85870000  1.0 -0.1096639565
C  C17  1  0.52430000  0.25640000  0.63590000  1.0 -0.0572738024
C  C18  1  0.02430000  0.74360000  0.36410000  1.0 -0.0572738024
C  C19  1  0.02430000  0.24360000  0.13590000  1.0 -0.0572738024
C  C20  1  0.52430000  0.75640000  0.86410000  1.0 -0.0572738024
C  C21  1  0.55810000  0.32560000  0.64990000  1.0 -0.1096639565
C  C22  1  0.05810000  0.67440000  0.35010000  1.0 -0.1096639565
C  C23  1  0.05810000  0.17440000  0.14990000  1.0 -0.1096639565
C  C24  1  0.55810000  0.82560000  0.85010000  1.0 -0.1096639565
C  C25  1  0.66360000  0.33430000  0.66970000  1.0 -0.0868323771
C  C26  1  0.16360000  0.66570000  0.33030000  1.0 -0.0868323771
C  C27  1  0.16360000  0.16570000  0.16970000  1.0 -0.0868323771
C  C28  1  0.66360000  0.83430000  0.83030000  1.0 -0.0868323771
C  C29  1  0.41040000  0.25240000  0.52440000  1.0 -0.0696695116
C  C30  1  0.91040000  0.74760000  0.47560000  1.0 -0.0696695116
C  C31  1  0.91040000  0.24760000  0.02440000  1.0 -0.0696695116
C  C32  1  0.41040000  0.75240000  0.97560000  1.0 -0.0696695116
C  C33  1  0.43850000  0.19060000  0.49360000  1.0 -0.1096639565
C  C34  1  0.93850000  0.80940000  0.50640000  1.0 -0.1096639565
C  C35  1  0.93850000  0.30940000  0.99360000  1.0 -0.1096639565
C  C36  1  0.43850000  0.69060000  0.00640000  1.0 -0.1096639565
C  C37  1  0.45680000  0.19530000  0.43160000  1.0 -0.079857886
C  C38  1  0.95680000  0.80470000  0.56840000  1.0 -0.079857886
C  C39  1  0.95680000  0.30470000  0.93160000  1.0 -0.079857886
C  C40  1  0.45680000  0.69530000  0.06840000  1.0 -0.079857886
C  C41  1  0.44910000  0.26290000  0.40210000  1.0 -0.0094747811
C  C42  1  0.94910000  0.73710000  0.59790000  1.0 -0.0094747811
C  C43  1  0.94910000  0.23710000  0.90210000  1.0 -0.0094747811
C  C44  1  0.44910000  0.76290000  0.09790000  1.0 -0.0094747811
C  C45  1  0.41900000  0.32510000  0.43580000  1.0 -0.0868323771
C  C46  1  0.91900000  0.67490000  0.56420000  1.0 -0.0868323771
C  C47  1  0.91900000  0.17490000  0.93580000  1.0 -0.0868323771
C  C48  1  0.41900000  0.82510000  0.06420000  1.0 -0.0868323771
C  C49  1  0.40060000  0.31990000  0.49770000  1.0 -0.1025065482
C  C50  1  0.90060000  0.68010000  0.50230000  1.0 -0.1025065482
C  C51  1  0.90060000  0.18010000  0.99770000  1.0 -0.1025065482
C  C52  1  0.40060000  0.81990000  0.00230000  1.0 -0.1025065482
C  C53  1  0.47600000  0.26920000  0.33590000  1.0 0.5910064475
C  C54  1  0.97600000  0.73080000  0.66410000  1.0 0.5910064475
C  C55  1  0.97600000  0.23080000  0.83590000  1.0 0.5910064475
C  C56  1  0.47600000  0.76920000  0.16410000  1.0 0.5910064475
C  C57  1  0.22760000  0.25340000  0.75570000  1.0 0.5910064475
C  C58  1  0.72760000  0.74660000  0.24430000  1.0 0.5910064475
C  C59  1  0.72760000  0.24660000  0.25570000  1.0 0.5910064475
C  C60  1  0.22760000  0.75340000  0.74430000  1.0 0.5910064475
C  C61  1  0.34190000  0.24120000  0.77550000  1.0 0.0014221352
C  C62  1  0.84190000  0.75880000  0.22450000  1.0 0.0014221352
C  C63  1  0.84190000  0.25880000  0.27550000  1.0 0.0014221352
C  C64  1  0.34190000  0.74120000  0.72450000  1.0 0.0014221352
C  C65  1  0.40340000  0.30110000  0.79180000  1.0 -0.079857886
C  C66  1  0.90340000  0.69890000  0.20820000  1.0 -0.079857886
C  C67  1  0.90340000  0.19890000  0.29180000  1.0 -0.079857886
C  C68  1  0.40340000  0.80110000  0.70820000  1.0 -0.079857886
C  C69  1  0.50590000  0.29180000  0.80850000  1.0 -0.1096639565
C  C70  1  0.00590000  0.70820000  0.19150000  1.0 -0.1096639565
C  C71  1  0.00590000  0.20820000  0.30850000  1.0 -0.1096639565
C  C72  1  0.50590000  0.79180000  0.69150000  1.0 -0.1096639565
C  C73  1  0.54700000  0.22110000  0.81160000  1.0 -0.079857886
C  C74  1  0.04700000  0.77890000  0.18840000  1.0 -0.079857886
C  C75  1  0.04700000  0.27890000  0.31160000  1.0 -0.079857886
C  C76  1  0.54700000  0.72110000  0.68840000  1.0 -0.079857886
C  C77  1  0.48520000  0.16030000  0.79550000  1.0 -0.1096639565
C  C78  1  0.98520000  0.83970000  0.20450000  1.0 -0.1096639565
C  C79  1  0.98520000  0.33970000  0.29550000  1.0 -0.1096639565
C  C80  1  0.48520000  0.66030000  0.70450000  1.0 -0.1096639565
C  C81  1  0.38300000  0.17090000  0.77540000  1.0 -0.079857886
C  C82  1  0.88300000  0.82910000  0.22460000  1.0 -0.079857886
C  C83  1  0.88300000  0.32910000  0.27540000  1.0 -0.079857886
C  C84  1  0.38300000  0.67090000  0.72460000  1.0 -0.079857886
C  C85  1  0.65660000  0.21600000  0.92040000  1.0 -0.0696695116
C  C86  1  0.15660000  0.78400000  0.07960000  1.0 -0.0696695116
C  C87  1  0.15660000  0.28400000  0.42040000  1.0 -0.0696695116
C  C88  1  0.65660000  0.71600000  0.57960000  1.0 -0.0696695116
C  C89  1  0.66800000  0.28430000  0.94810000  1.0 -0.1025065482
C  C90  1  0.16800000  0.71570000  0.05190000  1.0 -0.1025065482
C  C91  1  0.16800000  0.21570000  0.44810000  1.0 -0.1025065482
C  C92  1  0.66800000  0.78430000  0.55190000  1.0 -0.1025065482
C  C93  1  0.64710000  0.29090000  0.01030000  1.0 -0.0868323771
C  C94  1  0.14710000  0.70910000  0.98970000  1.0 -0.0868323771
C  C95  1  0.14710000  0.20910000  0.51030000  1.0 -0.0868323771
C  C96  1  0.64710000  0.79090000  0.48970000  1.0 -0.0868323771
C  C97  1  0.61500000  0.23110000  0.04370000  1.0 -0.003842133
C  C98  1  0.11500000  0.76890000  0.95630000  1.0 -0.003842133
C  C99  1  0.11500000  0.26890000  0.54370000  1.0 -0.003842133
C  C100  1  0.61500000  0.73110000  0.45630000  1.0 -0.003842133
C  C101  1  0.60670000  0.16210000  0.01610000  1.0 -0.079857886
C  C102  1  0.10670000  0.83790000  0.98390000  1.0 -0.079857886
C  C103  1  0.10670000  0.33790000  0.51610000  1.0 -0.079857886
C  C104  1  0.60670000  0.66210000  0.48390000  1.0 -0.079857886
C  C105  1  0.62750000  0.15730000  0.95290000  1.0 -0.1096639565
C  C106  1  0.12750000  0.84270000  0.04710000  1.0 -0.1096639565
C  C107  1  0.12750000  0.34270000  0.45290000  1.0 -0.1096639565
C  C108  1  0.62750000  0.65730000  0.54710000  1.0 -0.1096639565
C  C109  1  0.58890000  0.23770000  0.11180000  1.0 0.5910064475
C  C110  1  0.08890000  0.76230000  0.88820000  1.0 0.5910064475
C  C111  1  0.08890000  0.26230000  0.61180000  1.0 0.5910064475
C  C112  1  0.58890000  0.73770000  0.38820000  1.0 0.5910064475
C  C113  1  0.99800000  0.50610000  0.75740000  1.0 0.501543873
C  C114  1  0.49800000  0.49390000  0.24260000  1.0 0.501543873
C  C115  1  0.49800000  0.99390000  0.25740000  1.0 0.501543873
C  C116  1  0.99800000  0.00610000  0.74260000  1.0 0.501543873
C  C117  1  0.12900000  0.53080000  0.81470000  1.0 0.4886500323
C  C118  1  0.62900000  0.46920000  0.18530000  1.0 0.4886500323
C  C119  1  0.62900000  0.96920000  0.31470000  1.0 0.4886500323
C  C120  1  0.12900000  0.03080000  0.68530000  1.0 0.4886500323
S  S1  1  0.39340000  0.24530000  0.60635000  1.0 0.9217953318
S  S2  1  0.89340000  0.75470000  0.39365000  1.0 0.9217953318
S  S3  1  0.89340000  0.25470000  0.10635000  1.0 0.9253520006
S  S4  1  0.39340000  0.74530000  0.89365000  1.0 0.9253520006
S  S5  1  0.67660000  0.20862000  0.83997000  1.0 0.9453840608
S  S6  1  0.17660000  0.79138000  0.16003000  1.0 0.9412520931
S  S7  1  0.17660000  0.29138000  0.33997000  1.0 0.9412520931
S  S8  1  0.67660000  0.70862000  0.66003000  1.0 0.9412520931
N  N1  1  0.05290000  0.44380000  0.75810000  1.0 -0.3336853152
N  N2  1  0.55290000  0.55620000  0.24190000  1.0 -0.3336853152
N  N3  1  0.55290000  0.05620000  0.25810000  1.0 -0.3336853152
N  N4  1  0.05290000  0.94380000  0.74190000  1.0 -0.3336853152
N  N5  1  0.04180000  0.56290000  0.79020000  1.0 -0.53204702
N  N6  1  0.54180000  0.43710000  0.20980000  1.0 -0.53204702
N  N7  1  0.54180000  0.93710000  0.29020000  1.0 -0.53204702
N  N8  1  0.04180000  0.06290000  0.70980000  1.0 -0.53204702
N  N9  1  0.13570000  0.46040000  0.79840000  1.0 -0.2845590031
N  N10  1  0.63570000  0.53960000  0.20160000  1.0 -0.2845590031
N  N11  1  0.63570000  0.03960000  0.29840000  1.0 -0.2845590031
N  N12  1  0.13570000  0.96040000  0.70160000  1.0 -0.2845590031
N  N13  1  0.90450000  0.51450000  0.72810000  1.0 -0.6031472897
N  N14  1  0.40450000  0.48550000  0.27190000  1.0 -0.6031472897
N  N15  1  0.40450000  0.98550000  0.22810000  1.0 -0.6031472897
N  N16  1  0.90450000  0.01450000  0.77190000  1.0 -0.6031472897
N  N17  1  0.19690000  0.56530000  0.85140000  1.0 -0.5815918213
N  N18  1  0.69690000  0.43470000  0.14860000  1.0 -0.5815918213
N  N19  1  0.69690000  0.93470000  0.35140000  1.0 -0.5815918213
N  N20  1  0.19690000  0.06530000  0.64860000  1.0 -0.5815918213
O  O1  1  0.50280000  0.21060000  0.30930000  1.0 -0.5509702678
O  O2  1  0.00280000  0.78940000  0.69070000  1.0 -0.5509702678
O  O3  1  0.00280000  0.28940000  0.80930000  1.0 -0.5509702678
O  O4  1  0.50280000  0.71060000  0.19070000  1.0 -0.5509702678
O  O5  1  0.57420000  0.17890000  0.14090000  1.0 -0.53204702
O  O6  1  0.07420000  0.82110000  0.85910000  1.0 -0.53204702
O  O7  1  0.07420000  0.32110000  0.64090000  1.0 -0.53204702
O  O8  1  0.57420000  0.67890000  0.35910000  1.0 -0.53204702
O  O9  1  0.87680000  0.34490000  0.70410000  1.0 -0.5509702678
O  O10  1  0.37680000  0.65510000  0.29590000  1.0 -0.5509702678
O  O11  1  0.37680000  0.15510000  0.20410000  1.0 -0.5509702678
O  O12  1  0.87680000  0.84490000  0.79590000  1.0 -0.5509702678
O  O13  1  0.19370000  0.31930000  0.75200000  1.0 -0.5223625069
O  O14  1  0.69370000  0.68070000  0.24800000  1.0 -0.5223625069
O  O15  1  0.69370000  0.18070000  0.25200000  1.0 -0.5223625069
O  O16  1  0.19370000  0.81930000  0.74800000  1.0 -0.5223625069
O  O17  1  0.89370000  0.22270000  0.69500000  1.0 -0.5600334471
O  O18  1  0.39370000  0.77730000  0.30500000  1.0 -0.5600334471
O  O19  1  0.39370000  0.27730000  0.19500000  1.0 -0.5600334471
O  O20  1  0.89370000  0.72270000  0.80500000  1.0 -0.5600334471
O  O21  1  0.17510000  0.19520000  0.74670000  1.0 -0.5658657616
O  O22  1  0.67510000  0.80480000  0.25330000  1.0 -0.5658657616
O  O23  1  0.67510000  0.30480000  0.24670000  1.0 -0.5658657616
O  O24  1  0.17510000  0.69520000  0.75330000  1.0 -0.5658657616
O  O25  1  0.47220000  0.33170000  0.31050000  1.0 -0.53204702
O  O26  1  0.97220000  0.66830000  0.68950000  1.0 -0.53204702
O  O27  1  0.97220000  0.16830000  0.81050000  1.0 -0.53204702
O  O28  1  0.47220000  0.83170000  0.18950000  1.0 -0.53204702
O  O29  1  0.57960000  0.30260000  0.13210000  1.0 -0.5509702678
O  O30  1  0.07960000  0.69740000  0.86790000  1.0 -0.5509702678
O  O31  1  0.07960000  0.19740000  0.63210000  1.0 -0.5509702678
O  O32  1  0.57960000  0.80260000  0.36790000  1.0 -0.5509702678
O  O33  1  0.35980000  0.17180000  0.62120000  1.0 -0.4946934646
O  O34  1  0.85980000  0.82820000  0.37880000  1.0 -0.4952482646
O  O35  1  0.85980000  0.32820000  0.12120000  1.0 -0.4946934646
O  O36  1  0.35980000  0.67180000  0.87880000  1.0 -0.4946934646
O  O37  1  0.33130000  0.30620000  0.62630000  1.0 -0.4614588385
O  O38  1  0.83130000  0.69380000  0.37370000  1.0 -0.4614588385
O  O39  1  0.83130000  0.19380000  0.12630000  1.0 -0.4614588385
O  O40  1  0.33130000  0.80620000  0.87370000  1.0 -0.4614588385
O  O41  1  0.70880000  0.13340000  0.82650000  1.0 -0.5115068918
O  O42  1  0.20880000  0.86660000  0.17350000  1.0 -0.5115068918
O  O43  1  0.20880000  0.36660000  0.32650000  1.0 -0.5115068918
O  O44  1  0.70880000  0.63340000  0.67350000  1.0 -0.5115068918
O  O45  1  0.74030000  0.26940000  0.81990000  1.0 -0.4775804421
O  O46  1  0.24030000  0.73060000  0.18010000  1.0 -0.4775804421
O  O47  1  0.24030000  0.23060000  0.31990000  1.0 -0.4775804421
O  O48  1  0.74030000  0.76940000  0.68010000  1.0 -0.4775804421
