# DDEC6 charges by PACMAN v1.1 (https://github.com/mtap-research/PACMAN-charge/)
data_IBAQEJ_ASR_pacman
_symmetry_space_group_name_H-M   'P 1'
_cell_length_a   16.59800000
_cell_length_b   16.64300000
_cell_length_c   22.49400000
_cell_angle_alpha   90.00000000
_cell_angle_beta   90.00000000
_cell_angle_gamma   90.00000000
_symmetry_Int_Tables_number   1
_chemical_formula_structural   Zn2H28C64N7(O2F5)2
_chemical_formula_sum   'Zn4 H56 C128 N14 O8 F20'
_cell_volume   6213.75412192
_cell_formula_units_Z   2
loop_
 _symmetry_equiv_pos_site_id
 _symmetry_equiv_pos_as_xyz
  1  'x, y, z'
loop_
 _atom_site_type_symbol
 _atom_site_label
 _atom_site_symmetry_multiplicity
 _atom_site_fract_x
 _atom_site_fract_y
 _atom_site_fract_z
 _atom_site_occupancy
 _atom_site_charge
Zn  Zn1  1  0.00000000  0.50000000  0.56530000  1.0 0.7983967398
Zn  Zn2  1  0.00000000  0.50000000  0.43470000  1.0 0.7983967398
Zn  Zn3  1  0.50000000  0.00000000  0.50000000  1.0 0.6554389332
Zn  Zn4  1  0.00000000  0.50000000  0.00000000  1.0 0.5725073789
H  H1  1  0.81590000  0.32000000  0.58860000  1.0 0.1403980686
H  H2  1  0.18410000  0.68000000  0.58860000  1.0 0.1403980686
H  H3  1  0.18410000  0.32000000  0.41140000  1.0 0.1403980686
H  H4  1  0.81590000  0.68000000  0.41140000  1.0 0.1403980686
H  H5  1  0.18410000  0.68000000  0.41140000  1.0 0.1403980686
H  H6  1  0.81590000  0.32000000  0.41140000  1.0 0.1403980686
H  H7  1  0.81590000  0.68000000  0.58860000  1.0 0.1403980686
H  H8  1  0.18410000  0.32000000  0.58860000  1.0 0.1403980686
H  H9  1  0.72060000  0.22230000  0.58780000  1.0 0.1295334973
H  H10  1  0.27940000  0.77770000  0.58780000  1.0 0.1295334973
H  H11  1  0.27940000  0.22230000  0.41220000  1.0 0.1295334973
H  H12  1  0.72060000  0.77770000  0.41220000  1.0 0.1295334973
H  H13  1  0.27940000  0.77770000  0.41220000  1.0 0.1295334973
H  H14  1  0.72060000  0.22230000  0.41220000  1.0 0.1295334973
H  H15  1  0.72060000  0.77770000  0.58780000  1.0 0.1295334973
H  H16  1  0.27940000  0.22230000  0.58780000  1.0 0.1295334973
H  H17  1  0.79790000  0.07430000  0.50000000  1.0 0.1295334973
H  H18  1  0.20210000  0.92570000  0.50000000  1.0 0.1295334973
H  H19  1  0.20210000  0.07430000  0.50000000  1.0 0.1295334973
H  H20  1  0.79790000  0.92570000  0.50000000  1.0 0.1295334973
H  H21  1  0.57470000  0.29890000  0.50000000  1.0 0.1295334973
H  H22  1  0.42530000  0.70110000  0.50000000  1.0 0.1295334973
H  H23  1  0.42530000  0.29890000  0.50000000  1.0 0.1295334973
H  H24  1  0.57470000  0.70110000  0.50000000  1.0 0.1295334973
H  H25  1  0.11060000  0.45740000  0.67040000  1.0 0.1183102882
H  H26  1  0.88940000  0.54260000  0.67040000  1.0 0.1183102882
H  H27  1  0.88940000  0.45740000  0.32960000  1.0 0.1183102882
H  H28  1  0.11060000  0.54260000  0.32960000  1.0 0.1183102882
H  H29  1  0.88940000  0.54260000  0.32960000  1.0 0.1183102882
H  H30  1  0.11060000  0.45740000  0.32960000  1.0 0.1183102882
H  H31  1  0.11060000  0.54260000  0.67040000  1.0 0.1183102882
H  H32  1  0.88940000  0.45740000  0.67040000  1.0 0.1183102882
H  H33  1  0.04520000  0.38160000  0.75550000  1.0 0.0994259339
H  H34  1  0.95480000  0.61840000  0.75550000  1.0 0.0994259339
H  H35  1  0.95480000  0.38160000  0.24450000  1.0 0.0994259339
H  H36  1  0.04520000  0.61840000  0.24450000  1.0 0.0994259339
H  H37  1  0.95480000  0.61840000  0.24450000  1.0 0.0994259339
H  H38  1  0.04520000  0.38160000  0.24450000  1.0 0.0994259339
H  H39  1  0.04520000  0.61840000  0.75550000  1.0 0.0994259339
H  H40  1  0.95480000  0.38160000  0.75550000  1.0 0.0994259339
H  H41  1  0.89510000  0.40580000  0.79810000  1.0 0.1093771827
H  H42  1  0.10490000  0.59420000  0.79810000  1.0 0.1093771827
H  H43  1  0.10490000  0.40580000  0.20190000  1.0 0.1093771827
H  H44  1  0.89510000  0.59420000  0.20190000  1.0 0.1093771827
H  H45  1  0.10490000  0.59420000  0.20190000  1.0 0.1093771827
H  H46  1  0.89510000  0.40580000  0.20190000  1.0 0.1093771827
H  H47  1  0.89510000  0.59420000  0.79810000  1.0 0.1093771827
H  H48  1  0.10490000  0.40580000  0.79810000  1.0 0.1093771827
H  H49  1  0.81730000  0.32460000  0.87040000  1.0 0.1403980686
H  H50  1  0.18270000  0.67540000  0.87040000  1.0 0.1403980686
H  H51  1  0.18270000  0.32460000  0.12960000  1.0 0.1403980686
H  H52  1  0.81730000  0.67540000  0.12960000  1.0 0.1403980686
H  H53  1  0.18270000  0.67540000  0.12960000  1.0 0.1403980686
H  H54  1  0.81730000  0.32460000  0.12960000  1.0 0.1403980686
H  H55  1  0.81730000  0.67540000  0.87040000  1.0 0.1403980686
H  H56  1  0.18270000  0.32460000  0.87040000  1.0 0.1403980686
C  C1  1  0.89380000  0.39330000  0.50000000  1.0 0.5725073789
C  C2  1  0.10620000  0.60670000  0.50000000  1.0 0.5725073789
C  C3  1  0.10620000  0.39330000  0.50000000  1.0 0.5725073789
C  C4  1  0.89380000  0.60670000  0.50000000  1.0 0.5725073789
C  C5  1  0.82860000  0.32740000  0.50000000  1.0 -0.0083344216
C  C6  1  0.17140000  0.67260000  0.50000000  1.0 -0.0083344216
C  C7  1  0.17140000  0.32740000  0.50000000  1.0 -0.0083344216
C  C8  1  0.82860000  0.67260000  0.50000000  1.0 -0.0083344216
C  C9  1  0.79740000  0.29900000  0.55170000  1.0 -0.0913813936
C  C10  1  0.20260000  0.70100000  0.55170000  1.0 -0.0913813936
C  C11  1  0.20260000  0.29900000  0.44830000  1.0 -0.0913813936
C  C12  1  0.79740000  0.70100000  0.44830000  1.0 -0.0913813936
C  C13  1  0.20260000  0.70100000  0.44830000  1.0 -0.0913813936
C  C14  1  0.79740000  0.29900000  0.44830000  1.0 -0.0913813936
C  C15  1  0.79740000  0.70100000  0.55170000  1.0 -0.0913813936
C  C16  1  0.20260000  0.29900000  0.55170000  1.0 -0.0913813936
C  C17  1  0.74080000  0.24160000  0.55100000  1.0 -0.1368655045
C  C18  1  0.25920000  0.75840000  0.55100000  1.0 -0.1368655045
C  C19  1  0.25920000  0.24160000  0.44900000  1.0 -0.1368655045
C  C20  1  0.74080000  0.75840000  0.44900000  1.0 -0.1368655045
C  C21  1  0.25920000  0.75840000  0.44900000  1.0 -0.1368655045
C  C22  1  0.74080000  0.24160000  0.44900000  1.0 -0.1368655045
C  C23  1  0.74080000  0.75840000  0.55100000  1.0 -0.1368655045
C  C24  1  0.25920000  0.24160000  0.55100000  1.0 -0.1368655045
C  C25  1  0.71120000  0.20980000  0.50000000  1.0 0.0705883487
C  C26  1  0.28880000  0.79020000  0.50000000  1.0 0.0778296152
C  C27  1  0.28880000  0.20980000  0.50000000  1.0 0.0705883487
C  C28  1  0.71120000  0.79020000  0.50000000  1.0 0.0778296152
C  C29  1  0.64730000  0.14970000  0.50000000  1.0 -0.0500246365
C  C30  1  0.35270000  0.85030000  0.50000000  1.0 -0.0500246365
C  C31  1  0.35270000  0.14970000  0.50000000  1.0 -0.0500246365
C  C32  1  0.64730000  0.85030000  0.50000000  1.0 -0.0500246365
C  C33  1  0.67100000  0.06570000  0.50000000  1.0 0.1753481213
C  C34  1  0.32900000  0.93430000  0.50000000  1.0 0.1753481213
C  C35  1  0.32900000  0.06570000  0.50000000  1.0 0.1753481213
C  C36  1  0.67100000  0.93430000  0.50000000  1.0 0.1753481213
C  C37  1  0.75180000  0.04050000  0.50000000  1.0 -0.1996839907
C  C38  1  0.24820000  0.95950000  0.50000000  1.0 -0.1996839907
C  C39  1  0.24820000  0.04050000  0.50000000  1.0 -0.1996839907
C  C40  1  0.75180000  0.95950000  0.50000000  1.0 -0.1996839907
C  C41  1  0.56830000  0.17310000  0.50000000  1.0 0.1673909062
C  C42  1  0.43170000  0.82690000  0.50000000  1.0 0.1673909062
C  C43  1  0.43170000  0.17310000  0.50000000  1.0 0.1673909062
C  C44  1  0.56830000  0.82690000  0.50000000  1.0 0.1673909062
C  C45  1  0.54130000  0.25250000  0.50000000  1.0 -0.1789864194
C  C46  1  0.45870000  0.74750000  0.50000000  1.0 -0.1789864194
C  C47  1  0.45870000  0.25250000  0.50000000  1.0 -0.1789864194
C  C48  1  0.54130000  0.74750000  0.50000000  1.0 -0.1789864194
C  C49  1  0.05770000  0.46300000  0.68590000  1.0 -0.0500246365
C  C50  1  0.94230000  0.53700000  0.68590000  1.0 -0.0500246365
C  C51  1  0.94230000  0.46300000  0.31410000  1.0 -0.0500246365
C  C52  1  0.05770000  0.53700000  0.31410000  1.0 -0.0500246365
C  C53  1  0.94230000  0.53700000  0.31410000  1.0 -0.0500246365
C  C54  1  0.05770000  0.46300000  0.31410000  1.0 -0.0500246365
C  C55  1  0.05770000  0.53700000  0.68590000  1.0 -0.0500246365
C  C56  1  0.94230000  0.46300000  0.68590000  1.0 -0.0500246365
C  C57  1  0.03690000  0.43380000  0.73960000  1.0 -0.1179923196
C  C58  1  0.96310000  0.56620000  0.73960000  1.0 -0.1179923196
C  C59  1  0.96310000  0.43380000  0.26040000  1.0 -0.1179923196
C  C60  1  0.03690000  0.56620000  0.26040000  1.0 -0.1179923196
C  C61  1  0.96310000  0.56620000  0.26040000  1.0 -0.1179923196
C  C62  1  0.03690000  0.43380000  0.26040000  1.0 -0.1179923196
C  C63  1  0.03690000  0.56620000  0.73960000  1.0 -0.1179923196
C  C64  1  0.96310000  0.43380000  0.73960000  1.0 -0.1179923196
C  C65  1  0.00000000  0.50000000  0.76540000  1.0 0.0315328852
C  C66  1  0.00000000  0.50000000  0.23460000  1.0 0.0315328852
C  C67  1  0.00000000  0.50000000  0.83250000  1.0 -0.0083344216
C  C68  1  0.00000000  0.50000000  0.16750000  1.0 -0.0083344216
C  C69  1  0.96200000  0.44800000  0.87300000  1.0 0.1093771827
C  C70  1  0.03800000  0.55200000  0.87300000  1.0 0.1093771827
C  C71  1  0.03800000  0.44800000  0.12700000  1.0 0.1093771827
C  C72  1  0.96200000  0.55200000  0.12700000  1.0 0.1093771827
C  C73  1  0.03800000  0.55200000  0.12700000  1.0 0.1093771827
C  C74  1  0.96200000  0.44800000  0.12700000  1.0 0.1093771827
C  C75  1  0.96200000  0.55200000  0.87300000  1.0 0.1093771827
C  C76  1  0.03800000  0.44800000  0.87300000  1.0 0.1093771827
C  C77  1  0.90300000  0.40400000  0.84000000  1.0 -0.207029479
C  C78  1  0.09700000  0.59600000  0.84000000  1.0 -0.207029479
C  C79  1  0.09700000  0.40400000  0.16000000  1.0 -0.207029479
C  C80  1  0.90300000  0.59600000  0.16000000  1.0 -0.207029479
C  C81  1  0.09700000  0.59600000  0.16000000  1.0 -0.207029479
C  C82  1  0.90300000  0.40400000  0.16000000  1.0 -0.207029479
C  C83  1  0.90300000  0.59600000  0.84000000  1.0 -0.207029479
C  C84  1  0.09700000  0.40400000  0.84000000  1.0 -0.207029479
C  C85  1  0.86000000  0.36100000  0.87960000  1.0 -0.207029479
C  C86  1  0.14000000  0.63900000  0.87960000  1.0 -0.207029479
C  C87  1  0.14000000  0.36100000  0.12040000  1.0 -0.207029479
C  C88  1  0.86000000  0.63900000  0.12040000  1.0 -0.207029479
C  C89  1  0.14000000  0.63900000  0.12040000  1.0 -0.207029479
C  C90  1  0.86000000  0.36100000  0.12040000  1.0 -0.207029479
C  C91  1  0.86000000  0.63900000  0.87960000  1.0 -0.207029479
C  C92  1  0.14000000  0.36100000  0.87960000  1.0 -0.207029479
C  C93  1  0.88900000  0.38000000  0.93910000  1.0 0.1403980686
C  C94  1  0.11100000  0.62000000  0.93910000  1.0 0.1403980686
C  C95  1  0.11100000  0.38000000  0.06090000  1.0 0.1403980686
C  C96  1  0.88900000  0.62000000  0.06090000  1.0 0.1403980686
C  C97  1  0.11100000  0.62000000  0.06090000  1.0 0.1403980686
C  C98  1  0.88900000  0.38000000  0.06090000  1.0 0.1403980686
C  C99  1  0.88900000  0.62000000  0.93910000  1.0 0.1403980686
C  C100  1  0.11100000  0.38000000  0.93910000  1.0 0.1403980686
C  C101  1  0.87900000  0.36400000  0.00000000  1.0 -0.0913813936
C  C102  1  0.12100000  0.63600000  0.00000000  1.0 -0.0913813936
C  C103  1  0.12100000  0.36400000  0.00000000  1.0 -0.0913813936
C  C104  1  0.87900000  0.63600000  0.00000000  1.0 -0.0913813936
C  C105  1  0.81400000  0.30040000  0.00000000  1.0 -0.1317483302
C  C106  1  0.18600000  0.69960000  0.00000000  1.0 -0.1317483302
C  C107  1  0.18600000  0.30040000  0.00000000  1.0 -0.1317483302
C  C108  1  0.81400000  0.69960000  0.00000000  1.0 -0.1317483302
C  C109  1  0.73640000  0.33400000  0.00000000  1.0 0.1673909062
C  C110  1  0.26360000  0.66600000  0.00000000  1.0 0.1673909062
C  C111  1  0.26360000  0.33400000  0.00000000  1.0 0.1673909062
C  C112  1  0.73640000  0.66600000  0.00000000  1.0 0.1673909062
C  C113  1  0.66810000  0.28320000  0.00000000  1.0 0.0778296152
C  C114  1  0.33190000  0.71680000  0.00000000  1.0 0.0778296152
C  C115  1  0.33190000  0.28320000  0.00000000  1.0 0.0778296152
C  C116  1  0.66810000  0.71680000  0.00000000  1.0 0.0778296152
C  C117  1  0.67730000  0.19920000  0.00000000  1.0 0.0994259339
C  C118  1  0.32270000  0.80080000  0.00000000  1.0 0.0994259339
C  C119  1  0.32270000  0.19920000  0.00000000  1.0 0.0994259339
C  C120  1  0.67730000  0.80080000  0.00000000  1.0 0.0994259339
C  C121  1  0.75500000  0.16600000  0.00000000  1.0 0.0705883487
C  C122  1  0.24500000  0.83400000  0.00000000  1.0 0.0705883487
C  C123  1  0.24500000  0.16600000  0.00000000  1.0 0.0705883487
C  C124  1  0.75500000  0.83400000  0.00000000  1.0 0.0705883487
C  C125  1  0.82300000  0.21580000  0.00000000  1.0 0.1673909062
C  C126  1  0.17700000  0.78420000  0.00000000  1.0 0.1673909062
C  C127  1  0.17700000  0.21580000  0.00000000  1.0 0.1673909062
C  C128  1  0.82300000  0.78420000  0.00000000  1.0 0.1673909062
N  N1  1  0.50000000  0.11400000  0.50000000  1.0 -0.3971739974
N  N2  1  0.50000000  0.88600000  0.50000000  1.0 -0.3971739974
N  N3  1  0.62060000  0.00000000  0.50000000  1.0 -0.3511418965
N  N4  1  0.37940000  0.00000000  0.50000000  1.0 -0.3511418965
N  N5  1  0.00000000  0.50000000  0.65640000  1.0 -0.1317483302
N  N6  1  0.00000000  0.50000000  0.34360000  1.0 -0.1317483302
N  N7  1  0.94850000  0.43800000  0.93180000  1.0 -0.1545030068
N  N8  1  0.05150000  0.56200000  0.93180000  1.0 -0.1545030068
N  N9  1  0.05150000  0.43800000  0.06820000  1.0 -0.1545030068
N  N10  1  0.94850000  0.56200000  0.06820000  1.0 -0.1545030068
N  N11  1  0.05150000  0.56200000  0.06820000  1.0 -0.1545030068
N  N12  1  0.94850000  0.43800000  0.06820000  1.0 -0.1545030068
N  N13  1  0.94850000  0.56200000  0.93180000  1.0 -0.1545030068
N  N14  1  0.05150000  0.43800000  0.93180000  1.0 -0.1545030068
O  O1  1  0.91750000  0.41520000  0.54910000  1.0 -0.5002698567
O  O2  1  0.08250000  0.58480000  0.54910000  1.0 -0.5002698567
O  O3  1  0.08250000  0.41520000  0.45090000  1.0 -0.5002698567
O  O4  1  0.91750000  0.58480000  0.45090000  1.0 -0.5002698567
O  O5  1  0.08250000  0.58480000  0.45090000  1.0 -0.5002698567
O  O6  1  0.91750000  0.41520000  0.45090000  1.0 -0.5002698567
O  O7  1  0.91750000  0.58480000  0.54910000  1.0 -0.5002698567
O  O8  1  0.08250000  0.41520000  0.54910000  1.0 -0.5002698567
F  F1  1  0.72670000  0.41300000  0.00000000  1.0 -0.1102324877
F  F2  1  0.27330000  0.58700000  0.00000000  1.0 -0.1102324877
F  F3  1  0.27330000  0.41300000  0.00000000  1.0 -0.1102324877
F  F4  1  0.72670000  0.58700000  0.00000000  1.0 -0.1102324877
F  F5  1  0.59400000  0.31590000  0.00000000  1.0 -0.0913813936
F  F6  1  0.40600000  0.68410000  0.00000000  1.0 -0.0913813936
F  F7  1  0.40600000  0.31590000  0.00000000  1.0 -0.0913813936
F  F8  1  0.59400000  0.68410000  0.00000000  1.0 -0.0913813936
F  F9  1  0.61230000  0.15140000  0.00000000  1.0 -0.0913813936
F  F10  1  0.38770000  0.84860000  0.00000000  1.0 -0.0913813936
F  F11  1  0.38770000  0.15140000  0.00000000  1.0 -0.084889565
F  F12  1  0.61230000  0.84860000  0.00000000  1.0 -0.0913813936
F  F13  1  0.76390000  0.08600000  0.00000000  1.0 -0.0913813936
F  F14  1  0.23610000  0.91400000  0.00000000  1.0 -0.0913813936
F  F15  1  0.23610000  0.08600000  0.00000000  1.0 -0.0913813936
F  F16  1  0.76390000  0.91400000  0.00000000  1.0 -0.0913813936
F  F17  1  0.89700000  0.18400000  0.00000000  1.0 -0.1102324877
F  F18  1  0.10300000  0.81600000  0.00000000  1.0 -0.1102324877
F  F19  1  0.10300000  0.18400000  0.00000000  1.0 -0.1102324877
F  F20  1  0.89700000  0.81600000  0.00000000  1.0 -0.1102324877
