# DDEC6 charges by PACMAN v1.1 (https://github.com/mtap-research/PACMAN-charge/)
data_IBAQAF_ASR_pacman
_symmetry_space_group_name_H-M   'P 1'
_cell_length_a   16.61210000
_cell_length_b   16.62020000
_cell_length_c   22.16310000
_cell_angle_alpha   90.00000000
_cell_angle_beta   90.00000000
_cell_angle_gamma   90.00000000
_symmetry_Int_Tables_number   1
_chemical_formula_structural   MnZn3H56C128N14(O2F5)4
_chemical_formula_sum   'Mn1 Zn3 H56 C128 N14 O8 F20'
_cell_volume   6119.15266406
_cell_formula_units_Z   1
loop_
 _symmetry_equiv_pos_site_id
 _symmetry_equiv_pos_as_xyz
  1  'x, y, z'
loop_
 _atom_site_type_symbol
 _atom_site_label
 _atom_site_symmetry_multiplicity
 _atom_site_fract_x
 _atom_site_fract_y
 _atom_site_fract_z
 _atom_site_occupancy
 _atom_site_charge
Mn  Mn1  1  0.00000000  0.50000000  0.00000000  1.0 0.3473974724
Zn  Zn1  1  0.00000000  0.50000000  0.56538000  1.0 0.7902406413
Zn  Zn2  1  0.00000000  0.50000000  0.43462000  1.0 0.7902406413
Zn  Zn3  1  0.50000000  0.00000000  0.50000000  1.0 0.6288790365
H  H1  1  0.81980000  0.31970000  0.59050000  1.0 0.1234697287
H  H2  1  0.18020000  0.68030000  0.59050000  1.0 0.1234697287
H  H3  1  0.18020000  0.31970000  0.40950000  1.0 0.1234697287
H  H4  1  0.81980000  0.68030000  0.40950000  1.0 0.1234697287
H  H5  1  0.18020000  0.68030000  0.40950000  1.0 0.1234697287
H  H6  1  0.81980000  0.31970000  0.40950000  1.0 0.1234697287
H  H7  1  0.81980000  0.68030000  0.59050000  1.0 0.1234697287
H  H8  1  0.18020000  0.31970000  0.59050000  1.0 0.1234697287
H  H9  1  0.71920000  0.22080000  0.59280000  1.0 0.1234697287
H  H10  1  0.28080000  0.77920000  0.59280000  1.0 0.1234697287
H  H11  1  0.28080000  0.22080000  0.40720000  1.0 0.1234697287
H  H12  1  0.71920000  0.77920000  0.40720000  1.0 0.1234697287
H  H13  1  0.28080000  0.77920000  0.40720000  1.0 0.1234697287
H  H14  1  0.71920000  0.22080000  0.40720000  1.0 0.1234697287
H  H15  1  0.71920000  0.77920000  0.59280000  1.0 0.1234697287
H  H16  1  0.28080000  0.22080000  0.59280000  1.0 0.1234697287
H  H17  1  0.80130000  0.07400000  0.50000000  1.0 0.1274955191
H  H18  1  0.19870000  0.92600000  0.50000000  1.0 0.1274955191
H  H19  1  0.19870000  0.07400000  0.50000000  1.0 0.1274955191
H  H20  1  0.80130000  0.92600000  0.50000000  1.0 0.1274955191
H  H21  1  0.57450000  0.30120000  0.50000000  1.0 0.1274955191
H  H22  1  0.42550000  0.69880000  0.50000000  1.0 0.1274955191
H  H23  1  0.42550000  0.30120000  0.50000000  1.0 0.1274955191
H  H24  1  0.57450000  0.69880000  0.50000000  1.0 0.1274955191
H  H25  1  0.08720000  0.57720000  0.66370000  1.0 0.1274955191
H  H26  1  0.91280000  0.42280000  0.66370000  1.0 0.1274955191
H  H27  1  0.91280000  0.57720000  0.33630000  1.0 0.1274955191
H  H28  1  0.08720000  0.42280000  0.33630000  1.0 0.1274955191
H  H29  1  0.91280000  0.42280000  0.33630000  1.0 0.1274955191
H  H30  1  0.08720000  0.57720000  0.33630000  1.0 0.1274955191
H  H31  1  0.08720000  0.42280000  0.66370000  1.0 0.1274955191
H  H32  1  0.91280000  0.57720000  0.66370000  1.0 0.1274955191
H  H33  1  0.08730000  0.58190000  0.76480000  1.0 0.0901039296
H  H34  1  0.91270000  0.41810000  0.76480000  1.0 0.0901039296
H  H35  1  0.91270000  0.58190000  0.23520000  1.0 0.0901039296
H  H36  1  0.08730000  0.41810000  0.23520000  1.0 0.0901039296
H  H37  1  0.91270000  0.41810000  0.23520000  1.0 0.0901039296
H  H38  1  0.08730000  0.58190000  0.23520000  1.0 0.0901039296
H  H39  1  0.08730000  0.41810000  0.76480000  1.0 0.0901039296
H  H40  1  0.91270000  0.58190000  0.76480000  1.0 0.0901039296
H  H41  1  0.88220000  0.38480000  0.80340000  1.0 0.1078488954
H  H42  1  0.11780000  0.61520000  0.80340000  1.0 0.1078488954
H  H43  1  0.11780000  0.38480000  0.19660000  1.0 0.1078488954
H  H44  1  0.88220000  0.61520000  0.19660000  1.0 0.1078488954
H  H45  1  0.11780000  0.61520000  0.19660000  1.0 0.1078488954
H  H46  1  0.88220000  0.38480000  0.19660000  1.0 0.1078488954
H  H47  1  0.88220000  0.61520000  0.80340000  1.0 0.1078488954
H  H48  1  0.11780000  0.38480000  0.80340000  1.0 0.1078488954
H  H49  1  0.82070000  0.30360000  0.88630000  1.0 0.1274955191
H  H50  1  0.17930000  0.69640000  0.88630000  1.0 0.1274955191
H  H51  1  0.17930000  0.30360000  0.11370000  1.0 0.1274955191
H  H52  1  0.82070000  0.69640000  0.11370000  1.0 0.1274955191
H  H53  1  0.17930000  0.69640000  0.11370000  1.0 0.1274955191
H  H54  1  0.82070000  0.30360000  0.11370000  1.0 0.1274955191
H  H55  1  0.82070000  0.69640000  0.88630000  1.0 0.1274955191
H  H56  1  0.17930000  0.30360000  0.88630000  1.0 0.1274955191
C  C1  1  0.89320000  0.39360000  0.50000000  1.0 0.5786895414
C  C2  1  0.10680000  0.60640000  0.50000000  1.0 0.5786895414
C  C3  1  0.10680000  0.39360000  0.50000000  1.0 0.5786895414
C  C4  1  0.89320000  0.60640000  0.50000000  1.0 0.5786895414
C  C5  1  0.82920000  0.32780000  0.50000000  1.0 -0.0309734283
C  C6  1  0.17080000  0.67220000  0.50000000  1.0 -0.0309734283
C  C7  1  0.17080000  0.32780000  0.50000000  1.0 -0.0309734283
C  C8  1  0.82920000  0.67220000  0.50000000  1.0 -0.0309734283
C  C9  1  0.79920000  0.29890000  0.55370000  1.0 -0.0977575636
C  C10  1  0.20080000  0.70110000  0.55370000  1.0 -0.0977575636
C  C11  1  0.20080000  0.29890000  0.44630000  1.0 -0.0977575636
C  C12  1  0.79920000  0.70110000  0.44630000  1.0 -0.0977575636
C  C13  1  0.20080000  0.70110000  0.44630000  1.0 -0.0977575636
C  C14  1  0.79920000  0.29890000  0.44630000  1.0 -0.0977575636
C  C15  1  0.79920000  0.70110000  0.55370000  1.0 -0.0977575636
C  C16  1  0.20080000  0.29890000  0.55370000  1.0 -0.0977575636
C  C17  1  0.73960000  0.24010000  0.55550000  1.0 -0.1667500477
C  C18  1  0.26040000  0.75990000  0.55550000  1.0 -0.1667500477
C  C19  1  0.26040000  0.24010000  0.44450000  1.0 -0.1667500477
C  C20  1  0.73960000  0.75990000  0.44450000  1.0 -0.1667500477
C  C21  1  0.26040000  0.75990000  0.44450000  1.0 -0.1667500477
C  C22  1  0.73960000  0.24010000  0.44450000  1.0 -0.1667500477
C  C23  1  0.73960000  0.75990000  0.55550000  1.0 -0.1667500477
C  C24  1  0.26040000  0.24010000  0.55550000  1.0 -0.1667500477
C  C25  1  0.71020000  0.21010000  0.50000000  1.0 0.1017846552
C  C26  1  0.28980000  0.78990000  0.50000000  1.0 0.1017846552
C  C27  1  0.28980000  0.21010000  0.50000000  1.0 0.1017846552
C  C28  1  0.71020000  0.78990000  0.50000000  1.0 0.1017846552
C  C29  1  0.64580000  0.14600000  0.50000000  1.0 -0.0625555854
C  C30  1  0.35420000  0.85400000  0.50000000  1.0 -0.0625555854
C  C31  1  0.35420000  0.14600000  0.50000000  1.0 -0.0625555854
C  C32  1  0.64580000  0.85400000  0.50000000  1.0 -0.0625555854
C  C33  1  0.67290000  0.06550000  0.50000000  1.0 0.165779825
C  C34  1  0.32710000  0.93450000  0.50000000  1.0 0.165779825
C  C35  1  0.32710000  0.06550000  0.50000000  1.0 0.165779825
C  C36  1  0.67290000  0.93450000  0.50000000  1.0 0.165779825
C  C37  1  0.75530000  0.04000000  0.50000000  1.0 -0.1772882025
C  C38  1  0.24470000  0.96000000  0.50000000  1.0 -0.1772882025
C  C39  1  0.24470000  0.04000000  0.50000000  1.0 -0.1772882025
C  C40  1  0.75530000  0.96000000  0.50000000  1.0 -0.1772882025
C  C41  1  0.56550000  0.17200000  0.50000000  1.0 0.1792011984
C  C42  1  0.43450000  0.82800000  0.50000000  1.0 0.1792011984
C  C43  1  0.43450000  0.17200000  0.50000000  1.0 0.1792011984
C  C44  1  0.56550000  0.82800000  0.50000000  1.0 0.1792011984
C  C45  1  0.54040000  0.25530000  0.50000000  1.0 -0.1925104599
C  C46  1  0.45960000  0.74470000  0.50000000  1.0 -0.1925104599
C  C47  1  0.45960000  0.25530000  0.50000000  1.0 -0.1925104599
C  C48  1  0.54040000  0.74470000  0.50000000  1.0 -0.1925104599
C  C49  1  0.04970000  0.54460000  0.68490000  1.0 -0.0120027785
C  C50  1  0.95030000  0.45540000  0.68490000  1.0 -0.0120027785
C  C51  1  0.95030000  0.54460000  0.31510000  1.0 -0.0120027785
C  C52  1  0.04970000  0.45540000  0.31510000  1.0 -0.0120027785
C  C53  1  0.95030000  0.45540000  0.31510000  1.0 -0.0120027785
C  C54  1  0.04970000  0.54460000  0.31510000  1.0 -0.0120027785
C  C55  1  0.04970000  0.45540000  0.68490000  1.0 -0.0120027785
C  C56  1  0.95030000  0.54460000  0.68490000  1.0 -0.0120027785
C  C57  1  0.05040000  0.54670000  0.74550000  1.0 -0.0977575636
C  C58  1  0.94960000  0.45330000  0.74550000  1.0 -0.0977575636
C  C59  1  0.94960000  0.54670000  0.25450000  1.0 -0.0977575636
C  C60  1  0.05040000  0.45330000  0.25450000  1.0 -0.0977575636
C  C61  1  0.94960000  0.45330000  0.25450000  1.0 -0.0977575636
C  C62  1  0.05040000  0.54670000  0.25450000  1.0 -0.0977575636
C  C63  1  0.05040000  0.45330000  0.74550000  1.0 -0.0977575636
C  C64  1  0.94960000  0.54670000  0.74550000  1.0 -0.0977575636
C  C65  1  0.00000000  0.50000000  0.78130000  1.0 0.0244333369
C  C66  1  0.00000000  0.50000000  0.21870000  1.0 0.0258113087
C  C67  1  0.00000000  0.50000000  0.85030000  1.0 -0.0190590251
C  C68  1  0.00000000  0.50000000  0.14970000  1.0 -0.0190590251
C  C69  1  0.94610000  0.44530000  0.87440000  1.0 0.1017846552
C  C70  1  0.05390000  0.55470000  0.87440000  1.0 0.1017846552
C  C71  1  0.05390000  0.44530000  0.12560000  1.0 0.1017846552
C  C72  1  0.94610000  0.55470000  0.12560000  1.0 0.1017846552
C  C73  1  0.05390000  0.55470000  0.12560000  1.0 0.1017846552
C  C74  1  0.94610000  0.44530000  0.12560000  1.0 0.1017846552
C  C75  1  0.94610000  0.55470000  0.87440000  1.0 0.1017846552
C  C76  1  0.05390000  0.44530000  0.87440000  1.0 0.1017846552
C  C77  1  0.89030000  0.39110000  0.84560000  1.0 -0.1772882025
C  C78  1  0.10970000  0.60890000  0.84560000  1.0 -0.1772882025
C  C79  1  0.10970000  0.39110000  0.15440000  1.0 -0.1772882025
C  C80  1  0.89030000  0.60890000  0.15440000  1.0 -0.1772882025
C  C81  1  0.10970000  0.60890000  0.15440000  1.0 -0.1772882025
C  C82  1  0.89030000  0.39110000  0.15440000  1.0 -0.1772882025
C  C83  1  0.89030000  0.60890000  0.84560000  1.0 -0.1772882025
C  C84  1  0.10970000  0.39110000  0.84560000  1.0 -0.1772882025
C  C85  1  0.85200000  0.35120000  0.88970000  1.0 -0.1772882025
C  C86  1  0.14800000  0.64880000  0.88970000  1.0 -0.1772882025
C  C87  1  0.14800000  0.35120000  0.11030000  1.0 -0.1772882025
C  C88  1  0.85200000  0.64880000  0.11030000  1.0 -0.1772882025
C  C89  1  0.14800000  0.64880000  0.11030000  1.0 -0.1772882025
C  C90  1  0.85200000  0.35120000  0.11030000  1.0 -0.1772882025
C  C91  1  0.85200000  0.64880000  0.88970000  1.0 -0.1772882025
C  C92  1  0.14800000  0.35120000  0.88970000  1.0 -0.1772882025
C  C93  1  0.86930000  0.39690000  0.94360000  1.0 0.1274955191
C  C94  1  0.13070000  0.60310000  0.94360000  1.0 0.1274955191
C  C95  1  0.13070000  0.39690000  0.05640000  1.0 0.1274955191
C  C96  1  0.86930000  0.60310000  0.05640000  1.0 0.1274955191
C  C97  1  0.13070000  0.60310000  0.05640000  1.0 0.1274955191
C  C98  1  0.86930000  0.39690000  0.05640000  1.0 0.1274955191
C  C99  1  0.86930000  0.60310000  0.94360000  1.0 0.1274955191
C  C100  1  0.13070000  0.39690000  0.94360000  1.0 0.1274955191
C  C101  1  0.87900000  0.36100000  0.00000000  1.0 -0.0897894741
C  C102  1  0.12100000  0.63900000  0.00000000  1.0 -0.0897894741
C  C103  1  0.12100000  0.36100000  0.00000000  1.0 -0.0897894741
C  C104  1  0.87900000  0.63900000  0.00000000  1.0 -0.0897894741
C  C105  1  0.81300000  0.29820000  0.00000000  1.0 -0.1458998661
C  C106  1  0.18700000  0.70180000  0.00000000  1.0 -0.1458998661
C  C107  1  0.18700000  0.29820000  0.00000000  1.0 -0.1458998661
C  C108  1  0.81300000  0.70180000  0.00000000  1.0 -0.1458998661
C  C109  1  0.73310000  0.33030000  0.00000000  1.0 0.1596980055
C  C110  1  0.26690000  0.66970000  0.00000000  1.0 0.1596980055
C  C111  1  0.26690000  0.33030000  0.00000000  1.0 0.1596980055
C  C112  1  0.73310000  0.66970000  0.00000000  1.0 0.1596980055
C  C113  1  0.66480000  0.27880000  0.00000000  1.0 0.1017846552
C  C114  1  0.33520000  0.72120000  0.00000000  1.0 0.1017846552
C  C115  1  0.33520000  0.27880000  0.00000000  1.0 0.1017846552
C  C116  1  0.66480000  0.72120000  0.00000000  1.0 0.1017846552
C  C117  1  0.67670000  0.19410000  0.00000000  1.0 0.1017846552
C  C118  1  0.32330000  0.80590000  0.00000000  1.0 0.1017846552
C  C119  1  0.32330000  0.19410000  0.00000000  1.0 0.1017846552
C  C120  1  0.67670000  0.80590000  0.00000000  1.0 0.1017846552
C  C121  1  0.75650000  0.16160000  0.00000000  1.0 0.0901039296
C  C122  1  0.24350000  0.83840000  0.00000000  1.0 0.0901039296
C  C123  1  0.24350000  0.16160000  0.00000000  1.0 0.0901039296
C  C124  1  0.75650000  0.83840000  0.00000000  1.0 0.0901039296
C  C125  1  0.82480000  0.21360000  0.00000000  1.0 0.1792011984
C  C126  1  0.17520000  0.78640000  0.00000000  1.0 0.1792011984
C  C127  1  0.17520000  0.21360000  0.00000000  1.0 0.1792011984
C  C128  1  0.82480000  0.78640000  0.00000000  1.0 0.1792011984
N  N1  1  0.50000000  0.12330000  0.50000000  1.0 -0.3437360267
N  N2  1  0.50000000  0.87670000  0.50000000  1.0 -0.3437360267
N  N3  1  0.62150000  0.00000000  0.50000000  1.0 -0.3660033683
N  N4  1  0.37850000  0.00000000  0.50000000  1.0 -0.3660033683
N  N5  1  0.00000000  0.50000000  0.65350000  1.0 -0.0426602236
N  N6  1  0.00000000  0.50000000  0.34650000  1.0 -0.0426602236
N  N7  1  0.94070000  0.43870000  0.93400000  1.0 -0.1458998661
N  N8  1  0.05930000  0.56130000  0.93400000  1.0 -0.1445104669
N  N9  1  0.05930000  0.43870000  0.06600000  1.0 -0.1445104669
N  N10  1  0.94070000  0.56130000  0.06600000  1.0 -0.1445104669
N  N11  1  0.05930000  0.56130000  0.06600000  1.0 -0.1445104669
N  N12  1  0.94070000  0.43870000  0.06600000  1.0 -0.1445104669
N  N13  1  0.94070000  0.56130000  0.93400000  1.0 -0.1458998661
N  N14  1  0.05930000  0.43870000  0.93400000  1.0 -0.1445104669
O  O1  1  0.91631000  0.41562000  0.55085000  1.0 -0.530653749
O  O2  1  0.08369000  0.58438000  0.55085000  1.0 -0.530653749
O  O3  1  0.08369000  0.41562000  0.44915000  1.0 -0.530653749
O  O4  1  0.91631000  0.58438000  0.44915000  1.0 -0.530653749
O  O5  1  0.08369000  0.58438000  0.44915000  1.0 -0.530653749
O  O6  1  0.91631000  0.41562000  0.44915000  1.0 -0.530653749
O  O7  1  0.91631000  0.58438000  0.55085000  1.0 -0.530653749
O  O8  1  0.08369000  0.41562000  0.55085000  1.0 -0.530653749
F  F1  1  0.72390000  0.41080000  0.00000000  1.0 -0.1122289601
F  F2  1  0.27610000  0.58920000  0.00000000  1.0 -0.1122289601
F  F3  1  0.27610000  0.41080000  0.00000000  1.0 -0.1122289601
F  F4  1  0.72390000  0.58920000  0.00000000  1.0 -0.1122289601
F  F5  1  0.58990000  0.31060000  0.00000000  1.0 -0.0977575636
F  F6  1  0.41010000  0.68940000  0.00000000  1.0 -0.0977575636
F  F7  1  0.41010000  0.31060000  0.00000000  1.0 -0.0977575636
F  F8  1  0.58990000  0.68940000  0.00000000  1.0 -0.0977575636
F  F9  1  0.61280000  0.14300000  0.00000000  1.0 -0.0977575636
F  F10  1  0.38720000  0.85700000  0.00000000  1.0 -0.0977575636
F  F11  1  0.38720000  0.14300000  0.00000000  1.0 -0.0977575636
F  F12  1  0.61280000  0.85700000  0.00000000  1.0 -0.0977575636
F  F13  1  0.76700000  0.08140000  0.00000000  1.0 -0.0897894741
F  F14  1  0.23300000  0.91860000  0.00000000  1.0 -0.0977575636
F  F15  1  0.23300000  0.08140000  0.00000000  1.0 -0.0977575636
F  F16  1  0.76700000  0.91860000  0.00000000  1.0 -0.0897894741
F  F17  1  0.89990000  0.18300000  0.00000000  1.0 -0.1281205084
F  F18  1  0.10010000  0.81700000  0.00000000  1.0 -0.1281205084
F  F19  1  0.10010000  0.18300000  0.00000000  1.0 -0.1281205084
F  F20  1  0.89990000  0.81700000  0.00000000  1.0 -0.1281205084
