# DDEC6 charges by PACMAN v1.1 (https://github.com/mtap-research/PACMAN-charge/)
data_IBASOX_ASR_pacman
_symmetry_space_group_name_H-M   'P 1'
_cell_length_a   19.76890000
_cell_length_b   19.76890000
_cell_length_c   19.76890000
_cell_angle_alpha   123.16800000
_cell_angle_beta   123.16800000
_cell_angle_gamma   84.59510000
_symmetry_Int_Tables_number   1
_chemical_formula_structural   Cu5H18(C23O12)2
_chemical_formula_sum   'Cu10 H36 C92 O48'
_cell_volume   5176.25800515
_cell_formula_units_Z   2
loop_
 _symmetry_equiv_pos_site_id
 _symmetry_equiv_pos_as_xyz
  1  'x, y, z'
loop_
 _atom_site_type_symbol
 _atom_site_label
 _atom_site_symmetry_multiplicity
 _atom_site_fract_x
 _atom_site_fract_y
 _atom_site_fract_z
 _atom_site_occupancy
 _atom_site_charge
Cu  Cu1  1  0.50093000  0.50093000  0.56844000  1.0 0.849428693
Cu  Cu2  1  0.93249000  0.93249000  0.43156000  1.0 0.849428693
Cu  Cu3  1  0.50093000  0.93249000  0.00000000  1.0 0.849428693
Cu  Cu4  1  0.93249000  0.50093000  0.00000000  1.0 0.849428693
Cu  Cu5  1  0.06751000  0.49907000  0.00000000  1.0 0.849428693
Cu  Cu6  1  0.49907000  0.06751000  0.00000000  1.0 0.849428693
Cu  Cu7  1  0.06751000  0.06751000  0.56844000  1.0 0.849428693
Cu  Cu8  1  0.49907000  0.49907000  0.43156000  1.0 0.849428693
Cu  Cu9  1  0.04538000  0.04538000  0.00000000  1.0 0.883659946
Cu  Cu10  1  0.95462000  0.95462000  0.00000000  1.0 0.8863328567
H  H1  1  0.45750000  0.23780000  0.43670000  1.0 0.1505899206
H  H2  1  0.80110000  0.02080000  0.56330000  1.0 0.1505899206
H  H3  1  0.23780000  0.80110000  0.78030000  1.0 0.1505899206
H  H4  1  0.02080000  0.45750000  0.21970000  1.0 0.1559976509
H  H5  1  0.19890000  0.76220000  0.21970000  1.0 0.1559976509
H  H6  1  0.54250000  0.97920000  0.78030000  1.0 0.1505899206
H  H7  1  0.97920000  0.19890000  0.43670000  1.0 0.1559976509
H  H8  1  0.76220000  0.54250000  0.56330000  1.0 0.1559976509
H  H9  1  0.54250000  0.76220000  0.56330000  1.0 0.1559976509
H  H10  1  0.19890000  0.97920000  0.43670000  1.0 0.1559976509
H  H11  1  0.76220000  0.19890000  0.21970000  1.0 0.1559976509
H  H12  1  0.97920000  0.54250000  0.78030000  1.0 0.1559976509
H  H13  1  0.80110000  0.23780000  0.78030000  1.0 0.1559976509
H  H14  1  0.45750000  0.02080000  0.21970000  1.0 0.1559976509
H  H15  1  0.02080000  0.80110000  0.56330000  1.0 0.1505899206
H  H16  1  0.23780000  0.45750000  0.43670000  1.0 0.1505899206
H  H17  1  0.48360000  0.23580000  0.24780000  1.0 0.1393777302
H  H18  1  0.29400000  0.06840000  0.22560000  1.0 0.1505899206
H  H19  1  0.98800000  0.23580000  0.75220000  1.0 0.1393777302
H  H20  1  0.84280000  0.06840000  0.77440000  1.0 0.1505899206
H  H21  1  0.23580000  0.98800000  0.75220000  1.0 0.1393777302
H  H22  1  0.06840000  0.84280000  0.77440000  1.0 0.1505899206
H  H23  1  0.23580000  0.48360000  0.24780000  1.0 0.1393777302
H  H24  1  0.06840000  0.29400000  0.22560000  1.0 0.1505899206
H  H25  1  0.01200000  0.76420000  0.24780000  1.0 0.1393777302
H  H26  1  0.15720000  0.93160000  0.22560000  1.0 0.1505899206
H  H27  1  0.51640000  0.76420000  0.75220000  1.0 0.1393777302
H  H28  1  0.70600000  0.93160000  0.77440000  1.0 0.1505899206
H  H29  1  0.76420000  0.01200000  0.24780000  1.0 0.1393777302
H  H30  1  0.93160000  0.15720000  0.22560000  1.0 0.1505899206
H  H31  1  0.76420000  0.51640000  0.75220000  1.0 0.1393777302
H  H32  1  0.93160000  0.70600000  0.77440000  1.0 0.1505899206
H  H33  1  0.40910000  0.00000000  0.40910000  1.0 0.1559976509
H  H34  1  0.59090000  0.00000000  0.59090000  1.0 0.1559976509
H  H35  1  0.00000000  0.59090000  0.59090000  1.0 0.1559976509
H  H36  1  0.00000000  0.40910000  0.40910000  1.0 0.1559976509
C  C1  1  0.47792000  0.34402000  0.40310000  1.0 0.5799630871
C  C2  1  0.46890000  0.25050000  0.34760000  1.0 0.0010478447
C  C3  1  0.45950000  0.20880000  0.38190000  1.0 -0.2164957484
C  C4  1  0.94092000  0.07482000  0.59690000  1.0 0.5799630871
C  C5  1  0.90290000  0.12130000  0.65240000  1.0 0.0010478447
C  C6  1  0.82690000  0.07760000  0.61810000  1.0 -0.2164957484
C  C7  1  0.34402000  0.94092000  0.86610000  1.0 0.5799630871
C  C8  1  0.25050000  0.90290000  0.78160000  1.0 0.0010478447
C  C9  1  0.20880000  0.82690000  0.74930000  1.0 -0.2164957484
C  C10  1  0.07482000  0.47792000  0.13390000  1.0 0.5799630871
C  C11  1  0.12130000  0.46890000  0.21840000  1.0 0.0010478447
C  C12  1  0.07760000  0.45950000  0.25070000  1.0 -0.2164957484
C  C13  1  0.05908000  0.65598000  0.13390000  1.0 0.5799630871
C  C14  1  0.09710000  0.74950000  0.21840000  1.0 0.0010478447
C  C15  1  0.17310000  0.79120000  0.25070000  1.0 -0.2164957484
C  C16  1  0.52208000  0.92518000  0.86610000  1.0 0.5799630871
C  C17  1  0.53110000  0.87870000  0.78160000  1.0 0.0010478447
C  C18  1  0.54050000  0.92240000  0.74930000  1.0 -0.2164957484
C  C19  1  0.92518000  0.05908000  0.40310000  1.0 0.5799630871
C  C20  1  0.87870000  0.09710000  0.34760000  1.0 0.0010478447
C  C21  1  0.92240000  0.17310000  0.38190000  1.0 -0.2164957484
C  C22  1  0.65598000  0.52208000  0.59690000  1.0 0.5799630871
C  C23  1  0.74950000  0.53110000  0.65240000  1.0 0.0010478447
C  C24  1  0.79120000  0.54050000  0.61810000  1.0 -0.2164957484
C  C25  1  0.52208000  0.65598000  0.59690000  1.0 0.5799630871
C  C26  1  0.53110000  0.74950000  0.65240000  1.0 0.0010478447
C  C27  1  0.54050000  0.79120000  0.61810000  1.0 -0.2164957484
C  C28  1  0.05908000  0.92518000  0.40310000  1.0 0.5799630871
C  C29  1  0.09710000  0.87870000  0.34760000  1.0 0.0010478447
C  C30  1  0.17310000  0.92240000  0.38190000  1.0 -0.2164957484
C  C31  1  0.65598000  0.05908000  0.13390000  1.0 0.5799630871
C  C32  1  0.74950000  0.09710000  0.21840000  1.0 0.0010478447
C  C33  1  0.79120000  0.17310000  0.25070000  1.0 -0.2164957484
C  C34  1  0.92518000  0.52208000  0.86610000  1.0 0.5799630871
C  C35  1  0.87870000  0.53110000  0.78160000  1.0 0.0010478447
C  C36  1  0.92240000  0.54050000  0.74930000  1.0 -0.2164957484
C  C37  1  0.94092000  0.34402000  0.86610000  1.0 0.5799630871
C  C38  1  0.90290000  0.25050000  0.78160000  1.0 0.0010478447
C  C39  1  0.82690000  0.20880000  0.74930000  1.0 -0.2164957484
C  C40  1  0.47792000  0.07482000  0.13390000  1.0 0.5799630871
C  C41  1  0.46890000  0.12130000  0.21840000  1.0 0.0010478447
C  C42  1  0.45950000  0.07760000  0.25070000  1.0 -0.2164957484
C  C43  1  0.07482000  0.94092000  0.59690000  1.0 0.5799630871
C  C44  1  0.12130000  0.90290000  0.65240000  1.0 0.0010478447
C  C45  1  0.07760000  0.82690000  0.61810000  1.0 -0.2164957484
C  C46  1  0.34402000  0.47792000  0.40310000  1.0 0.5799630871
C  C47  1  0.25050000  0.46890000  0.34760000  1.0 0.0010478447
C  C48  1  0.20880000  0.45950000  0.38190000  1.0 -0.2164957484
C  C49  1  0.47500000  0.20680000  0.26820000  1.0 -0.1093619677
C  C50  1  0.45320000  0.12150000  0.33170000  1.0 0.2612513847
C  C51  1  0.36420000  0.04040000  0.32380000  1.0 0.2712728811
C  C52  1  0.29130000  0.04090000  0.25040000  1.0 -0.2383101189
C  C53  1  0.93860000  0.20680000  0.73180000  1.0 -0.1093619677
C  C54  1  0.78980000  0.12150000  0.66830000  1.0 0.2612513847
C  C55  1  0.71660000  0.04040000  0.67620000  1.0 0.2712728811
C  C56  1  0.79050000  0.04090000  0.74960000  1.0 -0.2383101189
C  C57  1  0.20680000  0.93860000  0.73180000  1.0 -0.1093619677
C  C58  1  0.12150000  0.78980000  0.66830000  1.0 0.2612513847
C  C59  1  0.04040000  0.71660000  0.67620000  1.0 0.2712728811
C  C60  1  0.04090000  0.79050000  0.74960000  1.0 -0.2383101189
C  C61  1  0.20680000  0.47500000  0.26820000  1.0 -0.1093619677
C  C62  1  0.12150000  0.45320000  0.33170000  1.0 0.2612513847
C  C63  1  0.04040000  0.36420000  0.32380000  1.0 0.2712728811
C  C64  1  0.04090000  0.29130000  0.25040000  1.0 -0.2383101189
C  C65  1  0.06140000  0.79320000  0.26820000  1.0 -0.1093619677
C  C66  1  0.21020000  0.87850000  0.33170000  1.0 0.2612513847
C  C67  1  0.28340000  0.95960000  0.32380000  1.0 0.2712728811
C  C68  1  0.20950000  0.95910000  0.25040000  1.0 -0.2383101189
C  C69  1  0.52500000  0.79320000  0.73180000  1.0 -0.1093619677
C  C70  1  0.54680000  0.87850000  0.66830000  1.0 0.2612513847
C  C71  1  0.63580000  0.95960000  0.67620000  1.0 0.2712728811
C  C72  1  0.70870000  0.95910000  0.74960000  1.0 -0.2383101189
C  C73  1  0.79320000  0.06140000  0.26820000  1.0 -0.1093619677
C  C74  1  0.87850000  0.21020000  0.33170000  1.0 0.2612513847
C  C75  1  0.95960000  0.28340000  0.32380000  1.0 0.2712728811
C  C76  1  0.95910000  0.20950000  0.25040000  1.0 -0.2383101189
C  C77  1  0.79320000  0.52500000  0.73180000  1.0 -0.1093619677
C  C78  1  0.87850000  0.54680000  0.66830000  1.0 0.2612513847
C  C79  1  0.95960000  0.63580000  0.67620000  1.0 0.2712728811
C  C80  1  0.95910000  0.70870000  0.74960000  1.0 -0.2383101189
C  C81  1  0.35970000  0.00000000  0.35970000  1.0 -0.3049449155
C  C82  1  0.21510000  0.00000000  0.21510000  1.0 0.0335666744
C  C83  1  0.13490000  0.00000000  0.13490000  1.0 0.5799630871
C  C84  1  0.64030000  0.00000000  0.64030000  1.0 -0.3049449155
C  C85  1  0.78490000  0.00000000  0.78490000  1.0 0.0335666744
C  C86  1  0.86510000  0.00000000  0.86510000  1.0 0.5799630871
C  C87  1  0.00000000  0.64030000  0.64030000  1.0 -0.3049449155
C  C88  1  0.00000000  0.78490000  0.78490000  1.0 0.0335666744
C  C89  1  0.00000000  0.86510000  0.86510000  1.0 0.5799630871
C  C90  1  0.00000000  0.35970000  0.35970000  1.0 -0.3049449155
C  C91  1  0.00000000  0.21510000  0.21510000  1.0 0.0335666744
C  C92  1  0.00000000  0.13490000  0.13490000  1.0 0.5799630871
O  O1  1  0.48204000  0.37874000  0.48090000  1.0 -0.5236760357
O  O2  1  0.48010000  0.37692000  0.36522000  1.0 -0.509787237
O  O3  1  0.89784000  0.00114000  0.51910000  1.0 -0.5236760357
O  O4  1  0.01170000  0.11488000  0.63478000  1.0 -0.509787237
O  O5  1  0.37874000  0.89784000  0.89670000  1.0 -0.5236760357
O  O6  1  0.37692000  0.01170000  0.89682000  1.0 -0.509787237
O  O7  1  0.00114000  0.48204000  0.10330000  1.0 -0.5236760357
O  O8  1  0.11488000  0.48010000  0.10318000  1.0 -0.509787237
O  O9  1  0.10216000  0.62126000  0.10330000  1.0 -0.5236760357
O  O10  1  0.98830000  0.62308000  0.10318000  1.0 -0.509787237
O  O11  1  0.51796000  0.99886000  0.89670000  1.0 -0.5236760357
O  O12  1  0.51990000  0.88512000  0.89682000  1.0 -0.509787237
O  O13  1  0.99886000  0.10216000  0.48090000  1.0 -0.5236760357
O  O14  1  0.88512000  0.98830000  0.36522000  1.0 -0.509787237
O  O15  1  0.62126000  0.51796000  0.51910000  1.0 -0.5236760357
O  O16  1  0.62308000  0.51990000  0.63478000  1.0 -0.509787237
O  O17  1  0.51796000  0.62126000  0.51910000  1.0 -0.5236760357
O  O18  1  0.51990000  0.62308000  0.63478000  1.0 -0.509787237
O  O19  1  0.10216000  0.99886000  0.48090000  1.0 -0.5236760357
O  O20  1  0.98830000  0.88512000  0.36522000  1.0 -0.509787237
O  O21  1  0.62126000  0.10216000  0.10330000  1.0 -0.5236760357
O  O22  1  0.62308000  0.98830000  0.10318000  1.0 -0.509787237
O  O23  1  0.99886000  0.51796000  0.89670000  1.0 -0.5236760357
O  O24  1  0.88512000  0.51990000  0.89682000  1.0 -0.509787237
O  O25  1  0.89784000  0.37874000  0.89670000  1.0 -0.5236760357
O  O26  1  0.01170000  0.37692000  0.89682000  1.0 -0.509787237
O  O27  1  0.48204000  0.00114000  0.10330000  1.0 -0.5236760357
O  O28  1  0.48010000  0.11488000  0.10318000  1.0 -0.509787237
O  O29  1  0.00114000  0.89784000  0.51910000  1.0 -0.5236760357
O  O30  1  0.11488000  0.01170000  0.63478000  1.0 -0.509787237
O  O31  1  0.37874000  0.48204000  0.48090000  1.0 -0.5236760357
O  O32  1  0.37692000  0.48010000  0.36522000  1.0 -0.509787237
O  O33  1  0.44326000  0.07846000  0.36480000  1.0 -0.2137778529
O  O34  1  0.14049000  0.03811000  0.10238000  1.0 -0.5340543443
O  O35  1  0.71366000  0.07846000  0.63520000  1.0 -0.2137778529
O  O36  1  0.93573000  0.03811000  0.89762000  1.0 -0.5340543443
O  O37  1  0.07846000  0.71366000  0.63520000  1.0 -0.2137778529
O  O38  1  0.03811000  0.93573000  0.89762000  1.0 -0.5340543443
O  O39  1  0.07846000  0.44326000  0.36480000  1.0 -0.2137778529
O  O40  1  0.03811000  0.14049000  0.10238000  1.0 -0.5340543443
O  O41  1  0.28634000  0.92154000  0.36480000  1.0 -0.2137778529
O  O42  1  0.06427000  0.96189000  0.10238000  1.0 -0.5340543443
O  O43  1  0.55674000  0.92154000  0.63520000  1.0 -0.2137778529
O  O44  1  0.85951000  0.96189000  0.89762000  1.0 -0.5340543443
O  O45  1  0.92154000  0.28634000  0.36480000  1.0 -0.2137778529
O  O46  1  0.96189000  0.06427000  0.10238000  1.0 -0.5340543443
O  O47  1  0.92154000  0.55674000  0.63520000  1.0 -0.2137778529
O  O48  1  0.96189000  0.85951000  0.89762000  1.0 -0.5340543443
