# DDEC6 charges by PACMAN v1.1 (https://github.com/mtap-research/PACMAN-charge/)
data_IBIXOJ_FSR_pacman
_symmetry_space_group_name_H-M   'P 1'
_cell_length_a   10.29830000
_cell_length_b   10.60220000
_cell_length_c   14.00800000
_cell_angle_alpha   80.90200000
_cell_angle_beta   75.54200000
_cell_angle_gamma   71.13700000
_symmetry_Int_Tables_number   1
_chemical_formula_structural   CdH16C27(NO3)2
_chemical_formula_sum   'Cd2 H32 C54 N4 O12'
_cell_volume   1396.47351669
_cell_formula_units_Z   2
loop_
 _symmetry_equiv_pos_site_id
 _symmetry_equiv_pos_as_xyz
  1  'x, y, z'
loop_
 _atom_site_type_symbol
 _atom_site_label
 _atom_site_symmetry_multiplicity
 _atom_site_fract_x
 _atom_site_fract_y
 _atom_site_fract_z
 _atom_site_occupancy
 _atom_site_charge
Cd  Cd1  1  0.90830000  0.40445000  0.43483000  1.0 0.862913592
Cd  Cd2  1  0.09170000  0.59555000  0.56517000  1.0 0.862913592
H  H1  1  0.77220000  0.72360000  0.39010000  1.0 0.1092579981
H  H2  1  0.74980000  0.89180000  0.26370000  1.0 0.1226024127
H  H3  1  0.99930000  0.61890000  0.07680000  1.0 0.1226024127
H  H4  1  0.00950000  0.45810000  0.20640000  1.0 0.1092579981
H  H5  1  0.79500000  0.96370000  0.08150000  1.0 0.1092579981
H  H6  1  0.97590000  0.77740000  0.96030000  1.0 0.1092579981
H  H7  1  0.85290000  0.05620000  0.91510000  1.0 0.1092579981
H  H8  1  0.01620000  0.86380000  0.78480000  1.0 0.129689354
H  H9  1  0.80800000  0.21370000  0.80270000  1.0 0.129689354
H  H10  1  0.78720000  0.36280000  0.66520000  1.0 0.1092579981
H  H11  1  0.07350000  0.10380000  0.49560000  1.0 0.1092579981
H  H12  1  0.09820000  0.94470000  0.62500000  1.0 0.1411815045
H  H13  1  0.57480000  0.59710000  0.56780000  1.0 0.1411815045
H  H14  1  0.67370000  0.69340000  0.80120000  1.0 0.1226024127
H  H15  1  0.27580000  0.70550000  0.81310000  1.0 0.1226024127
H  H16  1  0.50000000  0.76500000  0.03200000  1.0 0.3634008152
H  H17  1  0.22780000  0.27640000  0.60990000  1.0 0.1092579981
H  H18  1  0.25020000  0.10820000  0.73630000  1.0 0.1226024127
H  H19  1  0.00070000  0.38110000  0.92320000  1.0 0.1226024127
H  H20  1  0.99050000  0.54190000  0.79360000  1.0 0.1092579981
H  H21  1  0.20500000  0.03630000  0.91850000  1.0 0.1092579981
H  H22  1  0.02410000  0.22260000  0.03970000  1.0 0.1092579981
H  H23  1  0.14710000  0.94380000  0.08490000  1.0 0.1092579981
H  H24  1  0.98380000  0.13620000  0.21520000  1.0 0.129689354
H  H25  1  0.19200000  0.78630000  0.19730000  1.0 0.129689354
H  H26  1  0.21280000  0.63720000  0.33480000  1.0 0.1092579981
H  H27  1  0.92650000  0.89620000  0.50440000  1.0 0.1092579981
H  H28  1  0.90180000  0.05530000  0.37500000  1.0 0.1411815045
H  H29  1  0.42520000  0.40290000  0.43220000  1.0 0.1411815045
H  H30  1  0.32630000  0.30660000  0.19880000  1.0 0.1226024127
H  H31  1  0.72420000  0.29450000  0.18690000  1.0 0.1226024127
H  H32  1  0.50000000  0.23500000  0.96800000  1.0 0.3634008152
C  C1  1  0.81860000  0.70250000  0.32520000  1.0 0.0886026604
C  C2  1  0.80440000  0.80410000  0.24980000  1.0 -0.2310805536
C  C3  1  0.87060000  0.77560000  0.15510000  1.0 0.1513565017
C  C4  1  0.95040000  0.64260000  0.14080000  1.0 -0.2310805536
C  C5  1  0.95790000  0.54710000  0.21860000  1.0 0.0886026604
C  C6  1  0.85700000  0.87820000  0.06780000  1.0 -0.052746441
C  C7  1  0.91850000  0.86330000  0.97680000  1.0 -0.0814075934
C  C8  1  0.90600000  0.96920000  0.89850000  1.0 -0.0632370652
C  C9  1  0.96580000  0.95070000  0.80330000  1.0 -0.0743611602
C  C10  1  0.95440000  0.05990000  0.72970000  1.0 0.129689354
C  C11  1  0.86200000  0.18820000  0.74020000  1.0 -0.202357418
C  C12  1  0.85120000  0.27680000  0.65780000  1.0 0.0813426061
C  C13  1  0.01770000  0.12520000  0.55850000  1.0 0.0813426061
C  C14  1  0.03390000  0.03000000  0.63540000  1.0 -0.202357418
C  C15  1  0.29630000  0.64220000  0.63360000  1.0 0.5374731852
C  C16  1  0.79440000  0.63430000  0.61810000  1.0 0.5510896279
C  C17  1  0.42690000  0.73470000  0.92930000  1.0 0.5510896279
C  C18  1  0.40650000  0.65290000  0.68210000  1.0 -0.0022273227
C  C19  1  0.54700000  0.62780000  0.63130000  1.0 -0.1198835203
C  C20  1  0.64440000  0.64820000  0.67450000  1.0 -0.0213351155
C  C21  1  0.60630000  0.68300000  0.77100000  1.0 -0.1324950324
C  C22  1  0.46900000  0.70250000  0.82310000  1.0 -0.0344284454
C  C23  1  0.36950000  0.68940000  0.77820000  1.0 -0.1198835203
C  C24  1  0.88600000  0.92000000  0.11200000  1.0 -0.0743611602
C  C25  1  0.99100000  0.91300000  0.01200000  1.0 0.0184402226
C  C26  1  0.93100000  0.01500000  0.93900000  1.0 -0.0022273227
C  C27  1  0.02400000  0.99100000  0.84100000  1.0 0.0001759035
C  C28  1  0.18140000  0.29750000  0.67480000  1.0 0.0886026604
C  C29  1  0.19560000  0.19590000  0.75020000  1.0 -0.2310805536
C  C30  1  0.12940000  0.22440000  0.84490000  1.0 0.1513565017
C  C31  1  0.04960000  0.35740000  0.85920000  1.0 -0.2310805536
C  C32  1  0.04210000  0.45290000  0.78140000  1.0 0.0886026604
C  C33  1  0.14300000  0.12180000  0.93220000  1.0 -0.052746441
C  C34  1  0.08150000  0.13670000  0.02320000  1.0 -0.0814075934
C  C35  1  0.09400000  0.03080000  0.10150000  1.0 -0.0632370652
C  C36  1  0.03420000  0.04930000  0.19670000  1.0 -0.0743611602
C  C37  1  0.04560000  0.94010000  0.27030000  1.0 0.129689354
C  C38  1  0.13800000  0.81180000  0.25980000  1.0 -0.2052879499
C  C39  1  0.14880000  0.72320000  0.34220000  1.0 0.0813426061
C  C40  1  0.98230000  0.87480000  0.44150000  1.0 0.0813426061
C  C41  1  0.96610000  0.97000000  0.36460000  1.0 -0.202357418
C  C42  1  0.70370000  0.35780000  0.36640000  1.0 0.5374731852
C  C43  1  0.20560000  0.36570000  0.38190000  1.0 0.5510896279
C  C44  1  0.57310000  0.26530000  0.07070000  1.0 0.5510896279
C  C45  1  0.59350000  0.34710000  0.31790000  1.0 -0.0022273227
C  C46  1  0.45300000  0.37220000  0.36870000  1.0 -0.1198835203
C  C47  1  0.35560000  0.35180000  0.32550000  1.0 -0.0213351155
C  C48  1  0.39370000  0.31700000  0.22900000  1.0 -0.1324950324
C  C49  1  0.53100000  0.29750000  0.17690000  1.0 -0.0344284454
C  C50  1  0.63050000  0.31060000  0.22180000  1.0 -0.1198835203
C  C51  1  0.11400000  0.08000000  0.88800000  1.0 -0.0743611602
C  C52  1  0.00900000  0.08700000  0.98800000  1.0 0.0184402226
C  C53  1  0.06900000  0.98500000  0.06100000  1.0 -0.0022273227
C  C54  1  0.97600000  0.00900000  0.15900000  1.0 -0.0022273227
N  N1  1  0.89500000  0.57560000  0.31040000  1.0 -0.2310805536
N  N2  1  0.92780000  0.24650000  0.56720000  1.0 -0.2352167534
N  N3  1  0.10500000  0.42440000  0.68960000  1.0 -0.2310805536
N  N4  1  0.07220000  0.75350000  0.43280000  1.0 -0.2352167534
O  O1  1  0.16980000  0.69700000  0.67050000  1.0 -0.5704711245
O  O2  1  0.33420000  0.57540000  0.55890000  1.0 -0.5315004654
O  O3  1  0.84110000  0.57070000  0.54290000  1.0 -0.5704711245
O  O4  1  0.86520000  0.68720000  0.65020000  1.0 -0.5315004654
O  O5  1  0.52590000  0.75470000  0.96090000  1.0 -0.452599244
O  O6  1  0.31140000  0.74190000  0.97960000  1.0 -0.5315004654
O  O7  1  0.83020000  0.30300000  0.32950000  1.0 -0.5704711245
O  O8  1  0.66580000  0.42460000  0.44110000  1.0 -0.5315004654
O  O9  1  0.15890000  0.42930000  0.45710000  1.0 -0.5704711245
O  O10  1  0.13480000  0.31280000  0.34980000  1.0 -0.5315004654
O  O11  1  0.47410000  0.24530000  0.03910000  1.0 -0.452599244
O  O12  1  0.68860000  0.25810000  0.02040000  1.0 -0.5315004654
