# DDEC6 charges by PACMAN v1.1 (https://github.com/mtap-research/PACMAN-charge/)
data_IBOTAU_FSR_pacman
_symmetry_space_group_name_H-M   'P 1'
_cell_length_a   9.36299000
_cell_length_b   9.36299000
_cell_length_c   9.36299000
_cell_angle_alpha   93.22470000
_cell_angle_beta   93.22470000
_cell_angle_gamma   93.22470000
_symmetry_Int_Tables_number   1
_chemical_formula_structural   Zn7(PO4)6
_chemical_formula_sum   'Zn7 P6 O24'
_cell_volume   816.75994466
_cell_formula_units_Z   1
loop_
 _symmetry_equiv_pos_site_id
 _symmetry_equiv_pos_as_xyz
  1  'x, y, z'
loop_
 _atom_site_type_symbol
 _atom_site_label
 _atom_site_symmetry_multiplicity
 _atom_site_fract_x
 _atom_site_fract_y
 _atom_site_fract_z
 _atom_site_occupancy
 _atom_site_charge
Zn  Zn1  1  0.00000000  0.00000000  0.00000000  1.0 1.2070140339
Zn  Zn2  1  0.33346000  0.06186000  0.87444000  1.0 1.1414843696
Zn  Zn3  1  0.06186000  0.87444000  0.33346000  1.0 1.1414843696
Zn  Zn4  1  0.87444000  0.33346000  0.06186000  1.0 1.1414843696
Zn  Zn5  1  0.93814000  0.12556000  0.66654000  1.0 1.1414843696
Zn  Zn6  1  0.12556000  0.66654000  0.93814000  1.0 1.1414843696
Zn  Zn7  1  0.66654000  0.93814000  0.12556000  1.0 1.1414843696
P  P1  1  0.31314000  0.87972000  0.12661000  1.0 1.4912258484
P  P2  1  0.87972000  0.12661000  0.31314000  1.0 1.4912258484
P  P3  1  0.12661000  0.31314000  0.87972000  1.0 1.4912258484
P  P4  1  0.12028000  0.87339000  0.68686000  1.0 1.4912258484
P  P5  1  0.87339000  0.68686000  0.12028000  1.0 1.4912258484
P  P6  1  0.68686000  0.12028000  0.87339000  1.0 1.4912258484
O  O1  1  0.05934000  0.85429000  0.53340000  1.0 -0.6987274888
O  O2  1  0.85429000  0.53340000  0.05934000  1.0 -0.6987274888
O  O3  1  0.53340000  0.05934000  0.85429000  1.0 -0.6987274888
O  O4  1  0.14571000  0.46660000  0.94066000  1.0 -0.6987274888
O  O5  1  0.46660000  0.94066000  0.14571000  1.0 -0.6987274888
O  O6  1  0.94066000  0.14571000  0.46660000  1.0 -0.6987274888
O  O7  1  0.27534000  0.25419000  0.87970000  1.0 -0.6692938907
O  O8  1  0.25419000  0.87970000  0.27534000  1.0 -0.6692938907
O  O9  1  0.87970000  0.27534000  0.25419000  1.0 -0.6692938907
O  O10  1  0.74581000  0.12030000  0.72466000  1.0 -0.6692938907
O  O11  1  0.12030000  0.72466000  0.74581000  1.0 -0.6692938907
O  O12  1  0.72466000  0.74581000  0.12030000  1.0 -0.6692938907
O  O13  1  0.26954000  0.94759000  0.69860000  1.0 -0.68723168
O  O14  1  0.94759000  0.69860000  0.26954000  1.0 -0.68723168
O  O15  1  0.69860000  0.26954000  0.94759000  1.0 -0.68723168
O  O16  1  0.05241000  0.30140000  0.73046000  1.0 -0.68723168
O  O17  1  0.30140000  0.73046000  0.05241000  1.0 -0.68723168
O  O18  1  0.73046000  0.05241000  0.30140000  1.0 -0.68723168
O  O19  1  0.22604000  0.97919000  0.03180000  1.0 -0.7786261641
O  O20  1  0.97919000  0.03180000  0.22604000  1.0 -0.7786261641
O  O21  1  0.03180000  0.22604000  0.97919000  1.0 -0.7786261641
O  O22  1  0.02081000  0.96820000  0.77396000  1.0 -0.7786261641
O  O23  1  0.96820000  0.77396000  0.02081000  1.0 -0.7786261641
O  O24  1  0.77396000  0.02081000  0.96820000  1.0 -0.7786261641
