# DDEC6 charges by PACMAN v1.1 (https://github.com/mtap-research/PACMAN-charge/)
data_ICITEU_FSR_pacman
_symmetry_space_group_name_H-M   'P 1'
_cell_length_a   27.23000000
_cell_length_b   27.23000000
_cell_length_c   27.23000000
_cell_angle_alpha   60.00000000
_cell_angle_beta   60.00000000
_cell_angle_gamma   60.00000000
_symmetry_Int_Tables_number   1
_chemical_formula_structural   Fe3H24C39S3N3O19
_chemical_formula_sum   'Fe12 H96 C156 S12 N12 O76'
_cell_volume   14276.70304131
_cell_formula_units_Z   4
loop_
 _symmetry_equiv_pos_site_id
 _symmetry_equiv_pos_as_xyz
  1  'x, y, z'
loop_
 _atom_site_type_symbol
 _atom_site_label
 _atom_site_symmetry_multiplicity
 _atom_site_fract_x
 _atom_site_fract_y
 _atom_site_fract_z
 _atom_site_occupancy
 _atom_site_charge
Fe  Fe1  1  0.64222000  0.64222000  0.52042000  1.0 1.2095639965
Fe  Fe2  1  0.64222000  0.64222000  0.19514000  1.0 1.2095639965
Fe  Fe3  1  0.52042000  0.19514000  0.64222000  1.0 1.2095639965
Fe  Fe4  1  0.19514000  0.52042000  0.64222000  1.0 1.2095639965
Fe  Fe5  1  0.52042000  0.64222000  0.64222000  1.0 1.2095639965
Fe  Fe6  1  0.19514000  0.64222000  0.64222000  1.0 1.2095639965
Fe  Fe7  1  0.64222000  0.52042000  0.19514000  1.0 1.2095639965
Fe  Fe8  1  0.64222000  0.19514000  0.52042000  1.0 1.2095639965
Fe  Fe9  1  0.64222000  0.52042000  0.64222000  1.0 1.2095639965
Fe  Fe10  1  0.64222000  0.19514000  0.64222000  1.0 1.2095639965
Fe  Fe11  1  0.19514000  0.64222000  0.52042000  1.0 1.2095639965
Fe  Fe12  1  0.52042000  0.64222000  0.19514000  1.0 1.2095639965
H  H1  1  0.80530000  0.64390000  0.50090000  1.0 0.1418690799
H  H2  1  0.64390000  0.80530000  0.04990000  1.0 0.1418690799
H  H3  1  0.50090000  0.04990000  0.80530000  1.0 0.1418690799
H  H4  1  0.04990000  0.50090000  0.64390000  1.0 0.1418690799
H  H5  1  0.50090000  0.80530000  0.64390000  1.0 0.1418690799
H  H6  1  0.04990000  0.64390000  0.80530000  1.0 0.1418690799
H  H7  1  0.80530000  0.50090000  0.04990000  1.0 0.1418690799
H  H8  1  0.64390000  0.04990000  0.50090000  1.0 0.1418690799
H  H9  1  0.64390000  0.50090000  0.80530000  1.0 0.1418690799
H  H10  1  0.80530000  0.04990000  0.64390000  1.0 0.1418690799
H  H11  1  0.04990000  0.80530000  0.50090000  1.0 0.1418690799
H  H12  1  0.50090000  0.64390000  0.04990000  1.0 0.1418690799
H  H13  1  0.64390000  0.80530000  0.50090000  1.0 0.1418690799
H  H14  1  0.80530000  0.64390000  0.04990000  1.0 0.1418690799
H  H15  1  0.04990000  0.50090000  0.80530000  1.0 0.1418690799
H  H16  1  0.50090000  0.04990000  0.64390000  1.0 0.1418690799
H  H17  1  0.80530000  0.50090000  0.64390000  1.0 0.1418690799
H  H18  1  0.64390000  0.04990000  0.80530000  1.0 0.1418690799
H  H19  1  0.50090000  0.80530000  0.04990000  1.0 0.1418690799
H  H20  1  0.04990000  0.64390000  0.50090000  1.0 0.1418690799
H  H21  1  0.50090000  0.64390000  0.80530000  1.0 0.1418690799
H  H22  1  0.04990000  0.80530000  0.64390000  1.0 0.1418690799
H  H23  1  0.80530000  0.04990000  0.50090000  1.0 0.1418690799
H  H24  1  0.64390000  0.50090000  0.04990000  1.0 0.1418690799
H  H25  1  0.89370000  0.64370000  0.49650000  1.0 0.1199079766
H  H26  1  0.64370000  0.89370000  0.96610000  1.0 0.1199079766
H  H27  1  0.49650000  0.96610000  0.89370000  1.0 0.1199079766
H  H28  1  0.96610000  0.49650000  0.64370000  1.0 0.1199079766
H  H29  1  0.49650000  0.89370000  0.64370000  1.0 0.1199079766
H  H30  1  0.96610000  0.64370000  0.89370000  1.0 0.1199079766
H  H31  1  0.89370000  0.49650000  0.96610000  1.0 0.1199079766
H  H32  1  0.64370000  0.96610000  0.49650000  1.0 0.1199079766
H  H33  1  0.64370000  0.49650000  0.89370000  1.0 0.1199079766
H  H34  1  0.89370000  0.96610000  0.64370000  1.0 0.1199079766
H  H35  1  0.96610000  0.89370000  0.49650000  1.0 0.1199079766
H  H36  1  0.49650000  0.64370000  0.96610000  1.0 0.1199079766
H  H37  1  0.64370000  0.89370000  0.49650000  1.0 0.1199079766
H  H38  1  0.89370000  0.64370000  0.96610000  1.0 0.1199079766
H  H39  1  0.96610000  0.49650000  0.89370000  1.0 0.1199079766
H  H40  1  0.49650000  0.96610000  0.64370000  1.0 0.1199079766
H  H41  1  0.89370000  0.49650000  0.64370000  1.0 0.1199079766
H  H42  1  0.64370000  0.96610000  0.89370000  1.0 0.1199079766
H  H43  1  0.49650000  0.89370000  0.96610000  1.0 0.1199079766
H  H44  1  0.96610000  0.64370000  0.49650000  1.0 0.1199079766
H  H45  1  0.49650000  0.64370000  0.89370000  1.0 0.1199079766
H  H46  1  0.96610000  0.89370000  0.64370000  1.0 0.1199079766
H  H47  1  0.89370000  0.96610000  0.49650000  1.0 0.1199079766
H  H48  1  0.64370000  0.49650000  0.96610000  1.0 0.1199079766
H  H49  1  0.76080000  0.62700000  0.42100000  1.0 0.1199079766
H  H50  1  0.62700000  0.76080000  0.19120000  1.0 0.1199079766
H  H51  1  0.42100000  0.19120000  0.76080000  1.0 0.1199079766
H  H52  1  0.19120000  0.42100000  0.62700000  1.0 0.1199079766
H  H53  1  0.42100000  0.76080000  0.62700000  1.0 0.1199079766
H  H54  1  0.19120000  0.62700000  0.76080000  1.0 0.1199079766
H  H55  1  0.76080000  0.42100000  0.19120000  1.0 0.1199079766
H  H56  1  0.62700000  0.19120000  0.42100000  1.0 0.1199079766
H  H57  1  0.62700000  0.42100000  0.76080000  1.0 0.1199079766
H  H58  1  0.76080000  0.19120000  0.62700000  1.0 0.1199079766
H  H59  1  0.19120000  0.76080000  0.42100000  1.0 0.1199079766
H  H60  1  0.42100000  0.62700000  0.19120000  1.0 0.1199079766
H  H61  1  0.62700000  0.76080000  0.42100000  1.0 0.1199079766
H  H62  1  0.76080000  0.62700000  0.19120000  1.0 0.1199079766
H  H63  1  0.19120000  0.42100000  0.76080000  1.0 0.1199079766
H  H64  1  0.42100000  0.19120000  0.62700000  1.0 0.1199079766
H  H65  1  0.76080000  0.42100000  0.62700000  1.0 0.1199079766
H  H66  1  0.62700000  0.19120000  0.76080000  1.0 0.1199079766
H  H67  1  0.42100000  0.76080000  0.19120000  1.0 0.1199079766
H  H68  1  0.19120000  0.62700000  0.42100000  1.0 0.1199079766
H  H69  1  0.42100000  0.62700000  0.76080000  1.0 0.1199079766
H  H70  1  0.19120000  0.76080000  0.62700000  1.0 0.1199079766
H  H71  1  0.76080000  0.19120000  0.42100000  1.0 0.1199079766
H  H72  1  0.62700000  0.42100000  0.19120000  1.0 0.1199079766
H  H73  1  0.81470000  0.66750000  0.31470000  1.0 0.1418690799
H  H74  1  0.66750000  0.81470000  0.20310000  1.0 0.1418690799
H  H75  1  0.31470000  0.20310000  0.81470000  1.0 0.1418690799
H  H76  1  0.20310000  0.31470000  0.66750000  1.0 0.1418690799
H  H77  1  0.31470000  0.81470000  0.66750000  1.0 0.1418690799
H  H78  1  0.20310000  0.66750000  0.81470000  1.0 0.1418690799
H  H79  1  0.81470000  0.31470000  0.20310000  1.0 0.1418690799
H  H80  1  0.66750000  0.20310000  0.31470000  1.0 0.1418690799
H  H81  1  0.66750000  0.31470000  0.81470000  1.0 0.1418690799
H  H82  1  0.81470000  0.20310000  0.66750000  1.0 0.1418690799
H  H83  1  0.20310000  0.81470000  0.31470000  1.0 0.1418690799
H  H84  1  0.31470000  0.66750000  0.20310000  1.0 0.1418690799
H  H85  1  0.66750000  0.81470000  0.31470000  1.0 0.1418690799
H  H86  1  0.81470000  0.66750000  0.20310000  1.0 0.1418690799
H  H87  1  0.20310000  0.31470000  0.81470000  1.0 0.1418690799
H  H88  1  0.31470000  0.20310000  0.66750000  1.0 0.1418690799
H  H89  1  0.81470000  0.31470000  0.66750000  1.0 0.1418690799
H  H90  1  0.66750000  0.20310000  0.81470000  1.0 0.1418690799
H  H91  1  0.31470000  0.81470000  0.20310000  1.0 0.1418690799
H  H92  1  0.20310000  0.66750000  0.31470000  1.0 0.1418690799
H  H93  1  0.31470000  0.66750000  0.81470000  1.0 0.1418690799
H  H94  1  0.20310000  0.81470000  0.66750000  1.0 0.1418690799
H  H95  1  0.81470000  0.20310000  0.31470000  1.0 0.1418690799
H  H96  1  0.66750000  0.31470000  0.20310000  1.0 0.1418690799
C  C1  1  0.74010000  0.57570000  0.57570000  1.0 0.6048878988
C  C2  1  0.57570000  0.74010000  0.10850000  1.0 0.6048878988
C  C3  1  0.57570000  0.10850000  0.74010000  1.0 0.6048878988
C  C4  1  0.10850000  0.57570000  0.57570000  1.0 0.6048878988
C  C5  1  0.57570000  0.74010000  0.57570000  1.0 0.6048878988
C  C6  1  0.10850000  0.57570000  0.74010000  1.0 0.6048878988
C  C7  1  0.74010000  0.57570000  0.10850000  1.0 0.6052871904
C  C8  1  0.57570000  0.10850000  0.57570000  1.0 0.6048878988
C  C9  1  0.57570000  0.57570000  0.74010000  1.0 0.6048878988
C  C10  1  0.74010000  0.10850000  0.57570000  1.0 0.6048878988
C  C11  1  0.10850000  0.74010000  0.57570000  1.0 0.6048878988
C  C12  1  0.57570000  0.57570000  0.10850000  1.0 0.6052871904
C  C13  1  0.79790000  0.57190000  0.57190000  1.0 -0.0344491901
C  C14  1  0.57190000  0.79790000  0.05830000  1.0 -0.0356264513
C  C15  1  0.57190000  0.05830000  0.79790000  1.0 -0.0356264513
C  C16  1  0.05830000  0.57190000  0.57190000  1.0 -0.0344491901
C  C17  1  0.57190000  0.79790000  0.57190000  1.0 -0.0344491901
C  C18  1  0.05830000  0.57190000  0.79790000  1.0 -0.0356264513
C  C19  1  0.79790000  0.57190000  0.05830000  1.0 -0.0356264513
C  C20  1  0.57190000  0.05830000  0.57190000  1.0 -0.0356264513
C  C21  1  0.57190000  0.57190000  0.79790000  1.0 -0.0356264513
C  C22  1  0.79790000  0.05830000  0.57190000  1.0 -0.0356264513
C  C23  1  0.05830000  0.79790000  0.57190000  1.0 -0.0344491901
C  C24  1  0.57190000  0.57190000  0.05830000  1.0 -0.0356264513
C  C25  1  0.82320000  0.61400000  0.52980000  1.0 -0.0820000509
C  C26  1  0.61400000  0.82320000  0.03300000  1.0 -0.0820000509
C  C27  1  0.52980000  0.03300000  0.82320000  1.0 -0.0820000509
C  C28  1  0.03300000  0.52980000  0.61400000  1.0 -0.0820000509
C  C29  1  0.52980000  0.82320000  0.61400000  1.0 -0.0820000509
C  C30  1  0.03300000  0.61400000  0.82320000  1.0 -0.0820000509
C  C31  1  0.82320000  0.52980000  0.03300000  1.0 -0.0820000509
C  C32  1  0.61400000  0.03300000  0.52980000  1.0 -0.0820000509
C  C33  1  0.61400000  0.52980000  0.82320000  1.0 -0.0820000509
C  C34  1  0.82320000  0.03300000  0.61400000  1.0 -0.0820000509
C  C35  1  0.03300000  0.82320000  0.52980000  1.0 -0.0820000509
C  C36  1  0.52980000  0.61400000  0.03300000  1.0 -0.0820000509
C  C37  1  0.61400000  0.82320000  0.52980000  1.0 -0.0820000509
C  C38  1  0.82320000  0.61400000  0.03300000  1.0 -0.0820000509
C  C39  1  0.03300000  0.52980000  0.82320000  1.0 -0.0820000509
C  C40  1  0.52980000  0.03300000  0.61400000  1.0 -0.0820000509
C  C41  1  0.82320000  0.52980000  0.61400000  1.0 -0.0820000509
C  C42  1  0.61400000  0.03300000  0.82320000  1.0 -0.0820000509
C  C43  1  0.52980000  0.82320000  0.03300000  1.0 -0.0820000509
C  C44  1  0.03300000  0.61400000  0.52980000  1.0 -0.0820000509
C  C45  1  0.52980000  0.61400000  0.82320000  1.0 -0.0820000509
C  C46  1  0.03300000  0.82320000  0.61400000  1.0 -0.0820000509
C  C47  1  0.82320000  0.03300000  0.52980000  1.0 -0.0820000509
C  C48  1  0.61400000  0.52980000  0.03300000  1.0 -0.0820000509
C  C49  1  0.87590000  0.61510000  0.52730000  1.0 -0.1484287755
C  C50  1  0.61510000  0.87590000  0.98170000  1.0 -0.1484287755
C  C51  1  0.52730000  0.98170000  0.87590000  1.0 -0.1484287755
C  C52  1  0.98170000  0.52730000  0.61510000  1.0 -0.1484287755
C  C53  1  0.52730000  0.87590000  0.61510000  1.0 -0.1484287755
C  C54  1  0.98170000  0.61510000  0.87590000  1.0 -0.1484287755
C  C55  1  0.87590000  0.52730000  0.98170000  1.0 -0.1484287755
C  C56  1  0.61510000  0.98170000  0.52730000  1.0 -0.1484287755
C  C57  1  0.61510000  0.52730000  0.87590000  1.0 -0.1484287755
C  C58  1  0.87590000  0.98170000  0.61510000  1.0 -0.1484287755
C  C59  1  0.98170000  0.87590000  0.52730000  1.0 -0.1484287755
C  C60  1  0.52730000  0.61510000  0.98170000  1.0 -0.1484287755
C  C61  1  0.61510000  0.87590000  0.52730000  1.0 -0.1484287755
C  C62  1  0.87590000  0.61510000  0.98170000  1.0 -0.1484287755
C  C63  1  0.98170000  0.52730000  0.87590000  1.0 -0.1484287755
C  C64  1  0.52730000  0.98170000  0.61510000  1.0 -0.1484287755
C  C65  1  0.87590000  0.52730000  0.61510000  1.0 -0.1484287755
C  C66  1  0.61510000  0.98170000  0.87590000  1.0 -0.1484287755
C  C67  1  0.52730000  0.87590000  0.98170000  1.0 -0.1484287755
C  C68  1  0.98170000  0.61510000  0.52730000  1.0 -0.1484287755
C  C69  1  0.52730000  0.61510000  0.87590000  1.0 -0.1484287755
C  C70  1  0.98170000  0.87590000  0.61510000  1.0 -0.1484287755
C  C71  1  0.87590000  0.98170000  0.52730000  1.0 -0.1484287755
C  C72  1  0.61510000  0.52730000  0.98170000  1.0 -0.1484287755
C  C73  1  0.89930000  0.57210000  0.57210000  1.0 0.0929850822
C  C74  1  0.57210000  0.89930000  0.95650000  1.0 0.0929850822
C  C75  1  0.57210000  0.95650000  0.89930000  1.0 0.0929850822
C  C76  1  0.95650000  0.57210000  0.57210000  1.0 0.0929850822
C  C77  1  0.57210000  0.89930000  0.57210000  1.0 0.0929850822
C  C78  1  0.95650000  0.57210000  0.89930000  1.0 0.0929850822
C  C79  1  0.89930000  0.57210000  0.95650000  1.0 0.0929850822
C  C80  1  0.57210000  0.95650000  0.57210000  1.0 0.0929850822
C  C81  1  0.57210000  0.57210000  0.89930000  1.0 0.0929850822
C  C82  1  0.89930000  0.95650000  0.57210000  1.0 0.0929850822
C  C83  1  0.95650000  0.89930000  0.57210000  1.0 0.0929850822
C  C84  1  0.57210000  0.57210000  0.95650000  1.0 0.0929850822
C  C85  1  0.74060000  0.66560000  0.40020000  1.0 0.1418690799
C  C86  1  0.66560000  0.74060000  0.19360000  1.0 0.1418690799
C  C87  1  0.40020000  0.19360000  0.74060000  1.0 0.1418690799
C  C88  1  0.19360000  0.40020000  0.66560000  1.0 0.1418690799
C  C89  1  0.40020000  0.74060000  0.66560000  1.0 0.1418690799
C  C90  1  0.19360000  0.66560000  0.74060000  1.0 0.1418690799
C  C91  1  0.74060000  0.40020000  0.19360000  1.0 0.1418690799
C  C92  1  0.66560000  0.19360000  0.40020000  1.0 0.1418690799
C  C93  1  0.66560000  0.40020000  0.74060000  1.0 0.1418690799
C  C94  1  0.74060000  0.19360000  0.66560000  1.0 0.1418690799
C  C95  1  0.19360000  0.74060000  0.40020000  1.0 0.1418690799
C  C96  1  0.40020000  0.66560000  0.19360000  1.0 0.1418690799
C  C97  1  0.66560000  0.74060000  0.40020000  1.0 0.1418690799
C  C98  1  0.74060000  0.66560000  0.19360000  1.0 0.1418690799
C  C99  1  0.19360000  0.40020000  0.74060000  1.0 0.1418690799
C  C100  1  0.40020000  0.19360000  0.66560000  1.0 0.1418690799
C  C101  1  0.74060000  0.40020000  0.66560000  1.0 0.1418690799
C  C102  1  0.66560000  0.19360000  0.74060000  1.0 0.1418690799
C  C103  1  0.40020000  0.74060000  0.19360000  1.0 0.1418690799
C  C104  1  0.19360000  0.66560000  0.40020000  1.0 0.1418690799
C  C105  1  0.40020000  0.66560000  0.74060000  1.0 0.1418690799
C  C106  1  0.19360000  0.74060000  0.66560000  1.0 0.1418690799
C  C107  1  0.74060000  0.19360000  0.40020000  1.0 0.1418690799
C  C108  1  0.66560000  0.40020000  0.19360000  1.0 0.1418690799
C  C109  1  0.77710000  0.68970000  0.33470000  1.0 -0.2031842658
C  C110  1  0.68970000  0.77710000  0.19850000  1.0 -0.2031842658
C  C111  1  0.33470000  0.19850000  0.77710000  1.0 -0.2031842658
C  C112  1  0.19850000  0.33470000  0.68970000  1.0 -0.2031842658
C  C113  1  0.33470000  0.77710000  0.68970000  1.0 -0.2031842658
C  C114  1  0.19850000  0.68970000  0.77710000  1.0 -0.2031842658
C  C115  1  0.77710000  0.33470000  0.19850000  1.0 -0.2031842658
C  C116  1  0.68970000  0.19850000  0.33470000  1.0 -0.2031842658
C  C117  1  0.68970000  0.33470000  0.77710000  1.0 -0.2031842658
C  C118  1  0.77710000  0.19850000  0.68970000  1.0 -0.2031842658
C  C119  1  0.19850000  0.77710000  0.33470000  1.0 -0.2031842658
C  C120  1  0.33470000  0.68970000  0.19850000  1.0 -0.2031842658
C  C121  1  0.68970000  0.77710000  0.33470000  1.0 -0.2031842658
C  C122  1  0.77710000  0.68970000  0.19850000  1.0 -0.2031842658
C  C123  1  0.19850000  0.33470000  0.77710000  1.0 -0.2031842658
C  C124  1  0.33470000  0.19850000  0.68970000  1.0 -0.2031842658
C  C125  1  0.77710000  0.33470000  0.68970000  1.0 -0.2031842658
C  C126  1  0.68970000  0.19850000  0.77710000  1.0 -0.2031842658
C  C127  1  0.33470000  0.77710000  0.19850000  1.0 -0.2031842658
C  C128  1  0.19850000  0.68970000  0.33470000  1.0 -0.2031842658
C  C129  1  0.33470000  0.68970000  0.77710000  1.0 -0.2031842658
C  C130  1  0.19850000  0.77710000  0.68970000  1.0 -0.2031842658
C  C131  1  0.77710000  0.19850000  0.33470000  1.0 -0.2031842658
C  C132  1  0.68970000  0.33470000  0.19850000  1.0 -0.2031842658
C  C133  1  0.74750000  0.74750000  0.30950000  1.0 0.1418690799
C  C134  1  0.74750000  0.74750000  0.19550000  1.0 0.1418690799
C  C135  1  0.30950000  0.19550000  0.74750000  1.0 0.1418690799
C  C136  1  0.19550000  0.30950000  0.74750000  1.0 0.1418690799
C  C137  1  0.30950000  0.74750000  0.74750000  1.0 0.1418690799
C  C138  1  0.19550000  0.74750000  0.74750000  1.0 0.1418690799
C  C139  1  0.74750000  0.30950000  0.19550000  1.0 0.1418690799
C  C140  1  0.74750000  0.19550000  0.30950000  1.0 0.1418690799
C  C141  1  0.74750000  0.30950000  0.74750000  1.0 0.1418690799
C  C142  1  0.74750000  0.19550000  0.74750000  1.0 0.1418690799
C  C143  1  0.19550000  0.74750000  0.30950000  1.0 0.1418690799
C  C144  1  0.30950000  0.74750000  0.19550000  1.0 0.1418690799
C  C145  1  0.78060000  0.78060000  0.24240000  1.0 -0.0344491901
C  C146  1  0.78060000  0.78060000  0.19640000  1.0 -0.0344491901
C  C147  1  0.24240000  0.19640000  0.78060000  1.0 -0.0344491901
C  C148  1  0.19640000  0.24240000  0.78060000  1.0 -0.0344491901
C  C149  1  0.24240000  0.78060000  0.78060000  1.0 -0.0344491901
C  C150  1  0.19640000  0.78060000  0.78060000  1.0 -0.0344491901
C  C151  1  0.78060000  0.24240000  0.19640000  1.0 -0.0344491901
C  C152  1  0.78060000  0.19640000  0.24240000  1.0 -0.0344491901
C  C153  1  0.78060000  0.24240000  0.78060000  1.0 -0.0344491901
C  C154  1  0.78060000  0.19640000  0.78060000  1.0 -0.0344491901
C  C155  1  0.19640000  0.78060000  0.24240000  1.0 -0.0356264513
C  C156  1  0.24240000  0.78060000  0.19640000  1.0 -0.0344491901
S  S1  1  0.70597000  0.51009000  0.51009000  1.0 1.3676705322
S  S2  1  0.51009000  0.70597000  0.27385000  1.0 1.3676705322
S  S3  1  0.51009000  0.27385000  0.70597000  1.0 1.3676705322
S  S4  1  0.27385000  0.51009000  0.51009000  1.0 1.3676705322
S  S5  1  0.51009000  0.70597000  0.51009000  1.0 1.3676705322
S  S6  1  0.27385000  0.51009000  0.70597000  1.0 1.3676705322
S  S7  1  0.70597000  0.51009000  0.27385000  1.0 1.3676705322
S  S8  1  0.51009000  0.27385000  0.51009000  1.0 1.3676705322
S  S9  1  0.51009000  0.51009000  0.70597000  1.0 1.3676705322
S  S10  1  0.70597000  0.27385000  0.51009000  1.0 1.3676705322
S  S11  1  0.27385000  0.70597000  0.51009000  1.0 1.3676705322
S  S12  1  0.51009000  0.51009000  0.27385000  1.0 1.3676705322
N  N1  1  0.68830000  0.68830000  0.43130000  1.0 -0.2352742145
N  N2  1  0.68830000  0.68830000  0.19210000  1.0 -0.2346922645
N  N3  1  0.43130000  0.19210000  0.68830000  1.0 -0.2352742145
N  N4  1  0.19210000  0.43130000  0.68830000  1.0 -0.2352742145
N  N5  1  0.43130000  0.68830000  0.68830000  1.0 -0.2352742145
N  N6  1  0.19210000  0.68830000  0.68830000  1.0 -0.2352742145
N  N7  1  0.68830000  0.43130000  0.19210000  1.0 -0.2346922645
N  N8  1  0.68830000  0.19210000  0.43130000  1.0 -0.2346922645
N  N9  1  0.68830000  0.43130000  0.68830000  1.0 -0.2352742145
N  N10  1  0.68830000  0.19210000  0.68830000  1.0 -0.2352742145
N  N11  1  0.19210000  0.68830000  0.43130000  1.0 -0.2352742145
N  N12  1  0.43130000  0.68830000  0.19210000  1.0 -0.2352742145
O  O1  1  0.71760000  0.61680000  0.53640000  1.0 -0.4994710375
O  O2  1  0.61680000  0.71760000  0.12920000  1.0 -0.4994710375
O  O3  1  0.53640000  0.12920000  0.71760000  1.0 -0.4994710375
O  O4  1  0.12920000  0.53640000  0.61680000  1.0 -0.4994710375
O  O5  1  0.53640000  0.71760000  0.61680000  1.0 -0.4994710375
O  O6  1  0.12920000  0.61680000  0.71760000  1.0 -0.4994710375
O  O7  1  0.71760000  0.53640000  0.12920000  1.0 -0.4994710375
O  O8  1  0.61680000  0.12920000  0.53640000  1.0 -0.4994710375
O  O9  1  0.61680000  0.53640000  0.71760000  1.0 -0.4994710375
O  O10  1  0.71760000  0.12920000  0.61680000  1.0 -0.4994710375
O  O11  1  0.12920000  0.71760000  0.53640000  1.0 -0.4994710375
O  O12  1  0.53640000  0.61680000  0.12920000  1.0 -0.4994710375
O  O13  1  0.61680000  0.71760000  0.53640000  1.0 -0.4994710375
O  O14  1  0.71760000  0.61680000  0.12920000  1.0 -0.4994710375
O  O15  1  0.12920000  0.53640000  0.71760000  1.0 -0.4994710375
O  O16  1  0.53640000  0.12920000  0.61680000  1.0 -0.4994710375
O  O17  1  0.71760000  0.53640000  0.61680000  1.0 -0.4994710375
O  O18  1  0.61680000  0.12920000  0.71760000  1.0 -0.4994710375
O  O19  1  0.53640000  0.71760000  0.12920000  1.0 -0.4994710375
O  O20  1  0.12920000  0.61680000  0.53640000  1.0 -0.4994710375
O  O21  1  0.53640000  0.61680000  0.71760000  1.0 -0.4994710375
O  O22  1  0.12920000  0.71760000  0.61680000  1.0 -0.4994710375
O  O23  1  0.71760000  0.12920000  0.53640000  1.0 -0.4994710375
O  O24  1  0.61680000  0.53640000  0.12920000  1.0 -0.4994710375
O  O25  1  0.60120000  0.60120000  0.60120000  1.0 -0.8140547712
O  O26  1  0.60120000  0.60120000  0.19640000  1.0 -0.8161912003
O  O27  1  0.60120000  0.19640000  0.60120000  1.0 -0.8140547712
O  O28  1  0.19640000  0.60120000  0.60120000  1.0 -0.8140547712
O  O29  1  0.67670000  0.57610000  0.48830000  1.0 -0.6203849796
O  O30  1  0.57610000  0.67670000  0.25890000  1.0 -0.6203849796
O  O31  1  0.48830000  0.25890000  0.67670000  1.0 -0.6203849796
O  O32  1  0.25890000  0.48830000  0.57610000  1.0 -0.6203849796
O  O33  1  0.48830000  0.67670000  0.57610000  1.0 -0.6203849796
O  O34  1  0.25890000  0.57610000  0.67670000  1.0 -0.6203849796
O  O35  1  0.67670000  0.48830000  0.25890000  1.0 -0.6203849796
O  O36  1  0.57610000  0.25890000  0.48830000  1.0 -0.6203849796
O  O37  1  0.57610000  0.48830000  0.67670000  1.0 -0.6203849796
O  O38  1  0.67670000  0.25890000  0.57610000  1.0 -0.6203849796
O  O39  1  0.25890000  0.67670000  0.48830000  1.0 -0.6203849796
O  O40  1  0.48830000  0.57610000  0.25890000  1.0 -0.6203849796
O  O41  1  0.57610000  0.67670000  0.48830000  1.0 -0.6203849796
O  O42  1  0.67670000  0.57610000  0.25890000  1.0 -0.6203849796
O  O43  1  0.25890000  0.48830000  0.67670000  1.0 -0.6203849796
O  O44  1  0.48830000  0.25890000  0.57610000  1.0 -0.6203849796
O  O45  1  0.67670000  0.48830000  0.57610000  1.0 -0.6203849796
O  O46  1  0.57610000  0.25890000  0.67670000  1.0 -0.6203849796
O  O47  1  0.48830000  0.67670000  0.25890000  1.0 -0.6203849796
O  O48  1  0.25890000  0.57610000  0.48830000  1.0 -0.6203849796
O  O49  1  0.48830000  0.57610000  0.67670000  1.0 -0.6203849796
O  O50  1  0.25890000  0.67670000  0.57610000  1.0 -0.6203849796
O  O51  1  0.67670000  0.25890000  0.48830000  1.0 -0.6203849796
O  O52  1  0.57610000  0.48830000  0.25890000  1.0 -0.6203849796
O  O53  1  0.69630000  0.48310000  0.48310000  1.0 -0.4485734243
O  O54  1  0.48310000  0.69630000  0.33750000  1.0 -0.4485734243
O  O55  1  0.48310000  0.33750000  0.69630000  1.0 -0.4485734243
O  O56  1  0.33750000  0.48310000  0.48310000  1.0 -0.4485734243
O  O57  1  0.48310000  0.69630000  0.48310000  1.0 -0.4485734243
O  O58  1  0.33750000  0.48310000  0.69630000  1.0 -0.4485734243
O  O59  1  0.69630000  0.48310000  0.33750000  1.0 -0.4485734243
O  O60  1  0.48310000  0.33750000  0.48310000  1.0 -0.4485734243
O  O61  1  0.48310000  0.48310000  0.69630000  1.0 -0.4485734243
O  O62  1  0.69630000  0.33750000  0.48310000  1.0 -0.4485734243
O  O63  1  0.33750000  0.69630000  0.48310000  1.0 -0.4485734243
O  O64  1  0.48310000  0.48310000  0.33750000  1.0 -0.4485734243
O  O65  1  0.76950000  0.49590000  0.49590000  1.0 -0.6144559422
O  O66  1  0.49590000  0.76950000  0.23870000  1.0 -0.6203849796
O  O67  1  0.49590000  0.23870000  0.76950000  1.0 -0.6144559422
O  O68  1  0.23870000  0.49590000  0.49590000  1.0 -0.6144559422
O  O69  1  0.49590000  0.76950000  0.49590000  1.0 -0.6144559422
O  O70  1  0.23870000  0.49590000  0.76950000  1.0 -0.6144559422
O  O71  1  0.76950000  0.49590000  0.23870000  1.0 -0.6203849796
O  O72  1  0.49590000  0.23870000  0.49590000  1.0 -0.6144559422
O  O73  1  0.49590000  0.49590000  0.76950000  1.0 -0.6144559422
O  O74  1  0.76950000  0.23870000  0.49590000  1.0 -0.6144559422
O  O75  1  0.23870000  0.76950000  0.49590000  1.0 -0.6144559422
O  O76  1  0.49590000  0.49590000  0.23870000  1.0 -0.6203849796
