# DDEC6 charges by PACMAN v1.1 (https://github.com/mtap-research/PACMAN-charge/)
data_ICORAV_FSR_pacman
_symmetry_space_group_name_H-M   'P 1'
_cell_length_a   12.82700000
_cell_length_b   6.53660000
_cell_length_c   16.09600000
_cell_angle_alpha   90.00000000
_cell_angle_beta   90.34000000
_cell_angle_gamma   90.00000000
_symmetry_Int_Tables_number   1
_chemical_formula_structural   La2H12C12S2NClO15
_chemical_formula_sum   'La4 H24 C24 S4 N2 Cl2 O30'
_cell_volume   1349.54484652
_cell_formula_units_Z   2
loop_
 _symmetry_equiv_pos_site_id
 _symmetry_equiv_pos_as_xyz
  1  'x, y, z'
loop_
 _atom_site_type_symbol
 _atom_site_label
 _atom_site_symmetry_multiplicity
 _atom_site_fract_x
 _atom_site_fract_y
 _atom_site_fract_z
 _atom_site_occupancy
 _atom_site_charge
La  La1  1  0.98294000  0.07171000  0.39415000  1.0 1.8270510907
La  La2  1  0.01706000  0.57171000  0.60585000  1.0 1.8270510907
La  La3  1  0.78405000  0.67878000  0.26867000  1.0 1.8665958519
La  La4  1  0.21595000  0.17878000  0.73133000  1.0 1.8637595053
H  H1  1  0.14810000  0.74300000  0.33440000  1.0 0.3587406302
H  H2  1  0.85190000  0.24300000  0.66560000  1.0 0.3587406302
H  H3  1  0.15850000  0.76020000  0.42020000  1.0 0.3587406302
H  H4  1  0.84150000  0.26020000  0.57980000  1.0 0.3587406302
H  H5  1  0.89290000  0.08230000  0.93380000  1.0 0.1231079871
H  H6  1  0.10710000  0.58230000  0.06620000  1.0 0.1231079871
H  H7  1  0.83850000  0.05780000  0.07890000  1.0 0.1401955659
H  H8  1  0.16150000  0.55780000  0.92110000  1.0 0.1401955659
H  H9  1  0.20230000  0.23640000  0.36930000  1.0 0.3953753287
H  H10  1  0.79770000  0.73640000  0.63070000  1.0 0.3953753287
H  H11  1  0.16740000  0.33410000  0.44670000  1.0 0.3877617145
H  H12  1  0.83260000  0.83410000  0.55330000  1.0 0.3877617145
H  H13  1  0.53750000  0.05210000  0.35980000  1.0 0.1401955659
H  H14  1  0.46250000  0.55210000  0.64020000  1.0 0.1401955659
H  H15  1  0.76220000  0.22150000  0.24780000  1.0 0.3877617145
H  H16  1  0.23780000  0.72150000  0.75220000  1.0 0.3877617145
H  H17  1  0.67560000  0.30490000  0.19790000  1.0 0.3319467182
H  H18  1  0.32440000  0.80490000  0.80210000  1.0 0.3319467182
H  H19  1  0.59780000  0.80720000  0.15450000  1.0 0.4276765163
H  H20  1  0.40220000  0.30720000  0.84550000  1.0 0.4276765163
H  H21  1  0.64660000  0.01930000  0.18760000  1.0 0.3319467182
H  H22  1  0.35340000  0.51930000  0.81240000  1.0 0.3319467182
H  H23  1  0.38420000  0.06640000  0.43750000  1.0 0.1261820967
H  H24  1  0.61580000  0.56640000  0.56250000  1.0 0.1261820967
C  C1  1  0.73870000  0.04910000  0.43110000  1.0 0.6067574496
C  C2  1  0.26130000  0.54910000  0.56890000  1.0 0.6067574496
C  C3  1  0.10270000  0.09860000  0.89230000  1.0 0.5581417258
C  C4  1  0.89730000  0.59860000  0.10770000  1.0 0.5581417258
C  C5  1  0.93930000  0.07920000  0.97840000  1.0 -0.1220094089
C  C6  1  0.06070000  0.57920000  0.02160000  1.0 -0.1220094089
C  C7  1  0.98770000  0.05310000  0.20710000  1.0 0.6184623713
C  C8  1  0.01230000  0.55310000  0.79290000  1.0 0.6184623713
C  C9  1  0.99020000  0.07140000  0.11570000  1.0 -0.1108780591
C  C10  1  0.00980000  0.57140000  0.88430000  1.0 -0.1108780591
C  C11  1  0.04530000  0.08570000  0.96970000  1.0 -0.1273160954
C  C12  1  0.95470000  0.58570000  0.03030000  1.0 -0.1220094089
C  C13  1  0.90760000  0.06730000  0.06220000  1.0 -0.099235223
C  C14  1  0.09240000  0.56730000  0.93780000  1.0 -0.099235223
C  C15  1  0.46930000  0.06970000  0.54190000  1.0 -0.069842947
C  C16  1  0.53070000  0.56970000  0.45810000  1.0 -0.069842947
C  C17  1  0.38970000  0.08700000  0.61100000  1.0 0.5581417258
C  C18  1  0.61030000  0.58700000  0.38900000  1.0 0.5581417258
C  C19  1  0.63220000  0.06110000  0.46240000  1.0 -0.1273160954
C  C20  1  0.36780000  0.56110000  0.53760000  1.0 -0.1273160954
C  C21  1  0.53840000  0.05840000  0.41750000  1.0 -0.099235223
C  C22  1  0.46160000  0.55840000  0.58250000  1.0 -0.099235223
C  C23  1  0.45060000  0.06510000  0.46110000  1.0 -0.1273160954
C  C24  1  0.54940000  0.56510000  0.53890000  1.0 -0.1273160954
S  S1  1  0.10701000  0.08530000  0.06563000  1.0 0.2104046965
S  S2  1  0.89299000  0.58530000  0.93437000  1.0 0.2104046965
S  S3  1  0.60487000  0.07360000  0.56573000  1.0 0.1111271257
S  S4  1  0.39513000  0.57360000  0.43427000  1.0 0.1111271257
N  N1  1  0.92970000  0.52060000  0.40060000  1.0 0.751142847
N  N2  1  0.07030000  0.02060000  0.59940000  1.0 0.751142847
Cl  Cl1  1  0.61900000  0.25800000  0.11300000  1.0 -0.3513548648
Cl  Cl2  1  0.38100000  0.75800000  0.88700000  1.0 -0.3513548648
O  O1  1  0.13640000  0.81870000  0.37630000  1.0 -0.7088492935
O  O2  1  0.86360000  0.31870000  0.62370000  1.0 -0.7088492935
O  O3  1  0.91350000  0.71480000  0.39150000  1.0 -0.5709501629
O  O4  1  0.08650000  0.21480000  0.60850000  1.0 -0.5709501629
O  O5  1  0.75550000  0.00990000  0.35540000  1.0 -0.6215804343
O  O6  1  0.24450000  0.50990000  0.64460000  1.0 -0.6215804343
O  O7  1  0.81380000  0.07820000  0.48150000  1.0 -0.6438756114
O  O8  1  0.18620000  0.57820000  0.51850000  1.0 -0.6438756114
O  O9  1  0.05610000  0.08550000  0.82390000  1.0 -0.563140673
O  O10  1  0.94390000  0.58550000  0.17610000  1.0 -0.563140673
O  O11  1  0.20210000  0.12930000  0.89590000  1.0 -0.6008109873
O  O12  1  0.79790000  0.62930000  0.10410000  1.0 -0.6008109873
O  O13  1  0.89960000  0.40060000  0.34090000  1.0 -0.5282601839
O  O14  1  0.10040000  0.90060000  0.65910000  1.0 -0.5282601839
O  O15  1  0.90420000  0.99040000  0.24250000  1.0 -0.6740121966
O  O16  1  0.09580000  0.49040000  0.75750000  1.0 -0.6740121966
O  O17  1  0.29610000  0.06830000  0.59100000  1.0 -0.5709501629
O  O18  1  0.70390000  0.56830000  0.40900000  1.0 -0.5709501629
O  O19  1  0.97250000  0.44350000  0.46460000  1.0 -0.5411167269
O  O20  1  0.02750000  0.94350000  0.53540000  1.0 -0.5411167269
O  O21  1  0.15570000  0.25480000  0.40580000  1.0 -0.7464047795
O  O22  1  0.84430000  0.75480000  0.59420000  1.0 -0.7464047795
O  O23  1  0.06750000  0.10170000  0.24950000  1.0 -0.5939506417
O  O24  1  0.93250000  0.60170000  0.75050000  1.0 -0.5939506417
O  O25  1  0.72810000  0.32360000  0.22950000  1.0 -0.7088492935
O  O26  1  0.27190000  0.82360000  0.77050000  1.0 -0.7088492935
O  O27  1  0.64710000  0.87710000  0.18620000  1.0 -0.7880409484
O  O28  1  0.35290000  0.37710000  0.81380000  1.0 -0.7880409484
O  O29  1  0.41930000  0.11450000  0.68160000  1.0 -0.5233951335
O  O30  1  0.58070000  0.61450000  0.31840000  1.0 -0.5233951335
