# DDEC6 charges by PACMAN v1.1 (https://github.com/mtap-research/PACMAN-charge/)
data_IDAZEU_ASR_pacman
_symmetry_space_group_name_H-M   'P 1'
_cell_length_a   9.18037000
_cell_length_b   9.18037000
_cell_length_c   9.18037000
_cell_angle_alpha   103.63400000
_cell_angle_beta   103.63400000
_cell_angle_gamma   121.90900000
_symmetry_Int_Tables_number   1
_chemical_formula_structural   KYb(CO2)4
_chemical_formula_sum   'K2 Yb2 C8 O16'
_cell_volume   574.19120557
_cell_formula_units_Z   2
loop_
 _symmetry_equiv_pos_site_id
 _symmetry_equiv_pos_as_xyz
  1  'x, y, z'
loop_
 _atom_site_type_symbol
 _atom_site_label
 _atom_site_symmetry_multiplicity
 _atom_site_fract_x
 _atom_site_fract_y
 _atom_site_fract_z
 _atom_site_occupancy
 _atom_site_charge
K  K1  1  0.00000000  0.00000000  0.00000000  1.0 0.8675513544
K  K2  1  0.25000000  0.75000000  0.50000000  1.0 0.8675513544
Yb  Yb1  1  0.50000000  0.50000000  0.00000000  1.0 1.8896733501
Yb  Yb2  1  0.75000000  0.25000000  0.50000000  1.0 1.8896733501
C  C1  1  0.70900000  0.47960000  0.77820000  1.0 0.5060405114
C  C2  1  0.18080000  0.45900000  0.72940000  1.0 0.5060405114
C  C3  1  0.70140000  0.93080000  0.22180000  1.0 0.5060405114
C  C4  1  0.72960000  0.45140000  0.27060000  1.0 0.5060405114
C  C5  1  0.54100000  0.27040000  0.72180000  1.0 0.5060405114
C  C6  1  0.06920000  0.29100000  0.77060000  1.0 0.5060405114
C  C7  1  0.54860000  0.81920000  0.27820000  1.0 0.5060405114
C  C8  1  0.52040000  0.29860000  0.22940000  1.0 0.5060405114
O  O1  1  0.72710000  0.60142000  0.89112000  1.0 -0.5810698292
O  O2  1  0.08598000  0.47710000  0.62568000  1.0 -0.5810698292
O  O3  1  0.71030000  0.83598000  0.10888000  1.0 -0.5810698292
O  O4  1  0.85142000  0.46030000  0.37432000  1.0 -0.5810698292
O  O5  1  0.52290000  0.14858000  0.60888000  1.0 -0.5810698292
O  O6  1  0.16402000  0.27290000  0.87432000  1.0 -0.5810698292
O  O7  1  0.53970000  0.91402000  0.39112000  1.0 -0.5810698292
O  O8  1  0.39858000  0.28970000  0.12568000  1.0 -0.5810698292
O  O9  1  0.81310000  0.50625000  0.70215000  1.0 -0.6142768583
O  O10  1  0.36095000  0.56310000  0.80685000  1.0 -0.6142768583
O  O11  1  0.80410000  0.11095000  0.29785000  1.0 -0.6142768583
O  O12  1  0.75625000  0.55410000  0.19315000  1.0 -0.6142768583
O  O13  1  0.43690000  0.24375000  0.79785000  1.0 -0.6142768583
O  O14  1  0.88905000  0.18690000  0.69315000  1.0 -0.6142768583
O  O15  1  0.44590000  0.63905000  0.20215000  1.0 -0.6142768583
O  O16  1  0.49375000  0.19590000  0.30685000  1.0 -0.6142768583
