# DDEC6 charges by PACMAN v1.1 (https://github.com/mtap-research/PACMAN-charge/)
data_IDESOD_ASR_pacman
_symmetry_space_group_name_H-M   'P 1'
_cell_length_a   9.56170000
_cell_length_b   37.02890000
_cell_length_c   15.55450000
_cell_angle_alpha   90.00000000
_cell_angle_beta   101.04400000
_cell_angle_gamma   90.00000000
_symmetry_Int_Tables_number   1
_chemical_formula_structural   CdH28C50S2N2(OF3)4
_chemical_formula_sum   'Cd4 H112 C200 S8 N8 O16 F48'
_cell_volume   5405.22273245
_cell_formula_units_Z   4
loop_
 _symmetry_equiv_pos_site_id
 _symmetry_equiv_pos_as_xyz
  1  'x, y, z'
loop_
 _atom_site_type_symbol
 _atom_site_label
 _atom_site_symmetry_multiplicity
 _atom_site_fract_x
 _atom_site_fract_y
 _atom_site_fract_z
 _atom_site_occupancy
 _atom_site_charge
Cd  Cd1  1  0.98636000  0.49916000  0.64075000  1.0 0.8726853546
Cd  Cd2  1  0.01364000  0.99916000  0.85925000  1.0 0.8726853546
Cd  Cd3  1  0.01364000  0.50084000  0.35925000  1.0 0.8726853546
Cd  Cd4  1  0.98636000  0.00084000  0.14075000  1.0 0.8726853546
H  H1  1  0.62798000  0.45753000  0.43701000  1.0 0.1190307038
H  H2  1  0.37202000  0.95753000  0.06299000  1.0 0.1190307038
H  H3  1  0.37202000  0.54247000  0.56299000  1.0 0.1190307038
H  H4  1  0.62798000  0.04247000  0.93701000  1.0 0.1190307038
H  H5  1  0.97444000  0.42618000  0.51574000  1.0 0.1101933583
H  H6  1  0.02556000  0.92618000  0.98426000  1.0 0.1101933583
H  H7  1  0.02556000  0.57382000  0.48426000  1.0 0.1101933583
H  H8  1  0.97444000  0.07382000  0.01574000  1.0 0.1101933583
H  H9  1  0.11795000  0.08233000  0.86332000  1.0 0.1101933583
H  H10  1  0.88205000  0.58233000  0.63668000  1.0 0.1101933583
H  H11  1  0.88205000  0.91767000  0.13668000  1.0 0.1101933583
H  H12  1  0.11795000  0.41767000  0.36332000  1.0 0.1101933583
H  H13  1  0.04427000  0.14135000  0.83717000  1.0 0.1190307038
H  H14  1  0.95573000  0.64135000  0.66283000  1.0 0.1190307038
H  H15  1  0.95573000  0.85865000  0.16283000  1.0 0.1190307038
H  H16  1  0.04427000  0.35865000  0.33717000  1.0 0.1190307038
H  H17  1  0.67602000  0.57902000  0.41399000  1.0 0.1101933583
H  H18  1  0.32398000  0.07902000  0.08601000  1.0 0.1101933583
H  H19  1  0.32398000  0.42098000  0.58601000  1.0 0.1101933583
H  H20  1  0.67602000  0.92098000  0.91399000  1.0 0.1101933583
H  H21  1  0.87415000  0.36911000  0.49946000  1.0 0.1190307038
H  H22  1  0.12585000  0.86911000  0.00054000  1.0 0.1190307038
H  H23  1  0.12585000  0.63089000  0.50054000  1.0 0.1190307038
H  H24  1  0.87415000  0.13089000  0.99946000  1.0 0.1190307038
H  H25  1  0.73479000  0.45288000  0.68571000  1.0 0.1101933583
H  H26  1  0.26521000  0.95288000  0.81429000  1.0 0.1101933583
H  H27  1  0.26521000  0.54712000  0.31429000  1.0 0.1101933583
H  H28  1  0.73479000  0.04712000  0.18571000  1.0 0.1101933583
H  H29  1  0.63467000  0.53867000  0.94954000  1.0 0.1190307038
H  H30  1  0.36533000  0.03867000  0.55046000  1.0 0.1190307038
H  H31  1  0.36533000  0.46133000  0.05046000  1.0 0.1190307038
H  H32  1  0.63467000  0.96133000  0.44954000  1.0 0.1190307038
H  H33  1  0.72764000  0.04675000  0.78016000  1.0 0.1101933583
H  H34  1  0.27236000  0.54675000  0.71984000  1.0 0.1101933583
H  H35  1  0.27236000  0.95325000  0.21984000  1.0 0.1101933583
H  H36  1  0.72764000  0.45325000  0.28016000  1.0 0.1101933583
H  H37  1  0.64219000  0.10475000  0.75216000  1.0 0.1394332707
H  H38  1  0.35781000  0.60475000  0.74784000  1.0 0.1394332707
H  H39  1  0.35781000  0.89525000  0.24784000  1.0 0.1394332707
H  H40  1  0.64219000  0.39525000  0.25216000  1.0 0.1394332707
H  H41  1  0.56903000  0.16483000  0.73190000  1.0 0.1101933583
H  H42  1  0.43097000  0.66483000  0.76810000  1.0 0.1101933583
H  H43  1  0.43097000  0.83517000  0.26810000  1.0 0.1101933583
H  H44  1  0.56903000  0.33517000  0.23190000  1.0 0.1101933583
H  H45  1  0.54049000  0.58140000  0.64550000  1.0 0.1101933583
H  H46  1  0.45951000  0.08140000  0.85450000  1.0 0.1101933583
H  H47  1  0.45951000  0.41860000  0.35450000  1.0 0.1101933583
H  H48  1  0.54049000  0.91860000  0.14550000  1.0 0.1101933583
H  H49  1  0.19263000  0.49592000  0.92961000  1.0 0.1101933583
H  H50  1  0.80737000  0.99592000  0.57039000  1.0 0.1101933583
H  H51  1  0.80737000  0.50408000  0.07039000  1.0 0.1101933583
H  H52  1  0.19263000  0.00408000  0.42961000  1.0 0.1101933583
H  H53  1  0.73422000  0.44357000  0.84792000  1.0 0.1101933583
H  H54  1  0.26578000  0.94357000  0.65208000  1.0 0.1101933583
H  H55  1  0.26578000  0.55643000  0.15208000  1.0 0.1101933583
H  H56  1  0.73422000  0.05643000  0.34792000  1.0 0.1101933583
H  H57  1  0.74286000  0.63955000  0.43320000  1.0 0.0900301117
H  H58  1  0.25714000  0.13955000  0.06680000  1.0 0.0900301117
H  H59  1  0.25714000  0.36045000  0.56680000  1.0 0.0900301117
H  H60  1  0.74286000  0.86045000  0.93320000  1.0 0.0900301117
H  H61  1  0.70263000  0.67153000  0.55517000  1.0 0.0988206383
H  H62  1  0.29737000  0.17153000  0.94483000  1.0 0.0988206383
H  H63  1  0.29737000  0.32847000  0.44483000  1.0 0.0988206383
H  H64  1  0.70263000  0.82847000  0.05517000  1.0 0.0988206383
H  H65  1  0.60272000  0.64226000  0.66119000  1.0 0.0988206383
H  H66  1  0.39728000  0.14226000  0.83881000  1.0 0.0988206383
H  H67  1  0.39728000  0.35774000  0.33881000  1.0 0.0988206383
H  H68  1  0.60272000  0.85774000  0.16119000  1.0 0.0988206383
H  H69  1  0.33008000  0.48148000  0.78945000  1.0 0.1282352604
H  H70  1  0.66992000  0.98148000  0.71055000  1.0 0.1282352604
H  H71  1  0.66992000  0.51852000  0.21055000  1.0 0.1282352604
H  H72  1  0.33008000  0.01852000  0.28945000  1.0 0.1282352604
H  H73  1  0.49907000  0.43708000  0.77719000  1.0 0.1101933583
H  H74  1  0.50093000  0.93708000  0.72281000  1.0 0.1101933583
H  H75  1  0.50093000  0.56292000  0.22281000  1.0 0.1101933583
H  H76  1  0.49907000  0.06292000  0.27719000  1.0 0.1101933583
H  H77  1  0.39834000  0.53183000  0.87844000  1.0 0.1101933583
H  H78  1  0.60166000  0.03183000  0.62156000  1.0 0.1101933583
H  H79  1  0.60166000  0.46817000  0.12156000  1.0 0.1101933583
H  H80  1  0.39834000  0.96817000  0.37844000  1.0 0.1101933583
H  H81  1  0.63149000  0.39635000  0.67571000  1.0 0.1282352604
H  H82  1  0.36851000  0.89635000  0.82429000  1.0 0.1282352604
H  H83  1  0.36851000  0.60365000  0.32429000  1.0 0.1282352604
H  H84  1  0.63149000  0.10365000  0.17571000  1.0 0.1282352604
H  H85  1  0.55621000  0.33979000  0.67649000  1.0 0.1101933583
H  H86  1  0.44379000  0.83979000  0.82351000  1.0 0.1101933583
H  H87  1  0.44379000  0.66021000  0.32351000  1.0 0.1101933583
H  H88  1  0.55621000  0.16021000  0.17649000  1.0 0.1101933583
H  H89  1  0.53971000  0.22304000  0.53786000  1.0 0.1190307038
H  H90  1  0.46029000  0.72304000  0.96214000  1.0 0.1190307038
H  H91  1  0.46029000  0.77696000  0.46214000  1.0 0.1190307038
H  H92  1  0.53971000  0.27696000  0.03786000  1.0 0.1190307038
H  H93  1  0.62590000  0.23520000  0.46408000  1.0 0.1282352604
H  H94  1  0.37410000  0.73520000  0.03592000  1.0 0.1282352604
H  H95  1  0.37410000  0.76480000  0.53592000  1.0 0.1282352604
H  H96  1  0.62590000  0.26480000  0.96408000  1.0 0.1282352604
H  H97  1  0.71015000  0.22168000  0.55747000  1.0 0.1394332707
H  H98  1  0.28985000  0.72168000  0.94253000  1.0 0.1394332707
H  H99  1  0.28985000  0.77832000  0.44253000  1.0 0.1394332707
H  H100  1  0.71015000  0.27832000  0.05747000  1.0 0.1394332707
H  H101  1  0.72046000  0.28752000  0.80347000  1.0 0.1282352604
H  H102  1  0.27954000  0.78752000  0.69653000  1.0 0.1282352604
H  H103  1  0.27954000  0.71248000  0.19653000  1.0 0.1282352604
H  H104  1  0.72046000  0.21248000  0.30347000  1.0 0.1282352604
H  H105  1  0.88108000  0.27696000  0.84609000  1.0 0.1394332707
H  H106  1  0.11892000  0.77696000  0.65391000  1.0 0.1394332707
H  H107  1  0.11892000  0.72304000  0.15391000  1.0 0.1394332707
H  H108  1  0.88108000  0.22304000  0.34609000  1.0 0.1394332707
H  H109  1  0.83706000  0.28351000  0.74274000  1.0 0.1282352604
H  H110  1  0.16294000  0.78351000  0.75726000  1.0 0.1282352604
H  H111  1  0.16294000  0.71649000  0.25726000  1.0 0.1282352604
H  H112  1  0.83706000  0.21649000  0.24274000  1.0 0.1282352604
C  C1  1  0.55380000  0.53576000  0.51560000  1.0 0.0478784739
C  C2  1  0.44620000  0.03576000  0.98440000  1.0 0.0478784739
C  C3  1  0.44620000  0.46424000  0.48440000  1.0 0.0478784739
C  C4  1  0.55380000  0.96424000  0.01560000  1.0 0.0478784739
C  C5  1  0.57530000  0.47478000  0.46290000  1.0 -0.1626542716
C  C6  1  0.42470000  0.97478000  0.03710000  1.0 -0.1626542716
C  C7  1  0.42470000  0.52522000  0.53710000  1.0 -0.1626542716
C  C8  1  0.57530000  0.02522000  0.96290000  1.0 -0.1626542716
C  C9  1  0.77520000  0.51613000  0.45840000  1.0 0.5699824806
C  C10  1  0.22480000  0.01613000  0.04160000  1.0 0.5699824806
C  C11  1  0.22480000  0.48387000  0.54160000  1.0 0.5699824806
C  C12  1  0.77520000  0.98387000  0.95840000  1.0 0.5699824806
C  C13  1  0.62990000  0.50951000  0.47790000  1.0 -0.0586754631
C  C14  1  0.37010000  0.00951000  0.02210000  1.0 -0.0586754631
C  C15  1  0.37010000  0.49049000  0.52210000  1.0 -0.0586754631
C  C16  1  0.62990000  0.99049000  0.97790000  1.0 -0.0586754631
C  C17  1  0.96560000  0.49431000  0.81187000  1.0 0.5498331901
C  C18  1  0.03440000  0.99431000  0.68813000  1.0 0.5498331901
C  C19  1  0.03440000  0.50569000  0.18813000  1.0 0.5498331901
C  C20  1  0.96560000  0.00569000  0.31187000  1.0 0.5498331901
C  C21  1  0.90450000  0.41994000  0.54910000  1.0 0.0900301117
C  C22  1  0.09550000  0.91994000  0.95090000  1.0 0.0900301117
C  C23  1  0.09550000  0.58006000  0.45090000  1.0 0.0900301117
C  C24  1  0.90450000  0.08006000  0.04910000  1.0 0.0900301117
C  C25  1  0.02010000  0.08697000  0.84070000  1.0 0.0988206383
C  C26  1  0.97990000  0.58697000  0.65930000  1.0 0.0988206383
C  C27  1  0.97990000  0.91303000  0.15930000  1.0 0.0988206383
C  C28  1  0.02010000  0.41303000  0.34070000  1.0 0.0988206383
C  C29  1  0.74240000  0.37551000  0.58760000  1.0 0.1282352604
C  C30  1  0.25760000  0.87551000  0.91240000  1.0 0.1282352604
C  C31  1  0.25760000  0.62449000  0.41240000  1.0 0.1282352604
C  C32  1  0.74240000  0.12449000  0.08760000  1.0 0.1282352604
C  C33  1  0.97660000  0.12233000  0.82550000  1.0 -0.2007574566
C  C34  1  0.02340000  0.62233000  0.67450000  1.0 -0.2007574566
C  C35  1  0.02340000  0.87767000  0.17450000  1.0 -0.2007574566
C  C36  1  0.97660000  0.37767000  0.32550000  1.0 -0.2007574566
C  C37  1  0.85960000  0.49704000  0.95040000  1.0 0.0478784739
C  C38  1  0.14040000  0.99704000  0.54960000  1.0 0.0478784739
C  C39  1  0.14040000  0.50296000  0.04960000  1.0 0.0478784739
C  C40  1  0.85960000  0.00296000  0.45040000  1.0 0.0478784739
C  C41  1  0.66130000  0.59162000  0.46470000  1.0 -0.1410228766
C  C42  1  0.33870000  0.09162000  0.03530000  1.0 -0.1410228766
C  C43  1  0.33870000  0.40838000  0.53530000  1.0 -0.1410228766
C  C44  1  0.66130000  0.90838000  0.96470000  1.0 -0.1410228766
C  C45  1  0.83360000  0.13016000  0.79310000  1.0 0.1190307038
C  C46  1  0.16640000  0.63016000  0.70690000  1.0 0.1190307038
C  C47  1  0.16640000  0.86984000  0.20690000  1.0 0.1190307038
C  C48  1  0.83360000  0.36984000  0.29310000  1.0 0.1190307038
C  C49  1  0.84510000  0.38570000  0.53920000  1.0 -0.2062754441
C  C50  1  0.15490000  0.88570000  0.96080000  1.0 -0.2062754441
C  C51  1  0.15490000  0.61430000  0.46080000  1.0 -0.2062754441
C  C52  1  0.84510000  0.11430000  0.03920000  1.0 -0.2062754441
C  C53  1  0.60080000  0.57385000  0.52760000  1.0 0.0780852876
C  C54  1  0.39920000  0.07385000  0.97240000  1.0 0.0780852876
C  C55  1  0.39920000  0.42615000  0.47240000  1.0 0.0780852876
C  C56  1  0.60080000  0.92615000  0.02760000  1.0 0.0780852876
C  C57  1  0.70940000  0.49247000  0.90440000  1.0 0.0900301117
C  C58  1  0.29060000  0.99247000  0.59560000  1.0 0.0900301117
C  C59  1  0.29060000  0.50753000  0.09560000  1.0 0.0900301117
C  C60  1  0.70940000  0.00753000  0.40440000  1.0 0.0900301117
C  C61  1  0.76520000  0.43543000  0.64840000  1.0 0.0780852876
C  C62  1  0.23480000  0.93543000  0.85160000  1.0 0.0780852876
C  C63  1  0.23480000  0.56457000  0.35160000  1.0 0.0780852876
C  C64  1  0.76520000  0.06457000  0.14840000  1.0 0.0780852876
C  C65  1  0.60770000  0.51807000  0.91380000  1.0 -0.1410228766
C  C66  1  0.39230000  0.01807000  0.58620000  1.0 -0.1410228766
C  C67  1  0.39230000  0.48193000  0.08620000  1.0 -0.1410228766
C  C68  1  0.60770000  0.98193000  0.41380000  1.0 -0.1410228766
C  C69  1  0.79260000  0.06634000  0.79230000  1.0 0.0780852876
C  C70  1  0.20740000  0.56634000  0.70770000  1.0 0.0780852876
C  C71  1  0.20740000  0.93366000  0.20770000  1.0 0.0780852876
C  C72  1  0.79260000  0.43366000  0.29230000  1.0 0.0780852876
C  C73  1  0.74040000  0.10091000  0.77550000  1.0 -0.2007574566
C  C74  1  0.25960000  0.60091000  0.72450000  1.0 -0.2007574566
C  C75  1  0.25960000  0.89909000  0.22450000  1.0 -0.2007574566
C  C76  1  0.74040000  0.39909000  0.27550000  1.0 -0.2007574566
C  C77  1  0.64870000  0.18015000  0.75060000  1.0 -0.2335819039
C  C78  1  0.35130000  0.68015000  0.74940000  1.0 -0.2335819039
C  C79  1  0.35130000  0.81985000  0.24940000  1.0 -0.2335819039
C  C80  1  0.64870000  0.31985000  0.25060000  1.0 -0.2335819039
C  C81  1  0.63950000  0.21879000  0.75050000  1.0 0.0378682505
C  C82  1  0.36050000  0.71879000  0.74950000  1.0 0.0378682505
C  C83  1  0.36050000  0.78121000  0.24950000  1.0 0.0378682505
C  C84  1  0.63950000  0.28121000  0.25050000  1.0 0.0378682505
C  C85  1  0.58040000  0.59314000  0.60150000  1.0 -0.1410228766
C  C86  1  0.41960000  0.09314000  0.89850000  1.0 -0.1410228766
C  C87  1  0.41960000  0.40686000  0.39850000  1.0 -0.1410228766
C  C88  1  0.58040000  0.90686000  0.10150000  1.0 -0.1410228766
C  C89  1  0.11420000  0.49786000  0.95870000  1.0 -0.1626542716
C  C90  1  0.88580000  0.99786000  0.54130000  1.0 -0.1653073017
C  C91  1  0.88580000  0.50214000  0.04130000  1.0 -0.1653073017
C  C92  1  0.11420000  0.00214000  0.45870000  1.0 -0.1626542716
C  C93  1  0.66666667  0.46179000  0.85360000  1.0 -0.1410228766
C  C94  1  0.33340000  0.96179000  0.64640000  1.0 -0.1410228766
C  C95  1  0.33340000  0.53821000  0.14640000  1.0 -0.1410228766
C  C96  1  0.66666667  0.03821000  0.35360000  1.0 -0.1410228766
C  C97  1  0.70020000  0.62777000  0.47590000  1.0 -0.1139495406
C  C98  1  0.29980000  0.12777000  0.02410000  1.0 -0.1139495406
C  C99  1  0.29980000  0.37223000  0.52410000  1.0 -0.1139495406
C  C100  1  0.70020000  0.87223000  0.97590000  1.0 -0.1139495406
C  C101  1  0.67750000  0.64673000  0.54850000  1.0 -0.1469280753
C  C102  1  0.32250000  0.14673000  0.95150000  1.0 -0.1469280753
C  C103  1  0.32250000  0.35327000  0.45150000  1.0 -0.1469280753
C  C104  1  0.67750000  0.85327000  0.04850000  1.0 -0.1410228766
C  C105  1  0.68420000  0.33879000  0.58550000  1.0 0.0100634629
C  C106  1  0.31580000  0.83879000  0.91450000  1.0 0.0100634629
C  C107  1  0.31580000  0.66121000  0.41450000  1.0 0.0100634629
C  C108  1  0.68420000  0.16121000  0.08550000  1.0 0.0100634629
C  C109  1  0.61810000  0.62936000  0.61100000  1.0 -0.1179934637
C  C110  1  0.38190000  0.12936000  0.88900000  1.0 -0.1179934637
C  C111  1  0.38190000  0.37064000  0.38900000  1.0 -0.1179934637
C  C112  1  0.61810000  0.87064000  0.11100000  1.0 -0.1179934637
C  C113  1  0.42590000  0.48409000  0.81950000  1.0 -0.0885179912
C  C114  1  0.57410000  0.98409000  0.68050000  1.0 -0.0885179912
C  C115  1  0.57410000  0.51591000  0.18050000  1.0 -0.0885179912
C  C116  1  0.42590000  0.01591000  0.31950000  1.0 -0.0885179912
C  C117  1  0.97580000  0.49554000  0.90942000  1.0 -0.0505297936
C  C118  1  0.02420000  0.99554000  0.59058000  1.0 -0.0505297936
C  C119  1  0.02420000  0.50446000  0.09058000  1.0 -0.0505297936
C  C120  1  0.97580000  0.00446000  0.40942000  1.0 -0.0505297936
C  C121  1  0.78270000  0.16762000  0.78020000  1.0 -0.0064042107
C  C122  1  0.21730000  0.66762000  0.71980000  1.0 -0.0064042107
C  C123  1  0.21730000  0.83238000  0.21980000  1.0 -0.0047542186
C  C124  1  0.78270000  0.33238000  0.28020000  1.0 -0.0064042107
C  C125  1  0.52680000  0.45794000  0.81180000  1.0 -0.0885179912
C  C126  1  0.47320000  0.95794000  0.68820000  1.0 -0.0885179912
C  C127  1  0.47320000  0.54206000  0.18820000  1.0 -0.0885179912
C  C128  1  0.52680000  0.04206000  0.31180000  1.0 -0.0885179912
C  C129  1  0.46680000  0.51401000  0.87160000  1.0 -0.0971217003
C  C130  1  0.53320000  0.01401000  0.62840000  1.0 -0.0971217003
C  C131  1  0.53320000  0.48599000  0.12840000  1.0 -0.0971217003
C  C132  1  0.46680000  0.98599000  0.37160000  1.0 -0.0971217003
C  C133  1  0.51520000  0.23920000  0.73350000  1.0 0.0100634629
C  C134  1  0.48480000  0.73920000  0.76650000  1.0 0.0100634629
C  C135  1  0.48480000  0.76080000  0.26650000  1.0 0.0100634629
C  C136  1  0.51520000  0.26080000  0.23350000  1.0 0.0100634629
C  C137  1  0.70240000  0.40170000  0.64240000  1.0 -0.1764503601
C  C138  1  0.29760000  0.90170000  0.85760000  1.0 -0.1764503601
C  C139  1  0.29760000  0.59830000  0.35760000  1.0 -0.1764503601
C  C140  1  0.70240000  0.09830000  0.14240000  1.0 -0.1764503601
C  C141  1  0.59530000  0.32542000  0.63630000  1.0 -0.2416608218
C  C142  1  0.40470000  0.82542000  0.86370000  1.0 -0.2416608218
C  C143  1  0.40470000  0.67458000  0.36370000  1.0 -0.2416608218
C  C144  1  0.59530000  0.17458000  0.13630000  1.0 -0.2416608218
C  C145  1  0.48330000  0.26870000  0.68340000  1.0 0.002061311
C  C146  1  0.51670000  0.76870000  0.81660000  1.0 0.002061311
C  C147  1  0.51670000  0.73130000  0.31660000  1.0 0.002061311
C  C148  1  0.48330000  0.23130000  0.18340000  1.0 0.002061311
C  C149  1  0.76840000  0.23493000  0.78140000  1.0 -0.0505297936
C  C150  1  0.23160000  0.73493000  0.71860000  1.0 -0.0505297936
C  C151  1  0.23160000  0.76507000  0.21860000  1.0 -0.0505297936
C  C152  1  0.76840000  0.26507000  0.28140000  1.0 -0.0586754631
C  C153  1  0.63130000  0.27311000  0.56090000  1.0 -0.0885179912
C  C154  1  0.36870000  0.77311000  0.93910000  1.0 -0.0843926776
C  C155  1  0.36870000  0.72689000  0.43910000  1.0 -0.0843926776
C  C156  1  0.63130000  0.22689000  0.06090000  1.0 -0.0843926776
C  C157  1  0.56620000  0.28782000  0.62360000  1.0 0.0378682505
C  C158  1  0.43380000  0.78782000  0.87640000  1.0 0.0378682505
C  C159  1  0.43380000  0.71218000  0.37640000  1.0 0.0378682505
C  C160  1  0.56620000  0.21218000  0.12360000  1.0 0.0378682505
C  C161  1  0.38860000  0.22790000  0.77130000  1.0 0.2515246884
C  C162  1  0.61140000  0.72790000  0.72870000  1.0 0.2515246884
C  C163  1  0.61140000  0.77210000  0.22870000  1.0 0.2515246884
C  C164  1  0.38860000  0.27210000  0.27130000  1.0 0.2515246884
C  C165  1  0.62630000  0.23492000  0.52710000  1.0 -0.4895310982
C  C166  1  0.37370000  0.73492000  0.97290000  1.0 -0.484140474
C  C167  1  0.37370000  0.76508000  0.47290000  1.0 -0.4895310982
C  C168  1  0.62630000  0.26508000  0.02710000  1.0 -0.4895310982
C  C169  1  0.80490000  0.27412000  0.79460000  1.0 -0.4895310982
C  C170  1  0.19510000  0.77412000  0.70540000  1.0 -0.4895310982
C  C171  1  0.19510000  0.72588000  0.20540000  1.0 -0.4953094605
C  C172  1  0.80490000  0.22588000  0.29460000  1.0 -0.4895310982
C  C173  1  0.33100000  0.28060000  0.68000000  1.0 0.1686216858
C  C174  1  0.66900000  0.78060000  0.82000000  1.0 0.1686216858
C  C175  1  0.66900000  0.71940000  0.32000000  1.0 0.1686216858
C  C176  1  0.33100000  0.21940000  0.18000000  1.0 0.1686216858
C  C177  1  0.28400000  0.25930000  0.75550000  1.0 0.1190307038
C  C178  1  0.71600000  0.75930000  0.74450000  1.0 0.1190307038
C  C179  1  0.71600000  0.74070000  0.24450000  1.0 0.1190307038
C  C180  1  0.28400000  0.24070000  0.25550000  1.0 0.1190307038
C  C181  1  0.23990000  0.25010000  0.69290000  1.0 0.1394332707
C  C182  1  0.76010000  0.75010000  0.80710000  1.0 0.1394332707
C  C183  1  0.76010000  0.74990000  0.30710000  1.0 0.1394332707
C  C184  1  0.23990000  0.24990000  0.19290000  1.0 0.1394332707
C  C185  1  0.31060000  0.27910000  0.64920000  1.0 0.2515246884
C  C186  1  0.68940000  0.77910000  0.85080000  1.0 0.2550713833
C  C187  1  0.68940000  0.72090000  0.35080000  1.0 0.2550713833
C  C188  1  0.31060000  0.22090000  0.14920000  1.0 0.2515246884
C  C189  1  0.35560000  0.22800000  0.74520000  1.0 0.1775420796
C  C190  1  0.64440000  0.72800000  0.75480000  1.0 0.1775420796
C  C191  1  0.64440000  0.77200000  0.25480000  1.0 0.1775420796
C  C192  1  0.35560000  0.27200000  0.24520000  1.0 0.1775420796
C  C193  1  0.48780000  0.23840000  0.71030000  1.0 -0.0192250486
C  C194  1  0.51220000  0.73840000  0.78970000  1.0 -0.0192250486
C  C195  1  0.51220000  0.76160000  0.28970000  1.0 -0.0192250486
C  C196  1  0.48780000  0.26160000  0.21030000  1.0 -0.0192250486
C  C197  1  0.46240000  0.26680000  0.65780000  1.0 0.002061311
C  C198  1  0.53760000  0.76680000  0.84220000  1.0 0.002061311
C  C199  1  0.53760000  0.73320000  0.34220000  1.0 0.002061311
C  C200  1  0.46240000  0.23320000  0.15780000  1.0 0.002061311
S  S1  1  0.72947000  0.30533000  0.51824000  1.0 0.0192267515
S  S2  1  0.27053000  0.80533000  0.98176000  1.0 0.0100634629
S  S3  1  0.27053000  0.69467000  0.48176000  1.0 0.0192267515
S  S4  1  0.72947000  0.19467000  0.01824000  1.0 0.0192267515
S  S5  1  0.90031000  0.20314000  0.80874000  1.0 0.0100634629
S  S6  1  0.09969000  0.70314000  0.69126000  1.0 0.0100634629
S  S7  1  0.09969000  0.79686000  0.19126000  1.0 0.002061311
S  S8  1  0.90031000  0.29686000  0.30874000  1.0 0.0100634629
N  N1  1  0.86760000  0.44472000  0.60390000  1.0 -0.2488074597
N  N2  1  0.13240000  0.94472000  0.89610000  1.0 -0.2488074597
N  N3  1  0.13240000  0.55528000  0.39610000  1.0 -0.2488074597
N  N4  1  0.86760000  0.05528000  0.10390000  1.0 -0.2488074597
N  N5  1  0.93020000  0.05883000  0.82500000  1.0 -0.2416608218
N  N6  1  0.06980000  0.55883000  0.67500000  1.0 -0.2416608218
N  N7  1  0.06980000  0.94117000  0.17500000  1.0 -0.2416608218
N  N8  1  0.93020000  0.44117000  0.32500000  1.0 -0.2416608218
O  O1  1  0.87330000  0.52703000  0.51867000  1.0 -0.5729348842
O  O2  1  0.12670000  0.02703000  0.98133000  1.0 -0.5729348842
O  O3  1  0.12670000  0.47297000  0.48133000  1.0 -0.5729348842
O  O4  1  0.87330000  0.97297000  0.01867000  1.0 -0.5729348842
O  O5  1  0.86210000  0.50875000  0.76118000  1.0 -0.5517277826
O  O6  1  0.13790000  0.00875000  0.73882000  1.0 -0.5517277826
O  O7  1  0.13790000  0.49125000  0.23882000  1.0 -0.5517277826
O  O8  1  0.86210000  0.99125000  0.26118000  1.0 -0.5517277826
O  O9  1  0.79160000  0.50975000  0.38117000  1.0 -0.5298687402
O  O10  1  0.20840000  0.00975000  0.11883000  1.0 -0.5298687402
O  O11  1  0.20840000  0.49025000  0.61883000  1.0 -0.5298687402
O  O12  1  0.79160000  0.99025000  0.88117000  1.0 -0.5298687402
O  O13  1  0.06830000  0.47963000  0.78280000  1.0 -0.5517277826
O  O14  1  0.93170000  0.97963000  0.71720000  1.0 -0.5517277826
O  O15  1  0.93170000  0.52037000  0.21720000  1.0 -0.5517277826
O  O16  1  0.06830000  0.02037000  0.28280000  1.0 -0.5517277826
F  F1  1  0.14190000  0.24986000  0.72900000  1.0 0.0100634629
F  F2  1  0.85810000  0.74986000  0.77100000  1.0 0.0100634629
F  F3  1  0.85810000  0.75014000  0.27100000  1.0 0.0100634629
F  F4  1  0.14190000  0.25014000  0.22900000  1.0 0.0100634629
F  F5  1  0.42440000  0.21970000  0.85730000  1.0 -0.0313286672
F  F6  1  0.57560000  0.71970000  0.64270000  1.0 -0.0192250486
F  F7  1  0.57560000  0.78030000  0.14270000  1.0 -0.0192250486
F  F8  1  0.42440000  0.28030000  0.35730000  1.0 -0.0192250486
F  F9  1  0.30200000  0.28032000  0.82740000  1.0 -0.1179934637
F  F10  1  0.69800000  0.78032000  0.67260000  1.0 -0.1179934637
F  F11  1  0.69800000  0.71968000  0.17260000  1.0 -0.1179934637
F  F12  1  0.30200000  0.21968000  0.32740000  1.0 -0.1179934637
F  F13  1  0.32890000  0.19554000  0.74520000  1.0 -0.1179934637
F  F14  1  0.67110000  0.69554000  0.75480000  1.0 -0.1179934637
F  F15  1  0.67110000  0.80446000  0.25480000  1.0 -0.1179934637
F  F16  1  0.32890000  0.30446000  0.24520000  1.0 -0.1179934637
F  F17  1  0.24470000  0.27099000  0.60210000  1.0 0.0292563883
F  F18  1  0.75530000  0.77099000  0.89790000  1.0 0.0292563883
F  F19  1  0.75530000  0.72901000  0.39790000  1.0 0.0292563883
F  F20  1  0.24470000  0.22901000  0.10210000  1.0 0.0292563883
F  F21  1  0.31980000  0.31522000  0.70080000  1.0 -0.06975429
F  F22  1  0.68020000  0.81522000  0.79920000  1.0 -0.06975429
F  F23  1  0.68020000  0.68478000  0.29920000  1.0 -0.06975429
F  F24  1  0.31980000  0.18478000  0.20080000  1.0 -0.06975429
F  F25  1  0.29640000  0.31317000  0.67620000  1.0 -0.06975429
F  F26  1  0.70360000  0.81317000  0.82380000  1.0 -0.06975429
F  F27  1  0.70360000  0.68683000  0.32380000  1.0 -0.06975429
F  F28  1  0.29640000  0.18683000  0.17620000  1.0 -0.06975429
F  F29  1  0.16490000  0.22860000  0.62730000  1.0 -0.0971217003
F  F30  1  0.83510000  0.72860000  0.87270000  1.0 -0.0971217003
F  F31  1  0.83510000  0.77140000  0.37270000  1.0 -0.0971217003
F  F32  1  0.16490000  0.27140000  0.12730000  1.0 -0.0971217003
F  F33  1  0.25100000  0.28640000  0.56660000  1.0 -0.0367422658
F  F34  1  0.74900000  0.78640000  0.93340000  1.0 -0.0313286672
F  F35  1  0.74900000  0.71360000  0.43340000  1.0 -0.0313286672
F  F36  1  0.25100000  0.21360000  0.06660000  1.0 -0.0367422658
F  F37  1  0.15190000  0.26080000  0.75240000  1.0 -0.0047542186
F  F38  1  0.84810000  0.76080000  0.74760000  1.0 -0.0064042107
F  F39  1  0.84810000  0.73920000  0.24760000  1.0 -0.0064042107
F  F40  1  0.15190000  0.23920000  0.25240000  1.0 -0.0064042107
F  F41  1  0.32240000  0.19570000  0.72190000  1.0 -0.1263221238
F  F42  1  0.67760000  0.69570000  0.77810000  1.0 -0.1263221238
F  F43  1  0.67760000  0.80430000  0.27810000  1.0 -0.1263221238
F  F44  1  0.32240000  0.30430000  0.22190000  1.0 -0.1263221238
F  F45  1  0.37070000  0.23810000  0.83220000  1.0 0.0292563883
F  F46  1  0.62930000  0.73810000  0.66780000  1.0 0.0192267515
F  F47  1  0.62930000  0.76190000  0.16780000  1.0 0.0192267515
F  F48  1  0.37070000  0.26190000  0.33220000  1.0 0.0292563883
