# DDEC6 charges by PACMAN v1.1 (https://github.com/mtap-research/PACMAN-charge/)
data_IDEWOG_ASR_pacman
_symmetry_space_group_name_H-M   'P 1'
_cell_length_a   18.52070000
_cell_length_b   18.52070000
_cell_length_c   24.17940000
_cell_angle_alpha   90.00000000
_cell_angle_beta   90.00000000
_cell_angle_gamma   120.00000000
_symmetry_Int_Tables_number   1
_chemical_formula_structural   Cu2H10C27(NO5)2
_chemical_formula_sum   'Cu12 H60 C162 N12 O60'
_cell_volume   7182.75322252
_cell_formula_units_Z   6
loop_
 _symmetry_equiv_pos_site_id
 _symmetry_equiv_pos_as_xyz
  1  'x, y, z'
loop_
 _atom_site_type_symbol
 _atom_site_label
 _atom_site_symmetry_multiplicity
 _atom_site_fract_x
 _atom_site_fract_y
 _atom_site_fract_z
 _atom_site_occupancy
 _atom_site_charge
Cu  Cu1  1  0.47283000  0.94566000  0.94997000  1.0 0.9308935858
Cu  Cu2  1  0.47283000  0.52717000  0.94997000  1.0 0.9308935858
Cu  Cu3  1  0.05434000  0.52717000  0.94997000  1.0 0.9308935858
Cu  Cu4  1  0.52717000  0.05434000  0.44997000  1.0 0.9308935858
Cu  Cu5  1  0.52717000  0.47283000  0.44997000  1.0 0.9308935858
Cu  Cu6  1  0.94566000  0.47283000  0.44997000  1.0 0.9308935858
Cu  Cu7  1  0.52717000  0.05434000  0.05003000  1.0 0.9308935858
Cu  Cu8  1  0.94566000  0.47283000  0.05003000  1.0 0.9308935858
Cu  Cu9  1  0.52717000  0.47283000  0.05003000  1.0 0.9308935858
Cu  Cu10  1  0.47283000  0.94566000  0.55003000  1.0 0.9308935858
Cu  Cu11  1  0.05434000  0.52717000  0.55003000  1.0 0.9308935858
Cu  Cu12  1  0.47283000  0.52717000  0.55003000  1.0 0.9308935858
H  H1  1  0.81950000  0.04320000  0.84040000  1.0 0.1148985979
H  H2  1  0.71310000  0.07400000  0.86210000  1.0 0.1311292234
H  H3  1  0.22370000  0.18050000  0.84040000  1.0 0.1192180423
H  H4  1  0.36090000  0.28690000  0.86210000  1.0 0.1311292234
H  H5  1  0.95680000  0.77630000  0.84040000  1.0 0.1148985979
H  H6  1  0.92600000  0.63910000  0.86210000  1.0 0.1311292234
H  H7  1  0.18050000  0.95680000  0.34040000  1.0 0.1148985979
H  H8  1  0.28690000  0.92600000  0.36210000  1.0 0.1311292234
H  H9  1  0.77630000  0.81950000  0.34040000  1.0 0.1148985979
H  H10  1  0.63910000  0.71310000  0.36210000  1.0 0.1311292234
H  H11  1  0.04320000  0.22370000  0.34040000  1.0 0.1148985979
H  H12  1  0.07400000  0.36090000  0.36210000  1.0 0.1311292234
H  H13  1  0.77630000  0.95680000  0.15960000  1.0 0.1148985979
H  H14  1  0.63910000  0.92600000  0.13790000  1.0 0.1311292234
H  H15  1  0.04320000  0.81950000  0.15960000  1.0 0.1148985979
H  H16  1  0.07400000  0.71310000  0.13790000  1.0 0.1311292234
H  H17  1  0.18050000  0.22370000  0.15960000  1.0 0.1148985979
H  H18  1  0.28690000  0.36090000  0.13790000  1.0 0.1311292234
H  H19  1  0.22370000  0.04320000  0.65960000  1.0 0.1192180423
H  H20  1  0.36090000  0.07400000  0.63790000  1.0 0.1311292234
H  H21  1  0.95680000  0.18050000  0.65960000  1.0 0.1148985979
H  H22  1  0.92600000  0.28690000  0.63790000  1.0 0.1311292234
H  H23  1  0.81950000  0.77630000  0.65960000  1.0 0.1148985979
H  H24  1  0.71310000  0.63910000  0.63790000  1.0 0.1311292234
H  H25  1  0.18050000  0.95680000  0.15960000  1.0 0.1148985979
H  H26  1  0.28690000  0.92600000  0.13790000  1.0 0.1311292234
H  H27  1  0.77630000  0.81950000  0.15960000  1.0 0.1148985979
H  H28  1  0.63910000  0.71310000  0.13790000  1.0 0.1311292234
H  H29  1  0.04320000  0.22370000  0.15960000  1.0 0.1148985979
H  H30  1  0.07400000  0.36090000  0.13790000  1.0 0.1311292234
H  H31  1  0.81950000  0.04320000  0.65960000  1.0 0.1148985979
H  H32  1  0.71310000  0.07400000  0.63790000  1.0 0.1311292234
H  H33  1  0.22370000  0.18050000  0.65960000  1.0 0.1192180423
H  H34  1  0.36090000  0.28690000  0.63790000  1.0 0.1311292234
H  H35  1  0.95680000  0.77630000  0.65960000  1.0 0.1148985979
H  H36  1  0.92600000  0.63910000  0.63790000  1.0 0.1311292234
H  H37  1  0.22370000  0.04320000  0.84040000  1.0 0.1192180423
H  H38  1  0.36090000  0.07400000  0.86210000  1.0 0.1311292234
H  H39  1  0.95680000  0.18050000  0.84040000  1.0 0.1148985979
H  H40  1  0.92600000  0.28690000  0.86210000  1.0 0.1311292234
H  H41  1  0.81950000  0.77630000  0.84040000  1.0 0.1148985979
H  H42  1  0.71310000  0.63910000  0.86210000  1.0 0.1311292234
H  H43  1  0.77630000  0.95680000  0.34040000  1.0 0.1148985979
H  H44  1  0.63910000  0.92600000  0.36210000  1.0 0.1311292234
H  H45  1  0.04320000  0.81950000  0.34040000  1.0 0.1148985979
H  H46  1  0.07400000  0.71310000  0.36210000  1.0 0.1311292234
H  H47  1  0.18050000  0.22370000  0.34040000  1.0 0.1148985979
H  H48  1  0.28690000  0.36090000  0.36210000  1.0 0.1311292234
H  H49  1  0.76655000  0.23345000  0.98840000  1.0 0.1395051772
H  H50  1  0.46690000  0.23345000  0.98840000  1.0 0.1395051772
H  H51  1  0.76655000  0.53310000  0.98840000  1.0 0.1395051772
H  H52  1  0.23345000  0.76655000  0.48840000  1.0 0.1395051772
H  H53  1  0.53310000  0.76655000  0.48840000  1.0 0.1395051772
H  H54  1  0.23345000  0.46690000  0.48840000  1.0 0.1395051772
H  H55  1  0.53310000  0.76655000  0.01160000  1.0 0.1395051772
H  H56  1  0.23345000  0.76655000  0.01160000  1.0 0.1395051772
H  H57  1  0.23345000  0.46690000  0.01160000  1.0 0.1395051772
H  H58  1  0.46690000  0.23345000  0.51160000  1.0 0.1395051772
H  H59  1  0.76655000  0.23345000  0.51160000  1.0 0.1395051772
H  H60  1  0.76655000  0.53310000  0.51160000  1.0 0.1395051772
C  C1  1  0.84270000  0.07940000  0.80700000  1.0 -0.1385432091
C  C2  1  0.74900000  0.12620000  0.87900000  1.0 -0.1455164151
C  C3  1  0.72460000  0.14580000  0.92760000  1.0 -0.0086223003
C  C4  1  0.64230000  0.08920000  0.95520000  1.0 0.5985888002
C  C5  1  0.23670000  0.15730000  0.80700000  1.0 -0.1385432091
C  C6  1  0.37720000  0.25100000  0.87900000  1.0 -0.1455164151
C  C7  1  0.42120000  0.27540000  0.92760000  1.0 -0.0086223003
C  C8  1  0.44690000  0.35770000  0.95520000  1.0 0.5985888002
C  C9  1  0.92060000  0.76330000  0.80700000  1.0 -0.1385432091
C  C10  1  0.87380000  0.62280000  0.87900000  1.0 -0.1385432091
C  C11  1  0.85420000  0.57880000  0.92760000  1.0 -0.0086223003
C  C12  1  0.91080000  0.55310000  0.95520000  1.0 0.5985888002
C  C13  1  0.15730000  0.92060000  0.30700000  1.0 -0.1385432091
C  C14  1  0.25100000  0.87380000  0.37900000  1.0 -0.1455164151
C  C15  1  0.27540000  0.85420000  0.42760000  1.0 -0.0086223003
C  C16  1  0.35770000  0.91080000  0.45520000  1.0 0.5985888002
C  C17  1  0.76330000  0.84270000  0.30700000  1.0 -0.1385432091
C  C18  1  0.62280000  0.74900000  0.37900000  1.0 -0.1455164151
C  C19  1  0.57880000  0.72460000  0.42760000  1.0 -0.0086223003
C  C20  1  0.55310000  0.64230000  0.45520000  1.0 0.5985888002
C  C21  1  0.07940000  0.23670000  0.30700000  1.0 -0.1385432091
C  C22  1  0.12620000  0.37720000  0.37900000  1.0 -0.1455164151
C  C23  1  0.14580000  0.42120000  0.42760000  1.0 -0.0086223003
C  C24  1  0.08920000  0.44690000  0.45520000  1.0 0.5985888002
C  C25  1  0.76330000  0.92060000  0.19300000  1.0 -0.1385432091
C  C26  1  0.62280000  0.87380000  0.12100000  1.0 -0.1455164151
C  C27  1  0.57880000  0.85420000  0.07240000  1.0 -0.0086223003
C  C28  1  0.55310000  0.91080000  0.04480000  1.0 0.5985888002
C  C29  1  0.07940000  0.84270000  0.19300000  1.0 -0.1385432091
C  C30  1  0.12620000  0.74900000  0.12100000  1.0 -0.1455164151
C  C31  1  0.14580000  0.72460000  0.07240000  1.0 -0.0086223003
C  C32  1  0.08920000  0.64230000  0.04480000  1.0 0.5985888002
C  C33  1  0.15730000  0.23670000  0.19300000  1.0 -0.1385432091
C  C34  1  0.25100000  0.37720000  0.12100000  1.0 -0.1455164151
C  C35  1  0.27540000  0.42120000  0.07240000  1.0 -0.0086223003
C  C36  1  0.35770000  0.44690000  0.04480000  1.0 0.5985888002
C  C37  1  0.23670000  0.07940000  0.69300000  1.0 -0.1385432091
C  C38  1  0.37720000  0.12620000  0.62100000  1.0 -0.1455164151
C  C39  1  0.42120000  0.14580000  0.57240000  1.0 -0.0086223003
C  C40  1  0.44690000  0.08920000  0.54480000  1.0 0.5985888002
C  C41  1  0.92060000  0.15730000  0.69300000  1.0 -0.1385432091
C  C42  1  0.87380000  0.25100000  0.62100000  1.0 -0.1455164151
C  C43  1  0.85420000  0.27540000  0.57240000  1.0 -0.0086223003
C  C44  1  0.91080000  0.35770000  0.54480000  1.0 0.5985888002
C  C45  1  0.84270000  0.76330000  0.69300000  1.0 -0.1385432091
C  C46  1  0.74900000  0.62280000  0.62100000  1.0 -0.1455164151
C  C47  1  0.72460000  0.57880000  0.57240000  1.0 -0.0086223003
C  C48  1  0.64230000  0.55310000  0.54480000  1.0 0.5985888002
C  C49  1  0.15730000  0.92060000  0.19300000  1.0 -0.1385432091
C  C50  1  0.25100000  0.87380000  0.12100000  1.0 -0.1455164151
C  C51  1  0.27540000  0.85420000  0.07240000  1.0 -0.0086223003
C  C52  1  0.35770000  0.91080000  0.04480000  1.0 0.5985888002
C  C53  1  0.76330000  0.84270000  0.19300000  1.0 -0.1385432091
C  C54  1  0.62280000  0.74900000  0.12100000  1.0 -0.1455164151
C  C55  1  0.57880000  0.72460000  0.07240000  1.0 -0.0086223003
C  C56  1  0.55310000  0.64230000  0.04480000  1.0 0.5985888002
C  C57  1  0.07940000  0.23670000  0.19300000  1.0 -0.1385432091
C  C58  1  0.12620000  0.37720000  0.12100000  1.0 -0.1455164151
C  C59  1  0.14580000  0.42120000  0.07240000  1.0 -0.0086223003
C  C60  1  0.08920000  0.44690000  0.04480000  1.0 0.5985888002
C  C61  1  0.84270000  0.07940000  0.69300000  1.0 -0.1385432091
C  C62  1  0.74900000  0.12620000  0.62100000  1.0 -0.1455164151
C  C63  1  0.72460000  0.14580000  0.57240000  1.0 -0.0086223003
C  C64  1  0.64230000  0.08920000  0.54480000  1.0 0.5985888002
C  C65  1  0.23670000  0.15730000  0.69300000  1.0 -0.1385432091
C  C66  1  0.37720000  0.25100000  0.62100000  1.0 -0.1455164151
C  C67  1  0.42120000  0.27540000  0.57240000  1.0 -0.0086223003
C  C68  1  0.44690000  0.35770000  0.54480000  1.0 0.5985888002
C  C69  1  0.92060000  0.76330000  0.69300000  1.0 -0.1385432091
C  C70  1  0.87380000  0.62280000  0.62100000  1.0 -0.1455164151
C  C71  1  0.85420000  0.57880000  0.57240000  1.0 -0.0086223003
C  C72  1  0.91080000  0.55310000  0.54480000  1.0 0.5985888002
C  C73  1  0.23670000  0.07940000  0.80700000  1.0 -0.1385432091
C  C74  1  0.37720000  0.12620000  0.87900000  1.0 -0.1455164151
C  C75  1  0.42120000  0.14580000  0.92760000  1.0 -0.0086223003
C  C76  1  0.44690000  0.08920000  0.95520000  1.0 0.5985888002
C  C77  1  0.92060000  0.15730000  0.80700000  1.0 -0.1385432091
C  C78  1  0.87380000  0.25100000  0.87900000  1.0 -0.1455164151
C  C79  1  0.85420000  0.27540000  0.92760000  1.0 -0.0086223003
C  C80  1  0.91080000  0.35770000  0.95520000  1.0 0.5985888002
C  C81  1  0.84270000  0.76330000  0.80700000  1.0 -0.1385432091
C  C82  1  0.74900000  0.62280000  0.87900000  1.0 -0.1455164151
C  C83  1  0.72460000  0.57880000  0.92760000  1.0 -0.0086223003
C  C84  1  0.64230000  0.55310000  0.95520000  1.0 0.5985888002
C  C85  1  0.76330000  0.92060000  0.30700000  1.0 -0.1385432091
C  C86  1  0.62280000  0.87380000  0.37900000  1.0 -0.1455164151
C  C87  1  0.57880000  0.85420000  0.42760000  1.0 -0.0086223003
C  C88  1  0.55310000  0.91080000  0.45520000  1.0 0.5985888002
C  C89  1  0.07940000  0.84270000  0.30700000  1.0 -0.1385432091
C  C90  1  0.12620000  0.74900000  0.37900000  1.0 -0.1455164151
C  C91  1  0.14580000  0.72460000  0.42760000  1.0 -0.0086223003
C  C92  1  0.08920000  0.64230000  0.45520000  1.0 0.5985888002
C  C93  1  0.15730000  0.23670000  0.30700000  1.0 -0.1385432091
C  C94  1  0.25100000  0.37720000  0.37900000  1.0 -0.1455164151
C  C95  1  0.27540000  0.42120000  0.42760000  1.0 -0.0086223003
C  C96  1  0.35770000  0.44690000  0.45520000  1.0 0.5985888002
C  C97  1  0.85210000  0.04640000  0.75000000  1.0 0.0276413788
C  C98  1  0.19430000  0.14790000  0.75000000  1.0 0.0276413788
C  C99  1  0.95360000  0.80570000  0.75000000  1.0 0.0276413788
C  C100  1  0.14790000  0.95360000  0.25000000  1.0 0.0276413788
C  C101  1  0.80570000  0.85210000  0.25000000  1.0 0.0276413788
C  C102  1  0.04640000  0.19430000  0.25000000  1.0 0.0276413788
C  C103  1  0.80570000  0.95360000  0.25000000  1.0 0.0276413788
C  C104  1  0.04640000  0.85210000  0.25000000  1.0 0.0276413788
C  C105  1  0.14790000  0.19430000  0.25000000  1.0 0.0276413788
C  C106  1  0.19430000  0.04640000  0.75000000  1.0 0.0276413788
C  C107  1  0.95360000  0.14790000  0.75000000  1.0 0.0276413788
C  C108  1  0.85210000  0.80570000  0.75000000  1.0 0.0276413788
C  C109  1  0.84350000  0.15650000  0.80010000  1.0 0.0089991839
C  C110  1  0.82180000  0.17820000  0.85460000  1.0 0.0517114898
C  C111  1  0.77975000  0.22025000  0.95330000  1.0 -0.1013303677
C  C112  1  0.31300000  0.15650000  0.80010000  1.0 0.0089991839
C  C113  1  0.35640000  0.17820000  0.85460000  1.0 0.0517114898
C  C114  1  0.44050000  0.22025000  0.95330000  1.0 -0.1013303677
C  C115  1  0.84350000  0.68700000  0.80010000  1.0 0.0089991839
C  C116  1  0.82180000  0.64360000  0.85460000  1.0 0.0517114898
C  C117  1  0.77975000  0.55950000  0.95330000  1.0 -0.1013303677
C  C118  1  0.15650000  0.84350000  0.30010000  1.0 0.0089991839
C  C119  1  0.17820000  0.82180000  0.35460000  1.0 0.0517114898
C  C120  1  0.22025000  0.77975000  0.45330000  1.0 -0.1013303677
C  C121  1  0.68700000  0.84350000  0.30010000  1.0 0.0089991839
C  C122  1  0.64360000  0.82180000  0.35460000  1.0 0.0517114898
C  C123  1  0.55950000  0.77975000  0.45330000  1.0 -0.1013303677
C  C124  1  0.15650000  0.31300000  0.30010000  1.0 0.0089991839
C  C125  1  0.17820000  0.35640000  0.35460000  1.0 0.0517114898
C  C126  1  0.22025000  0.44050000  0.45330000  1.0 -0.1013303677
C  C127  1  0.68700000  0.84350000  0.19990000  1.0 0.0089991839
C  C128  1  0.64360000  0.82180000  0.14540000  1.0 0.0563447048
C  C129  1  0.55950000  0.77975000  0.04670000  1.0 -0.1013303677
C  C130  1  0.15650000  0.84350000  0.19990000  1.0 0.0089991839
C  C131  1  0.17820000  0.82180000  0.14540000  1.0 0.0563447048
C  C132  1  0.22025000  0.77975000  0.04670000  1.0 -0.1013303677
C  C133  1  0.15650000  0.31300000  0.19990000  1.0 0.0089991839
C  C134  1  0.17820000  0.35640000  0.14540000  1.0 0.0517114898
C  C135  1  0.22025000  0.44050000  0.04670000  1.0 -0.1013303677
C  C136  1  0.31300000  0.15650000  0.69990000  1.0 0.0089991839
C  C137  1  0.35640000  0.17820000  0.64540000  1.0 0.0517114898
C  C138  1  0.44050000  0.22025000  0.54670000  1.0 -0.1013303677
C  C139  1  0.84350000  0.15650000  0.69990000  1.0 0.0089991839
C  C140  1  0.82180000  0.17820000  0.64540000  1.0 0.0517114898
C  C141  1  0.77975000  0.22025000  0.54670000  1.0 -0.1013303677
C  C142  1  0.84350000  0.68700000  0.69990000  1.0 0.0089991839
C  C143  1  0.82180000  0.64360000  0.64540000  1.0 0.0517114898
C  C144  1  0.77975000  0.55950000  0.54670000  1.0 -0.1013303677
C  C145  1  0.82385000  0.17615000  0.75000000  1.0 0.1192180423
C  C146  1  0.35230000  0.17615000  0.75000000  1.0 0.1192180423
C  C147  1  0.82385000  0.64770000  0.75000000  1.0 0.1192180423
C  C148  1  0.17615000  0.82385000  0.25000000  1.0 0.1192180423
C  C149  1  0.64770000  0.82385000  0.25000000  1.0 0.1192180423
C  C150  1  0.17615000  0.35230000  0.25000000  1.0 0.1192180423
C  C151  1  0.85700000  0.92850000  0.68780000  1.0 0.0517114898
C  C152  1  0.07150000  0.14300000  0.68780000  1.0 0.0517114898
C  C153  1  0.07150000  0.92850000  0.68780000  1.0 0.0517114898
C  C154  1  0.14300000  0.07150000  0.18780000  1.0 0.0517114898
C  C155  1  0.92850000  0.85700000  0.18780000  1.0 0.0517114898
C  C156  1  0.92850000  0.07150000  0.18780000  1.0 0.0517114898
C  C157  1  0.92850000  0.07150000  0.31220000  1.0 0.0517114898
C  C158  1  0.92850000  0.85700000  0.31220000  1.0 0.0517114898
C  C159  1  0.14300000  0.07150000  0.31220000  1.0 0.0517114898
C  C160  1  0.07150000  0.92850000  0.81220000  1.0 0.0517114898
C  C161  1  0.07150000  0.14300000  0.81220000  1.0 0.0517114898
C  C162  1  0.85700000  0.92850000  0.81220000  1.0 0.0517114898
N  N1  1  0.74910000  0.18950000  0.75000000  1.0 -0.0708293498
N  N2  1  0.44040000  0.25090000  0.75000000  1.0 -0.0708293498
N  N3  1  0.81050000  0.55960000  0.75000000  1.0 -0.0708293498
N  N4  1  0.25090000  0.81050000  0.25000000  1.0 -0.0708293498
N  N5  1  0.55960000  0.74910000  0.25000000  1.0 -0.0708293498
N  N6  1  0.18950000  0.44040000  0.25000000  1.0 -0.0708293498
N  N7  1  0.55960000  0.81050000  0.25000000  1.0 -0.0708293498
N  N8  1  0.18950000  0.74910000  0.25000000  1.0 -0.0708293498
N  N9  1  0.25090000  0.44040000  0.25000000  1.0 -0.0708293498
N  N10  1  0.44040000  0.18950000  0.75000000  1.0 -0.0708293498
N  N11  1  0.81050000  0.25090000  0.75000000  1.0 -0.0708293498
N  N12  1  0.74910000  0.55960000  0.75000000  1.0 -0.0708293498
O  O1  1  0.58970000  0.02900000  0.92580000  1.0 -0.5537605875
O  O2  1  0.62990000  0.11040000  0.00180000  1.0 -0.5399246656
O  O3  1  0.43930000  0.41030000  0.92580000  1.0 -0.5537605875
O  O4  1  0.48050000  0.37010000  0.00180000  1.0 -0.5399246656
O  O5  1  0.97100000  0.56070000  0.92580000  1.0 -0.5537605875
O  O6  1  0.88960000  0.51950000  0.00180000  1.0 -0.5399246656
O  O7  1  0.41030000  0.97100000  0.42580000  1.0 -0.5537605875
O  O8  1  0.37010000  0.88960000  0.50180000  1.0 -0.5399246656
O  O9  1  0.56070000  0.58970000  0.42580000  1.0 -0.5537605875
O  O10  1  0.51950000  0.62990000  0.50180000  1.0 -0.5399246656
O  O11  1  0.02900000  0.43930000  0.42580000  1.0 -0.5537605875
O  O12  1  0.11040000  0.48050000  0.50180000  1.0 -0.5399246656
O  O13  1  0.56070000  0.97100000  0.07420000  1.0 -0.5537605875
O  O14  1  0.51950000  0.88960000  0.99820000  1.0 -0.5399246656
O  O15  1  0.02900000  0.58970000  0.07420000  1.0 -0.5537605875
O  O16  1  0.11040000  0.62990000  0.99820000  1.0 -0.5399246656
O  O17  1  0.41030000  0.43930000  0.07420000  1.0 -0.5537605875
O  O18  1  0.37010000  0.48050000  0.99820000  1.0 -0.5399246656
O  O19  1  0.43930000  0.02900000  0.57420000  1.0 -0.5537605875
O  O20  1  0.48050000  0.11040000  0.49820000  1.0 -0.5399246656
O  O21  1  0.97100000  0.41030000  0.57420000  1.0 -0.5537605875
O  O22  1  0.88960000  0.37010000  0.49820000  1.0 -0.5399246656
O  O23  1  0.58970000  0.56070000  0.57420000  1.0 -0.5537605875
O  O24  1  0.62990000  0.51950000  0.49820000  1.0 -0.5399246656
O  O25  1  0.41030000  0.97100000  0.07420000  1.0 -0.5537605875
O  O26  1  0.37010000  0.88960000  0.99820000  1.0 -0.5399246656
O  O27  1  0.56070000  0.58970000  0.07420000  1.0 -0.5537605875
O  O28  1  0.51950000  0.62990000  0.99820000  1.0 -0.5399246656
O  O29  1  0.02900000  0.43930000  0.07420000  1.0 -0.5537605875
O  O30  1  0.11040000  0.48050000  0.99820000  1.0 -0.5399246656
O  O31  1  0.58970000  0.02900000  0.57420000  1.0 -0.5537605875
O  O32  1  0.62990000  0.11040000  0.49820000  1.0 -0.5399246656
O  O33  1  0.43930000  0.41030000  0.57420000  1.0 -0.5537605875
O  O34  1  0.48050000  0.37010000  0.49820000  1.0 -0.5399246656
O  O35  1  0.97100000  0.56070000  0.57420000  1.0 -0.5537605875
O  O36  1  0.88960000  0.51950000  0.49820000  1.0 -0.5399246656
O  O37  1  0.43930000  0.02900000  0.92580000  1.0 -0.5537605875
O  O38  1  0.48050000  0.11040000  0.00180000  1.0 -0.5399246656
O  O39  1  0.97100000  0.41030000  0.92580000  1.0 -0.5537605875
O  O40  1  0.88960000  0.37010000  0.00180000  1.0 -0.5399246656
O  O41  1  0.58970000  0.56070000  0.92580000  1.0 -0.5537605875
O  O42  1  0.62990000  0.51950000  0.00180000  1.0 -0.5399246656
O  O43  1  0.56070000  0.97100000  0.42580000  1.0 -0.5537605875
O  O44  1  0.51950000  0.88960000  0.50180000  1.0 -0.5399246656
O  O45  1  0.02900000  0.58970000  0.42580000  1.0 -0.5537605875
O  O46  1  0.11040000  0.62990000  0.50180000  1.0 -0.5399246656
O  O47  1  0.41030000  0.43930000  0.42580000  1.0 -0.5537605875
O  O48  1  0.37010000  0.48050000  0.50180000  1.0 -0.5399246656
O  O49  1  0.85720000  0.96840000  0.75000000  1.0 -0.0172036146
O  O50  1  0.11120000  0.14280000  0.75000000  1.0 -0.0172036146
O  O51  1  0.03160000  0.88880000  0.75000000  1.0 -0.0172036146
O  O52  1  0.14280000  0.03160000  0.25000000  1.0 -0.0172036146
O  O53  1  0.88880000  0.85720000  0.25000000  1.0 -0.0172036146
O  O54  1  0.96840000  0.11120000  0.25000000  1.0 -0.0172036146
O  O55  1  0.88880000  0.03160000  0.25000000  1.0 -0.0172036146
O  O56  1  0.96840000  0.85720000  0.25000000  1.0 -0.0172036146
O  O57  1  0.14280000  0.11120000  0.25000000  1.0 -0.0172036146
O  O58  1  0.11120000  0.96840000  0.75000000  1.0 -0.0172036146
O  O59  1  0.03160000  0.14280000  0.75000000  1.0 -0.0172036146
O  O60  1  0.85720000  0.88880000  0.75000000  1.0 -0.0172036146
