# DDEC6 charges by PACMAN v1.1 (https://github.com/mtap-research/PACMAN-charge/)
data_IDUTUW_ASR_pacman
_symmetry_space_group_name_H-M   'P 1'
_cell_length_a   12.87700000
_cell_length_b   12.87700000
_cell_length_c   7.81990000
_cell_angle_alpha   90.00000000
_cell_angle_beta   90.00000000
_cell_angle_gamma   133.08000000
_symmetry_Int_Tables_number   1
_chemical_formula_structural   CsCdCBr2O3
_chemical_formula_sum   'Cs4 Cd4 C4 Br8 O12'
_cell_volume   947.09118642
_cell_formula_units_Z   4
loop_
 _symmetry_equiv_pos_site_id
 _symmetry_equiv_pos_as_xyz
  1  'x, y, z'
loop_
 _atom_site_type_symbol
 _atom_site_label
 _atom_site_symmetry_multiplicity
 _atom_site_fract_x
 _atom_site_fract_y
 _atom_site_fract_z
 _atom_site_occupancy
 _atom_site_charge
Cs  Cs1  1  0.00540000  0.62858000  0.25000000  1.0 0.7926972657
Cs  Cs2  1  0.37142000  0.99460000  0.75000000  1.0 0.7926972657
Cs  Cs3  1  0.62858000  0.00540000  0.25000000  1.0 0.7926972657
Cs  Cs4  1  0.99460000  0.37142000  0.75000000  1.0 0.7951182872
Cd  Cd1  1  0.27620000  0.52476000  0.25000000  1.0 0.9598748833
Cd  Cd2  1  0.47524000  0.72380000  0.75000000  1.0 0.9598748833
Cd  Cd3  1  0.52476000  0.27620000  0.25000000  1.0 0.9598748833
Cd  Cd4  1  0.72380000  0.47524000  0.75000000  1.0 0.9598748833
C  C1  1  0.35380000  0.35380000  0.15000000  1.0 0.509691909
C  C2  1  0.35380000  0.35380000  0.35000000  1.0 0.509691909
C  C3  1  0.64620000  0.64620000  0.65000000  1.0 0.5048647672
C  C4  1  0.64620000  0.64620000  0.85000000  1.0 0.5048647672
Br  Br1  1  0.30736000  0.69264000  0.00000000  1.0 -0.5787897557
Br  Br2  1  0.30736000  0.69264000  0.50000000  1.0 -0.5787897557
Br  Br3  1  0.69264000  0.30736000  0.00000000  1.0 -0.5787897557
Br  Br4  1  0.69264000  0.30736000  0.50000000  1.0 -0.5787897557
Br  Br5  1  0.99709000  0.33541000  0.25000000  1.0 -0.6711271057
Br  Br6  1  0.66459000  0.00291000  0.75000000  1.0 -0.6711271057
Br  Br7  1  0.33541000  0.99709000  0.25000000  1.0 -0.6636189669
Br  Br8  1  0.00291000  0.66459000  0.75000000  1.0 -0.6711271057
O  O1  1  0.53090000  0.69670000  0.25000000  1.0 -0.1481839046
O  O2  1  0.30330000  0.46910000  0.75000000  1.0 -0.1481839046
O  O3  1  0.69670000  0.53090000  0.25000000  1.0 -0.1417111829
O  O4  1  0.46910000  0.30330000  0.75000000  1.0 -0.1417111829
O  O5  1  0.30650000  0.40050000  0.07720000  1.0 -0.4331132124
O  O6  1  0.30650000  0.40050000  0.42280000  1.0 -0.4331132124
O  O7  1  0.59950000  0.69350000  0.57720000  1.0 -0.4355971068
O  O8  1  0.40050000  0.30650000  0.07720000  1.0 -0.4331132124
O  O9  1  0.69350000  0.59950000  0.92280000  1.0 -0.4331132124
O  O10  1  0.69350000  0.59950000  0.57720000  1.0 -0.4331132124
O  O11  1  0.40050000  0.30650000  0.42280000  1.0 -0.4331132124
O  O12  1  0.59950000  0.69350000  0.92280000  1.0 -0.4355971068
