# DDEC6 charges by PACMAN v1.1 (https://github.com/mtap-research/PACMAN-charge/)
data_IFEHUY_ASR_pacman
_symmetry_space_group_name_H-M   'P 1'
_cell_length_a   16.35410000
_cell_length_b   16.35410000
_cell_length_c   16.35410000
_cell_angle_alpha   110.52400000
_cell_angle_beta   110.52400000
_cell_angle_gamma   110.52400000
_symmetry_Int_Tables_number   1
_chemical_formula_structural   MnHC4SO2
_chemical_formula_sum   'Mn12 H12 C48 S12 O24'
_cell_volume   3229.21770746
_cell_formula_units_Z   12
loop_
 _symmetry_equiv_pos_site_id
 _symmetry_equiv_pos_as_xyz
  1  'x, y, z'
loop_
 _atom_site_type_symbol
 _atom_site_label
 _atom_site_symmetry_multiplicity
 _atom_site_fract_x
 _atom_site_fract_y
 _atom_site_fract_z
 _atom_site_occupancy
 _atom_site_charge
Mn  Mn1  1  0.40779000  0.75000000  0.09221000  1.0 0.8440955061
Mn  Mn2  1  0.75000000  0.09221000  0.40779000  1.0 0.8440955061
Mn  Mn3  1  0.09221000  0.40779000  0.75000000  1.0 0.8440955061
Mn  Mn4  1  0.59221000  0.25000000  0.90779000  1.0 0.8440955061
Mn  Mn5  1  0.25000000  0.90779000  0.59221000  1.0 0.8440955061
Mn  Mn6  1  0.90779000  0.59221000  0.25000000  1.0 0.8440955061
Mn  Mn7  1  0.25000000  0.65716000  0.84284000  1.0 0.7440486032
Mn  Mn8  1  0.65716000  0.84284000  0.25000000  1.0 0.7440486032
Mn  Mn9  1  0.84284000  0.25000000  0.65716000  1.0 0.7440486032
Mn  Mn10  1  0.75000000  0.34284000  0.15716000  1.0 0.7440486032
Mn  Mn11  1  0.34284000  0.15716000  0.75000000  1.0 0.7440486032
Mn  Mn12  1  0.15716000  0.75000000  0.34284000  1.0 0.7440486032
H  H1  1  0.38280000  0.40900000  0.82210000  1.0 0.1307989536
H  H2  1  0.40900000  0.82210000  0.38280000  1.0 0.1307989536
H  H3  1  0.82210000  0.38280000  0.40900000  1.0 0.1307989536
H  H4  1  0.11720000  0.67790000  0.09100000  1.0 0.1307989536
H  H5  1  0.09100000  0.11720000  0.67790000  1.0 0.1307989536
H  H6  1  0.67790000  0.09100000  0.11720000  1.0 0.1307989536
H  H7  1  0.61720000  0.59100000  0.17790000  1.0 0.1307989536
H  H8  1  0.59100000  0.17790000  0.61720000  1.0 0.1307989536
H  H9  1  0.17790000  0.61720000  0.59100000  1.0 0.1307989536
H  H10  1  0.88280000  0.32210000  0.90900000  1.0 0.1307989536
H  H11  1  0.90900000  0.88280000  0.32210000  1.0 0.1307989536
H  H12  1  0.32210000  0.90900000  0.88280000  1.0 0.1307989536
C  C1  1  0.42333000  0.51987000  0.96131000  1.0 -0.059450007
C  C2  1  0.51987000  0.96131000  0.42333000  1.0 -0.059450007
C  C3  1  0.96131000  0.42333000  0.51987000  1.0 -0.059450007
C  C4  1  0.07667000  0.53869000  0.98013000  1.0 -0.059450007
C  C5  1  0.98013000  0.07667000  0.53869000  1.0 -0.059450007
C  C6  1  0.53869000  0.98013000  0.07667000  1.0 -0.059450007
C  C7  1  0.57667000  0.48013000  0.03869000  1.0 -0.059450007
C  C8  1  0.48013000  0.03869000  0.57667000  1.0 -0.059450007
C  C9  1  0.03869000  0.57667000  0.48013000  1.0 -0.059450007
C  C10  1  0.92333000  0.46131000  0.01987000  1.0 -0.059450007
C  C11  1  0.01987000  0.92333000  0.46131000  1.0 -0.059450007
C  C12  1  0.46131000  0.01987000  0.92333000  1.0 -0.059450007
C  C13  1  0.33796000  0.53471000  0.91055000  1.0 0.5967871724
C  C14  1  0.53471000  0.91055000  0.33796000  1.0 0.5967871724
C  C15  1  0.91055000  0.33796000  0.53471000  1.0 0.5967871724
C  C16  1  0.16204000  0.58945000  0.96529000  1.0 0.5967871724
C  C17  1  0.96529000  0.16204000  0.58945000  1.0 0.5967871724
C  C18  1  0.58945000  0.96529000  0.16204000  1.0 0.5967871724
C  C19  1  0.66204000  0.46529000  0.08945000  1.0 0.5967871724
C  C20  1  0.46529000  0.08945000  0.66204000  1.0 0.5967871724
C  C21  1  0.08945000  0.66204000  0.46529000  1.0 0.5967871724
C  C22  1  0.83796000  0.41055000  0.03471000  1.0 0.5967871724
C  C23  1  0.03471000  0.83796000  0.41055000  1.0 0.5967871724
C  C24  1  0.41055000  0.03471000  0.83796000  1.0 0.5967871724
C  C25  1  0.43105000  0.44613000  0.89467000  1.0 -0.1426134379
C  C26  1  0.44613000  0.89467000  0.43105000  1.0 -0.1426134379
C  C27  1  0.89467000  0.43105000  0.44613000  1.0 -0.1426134379
C  C28  1  0.06895000  0.60533000  0.05387000  1.0 -0.1426134379
C  C29  1  0.05387000  0.06895000  0.60533000  1.0 -0.1426134379
C  C30  1  0.60533000  0.05387000  0.06895000  1.0 -0.1426134379
C  C31  1  0.56895000  0.55387000  0.10533000  1.0 -0.1426134379
C  C32  1  0.55387000  0.10533000  0.56895000  1.0 -0.1426134379
C  C33  1  0.10533000  0.56895000  0.55387000  1.0 -0.1426134379
C  C34  1  0.93105000  0.39467000  0.94613000  1.0 -0.1426134379
C  C35  1  0.94613000  0.93105000  0.39467000  1.0 -0.1426134379
C  C36  1  0.39467000  0.94613000  0.93105000  1.0 -0.1426134379
C  C37  1  0.49274000  0.57522000  0.06932000  1.0 0.0879755235
C  C38  1  0.57522000  0.06932000  0.49274000  1.0 0.0879755235
C  C39  1  0.06932000  0.49274000  0.57522000  1.0 0.0879755235
C  C40  1  0.00726000  0.43068000  0.92478000  1.0 0.0879755235
C  C41  1  0.92478000  0.00726000  0.43068000  1.0 0.0879755235
C  C42  1  0.43068000  0.92478000  0.00726000  1.0 0.0879755235
C  C43  1  0.50726000  0.42478000  0.93068000  1.0 0.0879755235
C  C44  1  0.42478000  0.93068000  0.50726000  1.0 0.0879755235
C  C45  1  0.93068000  0.50726000  0.42478000  1.0 0.0879755235
C  C46  1  0.99274000  0.56932000  0.07522000  1.0 0.0879755235
C  C47  1  0.07522000  0.99274000  0.56932000  1.0 0.0879755235
C  C48  1  0.56932000  0.07522000  0.99274000  1.0 0.0879755235
S  S1  1  0.48572000  0.66456000  0.16172000  1.0 -0.3509704456
S  S2  1  0.66456000  0.16172000  0.48572000  1.0 -0.3509704456
S  S3  1  0.16172000  0.48572000  0.66456000  1.0 -0.3509704456
S  S4  1  0.01428000  0.33828000  0.83544000  1.0 -0.3509704456
S  S5  1  0.83544000  0.01428000  0.33828000  1.0 -0.3509704456
S  S6  1  0.33828000  0.83544000  0.01428000  1.0 -0.3509704456
S  S7  1  0.51428000  0.33544000  0.83828000  1.0 -0.3509704456
S  S8  1  0.33544000  0.83828000  0.51428000  1.0 -0.3509704456
S  S9  1  0.83828000  0.51428000  0.33544000  1.0 -0.3409790219
S  S10  1  0.98572000  0.66172000  0.16456000  1.0 -0.3509704456
S  S11  1  0.16456000  0.98572000  0.66172000  1.0 -0.3509704456
S  S12  1  0.66172000  0.16456000  0.98572000  1.0 -0.3509704456
O  O1  1  0.36084000  0.62677000  0.93424000  1.0 -0.5575217377
O  O2  1  0.62677000  0.93424000  0.36084000  1.0 -0.5575217377
O  O3  1  0.93424000  0.36084000  0.62677000  1.0 -0.5575217377
O  O4  1  0.13916000  0.56576000  0.87323000  1.0 -0.5575217377
O  O5  1  0.87323000  0.13916000  0.56576000  1.0 -0.5575217377
O  O6  1  0.56576000  0.87323000  0.13916000  1.0 -0.5575217377
O  O7  1  0.63916000  0.37323000  0.06576000  1.0 -0.5575217377
O  O8  1  0.37323000  0.06576000  0.63916000  1.0 -0.5575217377
O  O9  1  0.06576000  0.63916000  0.37323000  1.0 -0.5575217377
O  O10  1  0.86084000  0.43424000  0.12677000  1.0 -0.5575217377
O  O11  1  0.12677000  0.86084000  0.43424000  1.0 -0.5575217377
O  O12  1  0.43424000  0.12677000  0.86084000  1.0 -0.5575217377
O  O13  1  0.24992000  0.45470000  0.84457000  1.0 -0.4999106945
O  O14  1  0.45470000  0.84457000  0.24992000  1.0 -0.4999106945
O  O15  1  0.84457000  0.24992000  0.45470000  1.0 -0.4999106945
O  O16  1  0.25008000  0.65543000  0.04530000  1.0 -0.4999106945
O  O17  1  0.04530000  0.25008000  0.65543000  1.0 -0.4999106945
O  O18  1  0.65543000  0.04530000  0.25008000  1.0 -0.4999106945
O  O19  1  0.75008000  0.54530000  0.15543000  1.0 -0.4999106945
O  O20  1  0.54530000  0.15543000  0.75008000  1.0 -0.4999106945
O  O21  1  0.15543000  0.75008000  0.54530000  1.0 -0.4999106945
O  O22  1  0.74992000  0.34457000  0.95470000  1.0 -0.4999106945
O  O23  1  0.95470000  0.74992000  0.34457000  1.0 -0.4999106945
O  O24  1  0.34457000  0.95470000  0.74992000  1.0 -0.4999106945
