# DDEC6 charges by PACMAN v1.1 (https://github.com/mtap-research/PACMAN-charge/)
data_IFEPUG_FSR_pacman
_symmetry_space_group_name_H-M   'P 1'
_cell_length_a   19.09940000
_cell_length_b   19.09940000
_cell_length_c   19.09940000
_cell_angle_alpha   91.00790000
_cell_angle_beta   91.00790000
_cell_angle_gamma   164.75700000
_symmetry_Int_Tables_number   1
_chemical_formula_structural   ZnH15C22(NO2)2
_chemical_formula_sum   'Zn4 H60 C88 N8 O16'
_cell_volume   1815.59144542
_cell_formula_units_Z   4
loop_
 _symmetry_equiv_pos_site_id
 _symmetry_equiv_pos_as_xyz
  1  'x, y, z'
loop_
 _atom_site_type_symbol
 _atom_site_label
 _atom_site_symmetry_multiplicity
 _atom_site_fract_x
 _atom_site_fract_y
 _atom_site_fract_z
 _atom_site_occupancy
 _atom_site_charge
Zn  Zn1  1  0.49521000  0.93751000  0.01614000  1.0 0.8504522825
Zn  Zn2  1  0.52093000  0.50479000  0.44230000  1.0 0.8504522825
Zn  Zn3  1  0.92137000  0.47907000  0.98386000  1.0 0.8504522825
Zn  Zn4  1  0.06249000  0.07863000  0.55770000  1.0 0.8504522825
H  H1  1  0.83530000  0.14960000  0.10110000  1.0 0.1011888499
H  H2  1  0.26580000  0.16470000  0.31430000  1.0 0.1011888499
H  H3  1  0.04850000  0.73420000  0.89890000  1.0 0.1011888499
H  H4  1  0.85040000  0.95150000  0.68570000  1.0 0.1011888499
H  H5  1  0.11040000  0.60310000  0.13250000  1.0 0.1479746038
H  H6  1  0.02210000  0.88960000  0.49270000  1.0 0.1479746038
H  H7  1  0.47060000  0.97790000  0.86750000  1.0 0.1479746038
H  H8  1  0.39690000  0.52940000  0.50730000  1.0 0.1479746038
H  H9  1  0.77130000  0.32190000  0.20580000  1.0 0.1211186234
H  H10  1  0.43450000  0.22870000  0.55060000  1.0 0.1211186234
H  H11  1  0.11610000  0.56550000  0.79420000  1.0 0.1211186234
H  H12  1  0.67810000  0.88390000  0.44940000  1.0 0.1211186234
H  H13  1  0.58800000  0.14810000  0.31170000  1.0 0.1011888499
H  H14  1  0.72370000  0.41200000  0.56010000  1.0 0.1011888499
H  H15  1  0.83640000  0.27630000  0.68830000  1.0 0.1011888499
H  H16  1  0.85190000  0.16360000  0.43990000  1.0 0.1011888499
H  H17  1  0.78500000  0.27170000  0.40810000  1.0 0.109435845
H  H18  1  0.62310000  0.21500000  0.48670000  1.0 0.109435845
H  H19  1  0.86360000  0.37690000  0.59190000  1.0 0.109435845
H  H20  1  0.72830000  0.13640000  0.51330000  1.0 0.109435845
H  H21  1  0.14510000  0.54790000  0.39800000  1.0 0.1211186234
H  H22  1  0.25290000  0.85490000  0.40280000  1.0 0.1211186234
H  H23  1  0.14990000  0.74710000  0.60200000  1.0 0.1211186234
H  H24  1  0.45210000  0.85010000  0.59720000  1.0 0.1211186234
H  H25  1  0.47240000  0.81030000  0.32450000  1.0 0.1302702659
H  H26  1  0.85210000  0.52760000  0.33790000  1.0 0.1302702659
H  H27  1  0.48580000  0.14790000  0.67550000  1.0 0.1302702659
H  H28  1  0.18970000  0.51420000  0.66210000  1.0 0.1302702659
H  H29  1  0.17650000  0.43670000  0.18480000  1.0 0.1011888499
H  H30  1  0.00830000  0.82350000  0.26020000  1.0 0.1011888499
H  H31  1  0.25190000  0.99170000  0.81520000  1.0 0.1011888499
H  H32  1  0.56330000  0.74810000  0.73980000  1.0 0.1011888499
H  H33  1  0.43480000  0.59520000  0.24140000  1.0 0.0736188171
H  H34  1  0.80660000  0.56520000  0.16040000  1.0 0.0736188171
H  H35  1  0.35380000  0.19340000  0.75860000  1.0 0.0736188171
H  H36  1  0.40480000  0.64620000  0.83960000  1.0 0.0736188171
H  H37  1  0.81520000  0.94510000  0.34510000  1.0 0.1211186234
H  H38  1  0.52990000  0.18480000  0.12990000  1.0 0.1211186234
H  H39  1  0.60000000  0.47010000  0.65490000  1.0 0.1211186234
H  H40  1  0.05490000  0.40000000  0.87010000  1.0 0.1211186234
H  H41  1  0.55340000  0.78050000  0.28630000  1.0 0.0799024015
H  H42  1  0.73290000  0.44660000  0.22710000  1.0 0.0799024015
H  H43  1  0.49420000  0.26710000  0.71370000  1.0 0.0799024015
H  H44  1  0.21950000  0.50580000  0.77290000  1.0 0.0799024015
H  H45  1  0.85550000  0.05630000  0.13820000  1.0 0.109435845
H  H46  1  0.28270000  0.14450000  0.20080000  1.0 0.109435845
H  H47  1  0.91810000  0.71730000  0.86180000  1.0 0.109435845
H  H48  1  0.94370000  0.08190000  0.79920000  1.0 0.109435845
H  H49  1  0.07960000  0.17540000  0.19000000  1.0 0.0915999198
H  H50  1  0.11040000  0.92040000  0.09580000  1.0 0.0915999198
H  H51  1  0.98540000  0.88960000  0.81000000  1.0 0.0915999198
H  H52  1  0.82460000  0.01460000  0.90420000  1.0 0.0915999198
H  H53  1  0.09100000  0.27810000  0.38230000  1.0 0.109435845
H  H54  1  0.29130000  0.90900000  0.18710000  1.0 0.109435845
H  H55  1  0.89580000  0.70870000  0.61770000  1.0 0.109435845
H  H56  1  0.72190000  0.10420000  0.81290000  1.0 0.109435845
H  H57  1  0.91020000  0.20550000  0.32870000  1.0 0.0915999198
H  H58  1  0.41850000  0.08980000  0.29530000  1.0 0.0915999198
H  H59  1  0.87680000  0.58150000  0.67130000  1.0 0.0915999198
H  H60  1  0.79450000  0.12320000  0.70470000  1.0 0.0915999198
C  C1  1  0.71202000  0.04947000  0.13009000  1.0 0.109435845
C  C2  1  0.41807000  0.28798000  0.33745000  1.0 0.109435845
C  C3  1  0.91938000  0.58193000  0.86991000  1.0 0.109435845
C  C4  1  0.95053000  0.08062000  0.66255000  1.0 0.109435845
C  C5  1  0.39268000  0.80284000  0.16632000  1.0 0.1479746038
C  C6  1  0.77364000  0.60732000  0.41016000  1.0 0.1479746038
C  C7  1  0.63652000  0.22636000  0.83368000  1.0 0.1479746038
C  C8  1  0.19716000  0.36348000  0.58984000  1.0 0.1479746038
C  C9  1  0.18067000  0.64290000  0.17117000  1.0 -0.2152947253
C  C10  1  0.99050000  0.81933000  0.46223000  1.0 -0.2152947253
C  C11  1  0.47173000  0.00950000  0.82883000  1.0 -0.2152947253
C  C12  1  0.35710000  0.52827000  0.53777000  1.0 -0.2152947253
C  C13  1  0.07093000  0.53978000  0.23551000  1.0 0.0799024015
C  C14  1  0.16458000  0.92907000  0.46885000  1.0 0.0799024015
C  C15  1  0.30427000  0.83542000  0.76449000  1.0 0.0799024015
C  C16  1  0.46022000  0.69573000  0.53115000  1.0 0.0799024015
C  C17  1  0.84790000  0.36794000  0.24404000  1.0 -0.1471732138
C  C18  1  0.39614000  0.15210000  0.52004000  1.0 -0.1471732138
C  C19  1  0.12390000  0.60386000  0.75596000  1.0 -0.1471732138
C  C20  1  0.63206000  0.87610000  0.47996000  1.0 -0.1471732138
C  C21  1  0.73983000  0.26604000  0.30707000  1.0 -0.1069988823
C  C22  1  0.56724000  0.26017000  0.52621000  1.0 -0.1069988823
C  C23  1  0.95897000  0.43276000  0.69293000  1.0 -0.1069988823
C  C24  1  0.73396000  0.04103000  0.47379000  1.0 -0.1069988823
C  C25  1  0.85704000  0.33870000  0.36454000  1.0 -0.1069988823
C  C26  1  0.50750000  0.14296000  0.48166000  1.0 -0.1069988823
C  C27  1  0.97416000  0.49250000  0.63546000  1.0 -0.1069988823
C  C28  1  0.66130000  0.02584000  0.51834000  1.0 -0.1069988823
C  C29  1  0.07037000  0.50227000  0.35864000  1.0 -0.159629277
C  C30  1  0.28827000  0.92963000  0.43190000  1.0 -0.159629277
C  C31  1  0.14363000  0.71173000  0.64136000  1.0 -0.159629277
C  C32  1  0.49773000  0.85637000  0.56810000  1.0 -0.159629277
C  C33  1  0.18433000  0.60690000  0.29383000  1.0 0.0799024015
C  C34  1  0.10950000  0.81567000  0.42257000  1.0 0.0799024015
C  C35  1  0.31307000  0.89050000  0.70617000  1.0 0.0799024015
C  C36  1  0.39310000  0.68693000  0.57743000  1.0 0.0799024015
C  C37  1  0.39814000  0.76726000  0.28660000  1.0 -0.2563552922
C  C38  1  0.88846000  0.60186000  0.36912000  1.0 -0.2563552922
C  C39  1  0.48066000  0.11154000  0.71340000  1.0 -0.2563552922
C  C40  1  0.23274000  0.51934000  0.63088000  1.0 -0.2563552922
C  C41  1  0.49589000  0.85950000  0.22259000  1.0 0.0915999198
C  C42  1  0.72670000  0.50411000  0.36361000  1.0 0.0915999198
C  C43  1  0.63691000  0.27330000  0.77741000  1.0 0.0915999198
C  C44  1  0.14050000  0.36309000  0.63639000  1.0 0.0915999198
C  C45  1  0.84865000  0.10299000  0.23044000  1.0 0.109435845
C  C46  1  0.38179000  0.15135000  0.25434000  1.0 0.109435845
C  C47  1  0.87255000  0.61821000  0.76956000  1.0 0.109435845
C  C48  1  0.89701000  0.12745000  0.74566000  1.0 0.109435845
C  C49  1  0.13108000  0.26441000  0.29429000  1.0 0.0078266505
C  C50  1  0.16321000  0.86892000  0.13333000  1.0 0.0078266505
C  C51  1  0.97012000  0.83679000  0.70571000  1.0 0.0078266505
C  C52  1  0.73559000  0.02988000  0.86667000  1.0 0.0078266505
C  C53  1  0.29459000  0.36331000  0.32910000  1.0 0.4087163293
C  C54  1  0.03451000  0.70541000  0.06872000  1.0 0.4087163293
C  C55  1  0.03421000  0.96549000  0.67090000  1.0 0.4087163293
C  C56  1  0.63669000  0.96579000  0.93128000  1.0 0.4087163293
C  C57  1  0.10080000  0.33460000  0.21680000  1.0 -0.0608054623
C  C58  1  0.11600000  0.89920000  0.23380000  1.0 -0.0608054623
C  C59  1  0.11780000  0.88400000  0.78320000  1.0 -0.0608054623
C  C60  1  0.66540000  0.88220000  0.76620000  1.0 -0.0608054623
C  C61  1  0.25370000  0.42740000  0.24930000  1.0 -0.098898313
C  C62  1  0.99560000  0.74630000  0.17370000  1.0 -0.098898313
C  C63  1  0.17810000  0.00440000  0.75070000  1.0 -0.098898313
C  C64  1  0.57260000  0.82190000  0.82630000  1.0 -0.098898313
C  C65  1  0.88570000  0.04050000  0.31080000  1.0 -0.0656155264
C  C66  1  0.42510000  0.11430000  0.15480000  1.0 -0.0608054623
C  C67  1  0.72970000  0.57490000  0.68920000  1.0 -0.0656155264
C  C68  1  0.95950000  0.27030000  0.84520000  1.0 -0.0656155264
C  C69  1  0.73360000  0.94740000  0.27760000  1.0 -0.0608054623
C  C70  1  0.54400000  0.26640000  0.21380000  1.0 -0.0608054623
C  C71  1  0.66980000  0.45600000  0.72240000  1.0 -0.0608054623
C  C72  1  0.05260000  0.33020000  0.78620000  1.0 -0.0608054623
C  C73  1  0.90720000  0.10500000  0.18780000  1.0 -0.0919728717
C  C74  1  0.28060000  0.09280000  0.19780000  1.0 -0.0919728717
C  C75  1  0.91720000  0.71940000  0.81220000  1.0 -0.0919728717
C  C76  1  0.89500000  0.08280000  0.80220000  1.0 -0.0919728717
C  C77  1  0.04310000  0.17950000  0.21840000  1.0 -0.0396212042
C  C78  1  0.17530000  0.95690000  0.13640000  1.0 -0.0396212042
C  C79  1  0.96110000  0.82470000  0.78160000  1.0 -0.0396212042
C  C80  1  0.82050000  0.03890000  0.86360000  1.0 -0.0396212042
C  C81  1  0.05780000  0.24790000  0.33230000  1.0 -0.0245255074
C  C82  1  0.27450000  0.94220000  0.19010000  1.0 -0.0245255074
C  C83  1  0.91560000  0.72550000  0.66770000  1.0 -0.0245255074
C  C84  1  0.75210000  0.08440000  0.80990000  1.0 -0.0245255074
C  C85  1  0.93420000  0.18770000  0.30110000  1.0 -0.0764729204
C  C86  1  0.36690000  0.06580000  0.25350000  1.0 -0.0764729204
C  C87  1  0.88660000  0.63310000  0.69890000  1.0 -0.0764729204
C  C88  1  0.81230000  0.11340000  0.74650000  1.0 -0.0764729204
N  N1  1  0.53712000  0.92945000  0.10937000  1.0 -0.3332393682
N  N2  1  0.57225000  0.46288000  0.39233000  1.0 -0.3332393682
N  N3  1  0.82008000  0.42775000  0.89063000  1.0 -0.3332393682
N  N4  1  0.07055000  0.17992000  0.60767000  1.0 -0.3332393682
N  N5  1  0.69929000  0.01627000  0.19716000  1.0 -0.1410575798
N  N6  1  0.49787000  0.30071000  0.31698000  1.0 -0.1410575798
N  N7  1  0.81911000  0.50213000  0.80284000  1.0 -0.1410575798
N  N8  1  0.98373000  0.18089000  0.68302000  1.0 -0.1410575798
O  O1  1  0.63530000  0.16725000  0.03035000  1.0 -0.7458533859
O  O2  1  0.39505000  0.36470000  0.53195000  1.0 -0.7458533859
O  O3  1  0.13690000  0.60495000  0.96965000  1.0 -0.7458533859
O  O4  1  0.83275000  0.86310000  0.46805000  1.0 -0.7458533859
O  O5  1  0.24224000  0.29345000  0.38789000  1.0 -0.4412084213
O  O6  1  0.14565000  0.75776000  0.05121000  1.0 -0.4412084213
O  O7  1  0.90556000  0.85435000  0.61211000  1.0 -0.4412084213
O  O8  1  0.70655000  0.09444000  0.94879000  1.0 -0.4412084213
O  O9  1  0.54210000  0.59390000  0.31480000  1.0 -0.1830608016
O  O10  1  0.77270000  0.45790000  0.05180000  1.0 -0.1830608016
O  O11  1  0.27910000  0.22730000  0.68520000  1.0 -0.1830608016
O  O12  1  0.40610000  0.72090000  0.94820000  1.0 -0.1830608016
O  O13  1  0.39395000  0.41640000  0.28735000  1.0 -0.1410575798
O  O14  1  0.89340000  0.60605000  0.02245000  1.0 -0.1410575798
O  O15  1  0.12905000  0.10660000  0.71265000  1.0 -0.1410575798
O  O16  1  0.58360000  0.87095000  0.97755000  1.0 -0.1410575798
