# DDEC6 charges by PACMAN v1.1 (https://github.com/mtap-research/PACMAN-charge/)
data_IFEPUG03_FSR_pacman
_symmetry_space_group_name_H-M   'P 1'
_cell_length_a   18.89610000
_cell_length_b   18.89610000
_cell_length_c   18.89610000
_cell_angle_alpha   91.08000000
_cell_angle_beta   91.08000000
_cell_angle_gamma   164.21800000
_symmetry_Int_Tables_number   1
_chemical_formula_structural   ZnH16C22(NO2)2
_chemical_formula_sum   'Zn4 H64 C88 N8 O16'
_cell_volume   1817.68335859
_cell_formula_units_Z   4
loop_
 _symmetry_equiv_pos_site_id
 _symmetry_equiv_pos_as_xyz
  1  'x, y, z'
loop_
 _atom_site_type_symbol
 _atom_site_label
 _atom_site_symmetry_multiplicity
 _atom_site_fract_x
 _atom_site_fract_y
 _atom_site_fract_z
 _atom_site_occupancy
 _atom_site_charge
Zn  Zn1  1  0.19389000  0.13648000  0.48603000  1.0 0.8364997609
Zn  Zn2  1  0.65045000  0.70786000  0.51397000  1.0 0.8364997609
Zn  Zn3  1  0.29214000  0.80611000  0.94259000  1.0 0.8364997609
Zn  Zn4  1  0.86352000  0.34955000  0.05741000  1.0 0.8364997609
H  H1  1  0.17910000  0.24400000  0.46650000  1.0 0.3596382542
H  H2  1  0.77750000  0.71260000  0.53350000  1.0 0.3596382542
H  H3  1  0.28740000  0.82090000  0.06490000  1.0 0.3596382542
H  H4  1  0.75600000  0.22250000  0.93510000  1.0 0.3596382542
H  H5  1  0.47330000  0.29250000  0.39620000  1.0 0.1014596364
H  H6  1  0.89630000  0.07710000  0.60380000  1.0 0.1014596364
H  H7  1  0.92290000  0.52670000  0.81920000  1.0 0.1014596364
H  H8  1  0.70750000  0.10370000  0.18080000  1.0 0.1014596364
H  H9  1  0.71090000  0.70240000  0.36470000  1.0 0.1399343713
H  H10  1  0.33770000  0.34620000  0.63530000  1.0 0.1399343713
H  H11  1  0.65380000  0.28910000  0.99150000  1.0 0.1399343713
H  H12  1  0.29760000  0.66230000  0.00850000  1.0 0.1399343713
H  H13  1  0.32220000  0.36940000  0.29160000  1.0 0.1192509665
H  H14  1  0.07780000  0.03060000  0.70840000  1.0 0.1192509665
H  H15  1  0.96940000  0.67780000  0.04720000  1.0 0.1192509665
H  H16  1  0.63060000  0.92220000  0.95280000  1.0 0.1192509665
H  H17  1  0.04360000  0.10350000  0.18470000  1.0 0.1014596364
H  H18  1  0.91880000  0.85890000  0.81530000  1.0 0.1014596364
H  H19  1  0.14110000  0.95640000  0.05990000  1.0 0.1014596364
H  H20  1  0.89650000  0.08120000  0.94010000  1.0 0.1014596364
H  H21  1  0.13640000  0.12120000  0.08960000  1.0 0.1014596364
H  H22  1  0.03160000  0.04680000  0.91040000  1.0 0.1014596364
H  H23  1  0.95320000  0.86360000  0.98480000  1.0 0.1014596364
H  H24  1  0.87880000  0.96840000  0.01520000  1.0 0.1014596364
H  H25  1  0.50680000  0.40830000  0.10190000  1.0 0.1093666433
H  H26  1  0.30640000  0.40490000  0.89810000  1.0 0.1093666433
H  H27  1  0.59510000  0.49320000  0.90150000  1.0 0.1093666433
H  H28  1  0.59170000  0.69360000  0.09850000  1.0 0.1093666433
H  H29  1  0.89703000  0.73780000  0.17403000  1.0 0.1192509665
H  H30  1  0.56377000  0.72300000  0.82597000  1.0 0.1192509665
H  H31  1  0.27700000  0.10297000  0.84077000  1.0 0.1192509665
H  H32  1  0.26220000  0.43623000  0.15923000  1.0 0.1192509665
H  H33  1  0.73690000  0.50170000  0.31480000  1.0 0.1093666433
H  H34  1  0.18690000  0.42210000  0.68520000  1.0 0.1093666433
H  H35  1  0.57790000  0.26310000  0.76480000  1.0 0.1093666433
H  H36  1  0.49830000  0.81310000  0.23520000  1.0 0.1093666433
H  H37  1  0.94400000  0.60890000  0.26410000  1.0 0.0892887386
H  H38  1  0.34480000  0.67990000  0.73590000  1.0 0.0892887386
H  H39  1  0.32010000  0.05600000  0.66490000  1.0 0.0892887386
H  H40  1  0.39110000  0.65520000  0.33510000  1.0 0.0892887386
H  H41  1  0.24800000  0.87760000  0.15520000  1.0 0.1192509665
H  H42  1  0.72240000  0.09280000  0.84480000  1.0 0.1192509665
H  H43  1  0.90720000  0.75200000  0.62960000  1.0 0.1192509665
H  H44  1  0.12240000  0.27760000  0.37040000  1.0 0.1192509665
H  H45  1  0.04680000  0.77710000  0.20770000  1.0 0.0892887386
H  H46  1  0.56940000  0.83910000  0.79230000  1.0 0.0892887386
H  H47  1  0.16090000  0.95320000  0.73030000  1.0 0.0892887386
H  H48  1  0.22290000  0.43060000  0.26970000  1.0 0.0892887386
H  H49  1  0.48130000  0.18610000  0.35900000  1.0 0.1093666433
H  H50  1  0.82710000  0.12230000  0.64100000  1.0 0.1093666433
H  H51  1  0.87770000  0.51870000  0.70480000  1.0 0.1093666433
H  H52  1  0.81390000  0.17290000  0.29520000  1.0 0.1093666433
H  H53  1  0.68790000  0.28900000  0.30890000  1.0 0.1093666433
H  H54  1  0.98010000  0.37900000  0.69110000  1.0 0.1093666433
H  H55  1  0.62100000  0.31210000  0.60110000  1.0 0.1093666433
H  H56  1  0.71100000  0.01990000  0.39890000  1.0 0.1093666433
H  H57  1  0.49700000  0.18940000  0.11000000  1.0 0.1014596364
H  H58  1  0.07940000  0.38700000  0.89000000  1.0 0.1014596364
H  H59  1  0.61300000  0.50300000  0.69240000  1.0 0.1014596364
H  H60  1  0.81060000  0.92060000  0.30760000  1.0 0.1014596364
H  H61  1  0.30170000  0.09500000  0.16630000  1.0 0.1014596364
H  H62  1  0.92870000  0.13540000  0.83370000  1.0 0.1014596364
H  H63  1  0.86460000  0.69830000  0.79330000  1.0 0.1014596364
H  H64  1  0.90500000  0.07130000  0.20670000  1.0 0.1014596364
C  C1  1  0.32300000  0.16390000  0.36810000  1.0 0.1192509665
C  C2  1  0.79580000  0.95490000  0.63190000  1.0 0.1192509665
C  C3  1  0.04510000  0.67700000  0.84090000  1.0 0.1192509665
C  C4  1  0.83610000  0.20420000  0.15910000  1.0 0.1192509665
C  C5  1  0.96729000  0.87790000  0.33299000  1.0 0.133502136
C  C6  1  0.54491000  0.63430000  0.66701000  1.0 0.133502136
C  C7  1  0.36570000  0.03271000  0.91061000  1.0 0.133502136
C  C8  1  0.12210000  0.45509000  0.08939000  1.0 0.133502136
C  C9  1  0.74820000  0.71010000  0.32650000  1.0 -0.20937517
C  C10  1  0.38360000  0.42170000  0.67350000  1.0 -0.20937517
C  C11  1  0.57830000  0.25180000  0.96190000  1.0 -0.20937517
C  C12  1  0.28990000  0.61640000  0.03810000  1.0 -0.20937517
C  C13  1  0.58500000  0.55330000  0.26170000  1.0 0.0732808961
C  C14  1  0.29160000  0.32330000  0.73830000  1.0 0.0732808961
C  C15  1  0.67670000  0.41500000  0.96830000  1.0 0.0732808961
C  C16  1  0.44670000  0.70840000  0.03170000  1.0 0.0732808961
C  C17  1  0.36080000  0.37880000  0.25320000  1.0 -0.1357840197
C  C18  1  0.12560000  0.10760000  0.74680000  1.0 -0.1357840197
C  C19  1  0.89240000  0.63920000  0.01800000  1.0 -0.1357840197
C  C20  1  0.62120000  0.87440000  0.98200000  1.0 -0.1357840197
C  C21  1  0.19160000  0.21720000  0.18940000  1.0 -0.1121633546
C  C22  1  0.02780000  0.00220000  0.81060000  1.0 -0.1121633546
C  C23  1  0.99780000  0.80840000  0.02560000  1.0 -0.1121633546
C  C24  1  0.78280000  0.97220000  0.97440000  1.0 -0.1121633546
C  C25  1  0.24800000  0.22890000  0.13270000  1.0 -0.1121633546
C  C26  1  0.09620000  0.11530000  0.86730000  1.0 -0.1121633546
C  C27  1  0.88470000  0.75200000  0.98090000  1.0 -0.1121633546
C  C28  1  0.77110000  0.90380000  0.01910000  1.0 -0.1121633546
C  C29  1  0.47000000  0.40080000  0.14040000  1.0 -0.1603316022
C  C30  1  0.26040000  0.32960000  0.85960000  1.0 -0.1603316022
C  C31  1  0.67040000  0.53000000  0.93080000  1.0 -0.1603316022
C  C32  1  0.59920000  0.73960000  0.06920000  1.0 -0.1603316022
C  C33  1  0.64070000  0.56360000  0.20450000  1.0 0.0805401979
C  C34  1  0.35910000  0.43620000  0.79550000  1.0 0.0805401979
C  C35  1  0.56380000  0.35930000  0.92290000  1.0 0.0805401979
C  C36  1  0.43640000  0.64090000  0.07710000  1.0 0.0805401979
C  C37  1  0.86060000  0.73190000  0.21150000  1.0 -0.2521692858
C  C38  1  0.52040000  0.64910000  0.78850000  1.0 -0.2521692858
C  C39  1  0.35090000  0.13940000  0.87130000  1.0 -0.2521692858
C  C40  1  0.26810000  0.47960000  0.12870000  1.0 -0.2521692858
C  C41  1  0.02340000  0.89000000  0.27580000  1.0 0.0892887386
C  C42  1  0.61420000  0.74760000  0.72420000  1.0 0.0892887386
C  C43  1  0.25240000  0.97660000  0.86660000  1.0 0.0892887386
C  C44  1  0.11000000  0.38580000  0.13340000  1.0 0.0892887386
C  C45  1  0.37100000  0.12970000  0.26710000  1.0 0.1192509665
C  C46  1  0.86260000  0.10390000  0.73290000  1.0 0.1192509665
C  C47  1  0.89610000  0.62900000  0.75870000  1.0 0.1192509665
C  C48  1  0.87030000  0.13740000  0.24130000  1.0 0.1192509665
C  C49  1  0.61340000  0.25150000  0.20550000  1.0 0.0155524659
C  C50  1  0.04600000  0.40790000  0.79450000  1.0 0.0155524659
C  C51  1  0.59210000  0.38660000  0.63810000  1.0 0.0155524659
C  C52  1  0.74850000  0.95400000  0.36190000  1.0 0.0155524659
C  C53  1  0.63840000  0.37600000  0.28280000  1.0 -0.0712778092
C  C54  1  0.09320000  0.35560000  0.71720000  1.0 -0.0712778092
C  C55  1  0.64440000  0.36160000  0.73760000  1.0 -0.0712778092
C  C56  1  0.62400000  0.90680000  0.26240000  1.0 -0.0712778092
C  C57  1  0.76370000  0.44180000  0.25290000  1.0 -0.0920075625
C  C58  1  0.18890000  0.51080000  0.74710000  1.0 -0.0920075625
C  C59  1  0.48920000  0.23630000  0.67810000  1.0 -0.0920075625
C  C60  1  0.55820000  0.81110000  0.32190000  1.0 -0.0920075625
C  C61  1  0.34550000  0.00220000  0.18750000  1.0 -0.0593032454
C  C62  1  0.81470000  0.15800000  0.81250000  1.0 -0.0593032454
C  C63  1  0.84200000  0.65450000  0.65670000  1.0 -0.0593032454
C  C64  1  0.99780000  0.18530000  0.34330000  1.0 -0.0593032454
C  C65  1  0.22700000  0.94410000  0.21890000  1.0 -0.0801840023
C  C66  1  0.72520000  0.00810000  0.78110000  1.0 -0.0801840023
C  C67  1  0.99190000  0.77300000  0.71710000  1.0 -0.0801840023
C  C68  1  0.05590000  0.27480000  0.28290000  1.0 -0.0801840023
C  C69  1  0.75080000  0.32650000  0.16730000  1.0 0.4316479592
C  C70  1  0.15920000  0.58350000  0.83270000  1.0 0.4316479592
C  C71  1  0.41650000  0.24920000  0.57570000  1.0 0.4316479592
C  C72  1  0.67350000  0.84080000  0.42430000  1.0 0.4316479592
C  C73  1  0.48580000  0.18790000  0.31010000  1.0 -0.0801840023
C  C74  1  0.87780000  0.17570000  0.68990000  1.0 -0.0801840023
C  C75  1  0.82430000  0.51420000  0.70210000  1.0 -0.0801840023
C  C76  1  0.81210000  0.12220000  0.29790000  1.0 -0.0801840023
C  C77  1  0.61020000  0.25010000  0.28030000  1.0 -0.0447963224
C  C78  1  0.96980000  0.32990000  0.71970000  1.0 -0.0447963224
C  C79  1  0.67010000  0.38980000  0.63990000  1.0 -0.0447963224
C  C80  1  0.74990000  0.03020000  0.36010000  1.0 -0.0447963224
C  C81  1  0.49640000  0.19080000  0.15920000  1.0 -0.0920075625
C  C82  1  0.03160000  0.33720000  0.84080000  1.0 -0.0920075625
C  C83  1  0.66280000  0.50360000  0.69440000  1.0 -0.0920075625
C  C84  1  0.80920000  0.96840000  0.30560000  1.0 -0.0920075625
C  C85  1  0.37900000  0.13310000  0.19410000  1.0 -0.0593032454
C  C86  1  0.93900000  0.18490000  0.80590000  1.0 -0.0593032454
C  C87  1  0.81510000  0.62100000  0.75410000  1.0 -0.0593032454
C  C88  1  0.86690000  0.06100000  0.24590000  1.0 -0.0593032454
N  N1  1  0.16400000  0.05720000  0.39120000  1.0 -0.3658184008
N  N2  1  0.66600000  0.77280000  0.60880000  1.0 -0.3658184008
N  N3  1  0.22720000  0.83600000  0.89320000  1.0 -0.3658184008
N  N4  1  0.94280000  0.33400000  0.10680000  1.0 -0.3658184008
N  N5  1  0.25080000  0.07160000  0.29960000  1.0 -0.1603316022
N  N6  1  0.77200000  0.95120000  0.70040000  1.0 -0.1603316022
N  N7  1  0.04880000  0.74920000  0.82080000  1.0 -0.1603316022
N  N8  1  0.92840000  0.22800000  0.17920000  1.0 -0.1603316022
O  O1  1  0.31180000  0.34490000  0.47630000  1.0 -0.8389631109
O  O2  1  0.86860000  0.83550000  0.52370000  1.0 -0.8389631109
O  O3  1  0.16450000  0.68820000  0.03310000  1.0 -0.8389631109
O  O4  1  0.65510000  0.13140000  0.96690000  1.0 -0.8389631109
O  O5  1  0.64690000  0.20410000  0.11020000  1.0 -0.481085007
O  O6  1  0.09390000  0.53670000  0.88980000  1.0 -0.481085007
O  O7  1  0.46330000  0.35310000  0.55720000  1.0 -0.481085007
O  O8  1  0.79590000  0.90610000  0.44280000  1.0 -0.481085007
O  O9  1  0.99970000  0.56360000  0.17930000  1.0 -0.20937517
O  O10  1  0.38430000  0.82040000  0.82070000  1.0 -0.20937517
O  O11  1  0.17960000  0.00030000  0.56390000  1.0 -0.20937517
O  O12  1  0.43640000  0.61570000  0.43610000  1.0 -0.20937517
O  O13  1  0.89460000  0.42210000  0.21670000  1.0 -0.2628580154
O  O14  1  0.20540000  0.67790000  0.78330000  1.0 -0.2628580154
O  O15  1  0.32210000  0.10540000  0.52750000  1.0 -0.2628580154
O  O16  1  0.57790000  0.79460000  0.47250000  1.0 -0.2628580154
