# DDEC6 charges by PACMAN v1.1 (https://github.com/mtap-research/PACMAN-charge/)
data_IFEPUG02_FSR_pacman
_symmetry_space_group_name_H-M   'P 1'
_cell_length_a   18.97140000
_cell_length_b   18.97140000
_cell_length_c   18.97140000
_cell_angle_alpha   91.07940000
_cell_angle_beta   91.07940000
_cell_angle_gamma   164.22200000
_symmetry_Int_Tables_number   1
_chemical_formula_structural   ZnH16C22(NO2)2
_chemical_formula_sum   'Zn4 H64 C88 N8 O16'
_cell_volume   1839.05654282
_cell_formula_units_Z   4
loop_
 _symmetry_equiv_pos_site_id
 _symmetry_equiv_pos_as_xyz
  1  'x, y, z'
loop_
 _atom_site_type_symbol
 _atom_site_label
 _atom_site_symmetry_multiplicity
 _atom_site_fract_x
 _atom_site_fract_y
 _atom_site_fract_z
 _atom_site_occupancy
 _atom_site_charge
Zn  Zn1  1  0.20477000  0.14751000  0.48568000  1.0 0.8507991156
Zn  Zn2  1  0.66183000  0.71909000  0.51432000  1.0 0.8507991156
Zn  Zn3  1  0.28091000  0.79523000  0.94274000  1.0 0.8507991156
Zn  Zn4  1  0.85249000  0.33817000  0.05726000  1.0 0.8507991156
H  H1  1  0.19270000  0.25640000  0.46730000  1.0 0.3635460755
H  H2  1  0.78910000  0.72540000  0.53270000  1.0 0.3635460755
H  H3  1  0.27460000  0.80730000  0.06370000  1.0 0.3635460755
H  H4  1  0.74360000  0.21090000  0.93630000  1.0 0.3635460755
H  H5  1  0.47460000  0.28990000  0.39830000  1.0 0.1002738839
H  H6  1  0.89160000  0.07630000  0.60170000  1.0 0.1002738839
H  H7  1  0.92370000  0.52540000  0.81530000  1.0 0.1002738839
H  H8  1  0.71010000  0.10840000  0.18470000  1.0 0.1002738839
H  H9  1  0.71740000  0.70890000  0.36450000  1.0 0.1414715371
H  H10  1  0.34440000  0.35290000  0.63550000  1.0 0.1414715371
H  H11  1  0.64710000  0.28260000  0.99150000  1.0 0.1414715371
H  H12  1  0.29110000  0.65560000  0.00850000  1.0 0.1414715371
H  H13  1  0.33660000  0.38390000  0.29210000  1.0 0.1207526731
H  H14  1  0.09180000  0.04450000  0.70790000  1.0 0.1207526731
H  H15  1  0.95550000  0.66340000  0.04730000  1.0 0.1207526731
H  H16  1  0.61610000  0.90820000  0.95270000  1.0 0.1207526731
H  H17  1  0.05430000  0.11470000  0.18640000  1.0 0.1002738839
H  H18  1  0.92830000  0.86790000  0.81360000  1.0 0.1002738839
H  H19  1  0.13210000  0.94570000  0.06040000  1.0 0.1002738839
H  H20  1  0.88530000  0.07170000  0.93960000  1.0 0.1002738839
H  H21  1  0.14190000  0.12610000  0.09240000  1.0 0.1097261014
H  H22  1  0.03370000  0.04950000  0.90760000  1.0 0.1097261014
H  H23  1  0.95050000  0.85810000  0.98420000  1.0 0.1097261014
H  H24  1  0.87390000  0.96630000  0.01580000  1.0 0.1097261014
H  H25  1  0.50360000  0.40220000  0.10520000  1.0 0.1097261014
H  H26  1  0.29700000  0.39840000  0.89480000  1.0 0.1097261014
H  H27  1  0.60160000  0.49640000  0.89860000  1.0 0.1097261014
H  H28  1  0.59780000  0.70300000  0.10140000  1.0 0.1097261014
H  H29  1  0.89380000  0.73130000  0.17650000  1.0 0.1207526731
H  H30  1  0.55480000  0.71730000  0.82350000  1.0 0.1207526731
H  H31  1  0.28270000  0.10620000  0.83750000  1.0 0.1207526731
H  H32  1  0.26870000  0.44520000  0.16250000  1.0 0.1207526731
H  H33  1  0.48600000  0.18770000  0.35830000  1.0 0.1207526731
H  H34  1  0.82940000  0.12770000  0.64170000  1.0 0.1207526731
H  H35  1  0.87230000  0.51400000  0.70170000  1.0 0.1207526731
H  H36  1  0.81230000  0.17060000  0.29830000  1.0 0.1207526731
H  H37  1  0.69570000  0.29570000  0.30680000  1.0 0.1097261014
H  H38  1  0.98890000  0.38890000  0.69320000  1.0 0.1097261014
H  H39  1  0.61110000  0.30430000  0.60000000  1.0 0.1097261014
H  H40  1  0.70430000  0.01110000  0.40000000  1.0 0.1097261014
H  H41  1  0.49010000  0.18240000  0.10970000  1.0 0.1097261014
H  H42  1  0.07270000  0.38040000  0.89030000  1.0 0.1097261014
H  H43  1  0.61960000  0.50990000  0.69230000  1.0 0.1097261014
H  H44  1  0.81760000  0.92730000  0.30770000  1.0 0.1097261014
H  H45  1  0.29110000  0.08230000  0.16720000  1.0 0.1097261014
H  H46  1  0.91510000  0.12390000  0.83280000  1.0 0.1097261014
H  H47  1  0.87610000  0.70890000  0.79120000  1.0 0.1097261014
H  H48  1  0.91770000  0.08490000  0.20880000  1.0 0.1097261014
H  H49  1  0.72970000  0.49230000  0.31720000  1.0 0.1097261014
H  H50  1  0.17510000  0.41250000  0.68280000  1.0 0.1097261014
H  H51  1  0.58750000  0.27030000  0.76260000  1.0 0.1097261014
H  H52  1  0.50770000  0.82490000  0.23740000  1.0 0.1097261014
H  H53  1  0.93900000  0.60310000  0.26470000  1.0 0.1002738839
H  H54  1  0.33840000  0.67430000  0.73530000  1.0 0.1002738839
H  H55  1  0.32570000  0.06100000  0.66410000  1.0 0.1002738839
H  H56  1  0.39690000  0.66160000  0.33590000  1.0 0.1002738839
H  H57  1  0.24770000  0.87890000  0.15360000  1.0 0.1207526731
H  H58  1  0.72530000  0.09410000  0.84640000  1.0 0.1207526731
H  H59  1  0.90590000  0.75230000  0.63120000  1.0 0.1207526731
H  H60  1  0.12110000  0.27470000  0.36880000  1.0 0.1207526731
H  H61  1  0.04570000  0.77530000  0.20800000  1.0 0.1002738839
H  H62  1  0.56730000  0.83770000  0.79200000  1.0 0.1002738839
H  H63  1  0.16230000  0.95430000  0.72960000  1.0 0.1002738839
H  H64  1  0.22470000  0.43270000  0.27040000  1.0 0.1002738839
C  C1  1  0.32550000  0.16310000  0.37060000  1.0 0.1002738839
C  C2  1  0.79250000  0.95490000  0.62940000  1.0 0.1002738839
C  C3  1  0.04510000  0.67450000  0.83760000  1.0 0.1002738839
C  C4  1  0.83690000  0.20750000  0.16240000  1.0 0.1002738839
C  C5  1  0.96840000  0.87750000  0.33430000  1.0 0.1207526731
C  C6  1  0.54320000  0.63410000  0.66570000  1.0 0.1207526731
C  C7  1  0.36590000  0.03160000  0.90910000  1.0 0.1251039675
C  C8  1  0.12250000  0.45680000  0.09090000  1.0 0.1207526731
C  C9  1  0.75230000  0.71320000  0.32710000  1.0 -0.2087966425
C  C10  1  0.38610000  0.42520000  0.67290000  1.0 -0.2087966425
C  C11  1  0.57480000  0.24770000  0.96090000  1.0 -0.2087966425
C  C12  1  0.28680000  0.61390000  0.03910000  1.0 -0.2087966425
C  C13  1  0.58850000  0.55480000  0.26270000  1.0 0.0712540469
C  C14  1  0.29210000  0.32580000  0.73730000  1.0 0.0712540469
C  C15  1  0.67420000  0.41150000  0.96630000  1.0 0.0712540469
C  C16  1  0.44520000  0.70790000  0.03370000  1.0 0.0712540469
C  C17  1  0.37040000  0.38780000  0.25420000  1.0 -0.1409455498
C  C18  1  0.13360000  0.11620000  0.74580000  1.0 -0.1409455498
C  C19  1  0.88380000  0.62960000  0.01740000  1.0 -0.1409455498
C  C20  1  0.61220000  0.86640000  0.98260000  1.0 -0.1409455498
C  C21  1  0.19980000  0.22540000  0.19120000  1.0 -0.113507671
C  C22  1  0.03420000  0.00860000  0.80880000  1.0 -0.113507671
C  C23  1  0.99140000  0.80020000  0.02560000  1.0 -0.113507671
C  C24  1  0.77460000  0.96580000  0.97440000  1.0 -0.113507671
C  C25  1  0.25300000  0.23310000  0.13530000  1.0 -0.113507671
C  C26  1  0.09780000  0.11770000  0.86470000  1.0 -0.113507671
C  C27  1  0.88230000  0.74700000  0.98010000  1.0 -0.113507671
C  C28  1  0.76690000  0.90220000  0.01990000  1.0 -0.113507671
C  C29  1  0.47030000  0.39890000  0.14320000  1.0 -0.1614259461
C  C30  1  0.25570000  0.32710000  0.85680000  1.0 -0.1614259461
C  C31  1  0.67290000  0.52970000  0.92860000  1.0 -0.1614259461
C  C32  1  0.60110000  0.74430000  0.07140000  1.0 -0.1614259461
C  C33  1  0.64180000  0.56250000  0.20670000  1.0 0.079120301
C  C34  1  0.35580000  0.43510000  0.79330000  1.0 0.079120301
C  C35  1  0.56490000  0.35820000  0.92070000  1.0 0.079120301
C  C36  1  0.43750000  0.64420000  0.07930000  1.0 0.079120301
C  C37  1  0.85950000  0.72810000  0.21360000  1.0 -0.2673542181
C  C38  1  0.51450000  0.64590000  0.78640000  1.0 -0.2673542181
C  C39  1  0.35410000  0.14050000  0.86860000  1.0 -0.2673542181
C  C40  1  0.27190000  0.48550000  0.13140000  1.0 -0.2673542181
C  C41  1  0.02340000  0.88820000  0.27760000  1.0 0.0942543915
C  C42  1  0.61060000  0.74580000  0.72240000  1.0 0.0942543915
C  C43  1  0.25420000  0.97660000  0.86480000  1.0 0.0942543915
C  C44  1  0.11180000  0.38940000  0.13520000  1.0 0.0942543915
C  C45  1  0.36670000  0.12320000  0.26790000  1.0 0.1097261014
C  C46  1  0.85530000  0.09880000  0.73210000  1.0 0.1097261014
C  C47  1  0.90120000  0.63330000  0.75650000  1.0 0.1097261014
C  C48  1  0.87680000  0.14470000  0.24350000  1.0 0.1097261014
C  C49  1  0.61000000  0.24890000  0.20490000  1.0 0.0159758416
C  C50  1  0.04400000  0.40510000  0.79510000  1.0 0.0159758416
C  C51  1  0.59490000  0.39000000  0.63890000  1.0 0.0159758416
C  C52  1  0.75110000  0.95600000  0.36110000  1.0 0.0159758416
C  C53  1  0.48790000  0.18750000  0.30940000  1.0 -0.0697669217
C  C54  1  0.87810000  0.17850000  0.69060000  1.0 -0.0697669217
C  C55  1  0.82150000  0.51210000  0.69960000  1.0 -0.0697669217
C  C56  1  0.81250000  0.12190000  0.30040000  1.0 -0.0697669217
C  C57  1  0.61420000  0.25290000  0.27910000  1.0 -0.0578558946
C  C58  1  0.97380000  0.33510000  0.72090000  1.0 -0.0578558946
C  C59  1  0.66490000  0.38580000  0.63870000  1.0 -0.0578558946
C  C60  1  0.74710000  0.02620000  0.36130000  1.0 -0.0578558946
C  C61  1  0.49040000  0.18440000  0.15880000  1.0 -0.0933650078
C  C62  1  0.02560000  0.33160000  0.84120000  1.0 -0.0933650078
C  C63  1  0.66840000  0.50960000  0.69400000  1.0 -0.0933650078
C  C64  1  0.81560000  0.97440000  0.30600000  1.0 -0.0933650078
C  C65  1  0.37210000  0.12440000  0.19450000  1.0 -0.0517323759
C  C66  1  0.92990000  0.17760000  0.80550000  1.0 -0.0517323759
C  C67  1  0.82240000  0.62790000  0.75230000  1.0 -0.0517323759
C  C68  1  0.87560000  0.07010000  0.24770000  1.0 -0.0517323759
C  C69  1  0.74170000  0.31640000  0.16810000  1.0 0.4363472483
C  C70  1  0.14830000  0.57360000  0.83190000  1.0 0.4363472483
C  C71  1  0.42640000  0.25830000  0.57470000  1.0 0.4363472483
C  C72  1  0.68360000  0.85170000  0.42530000  1.0 0.4363472483
C  C73  1  0.63310000  0.36920000  0.28430000  1.0 -0.0799827406
C  C74  1  0.08490000  0.34880000  0.71570000  1.0 -0.0799827406
C  C75  1  0.65120000  0.36690000  0.73610000  1.0 -0.0799827406
C  C76  1  0.63080000  0.91510000  0.26390000  1.0 -0.0799827406
C  C77  1  0.76000000  0.43740000  0.25340000  1.0 -0.0959970707
C  C78  1  0.18400000  0.50660000  0.74660000  1.0 -0.0959970707
C  C79  1  0.49340000  0.24000000  0.67740000  1.0 -0.0959970707
C  C80  1  0.56260000  0.81600000  0.32260000  1.0 -0.0959970707
C  C81  1  0.34360000  0.00110000  0.18670000  1.0 -0.0517323759
C  C82  1  0.81440000  0.15690000  0.81330000  1.0 -0.0517323759
C  C83  1  0.84310000  0.65640000  0.65750000  1.0 -0.0517323759
C  C84  1  0.99890000  0.18560000  0.34250000  1.0 -0.0517323759
C  C85  1  0.22540000  0.94180000  0.21920000  1.0 -0.0799827406
C  C86  1  0.72260000  0.00620000  0.78080000  1.0 -0.0799827406
C  C87  1  0.99380000  0.77460000  0.71640000  1.0 -0.0799827406
C  C88  1  0.05820000  0.27740000  0.28360000  1.0 -0.0799827406
N  N1  1  0.16920000  0.05980000  0.39300000  1.0 -0.3707169348
N  N2  1  0.66680000  0.77620000  0.60700000  1.0 -0.3707169348
N  N3  1  0.22380000  0.83080000  0.89060000  1.0 -0.3707169348
N  N4  1  0.94020000  0.33320000  0.10940000  1.0 -0.3707169348
N  N5  1  0.24700000  0.06570000  0.30250000  1.0 -0.1409455498
N  N6  1  0.76320000  0.94450000  0.69750000  1.0 -0.1409455498
N  N7  1  0.05550000  0.75300000  0.81870000  1.0 -0.1409455498
N  N8  1  0.93430000  0.23680000  0.18130000  1.0 -0.1409455498
O  O1  1  0.32560000  0.35750000  0.47710000  1.0 -0.8468438068
O  O2  1  0.88040000  0.84850000  0.52290000  1.0 -0.8468438068
O  O3  1  0.15150000  0.67440000  0.03190000  1.0 -0.8468438068
O  O4  1  0.64250000  0.11960000  0.96810000  1.0 -0.8468438068
O  O5  1  0.62770000  0.18470000  0.10840000  1.0 -0.5474501529
O  O6  1  0.07630000  0.51930000  0.89160000  1.0 -0.5474501529
O  O7  1  0.48070000  0.37230000  0.55700000  1.0 -0.5474501529
O  O8  1  0.81530000  0.92370000  0.44300000  1.0 -0.5474501529
O  O9  1  0.98670000  0.54250000  0.18320000  1.0 -0.2087966425
O  O10  1  0.35930000  0.80350000  0.81680000  1.0 -0.2087966425
O  O11  1  0.19650000  0.01330000  0.55580000  1.0 -0.2087966425
O  O12  1  0.45750000  0.64070000  0.44420000  1.0 -0.2087966425
O  O13  1  0.86790000  0.39380000  0.22170000  1.0 -0.2263659628
O  O14  1  0.17210000  0.64620000  0.77830000  1.0 -0.2263659628
O  O15  1  0.35380000  0.13210000  0.52590000  1.0 -0.2263659628
O  O16  1  0.60620000  0.82790000  0.47410000  1.0 -0.2263659628
