# DDEC6 charges by PACMAN v1.1 (https://github.com/mtap-research/PACMAN-charge/)
data_IFEPUG04_ASR_pacman
_symmetry_space_group_name_H-M   'P 1'
_cell_length_a   18.75020000
_cell_length_b   18.75020000
_cell_length_c   18.75020000
_cell_angle_alpha   91.09570000
_cell_angle_beta   91.09570000
_cell_angle_gamma   164.10300000
_symmetry_Int_Tables_number   1
_chemical_formula_structural   ZnH16C22(NO2)2
_chemical_formula_sum   'Zn4 H64 C88 N8 O16'
_cell_volume   1788.26201534
_cell_formula_units_Z   4
loop_
 _symmetry_equiv_pos_site_id
 _symmetry_equiv_pos_as_xyz
  1  'x, y, z'
loop_
 _atom_site_type_symbol
 _atom_site_label
 _atom_site_symmetry_multiplicity
 _atom_site_fract_x
 _atom_site_fract_y
 _atom_site_fract_z
 _atom_site_occupancy
 _atom_site_charge
Zn  Zn1  1  0.16648000  0.10982000  0.48650000  1.0 0.8474020082
Zn  Zn2  1  0.62332000  0.67998000  0.51350000  1.0 0.8474020082
Zn  Zn3  1  0.32002000  0.83352000  0.94334000  1.0 0.8474020082
Zn  Zn4  1  0.89018000  0.37668000  0.05666000  1.0 0.8474020082
H  H1  1  0.14210000  0.21070000  0.47300000  1.0 0.3624143023
H  H2  1  0.73770000  0.66910000  0.52700000  1.0 0.3624143023
H  H3  1  0.33090000  0.85790000  0.06860000  1.0 0.3624143023
H  H4  1  0.78930000  0.26230000  0.93140000  1.0 0.3624143023
H  H5  1  0.46400000  0.28820000  0.39780000  1.0 0.1022580888
H  H6  1  0.89040000  0.06620000  0.60220000  1.0 0.1022580888
H  H7  1  0.93380000  0.53600000  0.82420000  1.0 0.1022580888
H  H8  1  0.71180000  0.10960000  0.17580000  1.0 0.1022580888
H  H9  1  0.69770000  0.69040000  0.36310000  1.0 0.1370760221
H  H10  1  0.32730000  0.33460000  0.63690000  1.0 0.1370760221
H  H11  1  0.66540000  0.30230000  0.99270000  1.0 0.1370760221
H  H12  1  0.30960000  0.67270000  0.00730000  1.0 0.1370760221
H  H13  1  0.31180000  0.35980000  0.28740000  1.0 0.1192479026
H  H14  1  0.07240000  0.02440000  0.71260000  1.0 0.1192479026
H  H15  1  0.97560000  0.68820000  0.04800000  1.0 0.1192479026
H  H16  1  0.64020000  0.92760000  0.95200000  1.0 0.1192479026
H  H17  1  0.03340000  0.09210000  0.17910000  1.0 0.1022580888
H  H18  1  0.91300000  0.85430000  0.82090000  1.0 0.1022580888
H  H19  1  0.14570000  0.96660000  0.05870000  1.0 0.1022580888
H  H20  1  0.90790000  0.08700000  0.94130000  1.0 0.1022580888
H  H21  1  0.13970000  0.12360000  0.08390000  1.0 0.1022580888
H  H22  1  0.03970000  0.05580000  0.91610000  1.0 0.1022580888
H  H23  1  0.94420000  0.86030000  0.98390000  1.0 0.1022580888
H  H24  1  0.87640000  0.96030000  0.01610000  1.0 0.1022580888
H  H25  1  0.51410000  0.41410000  0.09760000  1.0 0.1092315614
H  H26  1  0.31650000  0.41650000  0.90240000  1.0 0.1092315614
H  H27  1  0.58350000  0.48590000  0.90000000  1.0 0.1092315614
H  H28  1  0.58590000  0.68350000  0.10000000  1.0 0.1092315614
H  H29  1  0.90580000  0.74830000  0.17050000  1.0 0.1192479026
H  H30  1  0.57780000  0.73530000  0.82950000  1.0 0.1192479026
H  H31  1  0.26470000  0.09420000  0.84250000  1.0 0.1192479026
H  H32  1  0.25170000  0.42220000  0.15750000  1.0 0.1192479026
H  H33  1  0.73970000  0.50780000  0.31910000  1.0 0.1092315614
H  H34  1  0.18870000  0.42060000  0.68090000  1.0 0.1092315614
H  H35  1  0.57940000  0.26030000  0.76810000  1.0 0.1092315614
H  H36  1  0.49220000  0.81130000  0.23190000  1.0 0.1092315614
H  H37  1  0.96400000  0.63360000  0.26760000  1.0 0.1022580888
H  H38  1  0.36600000  0.69640000  0.73240000  1.0 0.1022580888
H  H39  1  0.30360000  0.03600000  0.66960000  1.0 0.1022580888
H  H40  1  0.36640000  0.63400000  0.33040000  1.0 0.1022580888
H  H41  1  0.28730000  0.92220000  0.14650000  1.0 0.1256711725
H  H42  1  0.77570000  0.14080000  0.85350000  1.0 0.1256711725
H  H43  1  0.85920000  0.71270000  0.63490000  1.0 0.1256711725
H  H44  1  0.07780000  0.22430000  0.36510000  1.0 0.1256711725
H  H45  1  0.07000000  0.80330000  0.19990000  1.0 0.1092315614
H  H46  1  0.60340000  0.87010000  0.80010000  1.0 0.1092315614
H  H47  1  0.12990000  0.93000000  0.73330000  1.0 0.1092315614
H  H48  1  0.19670000  0.39660000  0.26670000  1.0 0.1092315614
H  H49  1  0.50160000  0.20860000  0.35720000  1.0 0.1192479026
H  H50  1  0.85140000  0.14440000  0.64280000  1.0 0.1192479026
H  H51  1  0.85560000  0.49840000  0.70700000  1.0 0.1192479026
H  H52  1  0.79140000  0.14860000  0.29300000  1.0 0.1192479026
H  H53  1  0.72590000  0.33110000  0.30700000  1.0 0.1192479026
H  H54  1  0.02410000  0.41890000  0.69300000  1.0 0.1192479026
H  H55  1  0.58110000  0.27410000  0.60520000  1.0 0.1192479026
H  H56  1  0.66890000  0.97590000  0.39480000  1.0 0.1192479026
H  H57  1  0.52220000  0.21850000  0.10630000  1.0 0.1092315614
H  H58  1  0.11220000  0.41590000  0.89370000  1.0 0.1092315614
H  H59  1  0.58410000  0.47780000  0.69630000  1.0 0.1092315614
H  H60  1  0.78150000  0.88780000  0.30370000  1.0 0.1092315614
H  H61  1  0.30810000  0.10370000  0.16280000  1.0 0.1092315614
H  H62  1  0.94090000  0.14530000  0.83720000  1.0 0.1092315614
H  H63  1  0.85470000  0.69190000  0.79560000  1.0 0.1092315614
H  H64  1  0.89630000  0.05910000  0.20440000  1.0 0.1092315614
C  C1  1  0.31520000  0.15970000  0.36790000  1.0 0.1092315614
C  C2  1  0.79180000  0.94730000  0.63210000  1.0 0.1092315614
C  C3  1  0.05270000  0.68480000  0.84450000  1.0 0.1092315614
C  C4  1  0.84030000  0.20820000  0.15550000  1.0 0.1092315614
C  C5  1  0.96080000  0.87310000  0.33170000  1.0 0.1474419553
C  C6  1  0.54140000  0.62910000  0.66830000  1.0 0.1474419553
C  C7  1  0.37090000  0.03920000  0.91230000  1.0 0.1474419553
C  C8  1  0.12690000  0.45860000  0.08770000  1.0 0.1474419553
C  C9  1  0.73840000  0.70160000  0.32480000  1.0 -0.231467275
C  C10  1  0.37680000  0.41360000  0.67520000  1.0 -0.231467275
C  C11  1  0.58640000  0.26160000  0.96320000  1.0 -0.231467275
C  C12  1  0.29840000  0.62320000  0.03680000  1.0 -0.231467275
C  C13  1  0.57720000  0.54570000  0.25850000  1.0 0.0712089706
C  C14  1  0.28720000  0.31870000  0.74150000  1.0 0.0712089706
C  C15  1  0.68130000  0.42280000  0.96850000  1.0 0.0712089706
C  C16  1  0.45430000  0.71280000  0.03150000  1.0 0.0712089706
C  C17  1  0.35220000  0.37040000  0.24920000  1.0 -0.1403716635
C  C18  1  0.12120000  0.10300000  0.75080000  1.0 -0.1403716635
C  C19  1  0.89700000  0.64780000  0.01820000  1.0 -0.1403716635
C  C20  1  0.62960000  0.87880000  0.98180000  1.0 -0.1403716635
C  C21  1  0.18440000  0.20950000  0.18450000  1.0 -0.1183063742
C  C22  1  0.02500000  0.99990000  0.81550000  1.0 -0.1183063742
C  C23  1  0.00010000  0.81560000  0.02510000  1.0 -0.1183063742
C  C24  1  0.79050000  0.97500000  0.97490000  1.0 -0.1183063742
C  C25  1  0.24860000  0.22880000  0.12780000  1.0 -0.1102773007
C  C26  1  0.10100000  0.12080000  0.87220000  1.0 -0.1102773007
C  C27  1  0.87920000  0.75140000  0.98020000  1.0 -0.1102773007
C  C28  1  0.77120000  0.89900000  0.01980000  1.0 -0.1102773007
C  C29  1  0.47370000  0.40330000  0.13600000  1.0 -0.1633939278
C  C30  1  0.26730000  0.33770000  0.86400000  1.0 -0.1633939278
C  C31  1  0.66230000  0.52630000  0.92960000  1.0 -0.1633939278
C  C32  1  0.59670000  0.73270000  0.07040000  1.0 -0.1633939278
C  C33  1  0.64040000  0.56350000  0.20190000  1.0 0.0816233996
C  C34  1  0.36160000  0.43850000  0.79810000  1.0 0.0816233996
C  C35  1  0.56150000  0.35960000  0.92310000  1.0 0.0816233996
C  C36  1  0.43650000  0.63840000  0.07690000  1.0 0.0816233996
C  C37  1  0.86410000  0.73630000  0.20880000  1.0 -0.2606478911
C  C38  1  0.52750000  0.65530000  0.79120000  1.0 -0.2606478911
C  C39  1  0.34470000  0.13590000  0.87220000  1.0 -0.2606478911
C  C40  1  0.26370000  0.47250000  0.12780000  1.0 -0.2606478911
C  C41  1  0.02270000  0.89020000  0.27490000  1.0 0.0816233996
C  C42  1  0.61530000  0.74780000  0.72510000  1.0 0.0816233996
C  C43  1  0.25220000  0.97730000  0.86750000  1.0 0.0816233996
C  C44  1  0.10980000  0.38470000  0.13250000  1.0 0.0816233996
C  C45  1  0.38240000  0.14340000  0.26480000  1.0 0.1022580888
C  C46  1  0.87860000  0.11760000  0.73520000  1.0 0.1022580888
C  C47  1  0.88240000  0.61760000  0.76100000  1.0 0.1022580888
C  C48  1  0.85660000  0.12140000  0.23900000  1.0 0.1022580888
C  C49  1  0.64310000  0.28630000  0.20340000  1.0 0.006738092
C  C50  1  0.08290000  0.43970000  0.79660000  1.0 0.006738092
C  C51  1  0.56030000  0.35690000  0.64320000  1.0 0.006738092
C  C52  1  0.71370000  0.91710000  0.35680000  1.0 0.006738092
C  C53  1  0.64870000  0.38990000  0.28460000  1.0 -0.0680672694
C  C54  1  0.10530000  0.36410000  0.71540000  1.0 -0.0680672694
C  C55  1  0.63590000  0.35130000  0.74120000  1.0 -0.0680672694
C  C56  1  0.61010000  0.89470000  0.25880000  1.0 -0.0680672694
C  C57  1  0.78420000  0.46670000  0.25430000  1.0 -0.0954765734
C  C58  1  0.21240000  0.52990000  0.74570000  1.0 -0.0954765734
C  C59  1  0.47010000  0.21580000  0.68250000  1.0 -0.0954765734
C  C60  1  0.53330000  0.78760000  0.31750000  1.0 -0.0954765734
C  C61  1  0.37700000  0.03850000  0.18150000  1.0 -0.050737245
C  C62  1  0.85700000  0.19550000  0.81850000  1.0 -0.050737245
C  C63  1  0.80450000  0.62300000  0.66150000  1.0 -0.050737245
C  C64  1  0.96150000  0.14300000  0.33850000  1.0 -0.050737245
C  C65  1  0.24960000  0.97010000  0.21330000  1.0 -0.0808999147
C  C66  1  0.75680000  0.03630000  0.78670000  1.0 -0.0808999147
C  C67  1  0.96370000  0.75040000  0.72050000  1.0 -0.0808999147
C  C68  1  0.02990000  0.24320000  0.27950000  1.0 -0.0808999147
C  C69  1  0.78660000  0.36870000  0.16730000  1.0 0.4542485792
C  C70  1  0.20140000  0.61930000  0.83270000  1.0 0.4542485792
C  C71  1  0.38070000  0.21340000  0.58210000  1.0 0.4542485792
C  C72  1  0.63130000  0.79860000  0.41790000  1.0 0.4542485792
C  C73  1  0.50660000  0.21120000  0.30780000  1.0 -0.0680672694
C  C74  1  0.90340000  0.19880000  0.69220000  1.0 -0.0680672694
C  C75  1  0.80120000  0.49340000  0.70460000  1.0 -0.0680672694
C  C76  1  0.78880000  0.09660000  0.29540000  1.0 -0.0680672694
C  C77  1  0.64130000  0.28500000  0.27830000  1.0 -0.0568192359
C  C78  1  0.00670000  0.36300000  0.72170000  1.0 -0.0568192359
C  C79  1  0.63700000  0.35870000  0.64370000  1.0 -0.0568192359
C  C80  1  0.71500000  0.99330000  0.35630000  1.0 -0.0568192359
C  C81  1  0.51980000  0.21810000  0.15590000  1.0 -0.0808999147
C  C82  1  0.06220000  0.36390000  0.84410000  1.0 -0.0808999147
C  C83  1  0.63610000  0.48020000  0.69830000  1.0 -0.0808999147
C  C84  1  0.78190000  0.93780000  0.30170000  1.0 -0.0808999147
C  C85  1  0.39220000  0.14890000  0.19110000  1.0 -0.050737245
C  C86  1  0.95780000  0.20110000  0.80890000  1.0 -0.050737245
C  C87  1  0.79890000  0.60780000  0.75670000  1.0 -0.050737245
C  C88  1  0.85110000  0.04220000  0.24330000  1.0 -0.050737245
N  N1  1  0.14710000  0.04350000  0.38860000  1.0 -0.3295719307
N  N2  1  0.65490000  0.75850000  0.61140000  1.0 -0.3295719307
N  N3  1  0.24150000  0.85290000  0.89640000  1.0 -0.3295719307
N  N4  1  0.95650000  0.34510000  0.10360000  1.0 -0.3295719307
N  N5  1  0.25450000  0.07730000  0.29880000  1.0 -0.1808174532
N  N6  1  0.77850000  0.95570000  0.70120000  1.0 -0.1808174532
N  N7  1  0.04430000  0.74550000  0.82280000  1.0 -0.1808174532
N  N8  1  0.92270000  0.22150000  0.17720000  1.0 -0.1808174532
O  O1  1  0.27530000  0.31210000  0.48280000  1.0 -0.8411268723
O  O2  1  0.82930000  0.79250000  0.51720000  1.0 -0.8411268723
O  O3  1  0.20750000  0.72470000  0.03680000  1.0 -0.8411268723
O  O4  1  0.68790000  0.17070000  0.96320000  1.0 -0.8411268723
O  O5  1  0.67320000  0.23420000  0.10740000  1.0 -0.5408804548
O  O6  1  0.12680000  0.56580000  0.89260000  1.0 -0.5408804548
O  O7  1  0.43420000  0.32680000  0.56100000  1.0 -0.5408804548
O  O8  1  0.76580000  0.87320000  0.43900000  1.0 -0.5408804548
O  O9  1  0.03510000  0.60150000  0.18860000  1.0 -0.2393583302
O  O10  1  0.41290000  0.84650000  0.81140000  1.0 -0.2393583302
O  O11  1  0.15350000  0.96490000  0.56640000  1.0 -0.2393583302
O  O12  1  0.39850000  0.58710000  0.43360000  1.0 -0.2393583302
O  O13  1  0.90020000  0.42240000  0.21060000  1.0 -0.2511951831
O  O14  1  0.21180000  0.68960000  0.78940000  1.0 -0.2511951831
O  O15  1  0.31040000  0.09980000  0.52220000  1.0 -0.2511951831
O  O16  1  0.57760000  0.78820000  0.47780000  1.0 -0.2511951831
