# DDEC6 charges by PACMAN v1.1 (https://github.com/mtap-research/PACMAN-charge/)
data_IFEPUG10_FSR_pacman
_symmetry_space_group_name_H-M   'P 1'
_cell_length_a   18.89250000
_cell_length_b   18.89250000
_cell_length_c   18.89250000
_cell_angle_alpha   90.81200000
_cell_angle_beta   90.81200000
_cell_angle_gamma   166.32600000
_symmetry_Int_Tables_number   1
_chemical_formula_structural   ZnH16C22(NO2)2
_chemical_formula_sum   'Zn4 H64 C88 N8 O16'
_cell_volume   1582.74665171
_cell_formula_units_Z   4
loop_
 _symmetry_equiv_pos_site_id
 _symmetry_equiv_pos_as_xyz
  1  'x, y, z'
loop_
 _atom_site_type_symbol
 _atom_site_label
 _atom_site_symmetry_multiplicity
 _atom_site_fract_x
 _atom_site_fract_y
 _atom_site_fract_z
 _atom_site_occupancy
 _atom_site_charge
Zn  Zn1  1  0.21609000  0.16293000  0.48402000  1.0 0.8085456197
Zn  Zn2  1  0.67891000  0.73207000  0.51598000  1.0 0.8085456197
Zn  Zn3  1  0.26793000  0.78391000  0.94684000  1.0 0.8085456197
Zn  Zn4  1  0.83707000  0.32109000  0.05316000  1.0 0.8085456197
H  H1  1  0.08700000  0.17270000  0.49410000  1.0 0.3368047182
H  H2  1  0.67860000  0.59290000  0.50590000  1.0 0.3368047182
H  H3  1  0.40710000  0.91300000  0.08570000  1.0 0.3368047182
H  H4  1  0.82730000  0.32140000  0.91430000  1.0 0.3368047182
H  H5  1  0.57680000  0.41000000  0.39800000  1.0 0.111846268
H  H6  1  0.01200000  0.17880000  0.60200000  1.0 0.111846268
H  H7  1  0.82120000  0.42320000  0.83320000  1.0 0.111846268
H  H8  1  0.59000000  0.98800000  0.16680000  1.0 0.111846268
H  H9  1  0.71100000  0.71470000  0.35490000  1.0 0.1294049029
H  H10  1  0.35980000  0.35610000  0.64510000  1.0 0.1294049029
H  H11  1  0.64390000  0.28900000  0.00370000  1.0 0.1294049029
H  H12  1  0.28530000  0.64020000  0.99630000  1.0 0.1294049029
H  H13  1  0.28520000  0.34690000  0.27990000  1.0 0.1190811497
H  H14  1  0.06700000  0.00530000  0.72010000  1.0 0.1190811497
H  H15  1  0.99470000  0.71480000  0.06170000  1.0 0.1190811497
H  H16  1  0.65310000  0.93300000  0.93830000  1.0 0.1190811497
H  H17  1  0.98040000  0.05590000  0.17230000  1.0 0.093851956
H  H18  1  0.88360000  0.80810000  0.82770000  1.0 0.093851956
H  H19  1  0.19190000  0.01960000  0.07550000  1.0 0.093851956
H  H20  1  0.94410000  0.11640000  0.92450000  1.0 0.093851956
H  H21  1  0.11000000  0.11080000  0.07880000  1.0 0.1028008763
H  H22  1  0.03200000  0.03120000  0.92120000  1.0 0.1028008763
H  H23  1  0.96880000  0.89000000  0.00080000  1.0 0.1028008763
H  H24  1  0.88920000  0.96800000  0.99920000  1.0 0.1028008763
H  H25  1  0.52270000  0.44020000  0.09450000  1.0 0.111846268
H  H26  1  0.34570000  0.42820000  0.90550000  1.0 0.111846268
H  H27  1  0.57180000  0.47730000  0.91750000  1.0 0.111846268
H  H28  1  0.55980000  0.65430000  0.08250000  1.0 0.111846268
H  H29  1  0.94600000  0.80030000  0.16770000  1.0 0.1190811497
H  H30  1  0.63260000  0.77830000  0.83230000  1.0 0.1190811497
H  H31  1  0.22170000  0.05400000  0.85430000  1.0 0.1190811497
H  H32  1  0.19970000  0.36740000  0.14570000  1.0 0.1190811497
H  H33  1  0.88590000  0.66430000  0.30680000  1.0 0.1028008763
H  H34  1  0.35750000  0.57910000  0.69320000  1.0 0.1028008763
H  H35  1  0.42090000  0.11410000  0.77840000  1.0 0.1028008763
H  H36  1  0.33570000  0.64250000  0.22160000  1.0 0.1028008763
H  H37  1  0.10420000  0.78190000  0.25250000  1.0 0.1028008763
H  H38  1  0.52940000  0.85170000  0.74750000  1.0 0.1028008763
H  H39  1  0.14830000  0.89580000  0.67770000  1.0 0.1028008763
H  H40  1  0.21810000  0.47060000  0.32230000  1.0 0.1028008763
H  H41  1  0.28740000  0.93400000  0.15300000  1.0 0.1892673378
H  H42  1  0.78100000  0.13440000  0.84700000  1.0 0.1892673378
H  H43  1  0.86560000  0.71260000  0.64660000  1.0 0.1892673378
H  H44  1  0.06600000  0.21900000  0.35340000  1.0 0.1892673378
H  H45  1  0.07740000  0.82490000  0.20850000  1.0 0.1028008763
H  H46  1  0.61640000  0.86890000  0.79150000  1.0 0.1028008763
H  H47  1  0.13110000  0.92260000  0.74750000  1.0 0.1028008763
H  H48  1  0.17510000  0.38360000  0.25250000  1.0 0.1028008763
H  H49  1  0.61420000  0.33430000  0.35350000  1.0 0.1190811497
H  H50  1  0.98080000  0.26070000  0.64650000  1.0 0.1190811497
H  H51  1  0.73930000  0.38580000  0.72010000  1.0 0.1190811497
H  H52  1  0.66570000  0.01920000  0.27990000  1.0 0.1190811497
H  H53  1  0.83430000  0.45120000  0.30030000  1.0 0.1190811497
H  H54  1  0.15090000  0.53400000  0.69970000  1.0 0.1190811497
H  H55  1  0.46600000  0.16570000  0.61690000  1.0 0.1190811497
H  H56  1  0.54880000  0.84910000  0.38310000  1.0 0.1190811497
H  H57  1  0.55840000  0.26420000  0.10280000  1.0 0.1028008763
H  H58  1  0.16140000  0.45560000  0.89720000  1.0 0.1028008763
H  H59  1  0.54440000  0.44160000  0.70580000  1.0 0.1028008763
H  H60  1  0.73580000  0.83860000  0.29420000  1.0 0.1028008763
H  H61  1  0.34770000  0.15370000  0.16240000  1.0 0.1028008763
H  H62  1  0.99130000  0.18530000  0.83760000  1.0 0.1028008763
H  H63  1  0.81470000  0.65230000  0.80600000  1.0 0.1028008763
H  H64  1  0.84630000  0.00870000  0.19400000  1.0 0.1028008763
C  C1  1  0.41170000  0.26660000  0.36830000  1.0 0.1190811497
C  C2  1  0.89830000  0.04340000  0.63170000  1.0 0.1190811497
C  C3  1  0.95660000  0.58830000  0.85490000  1.0 0.1190811497
C  C4  1  0.73340000  0.10170000  0.14510000  1.0 0.1190811497
C  C5  1  0.00660000  0.92990000  0.32450000  1.0 0.111846268
C  C6  1  0.60540000  0.68210000  0.67550000  1.0 0.111846268
C  C7  1  0.31790000  0.99340000  0.92330000  1.0 0.111846268
C  C8  1  0.07010000  0.39460000  0.07670000  1.0 0.111846268
C  C9  1  0.75820000  0.73270000  0.31690000  1.0 -0.2326699044
C  C10  1  0.41580000  0.44130000  0.68310000  1.0 -0.2326699044
C  C11  1  0.55870000  0.24180000  0.97450000  1.0 -0.2326699044
C  C12  1  0.26730000  0.58420000  0.02550000  1.0 -0.2326699044
C  C13  1  0.58110000  0.56280000  0.25190000  1.0 0.0585898836
C  C14  1  0.31090000  0.32920000  0.74810000  1.0 0.0585898836
C  C15  1  0.67080000  0.41890000  0.98170000  1.0 0.0585898836
C  C16  1  0.43720000  0.68910000  0.01830000  1.0 0.0585898836
C  C17  1  0.33180000  0.36410000  0.24190000  1.0 -0.1416406851
C  C18  1  0.12220000  0.08990000  0.75810000  1.0 -0.1416406851
C  C19  1  0.91010000  0.66820000  0.03230000  1.0 -0.1416406851
C  C20  1  0.63590000  0.87780000  0.96770000  1.0 -0.1416406851
C  C21  1  0.14840000  0.18970000  0.17810000  1.0 -0.1119734426
C  C22  1  0.01160000  0.97030000  0.82190000  1.0 -0.1119734426
C  C23  1  0.02970000  0.85160000  0.04130000  1.0 -0.1119734426
C  C24  1  0.81030000  0.98840000  0.95870000  1.0 -0.1119734426
C  C25  1  0.22710000  0.22390000  0.12300000  1.0 -0.1119734426
C  C26  1  0.10090000  0.10410000  0.87700000  1.0 -0.1119734426
C  C27  1  0.89590000  0.77290000  0.99680000  1.0 -0.1119734426
C  C28  1  0.77610000  0.89910000  0.00320000  1.0 -0.1119734426
C  C29  1  0.47610000  0.42270000  0.13280000  1.0 -0.1589099462
C  C30  1  0.28990000  0.34330000  0.86720000  1.0 -0.1589099462
C  C31  1  0.65670000  0.52390000  0.94660000  1.0 -0.1589099462
C  C32  1  0.57730000  0.71010000  0.05340000  1.0 -0.1589099462
C  C33  1  0.65980000  0.59700000  0.19680000  1.0 0.0815994818
C  C34  1  0.40020000  0.46300000  0.80320000  1.0 0.0815994818
C  C35  1  0.53700000  0.34020000  0.93720000  1.0 0.0815994818
C  C36  1  0.40300000  0.59980000  0.06280000  1.0 0.0815994818
C  C37  1  0.90720000  0.79330000  0.20450000  1.0 -0.2893145676
C  C38  1  0.58880000  0.70270000  0.79550000  1.0 -0.2893145676
C  C39  1  0.29730000  0.09280000  0.88610000  1.0 -0.2893145676
C  C40  1  0.20670000  0.41120000  0.11390000  1.0 -0.2893145676
C  C41  1  0.09540000  0.97830000  0.26770000  1.0 0.093851956
C  C42  1  0.71060000  0.82770000  0.73230000  1.0 0.093851956
C  C43  1  0.17230000  0.90460000  0.88290000  1.0 0.093851956
C  C44  1  0.02170000  0.28940000  0.11710000  1.0 0.093851956
C  C45  1  0.46010000  0.23290000  0.26300000  1.0 0.1028008763
C  C46  1  0.96990000  0.19710000  0.73700000  1.0 0.1028008763
C  C47  1  0.80290000  0.53990000  0.77280000  1.0 0.1028008763
C  C48  1  0.76710000  0.03010000  0.22720000  1.0 0.1028008763
C  C49  1  0.71090000  0.36580000  0.19870000  1.0 0.0028464994
C  C50  1  0.16710000  0.51220000  0.80130000  1.0 0.0028464994
C  C51  1  0.48780000  0.28910000  0.65490000  1.0 0.0028464994
C  C52  1  0.63420000  0.83290000  0.34510000  1.0 0.0028464994
C  C53  1  0.76610000  0.51780000  0.27590000  1.0 -0.0726179104
C  C54  1  0.24190000  0.49020000  0.72410000  1.0 -0.0726179104
C  C55  1  0.50980000  0.23390000  0.75170000  1.0 -0.0726179104
C  C56  1  0.48220000  0.75810000  0.24830000  1.0 -0.0726179104
C  C57  1  0.89790000  0.59010000  0.24400000  1.0 -0.0899749505
C  C58  1  0.34610000  0.65390000  0.75600000  1.0 -0.0899749505
C  C59  1  0.34610000  0.10210000  0.69220000  1.0 -0.0899749505
C  C60  1  0.40990000  0.65390000  0.30780000  1.0 -0.0899749505
C  C61  1  0.40630000  0.07970000  0.18400000  1.0 -0.0726179104
C  C62  1  0.89570000  0.22230000  0.81600000  1.0 -0.0726179104
C  C63  1  0.77770000  0.59370000  0.67340000  1.0 -0.0726179104
C  C64  1  0.92030000  0.10430000  0.32660000  1.0 -0.0726179104
C  C65  1  0.28390000  0.01720000  0.21710000  1.0 -0.0899749505
C  C66  1  0.80010000  0.06680000  0.78290000  1.0 -0.0899749505
C  C67  1  0.93320000  0.71610000  0.73330000  1.0 -0.0899749505
C  C68  1  0.98280000  0.19990000  0.26670000  1.0 -0.0899749505
C  C69  1  0.83860000  0.42690000  0.16150000  1.0 0.4836037759
C  C70  1  0.26540000  0.67710000  0.83850000  1.0 0.4836037759
C  C71  1  0.32290000  0.16140000  0.58830000  1.0 0.4836037759
C  C72  1  0.57310000  0.73460000  0.41170000  1.0 0.4836037759
C  C73  1  0.60460000  0.32150000  0.30410000  1.0 -0.0726179104
C  C74  1  0.01740000  0.30050000  0.69590000  1.0 -0.0726179104
C  C75  1  0.69950000  0.39540000  0.71690000  1.0 -0.0726179104
C  C76  1  0.67850000  0.98260000  0.28310000  1.0 -0.0726179104
C  C77  1  0.73590000  0.39120000  0.27310000  1.0 -0.0377265899
C  C78  1  0.11810000  0.46280000  0.72690000  1.0 -0.0377265899
C  C79  1  0.53720000  0.26410000  0.65530000  1.0 -0.0377265899
C  C80  1  0.60880000  0.88190000  0.34470000  1.0 -0.0377265899
C  C81  1  0.56980000  0.27850000  0.15230000  1.0 -0.0972417663
C  C82  1  0.12620000  0.41750000  0.84770000  1.0 -0.0972417663
C  C83  1  0.58250000  0.43020000  0.70870000  1.0 -0.0972417663
C  C84  1  0.72150000  0.87380000  0.29130000  1.0 -0.0972417663
C  C85  1  0.44690000  0.21430000  0.18920000  1.0 -0.0576632651
C  C86  1  0.02510000  0.25770000  0.81080000  1.0 -0.0576632651
C  C87  1  0.74230000  0.55310000  0.76740000  1.0 -0.0576632651
C  C88  1  0.78570000  0.97490000  0.23260000  1.0 -0.0576632651
N  N1  1  0.22020000  0.12720000  0.38740000  1.0 -0.3436661656
N  N2  1  0.73980000  0.83280000  0.61260000  1.0 -0.3436661656
N  N3  1  0.16720000  0.77980000  0.90700000  1.0 -0.3436661656
N  N4  1  0.87280000  0.26020000  0.09300000  1.0 -0.3436661656
N  N5  1  0.33820000  0.17510000  0.29930000  1.0 -0.1416406851
N  N6  1  0.87580000  0.03890000  0.70070000  1.0 -0.1416406851
N  N7  1  0.96110000  0.66180000  0.83690000  1.0 -0.1416406851
N  N8  1  0.82490000  0.12420000  0.16310000  1.0 -0.1416406851
O  O1  1  0.22600000  0.27830000  0.50430000  1.0 -0.777303278
O  O2  1  0.77400000  0.72170000  0.49570000  1.0 -0.777303278
O  O3  1  0.27830000  0.77400000  0.05230000  1.0 -0.777303278
O  O4  1  0.72170000  0.22600000  0.94770000  1.0 -0.777303278
O  O5  1  0.75670000  0.33000000  0.10070000  1.0 -0.1901648264
O  O6  1  0.22930000  0.65600000  0.89930000  1.0 -0.1901648264
O  O7  1  0.34400000  0.24330000  0.57330000  1.0 -0.1901648264
O  O8  1  0.67000000  0.77070000  0.42670000  1.0 -0.1901648264
O  O9  1  0.73690000  0.27230000  0.19120000  1.0 -0.4647987033
O  O10  1  0.08110000  0.54570000  0.80880000  1.0 -0.4647987033
O  O11  1  0.45430000  0.26310000  0.53540000  1.0 -0.4647987033
O  O12  1  0.72770000  0.91890000  0.46460000  1.0 -0.4647987033
O  O13  1  0.08830000  0.69000000  0.14230000  1.0 -0.3744259174
O  O14  1  0.54770000  0.94600000  0.85770000  1.0 -0.3744259174
O  O15  1  0.05400000  0.91170000  0.60170000  1.0 -0.3744259174
O  O16  1  0.31000000  0.45230000  0.39830000  1.0 -0.3744259174
