# DDEC6 charges by PACMAN v1.1 (https://github.com/mtap-research/PACMAN-charge/)
data_IFEPUG05_FSR_pacman
_symmetry_space_group_name_H-M   'P 1'
_cell_length_a   18.66970000
_cell_length_b   18.66970000
_cell_length_c   18.66970000
_cell_angle_alpha   91.08390000
_cell_angle_beta   91.08390000
_cell_angle_gamma   164.18900000
_symmetry_Int_Tables_number   1
_chemical_formula_structural   ZnH16C22(NO2)2
_chemical_formula_sum   'Zn4 H64 C88 N8 O16'
_cell_volume   1756.20751581
_cell_formula_units_Z   4
loop_
 _symmetry_equiv_pos_site_id
 _symmetry_equiv_pos_as_xyz
  1  'x, y, z'
loop_
 _atom_site_type_symbol
 _atom_site_label
 _atom_site_symmetry_multiplicity
 _atom_site_fract_x
 _atom_site_fract_y
 _atom_site_fract_z
 _atom_site_occupancy
 _atom_site_charge
Zn  Zn1  1  0.14643000  0.09027000  0.48750000  1.0 0.8568777518
Zn  Zn2  1  0.60277000  0.65893000  0.51250000  1.0 0.8568777518
Zn  Zn3  1  0.34107000  0.85357000  0.94384000  1.0 0.8568777518
Zn  Zn4  1  0.90973000  0.39723000  0.05616000  1.0 0.8568777518
H  H1  1  0.11140000  0.18240000  0.47940000  1.0 0.3680133895
H  H2  1  0.70300000  0.63200000  0.52060000  1.0 0.3680133895
H  H3  1  0.36800000  0.88860000  0.07100000  1.0 0.3680133895
H  H4  1  0.81760000  0.29700000  0.92900000  1.0 0.3680133895
H  H5  1  0.47950000  0.30680000  0.39810000  1.0 0.1099964552
H  H6  1  0.90870000  0.08140000  0.60190000  1.0 0.1099964552
H  H7  1  0.91860000  0.52050000  0.82730000  1.0 0.1099964552
H  H8  1  0.69320000  0.09130000  0.17270000  1.0 0.1099964552
H  H9  1  0.69970000  0.69560000  0.36130000  1.0 0.1384240564
H  H10  1  0.33430000  0.33840000  0.63870000  1.0 0.1384240564
H  H11  1  0.66160000  0.30030000  0.99590000  1.0 0.1384240564
H  H12  1  0.30440000  0.66570000  0.00410000  1.0 0.1384240564
H  H13  1  0.30720000  0.35730000  0.28590000  1.0 0.1206049933
H  H14  1  0.07140000  0.02130000  0.71410000  1.0 0.1206049933
H  H15  1  0.97870000  0.69280000  0.05010000  1.0 0.1206049933
H  H16  1  0.64270000  0.92860000  0.94990000  1.0 0.1206049933
H  H17  1  0.02650000  0.08730000  0.17700000  1.0 0.1007443285
H  H18  1  0.91030000  0.84950000  0.82300000  1.0 0.1007443285
H  H19  1  0.15050000  0.97350000  0.06080000  1.0 0.1007443285
H  H20  1  0.91270000  0.08970000  0.93920000  1.0 0.1007443285
H  H21  1  0.13270000  0.11710000  0.08220000  1.0 0.1007443285
H  H22  1  0.03490000  0.05050000  0.91780000  1.0 0.1007443285
H  H23  1  0.94950000  0.86730000  0.98440000  1.0 0.1007443285
H  H24  1  0.88290000  0.96510000  0.01560000  1.0 0.1007443285
H  H25  1  0.51620000  0.41960000  0.09460000  1.0 0.1099964552
H  H26  1  0.32500000  0.42160000  0.90540000  1.0 0.1099964552
H  H27  1  0.57840000  0.48380000  0.90340000  1.0 0.1099964552
H  H28  1  0.58040000  0.67500000  0.09660000  1.0 0.1099964552
H  H29  1  0.90980000  0.75300000  0.16940000  1.0 0.1206049933
H  H30  1  0.58360000  0.74040000  0.83060000  1.0 0.1206049933
H  H31  1  0.25960000  0.09020000  0.84320000  1.0 0.1206049933
H  H32  1  0.24700000  0.41640000  0.15680000  1.0 0.1206049933
H  H33  1  0.75420000  0.52440000  0.32140000  1.0 0.1099964552
H  H34  1  0.20300000  0.43280000  0.67860000  1.0 0.1099964552
H  H35  1  0.56720000  0.24580000  0.77020000  1.0 0.1099964552
H  H36  1  0.47560000  0.79700000  0.22980000  1.0 0.1099964552
H  H37  1  0.98140000  0.65410000  0.26770000  1.0 0.1099964552
H  H38  1  0.38640000  0.71370000  0.73230000  1.0 0.1099964552
H  H39  1  0.28630000  0.01860000  0.67270000  1.0 0.1099964552
H  H40  1  0.34590000  0.61360000  0.32730000  1.0 0.1099964552
H  H41  1  0.30370000  0.94650000  0.14100000  1.0 0.1384240564
H  H42  1  0.80550000  0.16270000  0.85900000  1.0 0.1384240564
H  H43  1  0.83730000  0.69630000  0.64280000  1.0 0.1384240564
H  H44  1  0.05350000  0.19450000  0.35720000  1.0 0.1384240564
H  H45  1  0.08300000  0.82330000  0.19610000  1.0 0.1007443285
H  H46  1  0.62720000  0.88690000  0.80390000  1.0 0.1007443285
H  H47  1  0.11310000  0.91700000  0.74030000  1.0 0.1007443285
H  H48  1  0.17670000  0.37280000  0.25970000  1.0 0.1007443285
H  H49  1  0.51960000  0.23070000  0.35750000  1.0 0.1271370724
H  H50  1  0.87320000  0.16210000  0.64250000  1.0 0.1271370724
H  H51  1  0.83790000  0.48040000  0.71110000  1.0 0.1271370724
H  H52  1  0.76930000  0.12680000  0.28890000  1.0 0.1271370724
H  H53  1  0.74450000  0.35430000  0.30500000  1.0 0.1271370724
H  H54  1  0.04930000  0.43950000  0.69500000  1.0 0.1271370724
H  H55  1  0.56050000  0.25550000  0.60980000  1.0 0.1271370724
H  H56  1  0.64570000  0.95070000  0.39020000  1.0 0.1271370724
H  H57  1  0.52520000  0.22930000  0.10490000  1.0 0.1099964552
H  H58  1  0.12440000  0.42030000  0.89510000  1.0 0.1099964552
H  H59  1  0.57970000  0.47480000  0.70410000  1.0 0.1099964552
H  H60  1  0.77070000  0.87560000  0.29590000  1.0 0.1099964552
H  H61  1  0.31430000  0.11710000  0.16400000  1.0 0.1099964552
H  H62  1  0.95310000  0.15030000  0.83600000  1.0 0.1099964552
H  H63  1  0.84970000  0.68570000  0.80280000  1.0 0.1099964552
H  H64  1  0.88290000  0.04690000  0.19720000  1.0 0.1099964552
C  C1  1  0.32840000  0.17580000  0.36820000  1.0 0.1206049933
C  C2  1  0.80760000  0.96020000  0.63180000  1.0 0.1206049933
C  C3  1  0.03980000  0.67160000  0.84740000  1.0 0.1206049933
C  C4  1  0.82420000  0.19240000  0.15260000  1.0 0.1206049933
C  C5  1  0.96530000  0.88040000  0.33010000  1.0 0.1384240564
C  C6  1  0.55030000  0.63520000  0.66990000  1.0 0.1384240564
C  C7  1  0.36480000  0.03470000  0.91510000  1.0 0.1384240564
C  C8  1  0.11960000  0.44970000  0.08490000  1.0 0.1384240564
C  C9  1  0.74070000  0.70660000  0.32290000  1.0 -0.2283301427
C  C10  1  0.38370000  0.41780000  0.67710000  1.0 -0.2283301427
C  C11  1  0.58220000  0.25930000  0.96590000  1.0 -0.2283301427
C  C12  1  0.29340000  0.61630000  0.03410000  1.0 -0.2283301427
C  C13  1  0.57740000  0.54850000  0.25670000  1.0 0.0698492603
C  C14  1  0.29180000  0.32070000  0.74330000  1.0 0.0698492603
C  C15  1  0.67930000  0.42260000  0.97110000  1.0 0.0698492603
C  C16  1  0.45150000  0.70820000  0.02890000  1.0 0.0698492603
C  C17  1  0.34870000  0.36910000  0.24740000  1.0 -0.1428155079
C  C18  1  0.12170000  0.10130000  0.75260000  1.0 -0.1428155079
C  C19  1  0.89870000  0.65130000  0.02040000  1.0 -0.1428155079
C  C20  1  0.63090000  0.87830000  0.97960000  1.0 -0.1428155079
C  C21  1  0.17900000  0.20610000  0.18250000  1.0 -0.1198923289
C  C22  1  0.02360000  0.99650000  0.81750000  1.0 -0.1198923289
C  C23  1  0.00350000  0.82100000  0.02710000  1.0 -0.1198923289
C  C24  1  0.79390000  0.97640000  0.97290000  1.0 -0.1198923289
C  C25  1  0.24480000  0.22630000  0.12590000  1.0 -0.1036890595
C  C26  1  0.10040000  0.11890000  0.87410000  1.0 -0.1036890595
C  C27  1  0.88110000  0.75520000  0.98150000  1.0 -0.1036890595
C  C28  1  0.77370000  0.89960000  0.01850000  1.0 -0.1036890595
C  C29  1  0.47380000  0.40600000  0.13360000  1.0 -0.1603309399
C  C30  1  0.27240000  0.34020000  0.86640000  1.0 -0.1603309399
C  C31  1  0.65980000  0.52620000  0.93220000  1.0 -0.1603309399
C  C32  1  0.59400000  0.72760000  0.06780000  1.0 -0.1603309399
C  C33  1  0.64330000  0.56850000  0.19960000  1.0 0.087695472
C  C34  1  0.36890000  0.44370000  0.80040000  1.0 0.087695472
C  C35  1  0.55630000  0.35670000  0.92520000  1.0 0.087695472
C  C36  1  0.43150000  0.63110000  0.07480000  1.0 0.087695472
C  C37  1  0.86990000  0.74410000  0.20720000  1.0 -0.278531514
C  C38  1  0.53690000  0.66270000  0.79280000  1.0 -0.278531514
C  C39  1  0.33730000  0.13010000  0.87420000  1.0 -0.278531514
C  C40  1  0.25590000  0.46310000  0.12580000  1.0 -0.278531514
C  C41  1  0.03350000  0.90480000  0.27250000  1.0 0.0797098653
C  C42  1  0.63230000  0.76100000  0.72750000  1.0 0.0797098653
C  C43  1  0.23900000  0.96650000  0.87130000  1.0 0.0797098653
C  C44  1  0.09520000  0.36770000  0.12870000  1.0 0.0797098653
C  C45  1  0.39520000  0.16120000  0.26500000  1.0 0.1007443285
C  C46  1  0.89620000  0.13020000  0.73500000  1.0 0.1007443285
C  C47  1  0.86980000  0.60480000  0.76600000  1.0 0.1007443285
C  C48  1  0.83880000  0.10380000  0.23400000  1.0 0.1007443285
C  C49  1  0.65830000  0.30760000  0.20090000  1.0 0.0079574558
C  C50  1  0.10670000  0.45740000  0.79910000  1.0 0.0079574558
C  C51  1  0.54260000  0.34170000  0.64930000  1.0 0.0079574558
C  C52  1  0.69240000  0.89330000  0.35070000  1.0 0.0079574558
C  C53  1  0.66340000  0.40790000  0.28530000  1.0 -0.0635791116
C  C54  1  0.12260000  0.37810000  0.71470000  1.0 -0.0635791116
C  C55  1  0.62190000  0.33660000  0.74450000  1.0 -0.0635791116
C  C56  1  0.59210000  0.87740000  0.25550000  1.0 -0.0635791116
C  C57  1  0.80050000  0.48690000  0.25380000  1.0 -0.0873911082
C  C58  1  0.23310000  0.54670000  0.74620000  1.0 -0.0873911082
C  C59  1  0.45330000  0.19950000  0.68640000  1.0 -0.0873911082
C  C60  1  0.51310000  0.76690000  0.31360000  1.0 -0.0873911082
C  C61  1  0.39260000  0.06100000  0.17760000  1.0 -0.0502641312
C  C62  1  0.88340000  0.21500000  0.82240000  1.0 -0.0502641312
C  C63  1  0.78500000  0.60740000  0.66840000  1.0 -0.0502641312
C  C64  1  0.93900000  0.11660000  0.33160000  1.0 -0.0502641312
C  C65  1  0.26330000  0.99000000  0.21050000  1.0 -0.0668516572
C  C66  1  0.77950000  0.05280000  0.78950000  1.0 -0.0668516572
C  C67  1  0.94720000  0.73670000  0.72670000  1.0 -0.0668516572
C  C68  1  0.01000000  0.22050000  0.27330000  1.0 -0.0668516572
C  C69  1  0.80960000  0.39630000  0.16390000  1.0 0.5083687381
C  C70  1  0.23240000  0.64570000  0.83610000  1.0 0.5083687381
C  C71  1  0.35430000  0.19040000  0.58670000  1.0 0.5083687381
C  C72  1  0.60370000  0.76760000  0.41330000  1.0 0.5083687381
C  C73  1  0.52320000  0.23260000  0.30780000  1.0 -0.0668516572
C  C74  1  0.92480000  0.21540000  0.69220000  1.0 -0.0668516572
C  C75  1  0.78460000  0.47680000  0.70940000  1.0 -0.0668516572
C  C76  1  0.76740000  0.07520000  0.29060000  1.0 -0.0668516572
C  C77  1  0.65800000  0.30680000  0.27680000  1.0 -0.0425931931
C  C78  1  0.03000000  0.38120000  0.72320000  1.0 -0.0425931931
C  C79  1  0.61880000  0.34200000  0.64880000  1.0 -0.0425931931
C  C80  1  0.69320000  0.97000000  0.35120000  1.0 -0.0425931931
C  C81  1  0.52770000  0.23310000  0.15480000  1.0 -0.0635791116
C  C82  1  0.07830000  0.37290000  0.84520000  1.0 -0.0635791116
C  C83  1  0.62710000  0.47230000  0.70540000  1.0 -0.0635791116
C  C84  1  0.76690000  0.92170000  0.29460000  1.0 -0.0668516572
C  C85  1  0.40110000  0.16430000  0.19140000  1.0 -0.0502641312
C  C86  1  0.97290000  0.20970000  0.80860000  1.0 -0.0502641312
C  C87  1  0.79030000  0.59890000  0.76320000  1.0 -0.0502641312
C  C88  1  0.83570000  0.02710000  0.23680000  1.0 -0.0502641312
N  N1  1  0.15680000  0.05620000  0.38840000  1.0 -0.3345312028
N  N2  1  0.66780000  0.76840000  0.61160000  1.0 -0.3345312028
N  N3  1  0.23160000  0.84320000  0.89940000  1.0 -0.3345312028
N  N4  1  0.94380000  0.33220000  0.10060000  1.0 -0.3345312028
N  N5  1  0.26310000  0.08900000  0.29890000  1.0 -0.1603309399
N  N6  1  0.79010000  0.96420000  0.70110000  1.0 -0.1603309399
N  N7  1  0.03580000  0.73690000  0.82590000  1.0 -0.1603309399
N  N8  1  0.91100000  0.20990000  0.17410000  1.0 -0.1603309399
O  O1  1  0.24400000  0.28330000  0.48910000  1.0 -0.8307867571
O  O2  1  0.79420000  0.75490000  0.51090000  1.0 -0.8307867571
O  O3  1  0.24510000  0.75600000  0.03930000  1.0 -0.8307867571
O  O4  1  0.71670000  0.20580000  0.96070000  1.0 -0.8307867571
O  O5  1  0.70650000  0.26880000  0.10750000  1.0 -0.4817176163
O  O6  1  0.16130000  0.59900000  0.89250000  1.0 -0.4817176163
O  O7  1  0.40100000  0.29350000  0.56230000  1.0 -0.4817176163
O  O8  1  0.73120000  0.83870000  0.43770000  1.0 -0.4817176163
O  O9  1  0.07330000  0.64870000  0.17600000  1.0 -0.3471496849
O  O10  1  0.47270000  0.89730000  0.82400000  1.0 -0.3471496849
O  O11  1  0.10270000  0.92670000  0.57540000  1.0 -0.3471496849
O  O12  1  0.35130000  0.52730000  0.42460000  1.0 -0.3471496849
O  O13  1  0.89910000  0.42600000  0.21710000  1.0 -0.3924913406
O  O14  1  0.20890000  0.68200000  0.78290000  1.0 -0.3924913406
O  O15  1  0.31800000  0.10090000  0.52690000  1.0 -0.3924913406
O  O16  1  0.57400000  0.79110000  0.47310000  1.0 -0.3924913406
