# DDEC6 charges by PACMAN v1.1 (https://github.com/mtap-research/PACMAN-charge/)
data_IFEPUG09_FSR_pacman
_symmetry_space_group_name_H-M   'P 1'
_cell_length_a   18.92100000
_cell_length_b   18.92100000
_cell_length_c   18.92100000
_cell_angle_alpha   90.85450000
_cell_angle_beta   90.85450000
_cell_angle_gamma   165.97100000
_symmetry_Int_Tables_number   1
_chemical_formula_structural   ZnH16C22(NO2)2
_chemical_formula_sum   'Zn4 H64 C88 N8 O16'
_cell_volume   1629.76647708
_cell_formula_units_Z   4
loop_
 _symmetry_equiv_pos_site_id
 _symmetry_equiv_pos_as_xyz
  1  'x, y, z'
loop_
 _atom_site_type_symbol
 _atom_site_label
 _atom_site_symmetry_multiplicity
 _atom_site_fract_x
 _atom_site_fract_y
 _atom_site_fract_z
 _atom_site_occupancy
 _atom_site_charge
Zn  Zn1  1  0.19561000  0.14243000  0.48464000  1.0 0.8045970409
Zn  Zn2  1  0.65779000  0.71097000  0.51536000  1.0 0.8045970409
Zn  Zn3  1  0.28903000  0.80439000  0.94682000  1.0 0.8045970409
Zn  Zn4  1  0.85757000  0.34221000  0.05318000  1.0 0.8045970409
H  H1  1  0.09960000  0.18100000  0.49520000  1.0 0.3355517744
H  H2  1  0.68580000  0.60440000  0.50480000  1.0 0.3355517744
H  H3  1  0.39560000  0.90040000  0.08140000  1.0 0.3355517744
H  H4  1  0.81900000  0.31420000  0.91860000  1.0 0.3355517744
H  H5  1  0.56170000  0.39520000  0.39490000  1.0 0.1117563418
H  H6  1  0.00030000  0.16680000  0.60510000  1.0 0.1117563418
H  H7  1  0.83320000  0.43830000  0.83350000  1.0 0.1117563418
H  H8  1  0.60480000  0.99970000  0.16650000  1.0 0.1117563418
H  H9  1  0.71800000  0.72080000  0.35660000  1.0 0.1297010391
H  H10  1  0.36420000  0.36140000  0.64340000  1.0 0.1297010391
H  H11  1  0.63860000  0.28200000  0.00280000  1.0 0.1297010391
H  H12  1  0.27920000  0.63580000  0.99720000  1.0 0.1297010391
H  H13  1  0.29570000  0.35390000  0.28160000  1.0 0.1206471876
H  H14  1  0.07230000  0.01410000  0.71840000  1.0 0.1206471876
H  H15  1  0.98590000  0.70430000  0.05820000  1.0 0.1206471876
H  H16  1  0.64610000  0.92770000  0.94180000  1.0 0.1206471876
H  H17  1  0.99740000  0.06800000  0.17500000  1.0 0.1008193956
H  H18  1  0.89300000  0.82240000  0.82500000  1.0 0.1008193956
H  H19  1  0.17760000  0.00260000  0.07060000  1.0 0.1008193956
H  H20  1  0.93200000  0.10700000  0.92940000  1.0 0.1008193956
H  H21  1  0.10750000  0.10280000  0.08110000  1.0 0.1008193956
H  H22  1  0.02170000  0.02640000  0.91890000  1.0 0.1008193956
H  H23  1  0.97360000  0.89250000  0.99530000  1.0 0.1008193956
H  H24  1  0.89720000  0.97830000  0.00470000  1.0 0.1008193956
H  H25  1  0.51750000  0.43040000  0.09630000  1.0 0.1117563418
H  H26  1  0.33410000  0.42120000  0.90370000  1.0 0.1117563418
H  H27  1  0.57880000  0.48250000  0.91290000  1.0 0.1117563418
H  H28  1  0.56960000  0.66590000  0.08710000  1.0 0.1117563418
H  H29  1  0.94590000  0.79970000  0.16840000  1.0 0.1206471876
H  H30  1  0.63130000  0.77750000  0.83160000  1.0 0.1206471876
H  H31  1  0.22250000  0.05410000  0.85380000  1.0 0.1206471876
H  H32  1  0.20030000  0.36870000  0.14620000  1.0 0.1206471876
H  H33  1  0.87070000  0.64510000  0.31160000  1.0 0.1117563418
H  H34  1  0.33350000  0.55910000  0.68840000  1.0 0.1117563418
H  H35  1  0.44090000  0.12930000  0.77440000  1.0 0.1117563418
H  H36  1  0.35490000  0.66650000  0.22560000  1.0 0.1117563418
H  H37  1  0.08130000  0.75610000  0.25620000  1.0 0.1008193956
H  H38  1  0.49990000  0.82510000  0.74380000  1.0 0.1008193956
H  H39  1  0.17490000  0.91870000  0.67480000  1.0 0.1008193956
H  H40  1  0.24390000  0.50010000  0.32520000  1.0 0.1008193956
H  H41  1  0.29100000  0.94280000  0.14780000  1.0 0.1552602708
H  H42  1  0.79500000  0.14320000  0.85220000  1.0 0.1552602708
H  H43  1  0.85680000  0.70900000  0.65180000  1.0 0.1552602708
H  H44  1  0.05720000  0.20500000  0.34820000  1.0 0.1552602708
H  H45  1  0.08850000  0.84000000  0.20470000  1.0 0.1008193956
H  H46  1  0.63530000  0.88380000  0.79530000  1.0 0.1008193956
H  H47  1  0.11620000  0.91150000  0.75150000  1.0 0.1008193956
H  H48  1  0.16000000  0.36470000  0.24850000  1.0 0.1008193956
H  H49  1  0.60410000  0.32330000  0.35420000  1.0 0.1206471876
H  H50  1  0.96910000  0.24990000  0.64580000  1.0 0.1206471876
H  H51  1  0.75010000  0.39590000  0.71920000  1.0 0.1206471876
H  H52  1  0.67670000  0.03090000  0.28080000  1.0 0.1206471876
H  H53  1  0.81530000  0.43190000  0.29980000  1.0 0.1206471876
H  H54  1  0.13210000  0.51550000  0.70020000  1.0 0.1206471876
H  H55  1  0.48450000  0.18470000  0.61660000  1.0 0.1206471876
H  H56  1  0.56810000  0.86790000  0.38340000  1.0 0.1206471876
H  H57  1  0.55530000  0.26400000  0.10370000  1.0 0.1008193956
H  H58  1  0.16030000  0.45160000  0.89630000  1.0 0.1008193956
H  H59  1  0.54840000  0.44470000  0.70870000  1.0 0.1008193956
H  H60  1  0.73600000  0.83970000  0.29130000  1.0 0.1008193956
H  H61  1  0.35420000  0.16270000  0.16410000  1.0 0.1008193956
H  H62  1  0.99860000  0.19010000  0.83590000  1.0 0.1008193956
H  H63  1  0.80990000  0.64580000  0.80850000  1.0 0.1008193956
H  H64  1  0.83730000  0.00140000  0.19150000  1.0 0.1008193956
C  C1  1  0.39760000  0.25290000  0.36650000  1.0 0.139980635
C  C2  1  0.88640000  0.03110000  0.63350000  1.0 0.139980635
C  C3  1  0.96890000  0.60240000  0.85530000  1.0 0.139980635
C  C4  1  0.74710000  0.11360000  0.14470000  1.0 0.139980635
C  C5  1  0.00720000  0.92970000  0.32670000  1.0 0.1117563418
C  C6  1  0.60300000  0.68050000  0.67330000  1.0 0.1117563418
C  C7  1  0.31950000  0.99280000  0.92250000  1.0 0.1117563418
C  C8  1  0.07030000  0.39700000  0.07750000  1.0 0.1117563418
C  C9  1  0.76360000  0.73670000  0.31890000  1.0 -0.2176451959
C  C10  1  0.41780000  0.44470000  0.68110000  1.0 -0.2176451959
C  C11  1  0.55530000  0.23640000  0.97310000  1.0 -0.2176451959
C  C12  1  0.26330000  0.58220000  0.02690000  1.0 -0.2176451959
C  C13  1  0.58860000  0.56770000  0.25410000  1.0 0.0651516228
C  C14  1  0.31360000  0.33450000  0.74590000  1.0 0.0651516228
C  C15  1  0.66550000  0.41140000  0.97910000  1.0 0.0651516228
C  C16  1  0.43230000  0.68640000  0.02090000  1.0 0.0651516228
C  C17  1  0.34160000  0.37020000  0.24380000  1.0 -0.1358658017
C  C18  1  0.12640000  0.09780000  0.75620000  1.0 -0.1358658017
C  C19  1  0.90220000  0.65840000  0.02860000  1.0 -0.1347174437
C  C20  1  0.62980000  0.87360000  0.97140000  1.0 -0.1358658017
C  C21  1  0.16060000  0.19690000  0.18030000  1.0 -0.1082406693
C  C22  1  0.01660000  0.98030000  0.81970000  1.0 -0.1082406693
C  C23  1  0.01970000  0.83940000  0.03630000  1.0 -0.1082406693
C  C24  1  0.80310000  0.98340000  0.96370000  1.0 -0.1082406693
C  C25  1  0.22670000  0.21860000  0.12450000  1.0 -0.1047183365
C  C26  1  0.09410000  0.10220000  0.87550000  1.0 -0.1047183365
C  C27  1  0.89780000  0.77330000  0.99190000  1.0 -0.1047183365
C  C28  1  0.78140000  0.90590000  0.00810000  1.0 -0.1047183365
C  C29  1  0.47200000  0.41420000  0.13420000  1.0 -0.1631385029
C  C30  1  0.28000000  0.33780000  0.86580000  1.0 -0.1631385029
C  C31  1  0.66220000  0.52800000  0.94220000  1.0 -0.1631385029
C  C32  1  0.58580000  0.72000000  0.05780000  1.0 -0.1631385029
C  C33  1  0.65460000  0.58880000  0.19800000  1.0 0.08196204
C  C34  1  0.39080000  0.45660000  0.80200000  1.0 0.08196204
C  C35  1  0.54340000  0.34540000  0.93420000  1.0 0.08196204
C  C36  1  0.41120000  0.60920000  0.06580000  1.0 0.08196204
C  C37  1  0.89840000  0.78170000  0.20610000  1.0 -0.2840001077
C  C38  1  0.57560000  0.69230000  0.79390000  1.0 -0.2840001077
C  C39  1  0.30770000  0.10160000  0.88330000  1.0 -0.2840001077
C  C40  1  0.21830000  0.42440000  0.11670000  1.0 -0.2840001077
C  C41  1  0.06880000  0.94620000  0.27100000  1.0 0.0902283474
C  C42  1  0.67520000  0.79780000  0.72900000  1.0 0.0902283474
C  C43  1  0.20220000  0.93120000  0.87740000  1.0 0.0902283474
C  C44  1  0.05380000  0.32480000  0.12260000  1.0 0.0902283474
C  C45  1  0.45830000  0.23190000  0.26420000  1.0 0.1008193956
C  C46  1  0.96770000  0.19410000  0.73580000  1.0 0.1008193956
C  C47  1  0.80590000  0.54170000  0.77360000  1.0 0.1008193956
C  C48  1  0.76810000  0.03230000  0.22640000  1.0 0.1008193956
C  C49  1  0.70270000  0.35720000  0.19790000  1.0 0.0089825395
C  C50  1  0.15930000  0.50480000  0.80210000  1.0 0.0089825395
C  C51  1  0.49520000  0.29730000  0.65450000  1.0 0.0089825395
C  C52  1  0.64280000  0.84070000  0.34550000  1.0 0.0089825395
C  C53  1  0.75450000  0.50420000  0.27870000  1.0 -0.0710150839
C  C54  1  0.22550000  0.47580000  0.72130000  1.0 -0.0710150839
C  C55  1  0.52420000  0.24550000  0.74970000  1.0 -0.0710150839
C  C56  1  0.49580000  0.77450000  0.25030000  1.0 -0.0710150839
C  C57  1  0.88190000  0.57220000  0.24610000  1.0 -0.089325098
C  C58  1  0.32610000  0.63580000  0.75390000  1.0 -0.089325098
C  C59  1  0.36420000  0.11810000  0.69030000  1.0 -0.089325098
C  C60  1  0.42780000  0.67390000  0.30970000  1.0 -0.089325098
C  C61  1  0.40630000  0.08270000  0.18100000  1.0 -0.0605835074
C  C62  1  0.90170000  0.22530000  0.81900000  1.0 -0.0605835074
C  C63  1  0.77470000  0.59370000  0.67640000  1.0 -0.0605835074
C  C64  1  0.91730000  0.09830000  0.32360000  1.0 -0.0605835074
C  C65  1  0.28750000  0.02350000  0.21500000  1.0 -0.0791128033
C  C66  1  0.80850000  0.07250000  0.78500000  1.0 -0.0791128033
C  C67  1  0.92750000  0.71250000  0.73600000  1.0 -0.0791128033
C  C68  1  0.97650000  0.19150000  0.26400000  1.0 -0.0791128033
C  C69  1  0.80160000  0.38330000  0.16890000  1.0 0.49731507
C  C70  1  0.21440000  0.63270000  0.83110000  1.0 0.49731507
C  C71  1  0.36730000  0.19840000  0.58170000  1.0 0.49731507
C  C72  1  0.61670000  0.78560000  0.41830000  1.0 0.49731507
C  C73  1  0.59500000  0.31190000  0.30490000  1.0 -0.0791128033
C  C74  1  0.00700000  0.29010000  0.69510000  1.0 -0.0791128033
C  C75  1  0.70990000  0.40500000  0.71690000  1.0 -0.0791128033
C  C76  1  0.68810000  0.99300000  0.28310000  1.0 -0.0791128033
C  C77  1  0.72170000  0.37700000  0.27270000  1.0 -0.0352543934
C  C78  1  0.10430000  0.44900000  0.72730000  1.0 -0.0352543934
C  C79  1  0.55100000  0.27830000  0.65530000  1.0 -0.0352543934
C  C80  1  0.62300000  0.89570000  0.34470000  1.0 -0.0352543934
C  C81  1  0.56630000  0.27680000  0.15310000  1.0 -0.089325098
C  C82  1  0.12370000  0.41320000  0.84690000  1.0 -0.089325098
C  C83  1  0.58680000  0.43370000  0.71050000  1.0 -0.089325098
C  C84  1  0.72320000  0.87630000  0.28950000  1.0 -0.089325098
C  C85  1  0.44760000  0.21690000  0.19050000  1.0 -0.0514748885
C  C86  1  0.02640000  0.25710000  0.80950000  1.0 -0.0514748885
C  C87  1  0.74290000  0.55240000  0.76930000  1.0 -0.0514748885
C  C88  1  0.78310000  0.97360000  0.23070000  1.0 -0.0514748885
N  N1  1  0.22110000  0.12840000  0.38950000  1.0 -0.3520330877
N  N2  1  0.73890000  0.83160000  0.61050000  1.0 -0.3520330877
N  N3  1  0.16840000  0.77890000  0.90730000  1.0 -0.3520330877
N  N4  1  0.87160000  0.26110000  0.09270000  1.0 -0.3520330877
N  N5  1  0.32520000  0.16040000  0.29800000  1.0 -0.1669989207
N  N6  1  0.86240000  0.02720000  0.70200000  1.0 -0.1669989207
N  N7  1  0.97280000  0.67480000  0.83520000  1.0 -0.1669989207
N  N8  1  0.83960000  0.13760000  0.16480000  1.0 -0.1669989207
O  O1  1  0.23860000  0.28670000  0.50530000  1.0 -0.7742771497
O  O2  1  0.78140000  0.73330000  0.49470000  1.0 -0.7742771497
O  O3  1  0.26670000  0.76140000  0.04810000  1.0 -0.7742771497
O  O4  1  0.71330000  0.21860000  0.95190000  1.0 -0.7758511693
O  O5  1  0.74850000  0.31940000  0.10590000  1.0 -0.2134177328
O  O6  1  0.21350000  0.64260000  0.89410000  1.0 -0.2134177328
O  O7  1  0.35740000  0.25150000  0.57090000  1.0 -0.2134177328
O  O8  1  0.68060000  0.78650000  0.42910000  1.0 -0.2134177328
O  O9  1  0.77410000  0.30220000  0.20830000  1.0 -0.5034294517
O  O10  1  0.09390000  0.56580000  0.79170000  1.0 -0.5034294517
O  O11  1  0.43420000  0.22590000  0.52810000  1.0 -0.5034294517
O  O12  1  0.69780000  0.90610000  0.47190000  1.0 -0.5034294517
O  O13  1  0.04950000  0.63620000  0.14770000  1.0 -0.3654339801
O  O14  1  0.48850000  0.90180000  0.85230000  1.0 -0.3654339801
O  O15  1  0.09820000  0.95050000  0.58670000  1.0 -0.3654339801
O  O16  1  0.36380000  0.51150000  0.41330000  1.0 -0.3637189359
