# DDEC6 charges by PACMAN v1.1 (https://github.com/mtap-research/PACMAN-charge/)
data_IFEPUG08_ASR_pacman
_symmetry_space_group_name_H-M   'P 1'
_cell_length_a   18.83040000
_cell_length_b   18.83040000
_cell_length_c   18.83040000
_cell_angle_alpha   90.89680000
_cell_angle_beta   90.89680000
_cell_angle_gamma   165.62600000
_symmetry_Int_Tables_number   1
_chemical_formula_structural   ZnH16C22(NO2)2
_chemical_formula_sum   'Zn4 H64 C88 N8 O16'
_cell_volume   1644.53472696
_cell_formula_units_Z   4
loop_
 _symmetry_equiv_pos_site_id
 _symmetry_equiv_pos_as_xyz
  1  'x, y, z'
loop_
 _atom_site_type_symbol
 _atom_site_label
 _atom_site_symmetry_multiplicity
 _atom_site_fract_x
 _atom_site_fract_y
 _atom_site_fract_z
 _atom_site_occupancy
 _atom_site_charge
Zn  Zn1  1  0.18399000  0.13038000  0.48517000  1.0 0.8148341511
Zn  Zn2  1  0.64521000  0.69882000  0.51483000  1.0 0.8148341511
Zn  Zn3  1  0.30118000  0.81601000  0.94639000  1.0 0.8148341511
Zn  Zn4  1  0.86962000  0.35479000  0.05361000  1.0 0.8148341511
H  H1  1  0.09860000  0.17640000  0.49260000  1.0 0.34694441
H  H2  1  0.68380000  0.60600000  0.50740000  1.0 0.34694441
H  H3  1  0.39400000  0.90140000  0.07780000  1.0 0.34694441
H  H4  1  0.82360000  0.31620000  0.92220000  1.0 0.34694441
H  H5  1  0.55280000  0.38580000  0.39340000  1.0 0.1120696486
H  H6  1  0.99240000  0.15940000  0.60660000  1.0 0.1120696486
H  H7  1  0.84060000  0.44720000  0.83300000  1.0 0.1120696486
H  H8  1  0.61420000  0.00760000  0.16700000  1.0 0.1120696486
H  H9  1  0.71200000  0.71570000  0.35870000  1.0 0.1343971971
H  H10  1  0.35700000  0.35330000  0.64130000  1.0 0.1343971971
H  H11  1  0.64670000  0.28800000  0.00370000  1.0 0.1343971971
H  H12  1  0.28430000  0.64300000  0.99630000  1.0 0.1343971971
H  H13  1  0.29670000  0.35420000  0.28470000  1.0 0.1204833483
H  H14  1  0.06950000  0.01200000  0.71530000  1.0 0.1204833483
H  H15  1  0.98800000  0.70330000  0.05750000  1.0 0.1204833483
H  H16  1  0.64580000  0.93050000  0.94250000  1.0 0.1204833483
H  H17  1  0.99540000  0.06440000  0.17660000  1.0 0.1013356195
H  H18  1  0.88780000  0.81880000  0.82340000  1.0 0.1013356195
H  H19  1  0.18120000  0.00460000  0.06900000  1.0 0.1013356195
H  H20  1  0.93560000  0.11220000  0.93100000  1.0 0.1013356195
H  H21  1  0.11420000  0.10720000  0.08300000  1.0 0.1013356195
H  H22  1  0.02420000  0.03120000  0.91700000  1.0 0.1013356195
H  H23  1  0.96880000  0.88580000  0.99300000  1.0 0.1013356195
H  H24  1  0.89280000  0.97580000  0.00700000  1.0 0.1013356195
H  H25  1  0.51900000  0.42910000  0.09650000  1.0 0.1204833483
H  H26  1  0.33260000  0.42250000  0.90350000  1.0 0.1204833483
H  H27  1  0.57750000  0.48100000  0.91010000  1.0 0.1204833483
H  H28  1  0.57090000  0.66740000  0.08990000  1.0 0.1204833483
H  H29  1  0.94520000  0.79600000  0.16960000  1.0 0.1204833483
H  H30  1  0.62640000  0.77560000  0.83040000  1.0 0.1204833483
H  H31  1  0.22440000  0.05480000  0.85080000  1.0 0.1204833483
H  H32  1  0.20400000  0.37360000  0.14920000  1.0 0.1204833483
H  H33  1  0.57380000  0.29300000  0.35620000  1.0 0.1204833483
H  H34  1  0.93680000  0.21760000  0.64380000  1.0 0.1204833483
H  H35  1  0.78240000  0.42620000  0.71920000  1.0 0.1204833483
H  H36  1  0.70700000  0.06320000  0.28080000  1.0 0.1204833483
H  H37  1  0.78960000  0.40460000  0.30460000  1.0 0.1204833483
H  H38  1  0.10000000  0.48500000  0.69540000  1.0 0.1204833483
H  H39  1  0.51500000  0.21040000  0.61500000  1.0 0.1204833483
H  H40  1  0.59540000  0.90000000  0.38500000  1.0 0.1204833483
H  H41  1  0.55740000  0.26210000  0.10530000  1.0 0.1013356195
H  H42  1  0.15680000  0.45210000  0.89470000  1.0 0.1013356195
H  H43  1  0.54790000  0.44260000  0.70470000  1.0 0.1013356195
H  H44  1  0.73790000  0.84320000  0.29530000  1.0 0.1013356195
H  H45  1  0.35000000  0.15590000  0.16310000  1.0 0.1013356195
H  H46  1  0.99280000  0.18690000  0.83690000  1.0 0.1013356195
H  H47  1  0.81310000  0.65000000  0.80590000  1.0 0.1013356195
H  H48  1  0.84410000  0.00720000  0.19410000  1.0 0.1013356195
H  H49  1  0.84520000  0.62130000  0.31170000  1.0 0.1120696486
H  H50  1  0.30960000  0.53350000  0.68830000  1.0 0.1120696486
H  H51  1  0.46650000  0.15480000  0.77610000  1.0 0.1120696486
H  H52  1  0.37870000  0.69040000  0.22390000  1.0 0.1120696486
H  H53  1  0.06000000  0.73490000  0.25890000  1.0 0.1013356195
H  H54  1  0.47600000  0.80110000  0.74110000  1.0 0.1013356195
H  H55  1  0.19890000  0.94000000  0.67490000  1.0 0.1013356195
H  H56  1  0.26510000  0.52400000  0.32510000  1.0 0.1013356195
H  H57  1  0.28960000  0.93540000  0.15100000  1.0 0.1204833483
H  H58  1  0.78440000  0.13860000  0.84900000  1.0 0.1204833483
H  H59  1  0.86140000  0.71040000  0.64580000  1.0 0.1204833483
H  H60  1  0.06460000  0.21560000  0.35420000  1.0 0.1204833483
H  H61  1  0.08210000  0.82960000  0.20510000  1.0 0.1013356195
H  H62  1  0.62450000  0.87700000  0.79490000  1.0 0.1013356195
H  H63  1  0.12300000  0.91790000  0.74750000  1.0 0.1013356195
H  H64  1  0.17040000  0.37550000  0.25250000  1.0 0.1013356195
C  C1  1  0.38930000  0.24390000  0.36520000  1.0 0.1384719569
C  C2  1  0.87870000  0.02410000  0.63480000  1.0 0.1384719569
C  C3  1  0.97590000  0.61070000  0.85460000  1.0 0.1384719569
C  C4  1  0.75610000  0.12130000  0.14540000  1.0 0.1384719569
C  C5  1  0.99890000  0.92210000  0.32860000  1.0 0.1204833483
C  C6  1  0.59350000  0.67030000  0.67140000  1.0 0.1204833483
C  C7  1  0.32970000  0.00110000  0.92320000  1.0 0.1204833483
C  C8  1  0.07790000  0.40650000  0.07680000  1.0 0.1204833483
C  C9  1  0.75770000  0.73130000  0.32100000  1.0 -0.2108304616
C  C10  1  0.41030000  0.43670000  0.67900000  1.0 -0.2108304616
C  C11  1  0.56330000  0.24230000  0.97360000  1.0 -0.2108304616
C  C12  1  0.26870000  0.58970000  0.02640000  1.0 -0.2108304616
C  C13  1  0.58360000  0.56180000  0.25520000  1.0 0.0613877956
C  C14  1  0.30660000  0.32840000  0.74480000  1.0 0.0613877956
C  C15  1  0.67160000  0.41640000  0.97820000  1.0 0.0613877956
C  C16  1  0.43820000  0.69340000  0.02180000  1.0 0.0613877956
C  C17  1  0.34020000  0.36820000  0.24640000  1.0 -0.1355588366
C  C18  1  0.12180000  0.09380000  0.75360000  1.0 -0.1355588366
C  C19  1  0.90620000  0.65980000  0.02800000  1.0 -0.1355588366
C  C20  1  0.63180000  0.87820000  0.97200000  1.0 -0.1355588366
C  C21  1  0.15840000  0.19370000  0.18210000  1.0 -0.1101001393
C  C22  1  0.01160000  0.97630000  0.81790000  1.0 -0.1101001393
C  C23  1  0.02370000  0.84160000  0.03530000  1.0 -0.1101001393
C  C24  1  0.80630000  0.98840000  0.96470000  1.0 -0.1101001393
C  C25  1  0.23150000  0.22130000  0.12660000  1.0 -0.1101001393
C  C26  1  0.09470000  0.10490000  0.87340000  1.0 -0.1101001393
C  C27  1  0.89510000  0.76850000  0.98980000  1.0 -0.1101001393
C  C28  1  0.77870000  0.90530000  0.01020000  1.0 -0.1101001393
C  C29  1  0.47560000  0.41510000  0.13470000  1.0 -0.1625692625
C  C30  1  0.28040000  0.34090000  0.86530000  1.0 -0.1625692625
C  C31  1  0.65910000  0.52440000  0.93950000  1.0 -0.1625692625
C  C32  1  0.58490000  0.71960000  0.06050000  1.0 -0.1625692625
C  C33  1  0.65720000  0.58980000  0.19940000  1.0 0.0849308927
C  C34  1  0.39040000  0.45780000  0.80060000  1.0 0.0849308927
C  C35  1  0.54220000  0.34280000  0.93260000  1.0 0.0849308927
C  C36  1  0.41020000  0.60960000  0.06740000  1.0 0.0849308927
C  C37  1  0.89980000  0.78110000  0.20690000  1.0 -0.2883311775
C  C38  1  0.57420000  0.69290000  0.79310000  1.0 -0.2883311775
C  C39  1  0.30710000  0.10020000  0.88130000  1.0 -0.2883311775
C  C40  1  0.21890000  0.42580000  0.11870000  1.0 -0.2883311775
C  C41  1  0.07130000  0.94940000  0.27270000  1.0 0.090531211
C  C42  1  0.67670000  0.79860000  0.72730000  1.0 0.090531211
C  C43  1  0.20140000  0.92870000  0.87810000  1.0 0.090531211
C  C44  1  0.05060000  0.32330000  0.12190000  1.0 0.090531211
C  C45  1  0.44190000  0.21390000  0.26380000  1.0 0.1120696486
C  C46  1  0.95010000  0.17810000  0.73620000  1.0 0.1120696486
C  C47  1  0.82190000  0.55810000  0.77200000  1.0 0.1120696486
C  C48  1  0.78610000  0.04990000  0.22800000  1.0 0.1120696486
C  C49  1  0.69060000  0.34300000  0.20160000  1.0 0.0121719554
C  C50  1  0.14140000  0.48900000  0.79840000  1.0 0.0121719554
C  C51  1  0.51100000  0.30940000  0.65240000  1.0 0.0121719554
C  C52  1  0.65700000  0.85860000  0.34760000  1.0 0.0121719554
C  C53  1  0.57140000  0.28730000  0.30670000  1.0 -0.0729689937
C  C54  1  0.98060000  0.26470000  0.69330000  1.0 -0.0729689937
C  C55  1  0.73530000  0.42860000  0.71590000  1.0 -0.0729689937
C  C56  1  0.71270000  0.01940000  0.28410000  1.0 -0.0729689937
C  C57  1  0.70140000  0.35510000  0.27650000  1.0 -0.0388025533
C  C58  1  0.07860000  0.42490000  0.72350000  1.0 -0.0388025533
C  C59  1  0.57510000  0.29860000  0.65370000  1.0 -0.0388025533
C  C60  1  0.64490000  0.92140000  0.34630000  1.0 -0.0388025533
C  C61  1  0.56160000  0.26910000  0.15470000  1.0 -0.0906965252
C  C62  1  0.11440000  0.40690000  0.84530000  1.0 -0.0906965252
C  C63  1  0.59310000  0.43840000  0.70750000  1.0 -0.0906965252
C  C64  1  0.73090000  0.88560000  0.29250000  1.0 -0.0906965252
C  C65  1  0.43990000  0.20670000  0.19060000  1.0 -0.0521835968
C  C66  1  0.01610000  0.24930000  0.80940000  1.0 -0.0521835968
C  C67  1  0.75070000  0.56010000  0.76680000  1.0 -0.0521835968
C  C68  1  0.79330000  0.98390000  0.23320000  1.0 -0.0521835968
C  C69  1  0.80110000  0.38190000  0.17100000  1.0 0.4815111194
C  C70  1  0.21090000  0.63010000  0.82900000  1.0 0.4815111194
C  C71  1  0.36990000  0.19890000  0.58080000  1.0 0.4815111194
C  C72  1  0.61810000  0.78910000  0.41920000  1.0 0.4815111194
C  C73  1  0.73390000  0.48360000  0.27950000  1.0 -0.0729689937
C  C74  1  0.20410000  0.45440000  0.72050000  1.0 -0.0729689937
C  C75  1  0.54560000  0.26610000  0.74970000  1.0 -0.0729689937
C  C76  1  0.51640000  0.79590000  0.25030000  1.0 -0.0729689937
C  C77  1  0.86340000  0.55310000  0.24850000  1.0 -0.096260155
C  C78  1  0.30460000  0.61490000  0.75150000  1.0 -0.096260155
C  C79  1  0.38510000  0.13660000  0.68970000  1.0 -0.096260155
C  C80  1  0.44690000  0.69540000  0.31030000  1.0 -0.096260155
C  C81  1  0.39970000  0.07180000  0.18350000  1.0 -0.0521835968
C  C82  1  0.88830000  0.21620000  0.81650000  1.0 -0.0521835968
C  C83  1  0.78380000  0.60030000  0.67210000  1.0 -0.0521835968
C  C84  1  0.92820000  0.11170000  0.32790000  1.0 -0.0521835968
C  C85  1  0.27860000  0.01130000  0.21590000  1.0 -0.0800473806
C  C86  1  0.79540000  0.06270000  0.78410000  1.0 -0.0800473806
C  C87  1  0.93730000  0.72140000  0.73270000  1.0 -0.0800473806
C  C88  1  0.98870000  0.20460000  0.26730000  1.0 -0.0800473806
N  N1  1  0.21920000  0.12540000  0.39060000  1.0 -0.36121944
N  N2  1  0.73480000  0.82860000  0.60940000  1.0 -0.36121944
N  N3  1  0.17140000  0.78080000  0.90620000  1.0 -0.36121944
N  N4  1  0.87460000  0.26520000  0.09380000  1.0 -0.36121944
N  N5  1  0.32100000  0.15440000  0.29660000  1.0 -0.1842679348
N  N6  1  0.85780000  0.02440000  0.70340000  1.0 -0.1842679348
N  N7  1  0.97560000  0.67900000  0.83340000  1.0 -0.1842679348
N  N8  1  0.84560000  0.14220000  0.16660000  1.0 -0.1842679348
O  O1  1  0.23710000  0.28170000  0.50280000  1.0 -0.7738060769
O  O2  1  0.77890000  0.73430000  0.49720000  1.0 -0.7738060769
O  O3  1  0.26570000  0.76290000  0.04460000  1.0 -0.7738060769
O  O4  1  0.71830000  0.22110000  0.95540000  1.0 -0.7738060769
O  O5  1  0.73330000  0.30140000  0.10870000  1.0 -0.3432350274
O  O6  1  0.19270000  0.62460000  0.89130000  1.0 -0.3432350274
O  O7  1  0.37540000  0.26670000  0.56810000  1.0 -0.3432350274
O  O8  1  0.69860000  0.80730000  0.43190000  1.0 -0.3432350274
O  O9  1  0.80100000  0.32130000  0.20430000  1.0 -0.3734214719
O  O10  1  0.11700000  0.59670000  0.79570000  1.0 -0.3734214719
O  O11  1  0.40330000  0.19900000  0.52030000  1.0 -0.3734214719
O  O12  1  0.67870000  0.88300000  0.47970000  1.0 -0.3734214719
O  O13  1  0.07470000  0.64170000  0.17440000  1.0 -0.3432350274
O  O14  1  0.46730000  0.90030000  0.82560000  1.0 -0.3432350274
O  O15  1  0.09970000  0.92530000  0.56700000  1.0 -0.3432350274
O  O16  1  0.35830000  0.53270000  0.43300000  1.0 -0.3432350274
