# DDEC6 charges by PACMAN v1.1 (https://github.com/mtap-research/PACMAN-charge/)
data_IFEPUG01_ASR_pacman
_symmetry_space_group_name_H-M   'P 1'
_cell_length_a   18.89850000
_cell_length_b   18.89850000
_cell_length_c   18.89850000
_cell_angle_alpha   90.82650000
_cell_angle_beta   90.82650000
_cell_angle_gamma   166.20400000
_symmetry_Int_Tables_number   1
_chemical_formula_structural   ZnH16C22(NO2)2
_chemical_formula_sum   'Zn4 H64 C88 N8 O16'
_cell_volume   1597.91157902
_cell_formula_units_Z   4
loop_
 _symmetry_equiv_pos_site_id
 _symmetry_equiv_pos_as_xyz
  1  'x, y, z'
loop_
 _atom_site_type_symbol
 _atom_site_label
 _atom_site_symmetry_multiplicity
 _atom_site_fract_x
 _atom_site_fract_y
 _atom_site_fract_z
 _atom_site_occupancy
 _atom_site_charge
Zn  Zn1  1  0.20884000  0.15574000  0.48418000  1.0 0.8043186484
Zn  Zn2  1  0.67156000  0.72466000  0.51582000  1.0 0.8043186484
Zn  Zn3  1  0.27534000  0.79116000  0.94690000  1.0 0.8043186484
Zn  Zn4  1  0.84426000  0.32844000  0.05310000  1.0 0.8043186484
H  H1  1  0.08850000  0.17300000  0.49450000  1.0 0.3273892818
H  H2  1  0.67850000  0.59400000  0.50550000  1.0 0.3273892818
H  H3  1  0.40600000  0.91150000  0.08450000  1.0 0.3273892818
H  H4  1  0.82700000  0.32150000  0.91550000  1.0 0.3273892818
H  H5  1  0.57900000  0.41390000  0.39850000  1.0 0.1184791742
H  H6  1  0.01540000  0.18050000  0.60150000  1.0 0.1184791742
H  H7  1  0.81950000  0.42100000  0.83490000  1.0 0.1184791742
H  H8  1  0.58610000  0.98460000  0.16510000  1.0 0.1184791742
H  H9  1  0.71620000  0.72090000  0.35690000  1.0 0.1311340748
H  H10  1  0.36400000  0.35930000  0.64310000  1.0 0.1311340748
H  H11  1  0.64070000  0.28380000  0.00470000  1.0 0.1311340748
H  H12  1  0.27910000  0.63600000  0.99530000  1.0 0.1311340748
H  H13  1  0.28770000  0.34960000  0.28210000  1.0 0.1108795492
H  H14  1  0.06750000  0.00560000  0.71790000  1.0 0.1108795492
H  H15  1  0.99440000  0.71230000  0.06190000  1.0 0.1108795492
H  H16  1  0.65040000  0.93250000  0.93810000  1.0 0.1108795492
H  H17  1  0.98090000  0.05520000  0.17350000  1.0 0.1012355098
H  H18  1  0.88170000  0.80740000  0.82650000  1.0 0.1012355098
H  H19  1  0.19260000  0.01910000  0.07430000  1.0 0.1012355098
H  H20  1  0.94480000  0.11830000  0.92570000  1.0 0.1012355098
H  H21  1  0.11040000  0.10870000  0.08110000  1.0 0.1012355098
H  H22  1  0.02760000  0.02930000  0.91890000  1.0 0.1012355098
H  H23  1  0.97070000  0.88960000  0.99830000  1.0 0.1012355098
H  H24  1  0.89130000  0.97240000  0.00170000  1.0 0.1012355098
H  H25  1  0.52310000  0.43850000  0.09580000  1.0 0.1184791742
H  H26  1  0.34270000  0.42730000  0.90420000  1.0 0.1108795492
H  H27  1  0.57270000  0.47690000  0.91540000  1.0 0.1108795492
H  H28  1  0.56150000  0.65730000  0.08460000  1.0 0.1184791742
H  H29  1  0.95420000  0.80920000  0.16700000  1.0 0.1184791742
H  H30  1  0.64220000  0.78720000  0.83300000  1.0 0.1184791742
H  H31  1  0.21280000  0.04580000  0.85500000  1.0 0.1184791742
H  H32  1  0.19080000  0.35780000  0.14500000  1.0 0.1184791742
H  H33  1  0.89800000  0.67000000  0.31320000  1.0 0.1108795492
H  H34  1  0.35680000  0.58480000  0.68680000  1.0 0.1108795492
H  H35  1  0.41520000  0.10200000  0.77200000  1.0 0.1108795492
H  H36  1  0.33000000  0.64320000  0.22800000  1.0 0.1108795492
H  H37  1  0.09960000  0.77260000  0.25460000  1.0 0.1012355098
H  H38  1  0.51800000  0.84500000  0.74540000  1.0 0.1012355098
H  H39  1  0.15500000  0.90040000  0.67300000  1.0 0.1012355098
H  H40  1  0.22740000  0.48200000  0.32700000  1.0 0.1012355098
H  H41  1  0.29100000  0.94960000  0.14480000  1.0 0.1589794575
H  H42  1  0.80480000  0.14620000  0.85520000  1.0 0.1589794575
H  H43  1  0.85380000  0.70900000  0.65860000  1.0 0.1589794575
H  H44  1  0.05040000  0.19520000  0.34140000  1.0 0.1589794575
H  H45  1  0.09750000  0.85550000  0.20480000  1.0 0.1012355098
H  H46  1  0.65070000  0.89270000  0.79520000  1.0 0.1012355098
H  H47  1  0.10730000  0.90250000  0.75800000  1.0 0.1012355098
H  H48  1  0.14450000  0.34930000  0.24200000  1.0 0.1012355098
H  H49  1  0.61380000  0.32950000  0.35290000  1.0 0.1184791742
H  H50  1  0.97660000  0.26090000  0.64710000  1.0 0.1184791742
H  H51  1  0.73910000  0.38620000  0.71570000  1.0 0.1184791742
H  H52  1  0.67050000  0.02340000  0.28430000  1.0 0.1184791742
H  H53  1  0.81530000  0.42930000  0.29480000  1.0 0.1184791742
H  H54  1  0.13450000  0.52050000  0.70520000  1.0 0.1184791742
H  H55  1  0.47950000  0.18470000  0.61400000  1.0 0.1184791742
H  H56  1  0.57070000  0.86550000  0.38600000  1.0 0.1184791742
H  H57  1  0.57730000  0.29240000  0.10230000  1.0 0.1012355098
H  H58  1  0.19010000  0.47500000  0.89770000  1.0 0.1012355098
H  H59  1  0.52500000  0.42270000  0.71510000  1.0 0.1012355098
H  H60  1  0.70760000  0.80990000  0.28490000  1.0 0.1012355098
H  H61  1  0.38350000  0.19710000  0.16600000  1.0 0.1012355098
H  H62  1  0.03110000  0.21750000  0.83400000  1.0 0.1012355098
H  H63  1  0.78250000  0.61650000  0.81360000  1.0 0.1012355098
H  H64  1  0.80290000  0.96890000  0.18640000  1.0 0.1012355098
C  C1  1  0.41440000  0.27070000  0.36910000  1.0 0.1184791742
C  C2  1  0.90160000  0.04530000  0.63090000  1.0 0.1184791742
C  C3  1  0.95470000  0.58560000  0.85630000  1.0 0.1184791742
C  C4  1  0.72930000  0.09840000  0.14370000  1.0 0.1184791742
C  C5  1  0.00640000  0.93060000  0.32500000  1.0 0.1184791742
C  C6  1  0.60560000  0.68140000  0.67500000  1.0 0.1184791742
C  C7  1  0.31860000  0.99360000  0.92420000  1.0 0.1184791742
C  C8  1  0.06940000  0.39440000  0.07580000  1.0 0.1184791742
C  C9  1  0.76060000  0.73610000  0.31870000  1.0 -0.2360831083
C  C10  1  0.41740000  0.44190000  0.68130000  1.0 -0.2360831083
C  C11  1  0.55810000  0.23940000  0.97550000  1.0 -0.2360831083
C  C12  1  0.26390000  0.58260000  0.02450000  1.0 -0.2360831083
C  C13  1  0.58150000  0.56360000  0.25310000  1.0 0.0676322176
C  C14  1  0.31050000  0.32840000  0.74690000  1.0 0.0676322176
C  C15  1  0.67160000  0.41850000  0.98210000  1.0 0.0676322176
C  C16  1  0.43640000  0.68950000  0.01790000  1.0 0.0676322176
C  C17  1  0.33280000  0.36530000  0.24410000  1.0 -0.1478134052
C  C18  1  0.12120000  0.08870000  0.75590000  1.0 -0.1478134052
C  C19  1  0.91130000  0.66720000  0.03250000  1.0 -0.1478134052
C  C20  1  0.63470000  0.87880000  0.96750000  1.0 -0.1478134052
C  C21  1  0.14860000  0.18900000  0.17960000  1.0 -0.1140231968
C  C22  1  0.00940000  0.96900000  0.82040000  1.0 -0.1140231968
C  C23  1  0.03100000  0.85140000  0.04040000  1.0 -0.1140231968
C  C24  1  0.81100000  0.99060000  0.95960000  1.0 -0.1140231968
C  C25  1  0.22810000  0.22290000  0.12500000  1.0 -0.1039309384
C  C26  1  0.09790000  0.10310000  0.87500000  1.0 -0.1039309384
C  C27  1  0.89690000  0.77190000  0.99480000  1.0 -0.1039309384
C  C28  1  0.77710000  0.90210000  0.00520000  1.0 -0.1039309384
C  C29  1  0.47780000  0.42230000  0.13410000  1.0 -0.1614325525
C  C30  1  0.28820000  0.34370000  0.86590000  1.0 -0.1614325525
C  C31  1  0.65630000  0.52220000  0.94450000  1.0 -0.1614325525
C  C32  1  0.57770000  0.71180000  0.05550000  1.0 -0.1614325525
C  C33  1  0.66200000  0.59800000  0.19800000  1.0 0.0827404658
C  C34  1  0.40000000  0.46400000  0.80200000  1.0 0.0827404658
C  C35  1  0.53600000  0.33800000  0.93600000  1.0 0.0827404658
C  C36  1  0.40200000  0.60000000  0.06400000  1.0 0.0827404658
C  C37  1  0.90910000  0.79380000  0.20490000  1.0 -0.2953390808
C  C38  1  0.58890000  0.70420000  0.79510000  1.0 -0.2953390808
C  C39  1  0.29580000  0.09090000  0.88470000  1.0 -0.2953390808
C  C40  1  0.20620000  0.41110000  0.11530000  1.0 -0.2953390808
C  C41  1  0.08540000  0.96460000  0.27000000  1.0 0.0907338789
C  C42  1  0.69460000  0.81540000  0.73000000  1.0 0.0907338789
C  C43  1  0.18460000  0.91460000  0.87920000  1.0 0.0907338789
C  C44  1  0.03540000  0.30540000  0.12080000  1.0 0.0907338789
C  C45  1  0.47790000  0.25320000  0.26510000  1.0 0.1012355098
C  C46  1  0.98810000  0.21280000  0.73490000  1.0 0.1012355098
C  C47  1  0.78720000  0.52210000  0.77530000  1.0 0.1012355098
C  C48  1  0.74680000  0.01190000  0.22470000  1.0 0.1012355098
C  C49  1  0.71080000  0.36830000  0.19510000  1.0 0.0126965239
C  C50  1  0.17320000  0.51570000  0.80490000  1.0 0.0126965239
C  C51  1  0.48430000  0.28920000  0.65750000  1.0 0.0126965239
C  C52  1  0.63170000  0.82680000  0.34250000  1.0 0.0126965239
C  C53  1  0.77610000  0.52520000  0.27930000  1.0 -0.071732133
C  C54  1  0.24590000  0.49680000  0.72070000  1.0 -0.071732133
C  C55  1  0.50320000  0.22390000  0.74910000  1.0 -0.071732133
C  C56  1  0.47480000  0.75410000  0.25090000  1.0 -0.071732133
C  C57  1  0.89830000  0.58850000  0.24480000  1.0 -0.0825862171
C  C58  1  0.34370000  0.65350000  0.75520000  1.0 -0.0825862171
C  C59  1  0.34650000  0.10170000  0.69020000  1.0 -0.0825862171
C  C60  1  0.41150000  0.65630000  0.30980000  1.0 -0.0825862171
C  C61  1  0.41160000  0.09310000  0.17870000  1.0 -0.0616875173
C  C62  1  0.91440000  0.23290000  0.82130000  1.0 -0.0616875173
C  C63  1  0.76710000  0.58840000  0.68150000  1.0 -0.0616875173
C  C64  1  0.90690000  0.08560000  0.31850000  1.0 -0.0616875173
C  C65  1  0.29890000  0.03970000  0.21460000  1.0 -0.0825862171
C  C66  1  0.82510000  0.08430000  0.78540000  1.0 -0.0825862171
C  C67  1  0.91570000  0.70110000  0.74080000  1.0 -0.0825862171
C  C68  1  0.96030000  0.17490000  0.25920000  1.0 -0.0825862171
C  C69  1  0.79940000  0.38290000  0.16630000  1.0 0.4994507252
C  C70  1  0.21660000  0.63310000  0.83370000  1.0 0.4994507252
C  C71  1  0.36690000  0.20060000  0.58350000  1.0 0.4994507252
C  C72  1  0.61710000  0.78340000  0.41650000  1.0 0.4994507252
C  C73  1  0.60700000  0.32250000  0.30350000  1.0 -0.071732133
C  C74  1  0.01900000  0.30350000  0.69650000  1.0 -0.071732133
C  C75  1  0.69650000  0.39300000  0.71550000  1.0 -0.071732133
C  C76  1  0.67750000  0.98100000  0.28450000  1.0 -0.071732133
C  C77  1  0.72850000  0.38300000  0.26950000  1.0 -0.0389098203
C  C78  1  0.11350000  0.45900000  0.73050000  1.0 -0.0389098203
C  C79  1  0.54100000  0.27150000  0.65450000  1.0 -0.0389098203
C  C80  1  0.61700000  0.88650000  0.34550000  1.0 -0.0389098203
C  C81  1  0.58520000  0.30040000  0.15160000  1.0 -0.0906473355
C  C82  1  0.14880000  0.43360000  0.84840000  1.0 -0.0906473355
C  C83  1  0.56640000  0.41480000  0.71520000  1.0 -0.0906473355
C  C84  1  0.69960000  0.85120000  0.28480000  1.0 -0.0906473355
C  C85  1  0.47100000  0.24410000  0.19110000  1.0 -0.0490105174
C  C86  1  0.05300000  0.27990000  0.80890000  1.0 -0.0490105174
C  C87  1  0.72010000  0.52900000  0.77310000  1.0 -0.0490105174
C  C88  1  0.75590000  0.94700000  0.22690000  1.0 -0.0490105174
N  N1  1  0.22650000  0.13480000  0.38930000  1.0 -0.3512781703
N  N2  1  0.74550000  0.83720000  0.61070000  1.0 -0.3512781703
N  N3  1  0.16280000  0.77350000  0.90830000  1.0 -0.3512781703
N  N4  1  0.86520000  0.25450000  0.09170000  1.0 -0.3512781703
N  N5  1  0.34060000  0.17780000  0.30040000  1.0 -0.142346456
N  N6  1  0.87740000  0.04020000  0.69960000  1.0 -0.142346456
N  N7  1  0.95980000  0.65940000  0.83720000  1.0 -0.142346456
N  N8  1  0.82220000  0.12260000  0.16280000  1.0 -0.142346456
O  O1  1  0.22780000  0.27900000  0.50480000  1.0 -0.7732225092
O  O2  1  0.77420000  0.72300000  0.49520000  1.0 -0.7732225092
O  O3  1  0.27700000  0.77220000  0.05120000  1.0 -0.7732225092
O  O4  1  0.72100000  0.22580000  0.94880000  1.0 -0.7732225092
O  O5  1  0.75410000  0.32530000  0.10340000  1.0 -0.196669943
O  O6  1  0.22190000  0.65070000  0.89660000  1.0 -0.196669943
O  O7  1  0.34930000  0.24590000  0.57120000  1.0 -0.196669943
O  O8  1  0.67470000  0.77810000  0.42880000  1.0 -0.196669943
O  O9  1  0.77940000  0.30790000  0.20530000  1.0 -0.5087279262
O  O10  1  0.10260000  0.57410000  0.79470000  1.0 -0.5087279262
O  O11  1  0.42590000  0.22060000  0.52850000  1.0 -0.5087279262
O  O12  1  0.69210000  0.89740000  0.47150000  1.0 -0.5087279262
O  O13  1  0.04900000  0.64400000  0.14700000  1.0 -0.3512781703
O  O14  1  0.49700000  0.90200000  0.85300000  1.0 -0.3512781703
O  O15  1  0.09800000  0.95100000  0.59500000  1.0 -0.3512781703
O  O16  1  0.35600000  0.50300000  0.40500000  1.0 -0.3512781703
