# DDEC6 charges by PACMAN v1.1 (https://github.com/mtap-research/PACMAN-charge/)
data_IFEQAN_FSR_pacman
_symmetry_space_group_name_H-M   'P 1'
_cell_length_a   19.05950000
_cell_length_b   19.05950000
_cell_length_c   19.05950000
_cell_angle_alpha   91.02100000
_cell_angle_beta   91.02100000
_cell_angle_gamma   164.65800000
_symmetry_Int_Tables_number   1
_chemical_formula_structural   ZnH15C22(NO2)2
_chemical_formula_sum   'Zn4 H60 C88 N8 O16'
_cell_volume   1815.46220980
_cell_formula_units_Z   4
loop_
 _symmetry_equiv_pos_site_id
 _symmetry_equiv_pos_as_xyz
  1  'x, y, z'
loop_
 _atom_site_type_symbol
 _atom_site_label
 _atom_site_symmetry_multiplicity
 _atom_site_fract_x
 _atom_site_fract_y
 _atom_site_fract_z
 _atom_site_occupancy
 _atom_site_charge
Zn  Zn1  1  0.51381000  0.07142000  0.98421000  1.0 0.8558314344
Zn  Zn2  1  0.47040000  0.48619000  0.55761000  1.0 0.8558314344
Zn  Zn3  1  0.08721000  0.52960000  0.01579000  1.0 0.8558314344
Zn  Zn4  1  0.92858000  0.91279000  0.44239000  1.0 0.8558314344
H  H1  1  0.16490000  0.85010000  0.89940000  1.0 0.1001671802
H  H2  1  0.73450000  0.83510000  0.68520000  1.0 0.1001671802
H  H3  1  0.95070000  0.26550000  0.10060000  1.0 0.1001671802
H  H4  1  0.14990000  0.04930000  0.31480000  1.0 0.1001671802
H  H5  1  0.89410000  0.40240000  0.86770000  1.0 0.1505565173
H  H6  1  0.97360000  0.10590000  0.50830000  1.0 0.1505565173
H  H7  1  0.53470000  0.02640000  0.13230000  1.0 0.1505565173
H  H8  1  0.59760000  0.46530000  0.49170000  1.0 0.1505565173
H  H9  1  0.23320000  0.68370000  0.79390000  1.0 0.1224833629
H  H10  1  0.56070000  0.76680000  0.45050000  1.0 0.1224833629
H  H11  1  0.88980000  0.43930000  0.20610000  1.0 0.1224833629
H  H12  1  0.31630000  0.11020000  0.54950000  1.0 0.1224833629
H  H13  1  0.40490000  0.84470000  0.68680000  1.0 0.1001671802
H  H14  1  0.28190000  0.59510000  0.43980000  1.0 0.1001671802
H  H15  1  0.15790000  0.71810000  0.31320000  1.0 0.1001671802
H  H16  1  0.15530000  0.84210000  0.56020000  1.0 0.1001671802
H  H17  1  0.21410000  0.72950000  0.59140000  1.0 0.1107922654
H  H18  1  0.37730000  0.78590000  0.51540000  1.0 0.1107922654
H  H19  1  0.13810000  0.62270000  0.40860000  1.0 0.1107922654
H  H20  1  0.27050000  0.86190000  0.48460000  1.0 0.1107922654
H  H21  1  0.84840000  0.44610000  0.60090000  1.0 0.1107922654
H  H22  1  0.75250000  0.15160000  0.59770000  1.0 0.1107922654
H  H23  1  0.84520000  0.24750000  0.39910000  1.0 0.1107922654
H  H24  1  0.55390000  0.15480000  0.40230000  1.0 0.1107922654
H  H25  1  0.52690000  0.18920000  0.67450000  1.0 0.1291462905
H  H26  1  0.14760000  0.47310000  0.66230000  1.0 0.1291462905
H  H27  1  0.51470000  0.85240000  0.32550000  1.0 0.1291462905
H  H28  1  0.81080000  0.48530000  0.33770000  1.0 0.1291462905
H  H29  1  0.82180000  0.56140000  0.81660000  1.0 0.1107922654
H  H30  1  0.99480000  0.17820000  0.73960000  1.0 0.1001671802
H  H31  1  0.74480000  0.00520000  0.18340000  1.0 0.1001671802
H  H32  1  0.43860000  0.25520000  0.26040000  1.0 0.1107922654
H  H33  1  0.56260000  0.40190000  0.76050000  1.0 0.0808350215
H  H34  1  0.19790000  0.43740000  0.83930000  1.0 0.0808350215
H  H35  1  0.64140000  0.80210000  0.23950000  1.0 0.0808350215
H  H36  1  0.59810000  0.35860000  0.16070000  1.0 0.0808350215
H  H37  1  0.17950000  0.05000000  0.65650000  1.0 0.1291462905
H  H38  1  0.47700000  0.82050000  0.87050000  1.0 0.1291462905
H  H39  1  0.39350000  0.52300000  0.34350000  1.0 0.1291462905
H  H40  1  0.95000000  0.60650000  0.12950000  1.0 0.1291462905
H  H41  1  0.44330000  0.21730000  0.71460000  1.0 0.0808350215
H  H42  1  0.27130000  0.55670000  0.77400000  1.0 0.0808350215
H  H43  1  0.50270000  0.72870000  0.28540000  1.0 0.0808350215
H  H44  1  0.78270000  0.49730000  0.22600000  1.0 0.0808350215
H  H45  1  0.13150000  0.93150000  0.86240000  1.0 0.1107922654
H  H46  1  0.73090000  0.86850000  0.80000000  1.0 0.1107922654
H  H47  1  0.06910000  0.26910000  0.13760000  1.0 0.1107922654
H  H48  1  0.06850000  0.93090000  0.20000000  1.0 0.1107922654
H  H49  1  0.88780000  0.79130000  0.80810000  1.0 0.1001671802
H  H50  1  0.92030000  0.11220000  0.90350000  1.0 0.1001671802
H  H51  1  0.98320000  0.07970000  0.19190000  1.0 0.1001671802
H  H52  1  0.20870000  0.01680000  0.09650000  1.0 0.1001671802
H  H53  1  0.91100000  0.72240000  0.61580000  1.0 0.1107922654
H  H54  1  0.70480000  0.08900000  0.81140000  1.0 0.1107922654
H  H55  1  0.10660000  0.29520000  0.38420000  1.0 0.1107922654
H  H56  1  0.27760000  0.89340000  0.18860000  1.0 0.1107922654
H  H57  1  0.10390000  0.80900000  0.67030000  1.0 0.1001671802
H  H58  1  0.56640000  0.89610000  0.70510000  1.0 0.1001671802
H  H59  1  0.13870000  0.43360000  0.32970000  1.0 0.1001671802
H  H60  1  0.19100000  0.86130000  0.29490000  1.0 0.1001671802
C  C1  1  0.28883000  0.95147000  0.87030000  1.0 0.1107922654
C  C2  1  0.58147000  0.71117000  0.66264000  1.0 0.1107922654
C  C3  1  0.08117000  0.41853000  0.12970000  1.0 0.1107922654
C  C4  1  0.04853000  0.91883000  0.33736000  1.0 0.1107922654
C  C5  1  0.61171000  0.20126000  0.83357000  1.0 0.1505565173
C  C6  1  0.22186000  0.38829000  0.58955000  1.0 0.1505565173
C  C7  1  0.36769000  0.77814000  0.16643000  1.0 0.1505565173
C  C8  1  0.79874000  0.63231000  0.41045000  1.0 0.1505565173
C  C9  1  0.82154000  0.36007000  0.82881000  1.0 -0.2066138839
C  C10  1  0.00727000  0.17846000  0.53853000  1.0 -0.2066138839
C  C11  1  0.53126000  0.99273000  0.17119000  1.0 -0.2066138839
C  C12  1  0.63993000  0.46874000  0.46147000  1.0 -0.2066138839
C  C13  1  0.92786000  0.45974000  0.76420000  1.0 0.0808350215
C  C14  1  0.83634000  0.07214000  0.53188000  1.0 0.0808350215
C  C15  1  0.69554000  0.16366000  0.23580000  1.0 0.0808350215
C  C16  1  0.54026000  0.30446000  0.46812000  1.0 0.0808350215
C  C17  1  0.15343000  0.63404000  0.75547000  1.0 -0.1486728438
C  C18  1  0.60204000  0.84657000  0.48061000  1.0 -0.1486728438
C  C19  1  0.87857000  0.39796000  0.24453000  1.0 -0.1486728438
C  C20  1  0.36596000  0.12143000  0.51939000  1.0 -0.1486728438
C  C21  1  0.25630000  0.73070000  0.69220000  1.0 -0.1095787581
C  C22  1  0.43590000  0.74370000  0.47440000  1.0 -0.1095787581
C  C23  1  0.03850000  0.56410000  0.30780000  1.0 -0.1095787581
C  C24  1  0.26930000  0.96150000  0.52560000  1.0 -0.1095787581
C  C25  1  0.14028000  0.66003000  0.63471000  1.0 -0.1095787581
C  C26  1  0.49443000  0.85972000  0.51975000  1.0 -0.1095787581
C  C27  1  0.02532000  0.50557000  0.36529000  1.0 -0.1095787581
C  C28  1  0.33997000  0.97468000  0.48025000  1.0 -0.1095787581
C  C29  1  0.92631000  0.49543000  0.64054000  1.0 -0.1610923228
C  C30  1  0.71423000  0.07369000  0.56912000  1.0 -0.1610923228
C  C31  1  0.85489000  0.28577000  0.35946000  1.0 -0.1610923228
C  C32  1  0.50457000  0.14511000  0.43088000  1.0 -0.1610923228
C  C33  1  0.81693000  0.39548000  0.70601000  1.0 0.0808350215
C  C34  1  0.88908000  0.18307000  0.57855000  1.0 0.0808350215
C  C35  1  0.68947000  0.11092000  0.29399000  1.0 0.0808350215
C  C36  1  0.60452000  0.31053000  0.42145000  1.0 0.0808350215
C  C37  1  0.60209000  0.23357000  0.71266000  1.0 -0.2608141997
C  C38  1  0.11057000  0.39791000  0.63148000  1.0 -0.2608141997
C  C39  1  0.52091000  0.88943000  0.28734000  1.0 -0.2608141997
C  C40  1  0.76643000  0.47909000  0.36852000  1.0 -0.2608141997
C  C41  1  0.50448000  0.14144000  0.77692000  1.0 0.0928310803
C  C42  1  0.27244000  0.49552000  0.63696000  1.0 0.0928310803
C  C43  1  0.36452000  0.72756000  0.22308000  1.0 0.0928310803
C  C44  1  0.85856000  0.63548000  0.36304000  1.0 0.0928310803
C  C45  1  0.14949000  0.89509000  0.76938000  1.0 0.1224833629
C  C46  1  0.61989000  0.85051000  0.74560000  1.0 0.1224833629
C  C47  1  0.12571000  0.38011000  0.23062000  1.0 0.1224833629
C  C48  1  0.10491000  0.87429000  0.25440000  1.0 0.1224833629
C  C49  1  0.85888000  0.72438000  0.70506000  1.0 0.0090162181
C  C50  1  0.84618000  0.14112000  0.86550000  1.0 0.0090162181
C  C51  1  0.01932000  0.15382000  0.29494000  1.0 0.0090162181
C  C52  1  0.27562000  0.98068000  0.13450000  1.0 0.0090162181
C  C53  1  0.69184000  0.62173000  0.67057000  1.0 0.4151069424
C  C54  1  0.97873000  0.30816000  0.92989000  1.0 0.4151069424
C  C55  1  0.95116000  0.02127000  0.32943000  1.0 0.4151069424
C  C56  1  0.37827000  0.04884000  0.07011000  1.0 0.4151069424
C  C57  1  0.89490000  0.66100000  0.78410000  1.0 -0.0660415175
C  C58  1  0.88920000  0.10510000  0.76610000  1.0 -0.0660415175
C  C59  1  0.87690000  0.11080000  0.21590000  1.0 -0.0660415175
C  C60  1  0.33900000  0.12310000  0.23390000  1.0 -0.0660415175
C  C61  1  0.74170000  0.56730000  0.75160000  1.0 -0.0917899995
C  C62  1  0.00990000  0.25830000  0.82560000  1.0 -0.0917899995
C  C63  1  0.81570000  0.99010000  0.24840000  1.0 -0.0917899995
C  C64  1  0.43270000  0.18430000  0.17440000  1.0 -0.0917899995
C  C65  1  0.10870000  0.95340000  0.69010000  1.0 -0.0569996708
C  C66  1  0.58140000  0.89130000  0.84470000  1.0 -0.0569996708
C  C67  1  0.26330000  0.41860000  0.30990000  1.0 -0.0569996708
C  C68  1  0.04660000  0.73670000  0.15530000  1.0 -0.0569996708
C  C69  1  0.26320000  0.04970000  0.72290000  1.0 -0.0660415175
C  C70  1  0.45970000  0.73680000  0.78650000  1.0 -0.0660415175
C  C71  1  0.32680000  0.54030000  0.27710000  1.0 -0.0660415175
C  C72  1  0.95030000  0.67320000  0.21350000  1.0 -0.0660415175
C  C73  1  0.08110000  0.88350000  0.81260000  1.0 -0.0917899995
C  C74  1  0.73150000  0.91890000  0.80240000  1.0 -0.0917899995
C  C75  1  0.07090000  0.26850000  0.18740000  1.0 -0.0917899995
C  C76  1  0.11650000  0.92910000  0.19760000  1.0 -0.0917899995
C  C77  1  0.93600000  0.79920000  0.78020000  1.0 -0.0389988409
C  C78  1  0.84420000  0.06400000  0.86320000  1.0 -0.0389988409
C  C79  1  0.01900000  0.15580000  0.21980000  1.0 -0.0389988409
C  C80  1  0.20080000  0.98100000  0.13680000  1.0 -0.0389988409
C  C81  1  0.94190000  0.75050000  0.66600000  1.0 -0.0389988409
C  C82  1  0.72410000  0.05810000  0.80860000  1.0 -0.0389988409
C  C83  1  0.08450000  0.27590000  0.33400000  1.0 -0.0389988409
C  C84  1  0.24950000  0.91550000  0.19140000  1.0 -0.0389988409
C  C85  1  0.07060000  0.81720000  0.69780000  1.0 -0.0782292658
C  C86  1  0.62720000  0.92940000  0.74660000  1.0 -0.0782292658
C  C87  1  0.11940000  0.37280000  0.30220000  1.0 -0.0782292658
C  C88  1  0.18280000  0.88060000  0.25340000  1.0 -0.0782292658
N  N1  1  0.46616000  0.07372000  0.89068000  1.0 -0.333952243
N  N2  1  0.42452000  0.53384000  0.60756000  1.0 -0.333952243
N  N3  1  0.18304000  0.57548000  0.10932000  1.0 -0.333952243
N  N4  1  0.92628000  0.81696000  0.39244000  1.0 -0.333952243
N  N5  1  0.30218000  0.98580000  0.80338000  1.0 -0.1382588805
N  N6  1  0.50120000  0.69782000  0.68362000  1.0 -0.1382588805
N  N7  1  0.18242000  0.49880000  0.19662000  1.0 -0.1382588805
N  N8  1  0.01420000  0.81758000  0.31638000  1.0 -0.1382588805
O  O1  1  0.37511000  0.84282000  0.97033000  1.0 -0.7519869307
O  O2  1  0.59522000  0.62489000  0.46771000  1.0 -0.7519869307
O  O3  1  0.87249000  0.40478000  0.02967000  1.0 -0.7519869307
O  O4  1  0.15718000  0.12751000  0.53229000  1.0 -0.7519869307
O  O5  1  0.74848000  0.69696000  0.61204000  1.0 -0.4434631938
O  O6  1  0.86356000  0.25152000  0.94848000  1.0 -0.4434631938
O  O7  1  0.08492000  0.13644000  0.38796000  1.0 -0.4434631938
O  O8  1  0.30304000  0.91508000  0.05152000  1.0 -0.4434631938
O  O9  1  0.45040000  0.39670000  0.68670000  1.0 -0.2066138839
O  O10  1  0.23630000  0.54960000  0.94630000  1.0 -0.2066138839
O  O11  1  0.71000000  0.76370000  0.31330000  1.0 -0.2066138839
O  O12  1  0.60330000  0.29000000  0.05370000  1.0 -0.2066138839
O  O13  1  0.57160000  0.54540000  0.70900000  1.0 -0.1610923228
O  O14  1  0.13740000  0.42840000  0.97380000  1.0 -0.1610923228
O  O15  1  0.83640000  0.86260000  0.29100000  1.0 -0.1610923228
O  O16  1  0.45460000  0.16360000  0.02620000  1.0 -0.1610923228
