# DDEC6 charges by PACMAN v1.1 (https://github.com/mtap-research/PACMAN-charge/)
data_IFEROC_FSR_pacman
_symmetry_space_group_name_H-M   'P 1'
_cell_length_a   19.42820000
_cell_length_b   19.42820000
_cell_length_c   19.42820000
_cell_angle_alpha   60.00000000
_cell_angle_beta   60.00000000
_cell_angle_gamma   60.00000000
_symmetry_Int_Tables_number   1
_chemical_formula_structural   Tb3H48C66O19F24
_chemical_formula_sum   'Tb6 H96 C132 O38 F48'
_cell_volume   5185.40520082
_cell_formula_units_Z   2
loop_
 _symmetry_equiv_pos_site_id
 _symmetry_equiv_pos_as_xyz
  1  'x, y, z'
loop_
 _atom_site_type_symbol
 _atom_site_label
 _atom_site_symmetry_multiplicity
 _atom_site_fract_x
 _atom_site_fract_y
 _atom_site_fract_z
 _atom_site_occupancy
 _atom_site_charge
Tb  Tb1  1  0.90003000  0.09997000  0.90003000  1.0 1.9722987493
Tb  Tb2  1  0.09997000  0.90003000  0.09997000  1.0 1.9722987493
Tb  Tb3  1  0.90003000  0.90003000  0.09997000  1.0 1.9722987493
Tb  Tb4  1  0.09997000  0.09997000  0.90003000  1.0 1.9722987493
Tb  Tb5  1  0.09997000  0.90003000  0.90003000  1.0 1.9722987493
Tb  Tb6  1  0.90003000  0.09997000  0.09997000  1.0 1.9722987493
H  H1  1  0.12610000  0.92870000  0.64330000  1.0 0.1431614817
H  H2  1  0.92870000  0.12610000  0.30190000  1.0 0.1431614817
H  H3  1  0.64330000  0.30190000  0.12610000  1.0 0.1431614817
H  H4  1  0.30190000  0.64330000  0.92870000  1.0 0.1431614817
H  H5  1  0.64330000  0.12610000  0.92870000  1.0 0.1431614817
H  H6  1  0.30190000  0.92870000  0.12610000  1.0 0.1431614817
H  H7  1  0.12610000  0.64330000  0.30190000  1.0 0.1431614817
H  H8  1  0.92870000  0.30190000  0.64330000  1.0 0.1431614817
H  H9  1  0.92870000  0.64330000  0.12610000  1.0 0.1431614817
H  H10  1  0.12610000  0.30190000  0.92870000  1.0 0.1431614817
H  H11  1  0.30190000  0.12610000  0.64330000  1.0 0.1431614817
H  H12  1  0.64330000  0.92870000  0.30190000  1.0 0.1431614817
H  H13  1  0.87390000  0.07130000  0.69810000  1.0 0.1431614817
H  H14  1  0.07130000  0.87390000  0.35670000  1.0 0.1431614817
H  H15  1  0.35670000  0.69810000  0.07130000  1.0 0.1431614817
H  H16  1  0.69810000  0.35670000  0.87390000  1.0 0.1431614817
H  H17  1  0.35670000  0.87390000  0.69810000  1.0 0.1431614817
H  H18  1  0.69810000  0.07130000  0.35670000  1.0 0.1431614817
H  H19  1  0.87390000  0.35670000  0.07130000  1.0 0.1431614817
H  H20  1  0.07130000  0.69810000  0.87390000  1.0 0.1431614817
H  H21  1  0.07130000  0.35670000  0.69810000  1.0 0.1431614817
H  H22  1  0.87390000  0.69810000  0.35670000  1.0 0.1431614817
H  H23  1  0.69810000  0.87390000  0.07130000  1.0 0.1431614817
H  H24  1  0.35670000  0.07130000  0.87390000  1.0 0.1431614817
H  H25  1  0.87390000  0.07130000  0.35670000  1.0 0.1431614817
H  H26  1  0.07130000  0.87390000  0.69810000  1.0 0.1431614817
H  H27  1  0.35670000  0.69810000  0.87390000  1.0 0.1431614817
H  H28  1  0.69810000  0.35670000  0.07130000  1.0 0.1431614817
H  H29  1  0.35670000  0.87390000  0.07130000  1.0 0.1431614817
H  H30  1  0.69810000  0.07130000  0.87390000  1.0 0.1431614817
H  H31  1  0.87390000  0.35670000  0.69810000  1.0 0.1431614817
H  H32  1  0.07130000  0.69810000  0.35670000  1.0 0.1431614817
H  H33  1  0.07130000  0.35670000  0.87390000  1.0 0.1431614817
H  H34  1  0.87390000  0.69810000  0.07130000  1.0 0.1431614817
H  H35  1  0.69810000  0.87390000  0.35670000  1.0 0.1431614817
H  H36  1  0.35670000  0.07130000  0.69810000  1.0 0.1431614817
H  H37  1  0.12610000  0.92870000  0.30190000  1.0 0.1431614817
H  H38  1  0.92870000  0.12610000  0.64330000  1.0 0.1431614817
H  H39  1  0.64330000  0.30190000  0.92870000  1.0 0.1431614817
H  H40  1  0.30190000  0.64330000  0.12610000  1.0 0.1431614817
H  H41  1  0.64330000  0.12610000  0.30190000  1.0 0.1431614817
H  H42  1  0.30190000  0.92870000  0.64330000  1.0 0.1431614817
H  H43  1  0.12610000  0.64330000  0.92870000  1.0 0.1431614817
H  H44  1  0.92870000  0.30190000  0.12610000  1.0 0.1431614817
H  H45  1  0.92870000  0.64330000  0.30190000  1.0 0.1431614817
H  H46  1  0.12610000  0.30190000  0.64330000  1.0 0.1431614817
H  H47  1  0.30190000  0.12610000  0.92870000  1.0 0.1431614817
H  H48  1  0.64330000  0.92870000  0.12610000  1.0 0.1431614817
H  H49  1  0.12350000  0.92610000  0.52390000  1.0 0.0922800132
H  H50  1  0.92610000  0.12350000  0.42650000  1.0 0.0922800132
H  H51  1  0.52390000  0.42650000  0.12350000  1.0 0.0922800132
H  H52  1  0.42650000  0.52390000  0.92610000  1.0 0.0922800132
H  H53  1  0.52390000  0.12350000  0.92610000  1.0 0.0922800132
H  H54  1  0.42650000  0.92610000  0.12350000  1.0 0.0922800132
H  H55  1  0.12350000  0.52390000  0.42650000  1.0 0.0922800132
H  H56  1  0.92610000  0.42650000  0.52390000  1.0 0.0922800132
H  H57  1  0.92610000  0.52390000  0.12350000  1.0 0.0922800132
H  H58  1  0.12350000  0.42650000  0.92610000  1.0 0.0922800132
H  H59  1  0.42650000  0.12350000  0.52390000  1.0 0.0922800132
H  H60  1  0.52390000  0.92610000  0.42650000  1.0 0.0922800132
H  H61  1  0.87650000  0.07390000  0.57350000  1.0 0.0922800132
H  H62  1  0.07390000  0.87650000  0.47610000  1.0 0.0922800132
H  H63  1  0.47610000  0.57350000  0.07390000  1.0 0.0922800132
H  H64  1  0.57350000  0.47610000  0.87650000  1.0 0.0922800132
H  H65  1  0.47610000  0.87650000  0.57350000  1.0 0.0922800132
H  H66  1  0.57350000  0.07390000  0.47610000  1.0 0.0922800132
H  H67  1  0.87650000  0.47610000  0.07390000  1.0 0.0922800132
H  H68  1  0.07390000  0.57350000  0.87650000  1.0 0.0922800132
H  H69  1  0.07390000  0.47610000  0.57350000  1.0 0.0922800132
H  H70  1  0.87650000  0.57350000  0.47610000  1.0 0.0922800132
H  H71  1  0.57350000  0.87650000  0.07390000  1.0 0.0922800132
H  H72  1  0.47610000  0.07390000  0.87650000  1.0 0.0922800132
H  H73  1  0.87650000  0.07390000  0.47610000  1.0 0.0922800132
H  H74  1  0.07390000  0.87650000  0.57350000  1.0 0.0922800132
H  H75  1  0.47610000  0.57350000  0.87650000  1.0 0.0922800132
H  H76  1  0.57350000  0.47610000  0.07390000  1.0 0.0922800132
H  H77  1  0.47610000  0.87650000  0.07390000  1.0 0.0922800132
H  H78  1  0.57350000  0.07390000  0.87650000  1.0 0.0922800132
H  H79  1  0.87650000  0.47610000  0.57350000  1.0 0.0922800132
H  H80  1  0.07390000  0.57350000  0.47610000  1.0 0.0922800132
H  H81  1  0.07390000  0.47610000  0.87650000  1.0 0.0922800132
H  H82  1  0.87650000  0.57350000  0.07390000  1.0 0.0922800132
H  H83  1  0.57350000  0.87650000  0.47610000  1.0 0.0922800132
H  H84  1  0.47610000  0.07390000  0.57350000  1.0 0.0922800132
H  H85  1  0.12350000  0.92610000  0.42650000  1.0 0.0922800132
H  H86  1  0.92610000  0.12350000  0.52390000  1.0 0.0922800132
H  H87  1  0.52390000  0.42650000  0.92610000  1.0 0.0922800132
H  H88  1  0.42650000  0.52390000  0.12350000  1.0 0.0922800132
H  H89  1  0.52390000  0.12350000  0.42650000  1.0 0.0922800132
H  H90  1  0.42650000  0.92610000  0.52390000  1.0 0.0922800132
H  H91  1  0.12350000  0.52390000  0.92610000  1.0 0.0922800132
H  H92  1  0.92610000  0.42650000  0.12350000  1.0 0.0922800132
H  H93  1  0.92610000  0.52390000  0.42650000  1.0 0.0922800132
H  H94  1  0.12350000  0.42650000  0.52390000  1.0 0.0922800132
H  H95  1  0.42650000  0.12350000  0.92610000  1.0 0.0922800132
H  H96  1  0.52390000  0.92610000  0.12350000  1.0 0.0922800132
C  C1  1  0.00000000  0.00000000  0.68100000  1.0 -0.1626003802
C  C2  1  0.00000000  0.00000000  0.31900000  1.0 -0.1626003802
C  C3  1  0.68100000  0.31900000  0.00000000  1.0 -0.1626003802
C  C4  1  0.31900000  0.68100000  0.00000000  1.0 -0.1626003802
C  C5  1  0.68100000  0.00000000  0.00000000  1.0 -0.1626003802
C  C6  1  0.31900000  0.00000000  0.00000000  1.0 -0.1626003802
C  C7  1  0.00000000  0.68100000  0.31900000  1.0 -0.1626003802
C  C8  1  0.00000000  0.31900000  0.68100000  1.0 -0.1626003802
C  C9  1  0.00000000  0.68100000  0.00000000  1.0 -0.1626003802
C  C10  1  0.00000000  0.31900000  0.00000000  1.0 -0.1626003802
C  C11  1  0.31900000  0.00000000  0.68100000  1.0 -0.1626003802
C  C12  1  0.68100000  0.00000000  0.31900000  1.0 -0.1626003802
C  C13  1  0.00000000  0.00000000  0.76160000  1.0 0.4346778046
C  C14  1  0.00000000  0.00000000  0.23840000  1.0 0.4346778046
C  C15  1  0.76160000  0.23840000  0.00000000  1.0 0.4371207317
C  C16  1  0.23840000  0.76160000  0.00000000  1.0 0.4346778046
C  C17  1  0.76160000  0.00000000  0.00000000  1.0 0.4371207317
C  C18  1  0.23840000  0.00000000  0.00000000  1.0 0.4371207317
C  C19  1  0.00000000  0.76160000  0.23840000  1.0 0.4346778046
C  C20  1  0.00000000  0.23840000  0.76160000  1.0 0.4346778046
C  C21  1  0.00000000  0.76160000  0.00000000  1.0 0.4346778046
C  C22  1  0.00000000  0.23840000  0.00000000  1.0 0.4371207317
C  C23  1  0.23840000  0.00000000  0.76160000  1.0 0.4346778046
C  C24  1  0.76160000  0.00000000  0.23840000  1.0 0.4371207317
C  C25  1  0.00000000  0.00000000  0.53960000  1.0 0.0583111539
C  C26  1  0.00000000  0.00000000  0.46040000  1.0 0.0583111539
C  C27  1  0.53960000  0.46040000  0.00000000  1.0 0.0583111539
C  C28  1  0.46040000  0.53960000  0.00000000  1.0 0.0583111539
C  C29  1  0.53960000  0.00000000  0.00000000  1.0 0.0583111539
C  C30  1  0.46040000  0.00000000  0.00000000  1.0 0.0583111539
C  C31  1  0.00000000  0.53960000  0.46040000  1.0 0.0583111539
C  C32  1  0.00000000  0.46040000  0.53960000  1.0 0.0583111539
C  C33  1  0.00000000  0.53960000  0.00000000  1.0 0.0583111539
C  C34  1  0.00000000  0.46040000  0.00000000  1.0 0.0583111539
C  C35  1  0.46040000  0.00000000  0.53960000  1.0 0.0583111539
C  C36  1  0.53960000  0.00000000  0.46040000  1.0 0.0583111539
C  C37  1  0.07570000  0.95670000  0.62990000  1.0 0.0549910856
C  C38  1  0.95670000  0.07570000  0.33770000  1.0 0.0583111539
C  C39  1  0.62990000  0.33770000  0.07570000  1.0 0.0583111539
C  C40  1  0.33770000  0.62990000  0.95670000  1.0 0.0549910856
C  C41  1  0.62990000  0.07570000  0.95670000  1.0 0.0549910856
C  C42  1  0.33770000  0.95670000  0.07570000  1.0 0.0583111539
C  C43  1  0.07570000  0.62990000  0.33770000  1.0 0.0549910856
C  C44  1  0.95670000  0.33770000  0.62990000  1.0 0.0583111539
C  C45  1  0.95670000  0.62990000  0.07570000  1.0 0.0583111539
C  C46  1  0.07570000  0.33770000  0.95670000  1.0 0.0549910856
C  C47  1  0.33770000  0.07570000  0.62990000  1.0 0.0549910856
C  C48  1  0.62990000  0.95670000  0.33770000  1.0 0.0549910856
C  C49  1  0.92430000  0.04330000  0.66230000  1.0 0.0583111539
C  C50  1  0.04330000  0.92430000  0.37010000  1.0 0.0549910856
C  C51  1  0.37010000  0.66230000  0.04330000  1.0 0.0583111539
C  C52  1  0.66230000  0.37010000  0.92430000  1.0 0.0549910856
C  C53  1  0.37010000  0.92430000  0.66230000  1.0 0.0549910856
C  C54  1  0.66230000  0.04330000  0.37010000  1.0 0.0549910856
C  C55  1  0.92430000  0.37010000  0.04330000  1.0 0.0583111539
C  C56  1  0.04330000  0.66230000  0.92430000  1.0 0.0549910856
C  C57  1  0.04330000  0.37010000  0.66230000  1.0 0.0549910856
C  C58  1  0.92430000  0.66230000  0.37010000  1.0 0.0583111539
C  C59  1  0.66230000  0.92430000  0.04330000  1.0 0.0583111539
C  C60  1  0.37010000  0.04330000  0.92430000  1.0 0.0549910856
C  C61  1  0.92430000  0.04330000  0.37010000  1.0 0.0583111539
C  C62  1  0.04330000  0.92430000  0.66230000  1.0 0.0549910856
C  C63  1  0.37010000  0.66230000  0.92430000  1.0 0.0549910856
C  C64  1  0.66230000  0.37010000  0.04330000  1.0 0.0583111539
C  C65  1  0.37010000  0.92430000  0.04330000  1.0 0.0549910856
C  C66  1  0.66230000  0.04330000  0.92430000  1.0 0.0549910856
C  C67  1  0.92430000  0.37010000  0.66230000  1.0 0.0583111539
C  C68  1  0.04330000  0.66230000  0.37010000  1.0 0.0549910856
C  C69  1  0.04330000  0.37010000  0.92430000  1.0 0.0549910856
C  C70  1  0.92430000  0.66230000  0.04330000  1.0 0.0583111539
C  C71  1  0.66230000  0.92430000  0.37010000  1.0 0.0549910856
C  C72  1  0.37010000  0.04330000  0.66230000  1.0 0.0549910856
C  C73  1  0.07570000  0.95670000  0.33770000  1.0 0.0549910856
C  C74  1  0.95670000  0.07570000  0.62990000  1.0 0.0583111539
C  C75  1  0.62990000  0.33770000  0.95670000  1.0 0.0549910856
C  C76  1  0.33770000  0.62990000  0.07570000  1.0 0.0583111539
C  C77  1  0.62990000  0.07570000  0.33770000  1.0 0.0549910856
C  C78  1  0.33770000  0.95670000  0.62990000  1.0 0.0583111539
C  C79  1  0.07570000  0.62990000  0.95670000  1.0 0.0549910856
C  C80  1  0.95670000  0.33770000  0.07570000  1.0 0.0583111539
C  C81  1  0.95670000  0.62990000  0.33770000  1.0 0.0583111539
C  C82  1  0.07570000  0.33770000  0.62990000  1.0 0.0549910856
C  C83  1  0.33770000  0.07570000  0.95670000  1.0 0.0549910856
C  C84  1  0.62990000  0.95670000  0.07570000  1.0 0.0583111539
C  C85  1  0.07430000  0.95610000  0.55870000  1.0 -0.1142093601
C  C86  1  0.95610000  0.07430000  0.41090000  1.0 -0.1142093601
C  C87  1  0.55870000  0.41090000  0.07430000  1.0 -0.1142093601
C  C88  1  0.41090000  0.55870000  0.95610000  1.0 -0.1142093601
C  C89  1  0.55870000  0.07430000  0.95610000  1.0 -0.1142093601
C  C90  1  0.41090000  0.95610000  0.07430000  1.0 -0.1142093601
C  C91  1  0.07430000  0.55870000  0.41090000  1.0 -0.1142093601
C  C92  1  0.95610000  0.41090000  0.55870000  1.0 -0.1142093601
C  C93  1  0.95610000  0.55870000  0.07430000  1.0 -0.1142093601
C  C94  1  0.07430000  0.41090000  0.95610000  1.0 -0.1142093601
C  C95  1  0.41090000  0.07430000  0.55870000  1.0 -0.1142093601
C  C96  1  0.55870000  0.95610000  0.41090000  1.0 -0.1142093601
C  C97  1  0.92570000  0.04390000  0.58910000  1.0 -0.1142093601
C  C98  1  0.04390000  0.92570000  0.44130000  1.0 -0.1142093601
C  C99  1  0.44130000  0.58910000  0.04390000  1.0 -0.1142093601
C  C100  1  0.58910000  0.44130000  0.92570000  1.0 -0.1142093601
C  C101  1  0.44130000  0.92570000  0.58910000  1.0 -0.1142093601
C  C102  1  0.58910000  0.04390000  0.44130000  1.0 -0.1142093601
C  C103  1  0.92570000  0.44130000  0.04390000  1.0 -0.1142093601
C  C104  1  0.04390000  0.58910000  0.92570000  1.0 -0.1142093601
C  C105  1  0.04390000  0.44130000  0.58910000  1.0 -0.1142093601
C  C106  1  0.92570000  0.58910000  0.44130000  1.0 -0.1142093601
C  C107  1  0.58910000  0.92570000  0.04390000  1.0 -0.1142093601
C  C108  1  0.44130000  0.04390000  0.92570000  1.0 -0.1142093601
C  C109  1  0.92570000  0.04390000  0.44130000  1.0 -0.1142093601
C  C110  1  0.04390000  0.92570000  0.58910000  1.0 -0.1142093601
C  C111  1  0.44130000  0.58910000  0.92570000  1.0 -0.1142093601
C  C112  1  0.58910000  0.44130000  0.04390000  1.0 -0.1142093601
C  C113  1  0.44130000  0.92570000  0.04390000  1.0 -0.1142093601
C  C114  1  0.58910000  0.04390000  0.92570000  1.0 -0.1142093601
C  C115  1  0.92570000  0.44130000  0.58910000  1.0 -0.1142093601
C  C116  1  0.04390000  0.58910000  0.44130000  1.0 -0.1142093601
C  C117  1  0.04390000  0.44130000  0.92570000  1.0 -0.1142093601
C  C118  1  0.92570000  0.58910000  0.04390000  1.0 -0.1142093601
C  C119  1  0.58910000  0.92570000  0.44130000  1.0 -0.1142093601
C  C120  1  0.44130000  0.04390000  0.58910000  1.0 -0.1142093601
C  C121  1  0.07430000  0.95610000  0.41090000  1.0 -0.1142093601
C  C122  1  0.95610000  0.07430000  0.55870000  1.0 -0.1142093601
C  C123  1  0.55870000  0.41090000  0.95610000  1.0 -0.1142093601
C  C124  1  0.41090000  0.55870000  0.07430000  1.0 -0.1142093601
C  C125  1  0.55870000  0.07430000  0.41090000  1.0 -0.1142093601
C  C126  1  0.41090000  0.95610000  0.55870000  1.0 -0.1142093601
C  C127  1  0.07430000  0.55870000  0.95610000  1.0 -0.1142093601
C  C128  1  0.95610000  0.41090000  0.07430000  1.0 -0.1142093601
C  C129  1  0.95610000  0.55870000  0.41090000  1.0 -0.1142093601
C  C130  1  0.07430000  0.41090000  0.55870000  1.0 -0.1142093601
C  C131  1  0.41090000  0.07430000  0.95610000  1.0 -0.1142093601
C  C132  1  0.55870000  0.95610000  0.07430000  1.0 -0.1142093601
O  O1  1  0.86218000  0.04594000  0.04594000  1.0 -0.8303951914
O  O2  1  0.04594000  0.86218000  0.04594000  1.0 -0.8303951914
O  O3  1  0.04594000  0.04594000  0.86218000  1.0 -0.8303951914
O  O4  1  0.04594000  0.04594000  0.04594000  1.0 -0.8303951914
O  O5  1  0.13782000  0.95406000  0.95406000  1.0 -0.8303951914
O  O6  1  0.95406000  0.13782000  0.95406000  1.0 -0.8303951914
O  O7  1  0.95406000  0.95406000  0.95406000  1.0 -0.8303951914
O  O8  1  0.95406000  0.95406000  0.13782000  1.0 -0.8303951914
O  O9  1  0.94097000  0.05903000  0.78777000  1.0 -0.5405968522
O  O10  1  0.05903000  0.94097000  0.21223000  1.0 -0.5405968522
O  O11  1  0.78777000  0.21223000  0.94097000  1.0 -0.5405968522
O  O12  1  0.21223000  0.78777000  0.05903000  1.0 -0.5405968522
O  O13  1  0.78777000  0.94097000  0.05903000  1.0 -0.5405968522
O  O14  1  0.21223000  0.05903000  0.94097000  1.0 -0.5405968522
O  O15  1  0.94097000  0.78777000  0.21223000  1.0 -0.5405968522
O  O16  1  0.05903000  0.21223000  0.78777000  1.0 -0.5405968522
O  O17  1  0.05903000  0.78777000  0.94097000  1.0 -0.5405968522
O  O18  1  0.94097000  0.21223000  0.05903000  1.0 -0.5405968522
O  O19  1  0.21223000  0.94097000  0.78777000  1.0 -0.5405968522
O  O20  1  0.78777000  0.05903000  0.21223000  1.0 -0.5405968522
O  O21  1  0.05903000  0.94097000  0.78777000  1.0 -0.5405968522
O  O22  1  0.94097000  0.05903000  0.21223000  1.0 -0.5405968522
O  O23  1  0.21223000  0.78777000  0.94097000  1.0 -0.5405968522
O  O24  1  0.78777000  0.21223000  0.05903000  1.0 -0.5405968522
O  O25  1  0.21223000  0.05903000  0.78777000  1.0 -0.5405968522
O  O26  1  0.78777000  0.94097000  0.21223000  1.0 -0.5405968522
O  O27  1  0.05903000  0.21223000  0.94097000  1.0 -0.5405968522
O  O28  1  0.94097000  0.78777000  0.05903000  1.0 -0.5405968522
O  O29  1  0.94097000  0.21223000  0.78777000  1.0 -0.5405968522
O  O30  1  0.05903000  0.78777000  0.21223000  1.0 -0.5405968522
O  O31  1  0.78777000  0.05903000  0.94097000  1.0 -0.5405968522
O  O32  1  0.21223000  0.94097000  0.05903000  1.0 -0.5405968522
O  O33  1  0.80630000  0.19370000  0.80630000  1.0 0.2294665804
O  O34  1  0.19370000  0.80630000  0.19370000  1.0 0.2294665804
O  O35  1  0.80630000  0.80630000  0.19370000  1.0 0.2294665804
O  O36  1  0.19370000  0.19370000  0.80630000  1.0 0.2294665804
O  O37  1  0.19370000  0.80630000  0.80630000  1.0 0.2294665804
O  O38  1  0.80630000  0.19370000  0.19370000  1.0 0.2294665804
F  F1  1  0.15260000  0.91000000  0.64020000  1.0 -0.1269812399
F  F2  1  0.91000000  0.15260000  0.29720000  1.0 -0.1269812399
F  F3  1  0.64020000  0.29720000  0.15260000  1.0 -0.1269812399
F  F4  1  0.29720000  0.64020000  0.91000000  1.0 -0.1269812399
F  F5  1  0.64020000  0.15260000  0.91000000  1.0 -0.1269812399
F  F6  1  0.29720000  0.91000000  0.15260000  1.0 -0.1269812399
F  F7  1  0.15260000  0.64020000  0.29720000  1.0 -0.1269812399
F  F8  1  0.91000000  0.29720000  0.64020000  1.0 -0.1269812399
F  F9  1  0.91000000  0.64020000  0.15260000  1.0 -0.1269812399
F  F10  1  0.15260000  0.29720000  0.91000000  1.0 -0.1269812399
F  F11  1  0.29720000  0.15260000  0.64020000  1.0 -0.1269812399
F  F12  1  0.64020000  0.91000000  0.29720000  1.0 -0.1269812399
F  F13  1  0.84740000  0.09000000  0.70280000  1.0 -0.1269812399
F  F14  1  0.09000000  0.84740000  0.35980000  1.0 -0.1269812399
F  F15  1  0.35980000  0.70280000  0.09000000  1.0 -0.1269812399
F  F16  1  0.70280000  0.35980000  0.84740000  1.0 -0.1269812399
F  F17  1  0.35980000  0.84740000  0.70280000  1.0 -0.1269812399
F  F18  1  0.70280000  0.09000000  0.35980000  1.0 -0.1269812399
F  F19  1  0.84740000  0.35980000  0.09000000  1.0 -0.1269812399
F  F20  1  0.09000000  0.70280000  0.84740000  1.0 -0.1269812399
F  F21  1  0.09000000  0.35980000  0.70280000  1.0 -0.1269812399
F  F22  1  0.84740000  0.70280000  0.35980000  1.0 -0.1269812399
F  F23  1  0.70280000  0.84740000  0.09000000  1.0 -0.1269812399
F  F24  1  0.35980000  0.09000000  0.84740000  1.0 -0.1269812399
F  F25  1  0.84740000  0.09000000  0.35980000  1.0 -0.1269812399
F  F26  1  0.09000000  0.84740000  0.70280000  1.0 -0.1269812399
F  F27  1  0.35980000  0.70280000  0.84740000  1.0 -0.1269812399
F  F28  1  0.70280000  0.35980000  0.09000000  1.0 -0.1269812399
F  F29  1  0.35980000  0.84740000  0.09000000  1.0 -0.1269812399
F  F30  1  0.70280000  0.09000000  0.84740000  1.0 -0.1269812399
F  F31  1  0.84740000  0.35980000  0.70280000  1.0 -0.1269812399
F  F32  1  0.09000000  0.70280000  0.35980000  1.0 -0.1269812399
F  F33  1  0.09000000  0.35980000  0.84740000  1.0 -0.1269812399
F  F34  1  0.84740000  0.70280000  0.09000000  1.0 -0.1269812399
F  F35  1  0.70280000  0.84740000  0.35980000  1.0 -0.1269812399
F  F36  1  0.35980000  0.09000000  0.70280000  1.0 -0.1269812399
F  F37  1  0.15260000  0.91000000  0.29720000  1.0 -0.1269812399
F  F38  1  0.91000000  0.15260000  0.64020000  1.0 -0.1269812399
F  F39  1  0.64020000  0.29720000  0.91000000  1.0 -0.1269812399
F  F40  1  0.29720000  0.64020000  0.15260000  1.0 -0.1269812399
F  F41  1  0.64020000  0.15260000  0.29720000  1.0 -0.1269812399
F  F42  1  0.29720000  0.91000000  0.64020000  1.0 -0.1269812399
F  F43  1  0.15260000  0.64020000  0.91000000  1.0 -0.1269812399
F  F44  1  0.91000000  0.29720000  0.15260000  1.0 -0.1269812399
F  F45  1  0.91000000  0.64020000  0.29720000  1.0 -0.1269812399
F  F46  1  0.15260000  0.29720000  0.64020000  1.0 -0.1269812399
F  F47  1  0.29720000  0.15260000  0.91000000  1.0 -0.1269812399
F  F48  1  0.64020000  0.91000000  0.15260000  1.0 -0.1269812399
