# DDEC6 charges by PACMAN v1.1 (https://github.com/mtap-research/PACMAN-charge/)
data_IFESAP_ASR_pacman
_symmetry_space_group_name_H-M   'P 1'
_cell_length_a   19.45440000
_cell_length_b   19.45440000
_cell_length_c   19.45440000
_cell_angle_alpha   60.00000000
_cell_angle_beta   60.00000000
_cell_angle_gamma   60.00000000
_symmetry_Int_Tables_number   1
_chemical_formula_structural   Tb3H48C78(O2F3)8
_chemical_formula_sum   'Tb6 H96 C156 O32 F48'
_cell_volume   5206.41191942
_cell_formula_units_Z   2
loop_
 _symmetry_equiv_pos_site_id
 _symmetry_equiv_pos_as_xyz
  1  'x, y, z'
loop_
 _atom_site_type_symbol
 _atom_site_label
 _atom_site_symmetry_multiplicity
 _atom_site_fract_x
 _atom_site_fract_y
 _atom_site_fract_z
 _atom_site_occupancy
 _atom_site_charge
Tb  Tb1  1  0.89960000  0.10040000  0.10040000  1.0 1.8186024567
Tb  Tb2  1  0.10040000  0.89960000  0.89960000  1.0 1.8186024567
Tb  Tb3  1  0.10040000  0.89960000  0.10040000  1.0 1.8186024567
Tb  Tb4  1  0.89960000  0.10040000  0.89960000  1.0 1.8186024567
Tb  Tb5  1  0.10040000  0.10040000  0.89960000  1.0 1.8186024567
Tb  Tb6  1  0.89960000  0.89960000  0.10040000  1.0 1.8186024567
H  H1  1  0.68160000  0.34260000  0.09140000  1.0 0.1065109866
H  H2  1  0.34260000  0.68160000  0.88440000  1.0 0.1065109866
H  H3  1  0.09140000  0.88440000  0.68160000  1.0 0.1065109866
H  H4  1  0.88440000  0.09140000  0.34260000  1.0 0.1065109866
H  H5  1  0.09140000  0.68160000  0.34260000  1.0 0.1065109866
H  H6  1  0.88440000  0.34260000  0.68160000  1.0 0.1065109866
H  H7  1  0.68160000  0.09140000  0.88440000  1.0 0.1065109866
H  H8  1  0.34260000  0.88440000  0.09140000  1.0 0.1065109866
H  H9  1  0.34260000  0.09140000  0.68160000  1.0 0.1065109866
H  H10  1  0.68160000  0.88440000  0.34260000  1.0 0.1065109866
H  H11  1  0.88440000  0.68160000  0.09140000  1.0 0.1065109866
H  H12  1  0.09140000  0.34260000  0.88440000  1.0 0.1065109866
H  H13  1  0.31840000  0.65740000  0.11560000  1.0 0.1065109866
H  H14  1  0.65740000  0.31840000  0.90860000  1.0 0.1065109866
H  H15  1  0.90860000  0.11560000  0.65740000  1.0 0.1065109866
H  H16  1  0.11560000  0.90860000  0.31840000  1.0 0.1065109866
H  H17  1  0.90860000  0.31840000  0.11560000  1.0 0.1065109866
H  H18  1  0.11560000  0.65740000  0.90860000  1.0 0.1065109866
H  H19  1  0.31840000  0.90860000  0.65740000  1.0 0.1065109866
H  H20  1  0.65740000  0.11560000  0.31840000  1.0 0.1065109866
H  H21  1  0.65740000  0.90860000  0.11560000  1.0 0.1065109866
H  H22  1  0.31840000  0.11560000  0.90860000  1.0 0.1065109866
H  H23  1  0.11560000  0.31840000  0.65740000  1.0 0.1065109866
H  H24  1  0.90860000  0.65740000  0.31840000  1.0 0.1065109866
H  H25  1  0.31840000  0.65740000  0.90860000  1.0 0.1065109866
H  H26  1  0.65740000  0.31840000  0.11560000  1.0 0.1065109866
H  H27  1  0.90860000  0.11560000  0.31840000  1.0 0.1065109866
H  H28  1  0.11560000  0.90860000  0.65740000  1.0 0.1065109866
H  H29  1  0.90860000  0.31840000  0.65740000  1.0 0.1065109866
H  H30  1  0.11560000  0.65740000  0.31840000  1.0 0.1065109866
H  H31  1  0.31840000  0.90860000  0.11560000  1.0 0.1065109866
H  H32  1  0.65740000  0.11560000  0.90860000  1.0 0.1065109866
H  H33  1  0.65740000  0.90860000  0.31840000  1.0 0.1065109866
H  H34  1  0.31840000  0.11560000  0.65740000  1.0 0.1065109866
H  H35  1  0.11560000  0.31840000  0.90860000  1.0 0.1065109866
H  H36  1  0.90860000  0.65740000  0.11560000  1.0 0.1065109866
H  H37  1  0.68160000  0.34260000  0.88440000  1.0 0.1065109866
H  H38  1  0.34260000  0.68160000  0.09140000  1.0 0.1065109866
H  H39  1  0.09140000  0.88440000  0.34260000  1.0 0.1065109866
H  H40  1  0.88440000  0.09140000  0.68160000  1.0 0.1065109866
H  H41  1  0.09140000  0.68160000  0.88440000  1.0 0.1065109866
H  H42  1  0.88440000  0.34260000  0.09140000  1.0 0.1065109866
H  H43  1  0.68160000  0.09140000  0.34260000  1.0 0.1065109866
H  H44  1  0.34260000  0.88440000  0.68160000  1.0 0.1065109866
H  H45  1  0.34260000  0.09140000  0.88440000  1.0 0.1065109866
H  H46  1  0.68160000  0.88440000  0.09140000  1.0 0.1065109866
H  H47  1  0.88440000  0.68160000  0.34260000  1.0 0.1065109866
H  H48  1  0.09140000  0.34260000  0.68160000  1.0 0.1065109866
H  H49  1  0.56370000  0.46610000  0.09030000  1.0 0.0609757658
H  H50  1  0.46610000  0.56370000  0.87990000  1.0 0.0609757658
H  H51  1  0.09030000  0.87990000  0.56370000  1.0 0.0609757658
H  H52  1  0.87990000  0.09030000  0.46610000  1.0 0.0609757658
H  H53  1  0.09030000  0.56370000  0.46610000  1.0 0.0609757658
H  H54  1  0.87990000  0.46610000  0.56370000  1.0 0.0609757658
H  H55  1  0.56370000  0.09030000  0.87990000  1.0 0.0609757658
H  H56  1  0.46610000  0.87990000  0.09030000  1.0 0.0609757658
H  H57  1  0.46610000  0.09030000  0.56370000  1.0 0.0609757658
H  H58  1  0.56370000  0.87990000  0.46610000  1.0 0.0609757658
H  H59  1  0.87990000  0.56370000  0.09030000  1.0 0.0609757658
H  H60  1  0.09030000  0.46610000  0.87990000  1.0 0.0609757658
H  H61  1  0.43630000  0.53390000  0.12010000  1.0 0.0609757658
H  H62  1  0.53390000  0.43630000  0.90970000  1.0 0.0609757658
H  H63  1  0.90970000  0.12010000  0.53390000  1.0 0.0609757658
H  H64  1  0.12010000  0.90970000  0.43630000  1.0 0.0609757658
H  H65  1  0.90970000  0.43630000  0.12010000  1.0 0.0609757658
H  H66  1  0.12010000  0.53390000  0.90970000  1.0 0.0609757658
H  H67  1  0.43630000  0.90970000  0.53390000  1.0 0.0609757658
H  H68  1  0.53390000  0.12010000  0.43630000  1.0 0.0609757658
H  H69  1  0.53390000  0.90970000  0.12010000  1.0 0.0609757658
H  H70  1  0.43630000  0.12010000  0.90970000  1.0 0.0609757658
H  H71  1  0.12010000  0.43630000  0.53390000  1.0 0.0609757658
H  H72  1  0.90970000  0.53390000  0.43630000  1.0 0.0609757658
H  H73  1  0.43630000  0.53390000  0.90970000  1.0 0.0609757658
H  H74  1  0.53390000  0.43630000  0.12010000  1.0 0.0609757658
H  H75  1  0.90970000  0.12010000  0.43630000  1.0 0.0609757658
H  H76  1  0.12010000  0.90970000  0.53390000  1.0 0.0609757658
H  H77  1  0.90970000  0.43630000  0.53390000  1.0 0.0609757658
H  H78  1  0.12010000  0.53390000  0.43630000  1.0 0.0609757658
H  H79  1  0.43630000  0.90970000  0.12010000  1.0 0.0609757658
H  H80  1  0.53390000  0.12010000  0.90970000  1.0 0.0609757658
H  H81  1  0.53390000  0.90970000  0.43630000  1.0 0.0609757658
H  H82  1  0.43630000  0.12010000  0.53390000  1.0 0.0609757658
H  H83  1  0.12010000  0.43630000  0.90970000  1.0 0.0609757658
H  H84  1  0.90970000  0.53390000  0.12010000  1.0 0.0609757658
H  H85  1  0.56370000  0.46610000  0.87990000  1.0 0.0609757658
H  H86  1  0.46610000  0.56370000  0.09030000  1.0 0.0609757658
H  H87  1  0.09030000  0.87990000  0.46610000  1.0 0.0609757658
H  H88  1  0.87990000  0.09030000  0.56370000  1.0 0.0609757658
H  H89  1  0.09030000  0.56370000  0.87990000  1.0 0.0609757658
H  H90  1  0.87990000  0.46610000  0.09030000  1.0 0.0609757658
H  H91  1  0.56370000  0.09030000  0.46610000  1.0 0.0609757658
H  H92  1  0.46610000  0.87990000  0.56370000  1.0 0.0609757658
H  H93  1  0.46610000  0.09030000  0.87990000  1.0 0.0609757658
H  H94  1  0.56370000  0.87990000  0.09030000  1.0 0.0609757658
H  H95  1  0.87990000  0.56370000  0.46610000  1.0 0.0609757658
H  H96  1  0.09030000  0.46610000  0.56370000  1.0 0.0609757658
C  C1  1  0.75940000  0.24060000  0.00000000  1.0 0.3525296291
C  C2  1  0.24060000  0.75940000  0.00000000  1.0 0.3525296291
C  C3  1  0.00000000  0.00000000  0.75940000  1.0 0.3525296291
C  C4  1  0.00000000  0.00000000  0.24060000  1.0 0.3525296291
C  C5  1  0.00000000  0.75940000  0.24060000  1.0 0.3525296291
C  C6  1  0.00000000  0.24060000  0.75940000  1.0 0.3525296291
C  C7  1  0.75940000  0.00000000  0.00000000  1.0 0.3525296291
C  C8  1  0.24060000  0.00000000  0.00000000  1.0 0.3525296291
C  C9  1  0.24060000  0.00000000  0.75940000  1.0 0.3525296291
C  C10  1  0.75940000  0.00000000  0.24060000  1.0 0.3525296291
C  C11  1  0.00000000  0.75940000  0.00000000  1.0 0.3525296291
C  C12  1  0.00000000  0.24060000  0.00000000  1.0 0.3525296291
C  C13  1  0.69530000  0.32790000  0.98870000  1.0 -0.0386354685
C  C14  1  0.32790000  0.69530000  0.98810000  1.0 -0.0386354685
C  C15  1  0.98870000  0.98810000  0.69530000  1.0 -0.0386354685
C  C16  1  0.98810000  0.98870000  0.32790000  1.0 -0.0386354685
C  C17  1  0.98870000  0.69530000  0.32790000  1.0 -0.0386354685
C  C18  1  0.98810000  0.32790000  0.69530000  1.0 -0.0386354685
C  C19  1  0.69530000  0.98870000  0.98810000  1.0 -0.0386354685
C  C20  1  0.32790000  0.98810000  0.98870000  1.0 -0.0386354685
C  C21  1  0.32790000  0.98870000  0.69530000  1.0 -0.0386354685
C  C22  1  0.69530000  0.98810000  0.32790000  1.0 -0.0386354685
C  C23  1  0.98810000  0.69530000  0.98870000  1.0 -0.0386354685
C  C24  1  0.98870000  0.32790000  0.98810000  1.0 -0.0386354685
C  C25  1  0.30470000  0.67210000  0.01190000  1.0 -0.0386354685
C  C26  1  0.67210000  0.30470000  0.01130000  1.0 -0.0386354685
C  C27  1  0.01130000  0.01190000  0.67210000  1.0 -0.0386354685
C  C28  1  0.01190000  0.01130000  0.30470000  1.0 -0.0386354685
C  C29  1  0.01130000  0.30470000  0.01190000  1.0 -0.0386354685
C  C30  1  0.01190000  0.67210000  0.01130000  1.0 -0.0386354685
C  C31  1  0.30470000  0.01130000  0.67210000  1.0 -0.0386354685
C  C32  1  0.67210000  0.01190000  0.30470000  1.0 -0.0386354685
C  C33  1  0.67210000  0.01130000  0.01190000  1.0 -0.0386354685
C  C34  1  0.30470000  0.01190000  0.01130000  1.0 -0.0386354685
C  C35  1  0.01190000  0.30470000  0.67210000  1.0 -0.0386354685
C  C36  1  0.01130000  0.67210000  0.30470000  1.0 -0.0386354685
C  C37  1  0.65800000  0.36720000  0.04840000  1.0 0.0655368279
C  C38  1  0.36720000  0.65800000  0.92640000  1.0 0.0655368279
C  C39  1  0.04840000  0.92640000  0.65800000  1.0 0.0655368279
C  C40  1  0.92640000  0.04840000  0.36720000  1.0 0.0655368279
C  C41  1  0.04840000  0.65800000  0.36720000  1.0 0.0655368279
C  C42  1  0.92640000  0.36720000  0.65800000  1.0 0.0655368279
C  C43  1  0.65800000  0.04840000  0.92640000  1.0 0.0655368279
C  C44  1  0.36720000  0.92640000  0.04840000  1.0 0.0655368279
C  C45  1  0.36720000  0.04840000  0.65800000  1.0 0.0609757658
C  C46  1  0.65800000  0.92640000  0.36720000  1.0 0.0655368279
C  C47  1  0.92640000  0.65800000  0.04840000  1.0 0.0655368279
C  C48  1  0.04840000  0.36720000  0.92640000  1.0 0.0609757658
C  C49  1  0.34200000  0.63280000  0.07360000  1.0 0.0609757658
C  C50  1  0.63280000  0.34200000  0.95160000  1.0 0.0609757658
C  C51  1  0.95160000  0.07360000  0.63280000  1.0 0.0655368279
C  C52  1  0.07360000  0.95160000  0.34200000  1.0 0.0655368279
C  C53  1  0.95160000  0.34200000  0.07360000  1.0 0.0655368279
C  C54  1  0.07360000  0.63280000  0.95160000  1.0 0.0609757658
C  C55  1  0.34200000  0.95160000  0.63280000  1.0 0.0655368279
C  C56  1  0.63280000  0.07360000  0.34200000  1.0 0.0609757658
C  C57  1  0.63280000  0.95160000  0.07360000  1.0 0.0655368279
C  C58  1  0.34200000  0.07360000  0.95160000  1.0 0.0609757658
C  C59  1  0.07360000  0.34200000  0.63280000  1.0 0.0609757658
C  C60  1  0.95160000  0.63280000  0.34200000  1.0 0.0655368279
C  C61  1  0.34200000  0.63280000  0.95160000  1.0 0.0655368279
C  C62  1  0.63280000  0.34200000  0.07360000  1.0 0.0655368279
C  C63  1  0.95160000  0.07360000  0.34200000  1.0 0.0655368279
C  C64  1  0.07360000  0.95160000  0.63280000  1.0 0.0655368279
C  C65  1  0.95160000  0.34200000  0.63280000  1.0 0.0655368279
C  C66  1  0.07360000  0.63280000  0.34200000  1.0 0.0655368279
C  C67  1  0.34200000  0.95160000  0.07360000  1.0 0.0655368279
C  C68  1  0.63280000  0.07360000  0.95160000  1.0 0.0655368279
C  C69  1  0.63280000  0.95160000  0.34200000  1.0 0.0655368279
C  C70  1  0.34200000  0.07360000  0.63280000  1.0 0.0655368279
C  C71  1  0.07360000  0.34200000  0.95160000  1.0 0.0655368279
C  C72  1  0.95160000  0.63280000  0.07360000  1.0 0.0655368279
C  C73  1  0.65800000  0.36720000  0.92640000  1.0 0.0655368279
C  C74  1  0.36720000  0.65800000  0.04840000  1.0 0.0655368279
C  C75  1  0.04840000  0.92640000  0.36720000  1.0 0.0655368279
C  C76  1  0.92640000  0.04840000  0.65800000  1.0 0.0655368279
C  C77  1  0.04840000  0.65800000  0.92640000  1.0 0.0655368279
C  C78  1  0.92640000  0.36720000  0.04840000  1.0 0.0655368279
C  C79  1  0.65800000  0.04840000  0.36720000  1.0 0.0655368279
C  C80  1  0.36720000  0.92640000  0.65800000  1.0 0.0655368279
C  C81  1  0.36720000  0.04840000  0.92640000  1.0 0.0655368279
C  C82  1  0.65800000  0.92640000  0.04840000  1.0 0.0655368279
C  C83  1  0.92640000  0.65800000  0.36720000  1.0 0.0655368279
C  C84  1  0.04840000  0.36720000  0.65800000  1.0 0.0655368279
C  C85  1  0.58730000  0.44110000  0.04870000  1.0 -0.0934862715
C  C86  1  0.44110000  0.58730000  0.92290000  1.0 -0.0960911621
C  C87  1  0.04870000  0.92290000  0.58730000  1.0 -0.0960911621
C  C88  1  0.92290000  0.04870000  0.44110000  1.0 -0.0934862715
C  C89  1  0.04870000  0.58730000  0.44110000  1.0 -0.0960911621
C  C90  1  0.92290000  0.44110000  0.58730000  1.0 -0.0934862715
C  C91  1  0.58730000  0.04870000  0.92290000  1.0 -0.0934862715
C  C92  1  0.44110000  0.92290000  0.04870000  1.0 -0.0960911621
C  C93  1  0.44110000  0.04870000  0.58730000  1.0 -0.0960911621
C  C94  1  0.58730000  0.92290000  0.44110000  1.0 -0.0934862715
C  C95  1  0.92290000  0.58730000  0.04870000  1.0 -0.0934862715
C  C96  1  0.04870000  0.44110000  0.92290000  1.0 -0.0960911621
C  C97  1  0.41270000  0.55890000  0.07710000  1.0 -0.0960911621
C  C98  1  0.55890000  0.41270000  0.95130000  1.0 -0.0934862715
C  C99  1  0.95130000  0.07710000  0.55890000  1.0 -0.0934862715
C  C100  1  0.07710000  0.95130000  0.41270000  1.0 -0.0960911621
C  C101  1  0.95130000  0.41270000  0.07710000  1.0 -0.0934862715
C  C102  1  0.07710000  0.55890000  0.95130000  1.0 -0.0934862715
C  C103  1  0.41270000  0.95130000  0.55890000  1.0 -0.0934862715
C  C104  1  0.55890000  0.07710000  0.41270000  1.0 -0.0934862715
C  C105  1  0.55890000  0.95130000  0.07710000  1.0 -0.0934862715
C  C106  1  0.41270000  0.07710000  0.95130000  1.0 -0.0934862715
C  C107  1  0.07710000  0.41270000  0.55890000  1.0 -0.0960911621
C  C108  1  0.95130000  0.55890000  0.41270000  1.0 -0.0934862715
C  C109  1  0.41270000  0.55890000  0.95130000  1.0 -0.0934862715
C  C110  1  0.55890000  0.41270000  0.07710000  1.0 -0.0934862715
C  C111  1  0.95130000  0.07710000  0.41270000  1.0 -0.0934862715
C  C112  1  0.07710000  0.95130000  0.55890000  1.0 -0.0934862715
C  C113  1  0.95130000  0.41270000  0.55890000  1.0 -0.0934862715
C  C114  1  0.07710000  0.55890000  0.41270000  1.0 -0.0960911621
C  C115  1  0.41270000  0.95130000  0.07710000  1.0 -0.0960911621
C  C116  1  0.55890000  0.07710000  0.95130000  1.0 -0.0960911621
C  C117  1  0.55890000  0.95130000  0.41270000  1.0 -0.0934862715
C  C118  1  0.41270000  0.07710000  0.55890000  1.0 -0.0960911621
C  C119  1  0.07710000  0.41270000  0.95130000  1.0 -0.0934862715
C  C120  1  0.95130000  0.55890000  0.07710000  1.0 -0.0934862715
C  C121  1  0.58730000  0.44110000  0.92290000  1.0 -0.0934862715
C  C122  1  0.44110000  0.58730000  0.04870000  1.0 -0.0934862715
C  C123  1  0.04870000  0.92290000  0.44110000  1.0 -0.0934862715
C  C124  1  0.92290000  0.04870000  0.58730000  1.0 -0.0934862715
C  C125  1  0.04870000  0.58730000  0.92290000  1.0 -0.0960911621
C  C126  1  0.92290000  0.44110000  0.04870000  1.0 -0.0934862715
C  C127  1  0.58730000  0.04870000  0.44110000  1.0 -0.0934862715
C  C128  1  0.44110000  0.92290000  0.58730000  1.0 -0.0934862715
C  C129  1  0.44110000  0.04870000  0.92290000  1.0 -0.0934862715
C  C130  1  0.58730000  0.92290000  0.04870000  1.0 -0.0960911621
C  C131  1  0.92290000  0.58730000  0.44110000  1.0 -0.0934862715
C  C132  1  0.04870000  0.44110000  0.58730000  1.0 -0.0960911621
C  C133  1  0.55319000  0.47621000  0.98537000  1.0 0.0428587834
C  C134  1  0.47621000  0.55319000  0.98523000  1.0 0.0428587834
C  C135  1  0.98537000  0.98523000  0.55319000  1.0 0.0455392229
C  C136  1  0.98523000  0.98537000  0.47621000  1.0 0.0428587834
C  C137  1  0.98537000  0.55319000  0.47621000  1.0 0.0428587834
C  C138  1  0.98523000  0.47621000  0.55319000  1.0 0.0428587834
C  C139  1  0.55319000  0.98537000  0.98523000  1.0 0.0428587834
C  C140  1  0.47621000  0.98523000  0.98537000  1.0 0.0428587834
C  C141  1  0.47621000  0.98537000  0.55319000  1.0 0.0428587834
C  C142  1  0.55319000  0.98523000  0.47621000  1.0 0.0428587834
C  C143  1  0.98523000  0.55319000  0.98537000  1.0 0.0428587834
C  C144  1  0.98537000  0.47621000  0.98523000  1.0 0.0428587834
C  C145  1  0.44681000  0.52379000  0.01477000  1.0 0.0428587834
C  C146  1  0.52379000  0.44681000  0.01463000  1.0 0.0428587834
C  C147  1  0.01463000  0.01477000  0.52379000  1.0 0.0428587834
C  C148  1  0.01477000  0.01463000  0.44681000  1.0 0.0428587834
C  C149  1  0.01463000  0.44681000  0.01477000  1.0 0.0428587834
C  C150  1  0.01477000  0.52379000  0.01463000  1.0 0.0428587834
C  C151  1  0.44681000  0.01463000  0.52379000  1.0 0.0428587834
C  C152  1  0.52379000  0.01477000  0.44681000  1.0 0.0428587834
C  C153  1  0.52379000  0.01463000  0.01477000  1.0 0.0428587834
C  C154  1  0.44681000  0.01477000  0.01463000  1.0 0.0428587834
C  C155  1  0.01477000  0.44681000  0.52379000  1.0 0.0428587834
C  C156  1  0.01463000  0.52379000  0.44681000  1.0 0.0428587834
O  O1  1  0.04628000  0.04628000  0.04628000  1.0 -0.7809236308
O  O2  1  0.04628000  0.04628000  0.86116000  1.0 -0.7809236308
O  O3  1  0.04628000  0.86116000  0.04628000  1.0 -0.7809236308
O  O4  1  0.86116000  0.04628000  0.04628000  1.0 -0.7867729624
O  O5  1  0.95372000  0.95372000  0.13884000  1.0 -0.7809236308
O  O6  1  0.95372000  0.95372000  0.95372000  1.0 -0.7867729624
O  O7  1  0.95372000  0.13884000  0.95372000  1.0 -0.7809236308
O  O8  1  0.13884000  0.95372000  0.95372000  1.0 -0.7809236308
O  O9  1  0.78688000  0.21312000  0.05962000  1.0 -0.539049003
O  O10  1  0.21312000  0.78688000  0.94038000  1.0 -0.539049003
O  O11  1  0.05962000  0.94038000  0.78688000  1.0 -0.539049003
O  O12  1  0.94038000  0.05962000  0.21312000  1.0 -0.539049003
O  O13  1  0.05962000  0.78688000  0.21312000  1.0 -0.539049003
O  O14  1  0.94038000  0.21312000  0.78688000  1.0 -0.539049003
O  O15  1  0.78688000  0.05962000  0.94038000  1.0 -0.539049003
O  O16  1  0.21312000  0.94038000  0.05962000  1.0 -0.539049003
O  O17  1  0.21312000  0.05962000  0.78688000  1.0 -0.539049003
O  O18  1  0.78688000  0.94038000  0.21312000  1.0 -0.539049003
O  O19  1  0.94038000  0.78688000  0.05962000  1.0 -0.539049003
O  O20  1  0.05962000  0.21312000  0.94038000  1.0 -0.539049003
O  O21  1  0.21312000  0.78688000  0.05962000  1.0 -0.539049003
O  O22  1  0.78688000  0.21312000  0.94038000  1.0 -0.539049003
O  O23  1  0.94038000  0.05962000  0.78688000  1.0 -0.539049003
O  O24  1  0.05962000  0.94038000  0.21312000  1.0 -0.539049003
O  O25  1  0.94038000  0.21312000  0.05962000  1.0 -0.539049003
O  O26  1  0.05962000  0.78688000  0.94038000  1.0 -0.539049003
O  O27  1  0.21312000  0.94038000  0.78688000  1.0 -0.539049003
O  O28  1  0.78688000  0.05962000  0.21312000  1.0 -0.539049003
O  O29  1  0.78688000  0.94038000  0.05962000  1.0 -0.539049003
O  O30  1  0.21312000  0.05962000  0.94038000  1.0 -0.539049003
O  O31  1  0.05962000  0.21312000  0.78688000  1.0 -0.539049003
O  O32  1  0.94038000  0.78688000  0.21312000  1.0 -0.539049003
F  F1  1  0.68930000  0.33490000  0.11110000  1.0 -0.0558352524
F  F2  1  0.33490000  0.68930000  0.86470000  1.0 -0.0558352524
F  F3  1  0.11110000  0.86470000  0.68930000  1.0 -0.0558352524
F  F4  1  0.86470000  0.11110000  0.33490000  1.0 -0.0558352524
F  F5  1  0.11110000  0.68930000  0.33490000  1.0 -0.0558352524
F  F6  1  0.86470000  0.33490000  0.68930000  1.0 -0.0558352524
F  F7  1  0.68930000  0.11110000  0.86470000  1.0 -0.0543036048
F  F8  1  0.33490000  0.86470000  0.11110000  1.0 -0.0558352524
F  F9  1  0.33490000  0.11110000  0.68930000  1.0 -0.0543036048
F  F10  1  0.68930000  0.86470000  0.33490000  1.0 -0.0558352524
F  F11  1  0.86470000  0.68930000  0.11110000  1.0 -0.0558352524
F  F12  1  0.11110000  0.33490000  0.86470000  1.0 -0.0543036048
F  F13  1  0.31070000  0.66510000  0.13530000  1.0 -0.0558352524
F  F14  1  0.66510000  0.31070000  0.88890000  1.0 -0.0558352524
F  F15  1  0.88890000  0.13530000  0.66510000  1.0 -0.0558352524
F  F16  1  0.13530000  0.88890000  0.31070000  1.0 -0.0558352524
F  F17  1  0.88890000  0.31070000  0.13530000  1.0 -0.0558352524
F  F18  1  0.13530000  0.66510000  0.88890000  1.0 -0.0558352524
F  F19  1  0.31070000  0.88890000  0.66510000  1.0 -0.0558352524
F  F20  1  0.66510000  0.13530000  0.31070000  1.0 -0.0558352524
F  F21  1  0.66510000  0.88890000  0.13530000  1.0 -0.0558352524
F  F22  1  0.31070000  0.13530000  0.88890000  1.0 -0.0558352524
F  F23  1  0.13530000  0.31070000  0.66510000  1.0 -0.0558352524
F  F24  1  0.88890000  0.66510000  0.31070000  1.0 -0.0558352524
F  F25  1  0.31070000  0.66510000  0.88890000  1.0 -0.0558352524
F  F26  1  0.66510000  0.31070000  0.13530000  1.0 -0.0558352524
F  F27  1  0.88890000  0.13530000  0.31070000  1.0 -0.0558352524
F  F28  1  0.13530000  0.88890000  0.66510000  1.0 -0.0558352524
F  F29  1  0.88890000  0.31070000  0.66510000  1.0 -0.0558352524
F  F30  1  0.13530000  0.66510000  0.31070000  1.0 -0.0558352524
F  F31  1  0.31070000  0.88890000  0.13530000  1.0 -0.0558352524
F  F32  1  0.66510000  0.13530000  0.88890000  1.0 -0.0558352524
F  F33  1  0.66510000  0.88890000  0.31070000  1.0 -0.0558352524
F  F34  1  0.31070000  0.13530000  0.66510000  1.0 -0.0558352524
F  F35  1  0.13530000  0.31070000  0.88890000  1.0 -0.0558352524
F  F36  1  0.88890000  0.66510000  0.13530000  1.0 -0.0558352524
F  F37  1  0.68930000  0.33490000  0.86470000  1.0 -0.0558352524
F  F38  1  0.33490000  0.68930000  0.11110000  1.0 -0.0558352524
F  F39  1  0.11110000  0.86470000  0.33490000  1.0 -0.0558352524
F  F40  1  0.86470000  0.11110000  0.68930000  1.0 -0.0543036048
F  F41  1  0.11110000  0.68930000  0.86470000  1.0 -0.0543036048
F  F42  1  0.86470000  0.33490000  0.11110000  1.0 -0.0558352524
F  F43  1  0.68930000  0.11110000  0.33490000  1.0 -0.0558352524
F  F44  1  0.33490000  0.86470000  0.68930000  1.0 -0.0558352524
F  F45  1  0.33490000  0.11110000  0.86470000  1.0 -0.0543036048
F  F46  1  0.68930000  0.86470000  0.11110000  1.0 -0.0558352524
F  F47  1  0.86470000  0.68930000  0.33490000  1.0 -0.0558352524
F  F48  1  0.11110000  0.33490000  0.68930000  1.0 -0.0543036048
