# DDEC6 charges by PACMAN v1.1 (https://github.com/mtap-research/PACMAN-charge/)
data_IFINUJ_FSR_pacman
_symmetry_space_group_name_H-M   'P 1'
_cell_length_a   14.92500000
_cell_length_b   14.92500000
_cell_length_c   19.06620000
_cell_angle_alpha   77.43260000
_cell_angle_beta   102.56700000
_cell_angle_gamma   121.35000000
_symmetry_Int_Tables_number   1
_chemical_formula_structural   GdH10C21(NO3)4
_chemical_formula_sum   'Gd4 H40 C84 N16 O48'
_cell_volume   3512.28130608
_cell_formula_units_Z   4
loop_
 _symmetry_equiv_pos_site_id
 _symmetry_equiv_pos_as_xyz
  1  'x, y, z'
loop_
 _atom_site_type_symbol
 _atom_site_label
 _atom_site_symmetry_multiplicity
 _atom_site_fract_x
 _atom_site_fract_y
 _atom_site_fract_z
 _atom_site_occupancy
 _atom_site_charge
Gd  Gd1  1  0.02537000  0.02783000  0.39047000  1.0 2.0576115598
Gd  Gd2  1  0.02783000  0.02537000  0.10953000  1.0 2.0576115598
Gd  Gd3  1  0.97463000  0.97217000  0.60953000  1.0 2.0576115598
Gd  Gd4  1  0.97217000  0.97463000  0.89047000  1.0 2.0576115598
H  H1  1  0.17094000  0.20586000  0.29694000  1.0 0.3657209773
H  H2  1  0.23711000  0.19477000  0.35776000  1.0 0.3758505856
H  H3  1  0.00066000  0.75910000  0.41513000  1.0 0.1484775145
H  H4  1  0.89059000  0.19493000  0.08454000  1.0 0.1484775145
H  H5  1  0.92047000  0.62507000  0.61403000  1.0 0.1415323006
H  H6  1  0.89886000  0.63848000  0.97432000  1.0 0.1415323006
H  H7  1  0.99211000  0.41995000  0.25496000  1.0 0.1241100703
H  H8  1  0.98621000  0.26133000  0.29011000  1.0 0.1306920287
H  H9  1  0.00833000  0.56983000  0.21794000  1.0 0.1306920287
H  H10  1  0.01423000  0.72859000  0.17207000  1.0 0.1415323006
H  H11  1  0.20586000  0.17094000  0.20306000  1.0 0.3657209773
H  H12  1  0.19477000  0.23711000  0.14224000  1.0 0.3758505856
H  H13  1  0.75910000  0.00066000  0.08487000  1.0 0.1484775145
H  H14  1  0.19493000  0.89059000  0.41546000  1.0 0.1484775145
H  H15  1  0.62507000  0.92047000  0.88597000  1.0 0.1415323006
H  H16  1  0.63848000  0.89886000  0.52568000  1.0 0.1415323006
H  H17  1  0.41995000  0.99211000  0.24504000  1.0 0.1241100703
H  H18  1  0.26133000  0.98621000  0.20989000  1.0 0.1306920287
H  H19  1  0.56983000  0.00833000  0.28206000  1.0 0.1306920287
H  H20  1  0.72859000  0.01423000  0.32793000  1.0 0.1415323006
H  H21  1  0.82906000  0.79414000  0.70306000  1.0 0.3657209773
H  H22  1  0.76289000  0.80523000  0.64224000  1.0 0.3758505856
H  H23  1  0.99934000  0.24090000  0.58487000  1.0 0.1484775145
H  H24  1  0.10941000  0.80507000  0.91546000  1.0 0.1484775145
H  H25  1  0.07953000  0.37493000  0.38597000  1.0 0.1415323006
H  H26  1  0.10115000  0.36153000  0.02568000  1.0 0.1415323006
H  H27  1  0.00789000  0.58005000  0.74504000  1.0 0.1241100703
H  H28  1  0.01379000  0.73867000  0.70989000  1.0 0.1306920287
H  H29  1  0.99167000  0.43017000  0.78206000  1.0 0.1306920287
H  H30  1  0.98577000  0.27141000  0.82793000  1.0 0.1415323006
H  H31  1  0.79414000  0.82906000  0.79694000  1.0 0.3657209773
H  H32  1  0.80523000  0.76289000  0.85776000  1.0 0.3758505856
H  H33  1  0.24090000  0.99934000  0.91513000  1.0 0.1484775145
H  H34  1  0.80507000  0.10941000  0.58454000  1.0 0.1484775145
H  H35  1  0.37493000  0.07953000  0.11403000  1.0 0.1415323006
H  H36  1  0.36152000  0.10114000  0.47432000  1.0 0.1415323006
H  H37  1  0.58005000  0.00789000  0.75496000  1.0 0.1241100703
H  H38  1  0.73867000  0.01379000  0.79011000  1.0 0.1306920287
H  H39  1  0.43017000  0.99167000  0.71794000  1.0 0.1306920287
H  H40  1  0.27141000  0.98577000  0.67207000  1.0 0.1415323006
C  C1  1  0.99060000  0.70540000  0.45340000  1.0 -0.1396195939
C  C2  1  0.95240000  0.80140000  0.52560000  1.0 0.6298183549
C  C3  1  0.96150000  0.70870000  0.51620000  1.0 0.0170291208
C  C4  1  0.94190000  0.11030000  0.21370000  1.0 0.6408752699
C  C5  1  0.00520000  0.62500000  0.44610000  1.0 0.0885439853
C  C6  1  0.93660000  0.21060000  0.19150000  1.0 -0.003469825
C  C7  1  0.99210000  0.54450000  0.50300000  1.0 -0.1081760365
C  C8  1  0.90660000  0.23740000  0.11970000  1.0 -0.1396195939
C  C9  1  0.96520000  0.80560000  0.04050000  1.0 0.6465497364
C  C10  1  0.95890000  0.54530000  0.56520000  1.0 0.0885439853
C  C11  1  0.94330000  0.62590000  0.57210000  1.0 -0.1545866381
C  C12  1  0.95390000  0.69750000  0.06830000  1.0 -0.0107239911
C  C13  1  0.91820000  0.62460000  0.02350000  1.0 -0.1396195939
C  C14  1  0.90150000  0.32970000  0.10210000  1.0 0.0692493369
C  C15  1  0.93640000  0.40060000  0.15320000  1.0 0.0028313439
C  C16  1  0.96820000  0.37360000  0.22090000  1.0 -0.078487329
C  C17  1  0.91090000  0.52470000  0.05350000  1.0 0.0613583757
C  C18  1  0.94200000  0.50300000  0.12750000  1.0 0.0028313439
C  C19  1  0.96680000  0.27960000  0.24180000  1.0 -0.0991487492
C  C20  1  0.98300000  0.58080000  0.16960000  1.0 -0.0882230762
C  C21  1  0.98790000  0.67690000  0.14170000  1.0 -0.078487329
C  C22  1  0.70540000  0.99060000  0.04660000  1.0 -0.1396195939
C  C23  1  0.80140000  0.95240000  0.97440000  1.0 0.6298183549
C  C24  1  0.70870000  0.96150000  0.98380000  1.0 0.0170291208
C  C25  1  0.11030000  0.94190000  0.28630000  1.0 0.6408752699
C  C26  1  0.62500000  0.00520000  0.05390000  1.0 0.0885439853
C  C27  1  0.21060000  0.93660000  0.30850000  1.0 -0.003469825
C  C28  1  0.54450000  0.99210000  0.99700000  1.0 -0.1081760365
C  C29  1  0.23740000  0.90660000  0.38030000  1.0 -0.1396195939
C  C30  1  0.80560000  0.96520000  0.45950000  1.0 0.6465497364
C  C31  1  0.54530000  0.95890000  0.93480000  1.0 0.0885439853
C  C32  1  0.62590000  0.94330000  0.92790000  1.0 -0.1545866381
C  C33  1  0.69750000  0.95390000  0.43170000  1.0 -0.0107239911
C  C34  1  0.62460000  0.91820000  0.47650000  1.0 -0.1396195939
C  C35  1  0.32970000  0.90150000  0.39790000  1.0 0.0692493369
C  C36  1  0.40060000  0.93640000  0.34680000  1.0 0.0028313439
C  C37  1  0.37360000  0.96820000  0.27910000  1.0 -0.078487329
C  C38  1  0.52470000  0.91090000  0.44650000  1.0 0.0613583757
C  C39  1  0.50300000  0.94200000  0.37250000  1.0 0.0028313439
C  C40  1  0.27960000  0.96680000  0.25820000  1.0 -0.0991487492
C  C41  1  0.58080000  0.98300000  0.33040000  1.0 -0.0882230762
C  C42  1  0.67690000  0.98790000  0.35830000  1.0 -0.078487329
C  C43  1  0.00940000  0.29460000  0.54660000  1.0 -0.1396195939
C  C44  1  0.04760000  0.19860000  0.47440000  1.0 0.6298183549
C  C45  1  0.03850000  0.29130000  0.48380000  1.0 0.0170291208
C  C46  1  0.05810000  0.88970000  0.78630000  1.0 0.6408752699
C  C47  1  0.99480000  0.37500000  0.55390000  1.0 0.0885439853
C  C48  1  0.06340000  0.78940000  0.80850000  1.0 -0.003469825
C  C49  1  0.00790000  0.45550000  0.49700000  1.0 -0.1081760365
C  C50  1  0.09340000  0.76260000  0.88030000  1.0 -0.1396195939
C  C51  1  0.03480000  0.19440000  0.95950000  1.0 0.6465497364
C  C52  1  0.04110000  0.45470000  0.43480000  1.0 0.0885439853
C  C53  1  0.05670000  0.37410000  0.42790000  1.0 -0.1545866381
C  C54  1  0.04610000  0.30250000  0.93170000  1.0 -0.0107239911
C  C55  1  0.08180000  0.37540000  0.97650000  1.0 -0.1396195939
C  C56  1  0.09850000  0.67030000  0.89790000  1.0 0.0692493369
C  C57  1  0.06360000  0.59940000  0.84680000  1.0 0.0028313439
C  C58  1  0.03180000  0.62640000  0.77910000  1.0 -0.078487329
C  C59  1  0.08910000  0.47530000  0.94650000  1.0 0.0613583757
C  C60  1  0.05800000  0.49700000  0.87250000  1.0 0.0028313439
C  C61  1  0.03320000  0.72040000  0.75820000  1.0 -0.0991487492
C  C62  1  0.01700000  0.41920000  0.83040000  1.0 -0.0882230762
C  C63  1  0.01210000  0.32310000  0.85830000  1.0 -0.078487329
C  C64  1  0.29460000  0.00940000  0.95340000  1.0 -0.1396195939
C  C65  1  0.19860000  0.04760000  0.02560000  1.0 0.6298183549
C  C66  1  0.29130000  0.03850000  0.01620000  1.0 0.0170291208
C  C67  1  0.88970000  0.05810000  0.71370000  1.0 0.6408752699
C  C68  1  0.37500000  0.99480000  0.94610000  1.0 0.0885439853
C  C69  1  0.78940000  0.06340000  0.69150000  1.0 -0.003469825
C  C70  1  0.45550000  0.00790000  0.00300000  1.0 -0.1081760365
C  C71  1  0.76260000  0.09340000  0.61970000  1.0 -0.1396195939
C  C72  1  0.19440000  0.03480000  0.54050000  1.0 0.6465497364
C  C73  1  0.45470000  0.04110000  0.06520000  1.0 0.0885439853
C  C74  1  0.37410000  0.05670000  0.07210000  1.0 -0.1545866381
C  C75  1  0.30250000  0.04610000  0.56830000  1.0 -0.0107239911
C  C76  1  0.37540000  0.08180000  0.52350000  1.0 -0.1396195939
C  C77  1  0.67030000  0.09850000  0.60210000  1.0 0.0692493369
C  C78  1  0.59940000  0.06360000  0.65320000  1.0 0.0028313439
C  C79  1  0.62640000  0.03180000  0.72090000  1.0 -0.078487329
C  C80  1  0.47530000  0.08910000  0.55350000  1.0 0.0613583757
C  C81  1  0.49700000  0.05800000  0.62750000  1.0 0.0028313439
C  C82  1  0.72040000  0.03320000  0.74180000  1.0 -0.0991487492
C  C83  1  0.41920000  0.01700000  0.66960000  1.0 -0.0882230762
C  C84  1  0.32310000  0.01210000  0.64170000  1.0 -0.078487329
N  N1  1  0.86820000  0.35580000  0.03240000  1.0 0.2404102732
N  N2  1  0.87280000  0.44940000  0.00840000  1.0 0.25586011
N  N3  1  0.02980000  0.61280000  0.38850000  1.0 0.2342555125
N  N4  1  0.94850000  0.46790000  0.61550000  1.0 0.2052102138
N  N5  1  0.35580000  0.86820000  0.46760000  1.0 0.2404102732
N  N6  1  0.44940000  0.87280000  0.49160000  1.0 0.2535253514
N  N7  1  0.61280000  0.02980000  0.11150000  1.0 0.2404102732
N  N8  1  0.46790000  0.94850000  0.88450000  1.0 0.2052102138
N  N9  1  0.13180000  0.64420000  0.96760000  1.0 0.2404102732
N  N10  1  0.12720000  0.55060000  0.99160000  1.0 0.25586011
N  N11  1  0.97020000  0.38720000  0.61150000  1.0 0.2342555125
N  N12  1  0.05150000  0.53210000  0.38450000  1.0 0.2052102138
N  N13  1  0.64420000  0.13180000  0.53240000  1.0 0.2404102732
N  N14  1  0.55060000  0.12720000  0.50840000  1.0 0.2535253514
N  N15  1  0.38720000  0.97020000  0.88850000  1.0 0.2342555125
N  N16  1  0.53210000  0.05150000  0.11550000  1.0 0.2026945402
O  O1  1  0.99900000  0.86800000  0.08570000  1.0 -0.6133410584
O  O2  1  0.96230000  0.08570000  0.28030000  1.0 -0.6458697717
O  O3  1  0.97190000  0.87530000  0.47540000  1.0 -0.6410574864
O  O4  1  0.92760000  0.05860000  0.16490000  1.0 -0.6133410584
O  O5  1  0.18200000  0.15680000  0.32700000  1.0 -0.7582447778
O  O6  1  0.93980000  0.82380000  0.97300000  1.0 -0.6920393358
O  O7  1  0.92930000  0.80130000  0.58530000  1.0 -0.6458697717
O  O8  1  0.82390000  0.28610000  0.98560000  1.0 -0.4495503555
O  O9  1  0.84060000  0.46640000  0.94120000  1.0 -0.3696380358
O  O10  1  0.04560000  0.68120000  0.33600000  1.0 -0.2908734258
O  O11  1  0.90930000  0.45690000  0.66800000  1.0 -0.2534889977
O  O12  1  0.85070000  0.86110000  0.33690000  1.0 -0.078487329
O  O13  1  0.86800000  0.99900000  0.41430000  1.0 -0.6133410584
O  O14  1  0.08570000  0.96230000  0.21970000  1.0 -0.6458697717
O  O15  1  0.87530000  0.97190000  0.02460000  1.0 -0.6410574864
O  O16  1  0.05860000  0.92760000  0.33510000  1.0 -0.6133410584
O  O17  1  0.15680000  0.18200000  0.17300000  1.0 -0.7582447778
O  O18  1  0.82380000  0.93980000  0.52700000  1.0 -0.6920393358
O  O19  1  0.80130000  0.92930000  0.91470000  1.0 -0.6458697717
O  O20  1  0.28610000  0.82390000  0.51440000  1.0 -0.4495503555
O  O21  1  0.46640000  0.84060000  0.55880000  1.0 -0.3696380358
O  O22  1  0.68120000  0.04560000  0.16400000  1.0 -0.2908734258
O  O23  1  0.45690000  0.90930000  0.83200000  1.0 -0.2534889977
O  O24  1  0.86110000  0.85070000  0.16310000  1.0 -0.0679888378
O  O25  1  0.00100000  0.13200000  0.91430000  1.0 -0.6133410584
O  O26  1  0.03770000  0.91430000  0.71970000  1.0 -0.6458697717
O  O27  1  0.02810000  0.12470000  0.52460000  1.0 -0.6410574864
O  O28  1  0.07240000  0.94140000  0.83510000  1.0 -0.6133410584
O  O29  1  0.81800000  0.84320000  0.67300000  1.0 -0.7582447778
O  O30  1  0.06020000  0.17620000  0.02700000  1.0 -0.6920393358
O  O31  1  0.07070000  0.19870000  0.41470000  1.0 -0.6458697717
O  O32  1  0.17610000  0.71390000  0.01440000  1.0 -0.4495503555
O  O33  1  0.15940000  0.53360000  0.05880000  1.0 -0.3696380358
O  O34  1  0.95440000  0.31880000  0.66400000  1.0 -0.2908734258
O  O35  1  0.09070000  0.54310000  0.33200000  1.0 -0.2534889977
O  O36  1  0.14930000  0.13890000  0.66310000  1.0 -0.078487329
O  O37  1  0.13200000  0.00100000  0.58570000  1.0 -0.6133410584
O  O38  1  0.91430000  0.03770000  0.78030000  1.0 -0.6458697717
O  O39  1  0.12470000  0.02810000  0.97540000  1.0 -0.6410574864
O  O40  1  0.94140000  0.07240000  0.66490000  1.0 -0.6133410584
O  O41  1  0.84320000  0.81800000  0.82700000  1.0 -0.7582447778
O  O42  1  0.17620000  0.06020000  0.47300000  1.0 -0.6920393358
O  O43  1  0.19870000  0.07070000  0.08530000  1.0 -0.6458697717
O  O44  1  0.71390000  0.17610000  0.48560000  1.0 -0.4495503555
O  O45  1  0.53360000  0.15940000  0.44120000  1.0 -0.3696380358
O  O46  1  0.31880000  0.95440000  0.83600000  1.0 -0.2908734258
O  O47  1  0.54310000  0.09070000  0.16800000  1.0 -0.2534889977
O  O48  1  0.13890000  0.14930000  0.83690000  1.0 -0.078487329
