# DDEC6 charges by PACMAN v1.1 (https://github.com/mtap-research/PACMAN-charge/)
data_IFUNUU_ASR_pacman
_symmetry_space_group_name_H-M   'P 1'
_cell_length_a   13.90600000
_cell_length_b   13.90600000
_cell_length_c   14.62000000
_cell_angle_alpha   84.05170000
_cell_angle_beta   95.94830000
_cell_angle_gamma   124.42700000
_symmetry_Int_Tables_number   1
_chemical_formula_structural   TbH8C15O7F
_chemical_formula_sum   'Tb4 H32 C60 O28 F4'
_cell_volume   2315.92841141
_cell_formula_units_Z   4
loop_
 _symmetry_equiv_pos_site_id
 _symmetry_equiv_pos_as_xyz
  1  'x, y, z'
loop_
 _atom_site_type_symbol
 _atom_site_label
 _atom_site_symmetry_multiplicity
 _atom_site_fract_x
 _atom_site_fract_y
 _atom_site_fract_z
 _atom_site_occupancy
 _atom_site_charge
Tb  Tb1  1  0.87798000  0.53251000  0.46790000  1.0 2.0468302925
Tb  Tb2  1  0.53251000  0.87798000  0.03210000  1.0 2.0468302925
Tb  Tb3  1  0.12202000  0.46749000  0.53210000  1.0 2.0468302925
Tb  Tb4  1  0.46749000  0.12201000  0.96790000  1.0 2.0468302925
H  H1  1  0.93220000  0.66939000  0.72830000  1.0 0.1310181503
H  H2  1  0.66939000  0.93220000  0.77170000  1.0 0.1310181503
H  H3  1  0.06780000  0.33060000  0.27170000  1.0 0.1310181503
H  H4  1  0.33060000  0.06780000  0.22830000  1.0 0.1310181503
H  H5  1  0.22530000  0.68169000  0.79010000  1.0 0.1414207478
H  H6  1  0.68170000  0.22530000  0.70990000  1.0 0.1414207478
H  H7  1  0.77470000  0.31831000  0.20990000  1.0 0.1414207478
H  H8  1  0.31831000  0.77470000  0.29010000  1.0 0.1414207478
H  H9  1  0.15280000  0.86619000  0.93150000  1.0 0.1310181503
H  H10  1  0.86619000  0.15280000  0.56850000  1.0 0.1310181503
H  H11  1  0.84720000  0.13381000  0.06850000  1.0 0.1310181503
H  H12  1  0.13380000  0.84720000  0.43150000  1.0 0.1310181503
H  H13  1  0.66370000  0.66249000  0.89120000  1.0 0.1456355562
H  H14  1  0.66249000  0.66370000  0.60880000  1.0 0.1456355562
H  H15  1  0.33630000  0.33750000  0.10880000  1.0 0.1456355562
H  H16  1  0.33750000  0.33630000  0.39120000  1.0 0.1456355562
H  H17  1  0.05200000  0.96000000  0.88470000  1.0 0.1211344112
H  H18  1  0.96000000  0.05200000  0.61530000  1.0 0.1211344112
H  H19  1  0.94800000  0.04000000  0.11530000  1.0 0.1211344112
H  H20  1  0.04000000  0.94800000  0.38470000  1.0 0.1211344112
H  H21  1  0.91790000  0.99169000  0.93510000  1.0 0.1211344112
H  H22  1  0.99169000  0.91790000  0.56490000  1.0 0.1211344112
H  H23  1  0.08210000  0.00830000  0.06490000  1.0 0.1211344112
H  H24  1  0.00831000  0.08210000  0.43510000  1.0 0.1211344112
H  H25  1  0.66980000  0.47699000  0.40920000  1.0 0.3161998798
H  H26  1  0.47699000  0.66980000  0.09080000  1.0 0.3161998798
H  H27  1  0.33020000  0.52300000  0.59080000  1.0 0.3161998798
H  H28  1  0.52300000  0.33020000  0.90920000  1.0 0.3161998798
H  H29  1  0.63500000  0.47900000  0.34900000  1.0 0.3284312223
H  H30  1  0.47899000  0.63500000  0.15100000  1.0 0.3284312223
H  H31  1  0.36500000  0.52101000  0.65100000  1.0 0.3284312223
H  H32  1  0.52101000  0.36500000  0.84900000  1.0 0.3284312223
C  C1  1  0.02390000  0.76709000  0.83680000  1.0 0.0829936468
C  C2  1  0.76709000  0.02390000  0.66320000  1.0 0.0829936468
C  C3  1  0.97610000  0.23291000  0.16320000  1.0 0.0829936468
C  C4  1  0.23290000  0.97610000  0.33680000  1.0 0.0829936468
C  C5  1  0.00100000  0.69759000  0.76470000  1.0 -0.1372112262
C  C6  1  0.69759000  0.00100000  0.73530000  1.0 -0.1372112262
C  C7  1  0.99900000  0.30240000  0.23530000  1.0 -0.1372112262
C  C8  1  0.30240000  0.99900000  0.26470000  1.0 -0.1372112262
C  C9  1  0.07680000  0.66919000  0.74530000  1.0 -0.0204087409
C  C10  1  0.66919000  0.07680000  0.75470000  1.0 -0.0204087409
C  C11  1  0.92320000  0.33081000  0.25470000  1.0 -0.0204087409
C  C12  1  0.33081000  0.92320000  0.24530000  1.0 -0.0147583552
C  C13  1  0.17750000  0.70610000  0.80000000  1.0 -0.0980935286
C  C14  1  0.70610000  0.17750000  0.70000000  1.0 -0.0980935286
C  C15  1  0.82250000  0.29391000  0.20000000  1.0 -0.0980935286
C  C16  1  0.29390000  0.82250000  0.30000000  1.0 -0.0980935286
C  C17  1  0.20690000  0.78090000  0.87090000  1.0 -0.0204087409
C  C18  1  0.78090000  0.20690000  0.62910000  1.0 -0.0204087409
C  C19  1  0.79310000  0.21910000  0.12910000  1.0 -0.0204087409
C  C20  1  0.21910000  0.79310000  0.37090000  1.0 -0.0204087409
C  C21  1  0.13130000  0.81329000  0.88700000  1.0 -0.1469722765
C  C22  1  0.81329000  0.13130000  0.61300000  1.0 -0.1469722765
C  C23  1  0.86870000  0.18671000  0.11300000  1.0 -0.1469722765
C  C24  1  0.18670000  0.86870000  0.38700000  1.0 -0.1469722765
C  C25  1  0.93750000  0.78970000  0.86090000  1.0 -0.0483448992
C  C26  1  0.78969000  0.93750000  0.63910000  1.0 -0.0483448992
C  C27  1  0.06250000  0.21030000  0.13910000  1.0 -0.0483448992
C  C28  1  0.21030000  0.06250000  0.36090000  1.0 -0.0483448992
C  C29  1  0.82150000  0.70669000  0.86080000  1.0 0.2330934365
C  C30  1  0.70669000  0.82150000  0.63920000  1.0 0.2330934365
C  C31  1  0.17850000  0.29330000  0.13920000  1.0 0.2330934365
C  C32  1  0.29330000  0.17850000  0.36080000  1.0 0.2330934365
C  C33  1  0.74230000  0.72349000  0.89110000  1.0 -0.214046825
C  C34  1  0.72349000  0.74230000  0.60890000  1.0 -0.214046825
C  C35  1  0.25770000  0.27651000  0.10890000  1.0 -0.214046825
C  C36  1  0.27651000  0.25770000  0.39110000  1.0 -0.214046825
C  C37  1  0.97360000  0.89880000  0.88710000  1.0 -0.1209189019
C  C38  1  0.89879000  0.97360000  0.61290000  1.0 -0.1209189019
C  C39  1  0.02640000  0.10120000  0.11290000  1.0 -0.1209189019
C  C40  1  0.10121000  0.02640000  0.38710000  1.0 -0.1209189019
C  C41  1  0.04700000  0.59540000  0.66450000  1.0 0.6444801052
C  C42  1  0.59540000  0.04700000  0.83550000  1.0 0.6444801052
C  C43  1  0.95300000  0.40460000  0.33550000  1.0 0.6444801052
C  C44  1  0.40460000  0.95300000  0.16450000  1.0 0.6444801052
C  C45  1  0.69490000  0.84809000  0.96070000  1.0 0.5510825773
C  C46  1  0.84809000  0.69490000  0.53930000  1.0 0.5510825773
C  C47  1  0.30510000  0.15191000  0.03930000  1.0 0.5510825773
C  C48  1  0.15190000  0.30510000  0.46070000  1.0 0.5510825773
C  C49  1  0.77790000  0.82869000  0.92110000  1.0 0.0146238988
C  C50  1  0.82869000  0.77790000  0.57890000  1.0 0.0146238988
C  C51  1  0.22210000  0.17130000  0.07890000  1.0 0.0146238988
C  C52  1  0.17130000  0.22210000  0.42110000  1.0 0.0146238988
C  C53  1  0.89280000  0.91819000  0.91760000  1.0 -0.1209189019
C  C54  1  0.91819000  0.89280000  0.58240000  1.0 -0.1209189019
C  C55  1  0.10720000  0.08181000  0.08240000  1.0 -0.1209189019
C  C56  1  0.08181000  0.10720000  0.41760000  1.0 -0.1209189019
C  C57  1  0.31580000  0.82239000  0.92890000  1.0 0.6214745601
C  C58  1  0.82239000  0.31580000  0.57110000  1.0 0.6214745601
C  C59  1  0.68420000  0.17760000  0.07110000  1.0 0.6214745601
C  C60  1  0.17760000  0.68420000  0.42890000  1.0 0.6214745601
O  O1  1  0.11790000  0.57249000  0.64810000  1.0 -0.6253606121
O  O2  1  0.57249000  0.11790000  0.85190000  1.0 -0.6253606121
O  O3  1  0.88210000  0.42751000  0.35190000  1.0 -0.6253606121
O  O4  1  0.42750000  0.88210000  0.14810000  1.0 -0.6253606121
O  O5  1  0.95160000  0.56300000  0.62100000  1.0 -0.65067165
O  O6  1  0.56300000  0.95160000  0.87900000  1.0 -0.65067165
O  O7  1  0.04840000  0.43700000  0.37900000  1.0 -0.65067165
O  O8  1  0.43700000  0.04840000  0.12100000  1.0 -0.65067165
O  O9  1  0.35090000  0.75570000  0.94500000  1.0 -0.5788651297
O  O10  1  0.75570000  0.35090000  0.55500000  1.0 -0.5788651297
O  O11  1  0.64910000  0.24430000  0.05500000  1.0 -0.5788651297
O  O12  1  0.24430000  0.64910000  0.44500000  1.0 -0.5788651297
O  O13  1  0.37080000  0.92179000  0.96060000  1.0 -0.7304369699
O  O14  1  0.92180000  0.37080000  0.53940000  1.0 -0.7304369699
O  O15  1  0.62920000  0.07820000  0.03940000  1.0 -0.7304369699
O  O16  1  0.07820000  0.62920000  0.46060000  1.0 -0.7304369699
O  O17  1  0.58860000  0.76579000  0.96280000  1.0 -0.6177764277
O  O18  1  0.76579000  0.58860000  0.53720000  1.0 -0.6177764277
O  O19  1  0.41140000  0.23420000  0.03720000  1.0 -0.6177764277
O  O20  1  0.23420000  0.41140000  0.46280000  1.0 -0.6177764277
O  O21  1  0.73230000  0.94090000  0.99420000  1.0 -0.5898861776
O  O22  1  0.94089000  0.73230000  0.50580000  1.0 -0.5898861776
O  O23  1  0.26770000  0.05910000  0.00580000  1.0 -0.5898861776
O  O24  1  0.05910000  0.26770000  0.49420000  1.0 -0.5898861776
O  O25  1  0.68620000  0.43260000  0.38980000  1.0 -0.7646903585
O  O26  1  0.43259000  0.68620000  0.11020000  1.0 -0.7646903585
O  O27  1  0.31380000  0.56741000  0.61020000  1.0 -0.7646903585
O  O28  1  0.56741000  0.31380000  0.88980000  1.0 -0.7646903585
F  F1  1  0.77910000  0.60330000  0.82760000  1.0 -0.1469722765
F  F2  1  0.60329000  0.77910000  0.67240000  1.0 -0.1469722765
F  F3  1  0.22090000  0.39670000  0.17240000  1.0 -0.1469722765
F  F4  1  0.39670000  0.22090000  0.32760000  1.0 -0.1469722765
