# DDEC6 charges by PACMAN v1.1 (https://github.com/mtap-research/PACMAN-charge/)
data_IFUPAC_ASR_pacman
_symmetry_space_group_name_H-M   'P 1'
_cell_length_a   13.93870000
_cell_length_b   13.93870000
_cell_length_c   14.69050000
_cell_angle_alpha   84.10750000
_cell_angle_beta   95.89250000
_cell_angle_gamma   124.61500000
_symmetry_Int_Tables_number   1
_chemical_formula_structural   EuH8C15O7F
_chemical_formula_sum   'Eu4 H32 C60 O28 F4'
_cell_volume   2333.11200302
_cell_formula_units_Z   4
loop_
 _symmetry_equiv_pos_site_id
 _symmetry_equiv_pos_as_xyz
  1  'x, y, z'
loop_
 _atom_site_type_symbol
 _atom_site_label
 _atom_site_symmetry_multiplicity
 _atom_site_fract_x
 _atom_site_fract_y
 _atom_site_fract_z
 _atom_site_occupancy
 _atom_site_charge
Eu  Eu1  1  0.87815000  0.53287000  0.96779000  1.0 1.9175423398
Eu  Eu2  1  0.53287000  0.87815000  0.53221000  1.0 1.9175423398
Eu  Eu3  1  0.12185000  0.46713000  0.03221000  1.0 1.9175423398
Eu  Eu4  1  0.46713000  0.12185000  0.46779000  1.0 1.9175423398
H  H1  1  0.15230000  0.86470000  0.43250000  1.0 0.1292772308
H  H2  1  0.86470000  0.15230000  0.06750000  1.0 0.1292772308
H  H3  1  0.84770000  0.13530000  0.56750000  1.0 0.1292772308
H  H4  1  0.13530000  0.84770000  0.93250000  1.0 0.1292772308
H  H5  1  0.22510000  0.68170000  0.29120000  1.0 0.1363631203
H  H6  1  0.68170000  0.22510000  0.20880000  1.0 0.1363631203
H  H7  1  0.77490000  0.31830000  0.70880000  1.0 0.1363631203
H  H8  1  0.31830000  0.77490000  0.79120000  1.0 0.1363631203
H  H9  1  0.93080000  0.66860000  0.22950000  1.0 0.1292772308
H  H10  1  0.66860000  0.93080000  0.27050000  1.0 0.1292772308
H  H11  1  0.06920000  0.33140000  0.77050000  1.0 0.1292772308
H  H12  1  0.33140000  0.06920000  0.72950000  1.0 0.1292772308
H  H13  1  0.05190000  0.95910000  0.38650000  1.0 0.1240562495
H  H14  1  0.95910000  0.05190000  0.11350000  1.0 0.1240562495
H  H15  1  0.94810000  0.04090000  0.61350000  1.0 0.1240562495
H  H16  1  0.04090000  0.94810000  0.88650000  1.0 0.1240562495
H  H17  1  0.91860000  0.99120000  0.43300000  1.0 0.1240562495
H  H18  1  0.99120000  0.91860000  0.06700000  1.0 0.1240562495
H  H19  1  0.08140000  0.00880000  0.56700000  1.0 0.1240562495
H  H20  1  0.00880000  0.08140000  0.93300000  1.0 0.1240562495
H  H21  1  0.66320000  0.66340000  0.39050000  1.0 0.1551789358
H  H22  1  0.66340000  0.66320000  0.10950000  1.0 0.1551789358
H  H23  1  0.33680000  0.33660000  0.60950000  1.0 0.1551789358
H  H24  1  0.33660000  0.33680000  0.89050000  1.0 0.1551789358
H  H25  1  0.73400000  0.50800000  0.86300000  1.0 0.270274432
H  H26  1  0.50800000  0.73400000  0.63700000  1.0 0.270274432
H  H27  1  0.26600000  0.49200000  0.13700000  1.0 0.270274432
H  H28  1  0.49200000  0.26600000  0.36300000  1.0 0.270274432
H  H29  1  0.71600000  0.46800000  0.91900000  1.0 0.270274432
H  H30  1  0.46800000  0.71600000  0.58100000  1.0 0.270274432
H  H31  1  0.28400000  0.53200000  0.08100000  1.0 0.270274432
H  H32  1  0.53200000  0.28400000  0.41900000  1.0 0.270274432
C  C1  1  0.93890000  0.79130000  0.36050000  1.0 -0.0425986037
C  C2  1  0.79130000  0.93890000  0.13950000  1.0 -0.0425986037
C  C3  1  0.06110000  0.20870000  0.63950000  1.0 -0.0425986037
C  C4  1  0.20870000  0.06110000  0.86050000  1.0 -0.0425986037
C  C5  1  0.02500000  0.76660000  0.33730000  1.0 0.0806329284
C  C6  1  0.76660000  0.02500000  0.16270000  1.0 0.0806329284
C  C7  1  0.97500000  0.23340000  0.66270000  1.0 0.0806329284
C  C8  1  0.23340000  0.97500000  0.83730000  1.0 0.0806329284
C  C9  1  0.13090000  0.81230000  0.38780000  1.0 -0.1619101599
C  C10  1  0.81230000  0.13090000  0.11220000  1.0 -0.1619101599
C  C11  1  0.86910000  0.18770000  0.61220000  1.0 -0.1619101599
C  C12  1  0.18770000  0.86910000  0.88780000  1.0 -0.1619101599
C  C13  1  0.20580000  0.77860000  0.37100000  1.0 -0.0110024126
C  C14  1  0.77860000  0.20580000  0.12900000  1.0 -0.0110024126
C  C15  1  0.79420000  0.22140000  0.62900000  1.0 -0.0110024126
C  C16  1  0.22140000  0.79420000  0.87100000  1.0 -0.0110024126
C  C17  1  0.17740000  0.70600000  0.30110000  1.0 -0.1137170926
C  C18  1  0.70600000  0.17740000  0.19890000  1.0 -0.1137170926
C  C19  1  0.82260000  0.29400000  0.69890000  1.0 -0.1137170926
C  C20  1  0.29400000  0.82260000  0.80110000  1.0 -0.1137170926
C  C21  1  0.07640000  0.66960000  0.24570000  1.0 -0.0110024126
C  C22  1  0.66960000  0.07640000  0.25430000  1.0 -0.0110024126
C  C23  1  0.92360000  0.33040000  0.75430000  1.0 -0.0110024126
C  C24  1  0.33040000  0.92360000  0.74570000  1.0 -0.0110024126
C  C25  1  0.99990000  0.69710000  0.26510000  1.0 -0.1492750332
C  C26  1  0.69710000  0.99990000  0.23490000  1.0 -0.1492750332
C  C27  1  0.00010000  0.30290000  0.73490000  1.0 -0.1492750332
C  C28  1  0.30290000  0.00010000  0.76510000  1.0 -0.1492750332
C  C29  1  0.31600000  0.82000000  0.42920000  1.0 0.6192839905
C  C30  1  0.82000000  0.31600000  0.07080000  1.0 0.6192839905
C  C31  1  0.68400000  0.18000000  0.57080000  1.0 0.6192839905
C  C32  1  0.18000000  0.68400000  0.92920000  1.0 0.6192839905
C  C33  1  0.04430000  0.59270000  0.16620000  1.0 0.6411831096
C  C34  1  0.59270000  0.04430000  0.33380000  1.0 0.6411831096
C  C35  1  0.95570000  0.40730000  0.83380000  1.0 0.6411831096
C  C36  1  0.40730000  0.95570000  0.66620000  1.0 0.6411831096
C  C37  1  0.97350000  0.89790000  0.38740000  1.0 -0.1242691732
C  C38  1  0.89790000  0.97350000  0.11260000  1.0 -0.1242691732
C  C39  1  0.02650000  0.10210000  0.61260000  1.0 -0.1242691732
C  C40  1  0.10210000  0.02650000  0.88740000  1.0 -0.1242691732
C  C41  1  0.89300000  0.91720000  0.41650000  1.0 -0.1242691732
C  C42  1  0.91720000  0.89300000  0.08350000  1.0 -0.1253492147
C  C43  1  0.10700000  0.08280000  0.58350000  1.0 -0.1242691732
C  C44  1  0.08280000  0.10700000  0.91650000  1.0 -0.1242691732
C  C45  1  0.77940000  0.82960000  0.42070000  1.0 0.0102768015
C  C46  1  0.82960000  0.77940000  0.07930000  1.0 0.0102768015
C  C47  1  0.22060000  0.17040000  0.57930000  1.0 0.0102768015
C  C48  1  0.17040000  0.22060000  0.92070000  1.0 0.0102768015
C  C49  1  0.74190000  0.72410000  0.39070000  1.0 -0.2118482575
C  C50  1  0.72410000  0.74190000  0.10930000  1.0 -0.2118482575
C  C51  1  0.25810000  0.27590000  0.60930000  1.0 -0.2118482575
C  C52  1  0.27590000  0.25810000  0.89070000  1.0 -0.2118482575
C  C53  1  0.82230000  0.70790000  0.36040000  1.0 0.2397740684
C  C54  1  0.70790000  0.82230000  0.13960000  1.0 0.2397740684
C  C55  1  0.17770000  0.29210000  0.63960000  1.0 0.2397740684
C  C56  1  0.29210000  0.17770000  0.86040000  1.0 0.2397740684
C  C57  1  0.69730000  0.84830000  0.46160000  1.0 0.5549009159
C  C58  1  0.84830000  0.69730000  0.03840000  1.0 0.5549009159
C  C59  1  0.30270000  0.15170000  0.53840000  1.0 0.5549009159
C  C60  1  0.15170000  0.30270000  0.96160000  1.0 0.5549009159
O  O1  1  0.34890000  0.75270000  0.44420000  1.0 -0.5703665153
O  O2  1  0.75270000  0.34890000  0.05580000  1.0 -0.5703665153
O  O3  1  0.65110000  0.24730000  0.55580000  1.0 -0.5703665153
O  O4  1  0.24730000  0.65110000  0.94420000  1.0 -0.5703665153
O  O5  1  0.95160000  0.56220000  0.12210000  1.0 -0.6240602419
O  O6  1  0.56220000  0.95160000  0.37790000  1.0 -0.6240602419
O  O7  1  0.04840000  0.43780000  0.87790000  1.0 -0.6240602419
O  O8  1  0.43780000  0.04840000  0.62210000  1.0 -0.6240602419
O  O9  1  0.73390000  0.94170000  0.49390000  1.0 -0.5806274697
O  O10  1  0.94170000  0.73390000  0.00610000  1.0 -0.5806274697
O  O11  1  0.26610000  0.05830000  0.50610000  1.0 -0.5806274697
O  O12  1  0.05830000  0.26610000  0.99390000  1.0 -0.5806274697
O  O13  1  0.59060000  0.76580000  0.46340000  1.0 -0.5886593819
O  O14  1  0.76580000  0.59060000  0.03660000  1.0 -0.5886593819
O  O15  1  0.40940000  0.23420000  0.53660000  1.0 -0.5886593819
O  O16  1  0.23420000  0.40940000  0.96340000  1.0 -0.5886593819
O  O17  1  0.36980000  0.91840000  0.46250000  1.0 -0.7156932339
O  O18  1  0.91840000  0.36980000  0.03750000  1.0 -0.7156932339
O  O19  1  0.63020000  0.08160000  0.53750000  1.0 -0.7156932339
O  O20  1  0.08160000  0.63020000  0.96250000  1.0 -0.7156932339
O  O21  1  0.11630000  0.57050000  0.14980000  1.0 -0.6468143002
O  O22  1  0.57050000  0.11630000  0.35020000  1.0 -0.6468143002
O  O23  1  0.88370000  0.42950000  0.85020000  1.0 -0.6468143002
O  O24  1  0.42950000  0.88370000  0.64980000  1.0 -0.6468143002
O  O25  1  0.68530000  0.43270000  0.88880000  1.0 -0.5886593819
O  O26  1  0.43270000  0.68530000  0.61120000  1.0 -0.5886593819
O  O27  1  0.31470000  0.56730000  0.11120000  1.0 -0.5886593819
O  O28  1  0.56730000  0.31470000  0.38880000  1.0 -0.5886593819
F  F1  1  0.77910000  0.60450000  0.32690000  1.0 -0.137309181
F  F2  1  0.60450000  0.77910000  0.17310000  1.0 -0.137309181
F  F3  1  0.22090000  0.39550000  0.67310000  1.0 -0.137309181
F  F4  1  0.39550000  0.22090000  0.82690000  1.0 -0.137309181
