# DDEC6 charges by PACMAN v1.1 (https://github.com/mtap-research/PACMAN-charge/)
data_IFUXOW_ion_pacman
_symmetry_space_group_name_H-M   'P 1'
_cell_length_a   14.33520000
_cell_length_b   14.33520000
_cell_length_c   13.53820000
_cell_angle_alpha   66.34630000
_cell_angle_beta   113.65400000
_cell_angle_gamma   128.78900000
_symmetry_Int_Tables_number   1
_chemical_formula_structural   Mn3Mo2H30C22N16O3
_chemical_formula_sum   'Mn6 Mo4 H60 C44 N32 O6'
_cell_volume   1942.07023293
_cell_formula_units_Z   2
loop_
 _symmetry_equiv_pos_site_id
 _symmetry_equiv_pos_as_xyz
  1  'x, y, z'
loop_
 _atom_site_type_symbol
 _atom_site_label
 _atom_site_symmetry_multiplicity
 _atom_site_fract_x
 _atom_site_fract_y
 _atom_site_fract_z
 _atom_site_occupancy
 _atom_site_charge
Mn  Mn1  1  0.07779000  0.07779000  0.25000000  1.0 0.8929451053
Mn  Mn2  1  0.92221000  0.92221000  0.75000000  1.0 0.8929451053
Mn  Mn3  1  0.72829000  0.30469000  0.95874000  1.0 0.9265196715
Mn  Mn4  1  0.30469000  0.72829000  0.54126000  1.0 0.9265196715
Mn  Mn5  1  0.27171000  0.69531000  0.04126000  1.0 0.9265196715
Mn  Mn6  1  0.69531000  0.27171000  0.45874000  1.0 0.9265196715
Mo  Mo1  1  0.33647000  0.05217000  0.67539000  1.0 0.6159901563
Mo  Mo2  1  0.05217000  0.33647000  0.82461000  1.0 0.6159901563
Mo  Mo3  1  0.66353000  0.94783000  0.32461000  1.0 0.6129246597
Mo  Mo4  1  0.94783000  0.66353000  0.17539000  1.0 0.6129246597
H  H1  1  0.29650000  0.22950000  0.25700000  1.0 0.3861800079
H  H2  1  0.22950000  0.29650000  0.24300000  1.0 0.3861800079
H  H3  1  0.70350000  0.77050000  0.74300000  1.0 0.3861800079
H  H4  1  0.77050000  0.70350000  0.75700000  1.0 0.3861800079
H  H5  1  0.65700000  0.45900000  0.85400000  1.0 0.336909527
H  H6  1  0.45900000  0.65700000  0.64600000  1.0 0.336909527
H  H7  1  0.34300000  0.54100000  0.14600000  1.0 0.336909527
H  H8  1  0.54100000  0.34300000  0.35400000  1.0 0.336909527
H  H9  1  0.59400000  0.37600000  0.78700000  1.0 0.349955434
H  H10  1  0.37600000  0.59400000  0.71300000  1.0 0.349955434
H  H11  1  0.40600000  0.62400000  0.21300000  1.0 0.349955434
H  H12  1  0.62400000  0.40600000  0.28700000  1.0 0.349955434
H  H13  1  0.47090000  0.82650000  0.89200000  1.0 0.1494937169
H  H14  1  0.52070000  0.74630000  0.98500000  1.0 0.1494937169
H  H15  1  0.50040000  0.75440000  0.85740000  1.0 0.1494937169
H  H16  1  0.62790000  0.99330000  0.97830000  1.0 0.1494937169
H  H17  1  0.76890000  0.05790000  0.98180000  1.0 0.1494937169
H  H18  1  0.69980000  0.93240000  0.06660000  1.0 0.1494937169
H  H19  1  0.71270000  0.81930000  0.89680000  1.0 0.1320909802
H  H20  1  0.74250000  0.82890000  0.02080000  1.0 0.1581679825
H  H21  1  0.82160000  0.94600000  0.93510000  1.0 0.1494937169
H  H22  1  0.61050000  0.01910000  0.77970000  1.0 0.1494937169
H  H23  1  0.63810000  0.94510000  0.74560000  1.0 0.1494937169
H  H24  1  0.74860000  0.06080000  0.80040000  1.0 0.1414474491
H  H25  1  0.82650000  0.47090000  0.60800000  1.0 0.1494937169
H  H26  1  0.74630000  0.52070000  0.51500000  1.0 0.1494937169
H  H27  1  0.75440000  0.50040000  0.64260000  1.0 0.1494937169
H  H28  1  0.99330000  0.62790000  0.52170000  1.0 0.1494937169
H  H29  1  0.05790000  0.76890000  0.51820000  1.0 0.1494937169
H  H30  1  0.93240000  0.69980000  0.43340000  1.0 0.1494937169
H  H31  1  0.81930000  0.71270000  0.60320000  1.0 0.1320909802
H  H32  1  0.82890000  0.74250000  0.47920000  1.0 0.1581679825
H  H33  1  0.94600000  0.82160000  0.56490000  1.0 0.1494937169
H  H34  1  0.01910000  0.61050000  0.72030000  1.0 0.1494937169
H  H35  1  0.94510000  0.63810000  0.75440000  1.0 0.1494937169
H  H36  1  0.06080000  0.74860000  0.69960000  1.0 0.1414474491
H  H37  1  0.52910000  0.17350000  0.10800000  1.0 0.1494937169
H  H38  1  0.47930000  0.25370000  0.01500000  1.0 0.1494937169
H  H39  1  0.49960000  0.24560000  0.14260000  1.0 0.1494937169
H  H40  1  0.37210000  0.00670000  0.02170000  1.0 0.1494937169
H  H41  1  0.23110000  0.94210000  0.01820000  1.0 0.1494937169
H  H42  1  0.30020000  0.06760000  0.93340000  1.0 0.1494937169
H  H43  1  0.28730000  0.18070000  0.10320000  1.0 0.1320909802
H  H44  1  0.25750000  0.17110000  0.97920000  1.0 0.1581679825
H  H45  1  0.17840000  0.05400000  0.06490000  1.0 0.1494937169
H  H46  1  0.38950000  0.98090000  0.22030000  1.0 0.1494937169
H  H47  1  0.36190000  0.05490000  0.25440000  1.0 0.1494937169
H  H48  1  0.25140000  0.93920000  0.19960000  1.0 0.1414474491
H  H49  1  0.17350000  0.52910000  0.39200000  1.0 0.1494937169
H  H50  1  0.25370000  0.47930000  0.48500000  1.0 0.1494937169
H  H51  1  0.24560000  0.49960000  0.35740000  1.0 0.1494937169
H  H52  1  0.00670000  0.37210000  0.47830000  1.0 0.1494937169
H  H53  1  0.94210000  0.23110000  0.48180000  1.0 0.1494937169
H  H54  1  0.06760000  0.30020000  0.56660000  1.0 0.1494937169
H  H55  1  0.18070000  0.28730000  0.39680000  1.0 0.1320909802
H  H56  1  0.17110000  0.25750000  0.52080000  1.0 0.1581679825
H  H57  1  0.05400000  0.17840000  0.43510000  1.0 0.1494937169
H  H58  1  0.98090000  0.38950000  0.27970000  1.0 0.1494937169
H  H59  1  0.05490000  0.36190000  0.24560000  1.0 0.1494937169
H  H60  1  0.93920000  0.25140000  0.30040000  1.0 0.1414474491
C  C1  1  0.22750000  0.05170000  0.50920000  1.0 -0.0193609427
C  C2  1  0.05170000  0.22750000  0.99080000  1.0 -0.0193609427
C  C3  1  0.77250000  0.94830000  0.49080000  1.0 -0.0193609427
C  C4  1  0.94830000  0.77250000  0.00920000  1.0 -0.0193609427
C  C5  1  0.48265000  0.11855000  0.81060000  1.0 -0.0088407547
C  C6  1  0.11855000  0.48265000  0.68940000  1.0 -0.0088407547
C  C7  1  0.51735000  0.88145000  0.18940000  1.0 -0.0088407547
C  C8  1  0.88145000  0.51735000  0.31060000  1.0 -0.0088407547
C  C9  1  0.99450000  0.82530000  0.20510000  1.0 -0.0088407547
C  C10  1  0.82530000  0.99450000  0.29490000  1.0 -0.0088407547
C  C11  1  0.00550000  0.17470000  0.79490000  1.0 -0.0088407547
C  C12  1  0.17470000  0.00550000  0.70510000  1.0 -0.0088407547
C  C13  1  0.29050000  0.90250000  0.81100000  1.0 -0.0088407547
C  C14  1  0.90250000  0.29050000  0.68900000  1.0 -0.0088407547
C  C15  1  0.70950000  0.09750000  0.18900000  1.0 -0.0088407547
C  C16  1  0.09750000  0.70950000  0.31100000  1.0 -0.0088407547
C  C17  1  0.33590000  0.92150000  0.63600000  1.0 -0.0088407547
C  C18  1  0.92150000  0.33590000  0.86400000  1.0 -0.0088407547
C  C19  1  0.66410000  0.07850000  0.36400000  1.0 -0.0088407547
C  C20  1  0.07850000  0.66410000  0.13600000  1.0 -0.0088407547
C  C21  1  0.48909000  0.15811000  0.59410000  1.0 0.0170721743
C  C22  1  0.15811000  0.48909000  0.90590000  1.0 0.0170721743
C  C23  1  0.51091000  0.84189000  0.40590000  1.0 0.0170721743
C  C24  1  0.84189000  0.51091000  0.09410000  1.0 0.0170721743
C  C25  1  0.38487000  0.23733000  0.64800000  1.0 -0.0633357502
C  C26  1  0.23733000  0.38487000  0.85200000  1.0 -0.0633357502
C  C27  1  0.61513000  0.76267000  0.35200000  1.0 -0.0633357502
C  C28  1  0.76267000  0.61513000  0.14800000  1.0 -0.0633357502
C  C29  1  0.52540000  0.79960000  0.91130000  1.0 -0.3609399404
C  C30  1  0.69080000  0.97920000  0.99130000  1.0 -0.3480381638
C  C31  1  0.73980000  0.87280000  0.94360000  1.0 -0.3446016665
C  C32  1  0.66360000  0.99040000  0.79970000  1.0 -0.3480381638
C  C33  1  0.79960000  0.52540000  0.58870000  1.0 -0.3609399404
C  C34  1  0.97920000  0.69080000  0.50870000  1.0 -0.3480381638
C  C35  1  0.87280000  0.73980000  0.55640000  1.0 -0.3446016665
C  C36  1  0.99040000  0.66360000  0.70030000  1.0 -0.3480381638
C  C37  1  0.47460000  0.20040000  0.08870000  1.0 -0.3609399404
C  C38  1  0.30920000  0.02080000  0.00870000  1.0 -0.3480381638
C  C39  1  0.26020000  0.12720000  0.05640000  1.0 -0.3446016665
C  C40  1  0.33640000  0.00960000  0.20030000  1.0 -0.3480381638
C  C41  1  0.20040000  0.47460000  0.41130000  1.0 -0.3609399404
C  C42  1  0.02080000  0.30920000  0.49130000  1.0 -0.3480381638
C  C43  1  0.12720000  0.26020000  0.44360000  1.0 -0.3446016665
C  C44  1  0.00960000  0.33640000  0.29970000  1.0 -0.3446016665
N  N1  1  0.16959000  0.05341000  0.42000000  1.0 -0.3918346247
N  N2  1  0.05341000  0.16959000  0.08000000  1.0 -0.3918346247
N  N3  1  0.83041000  0.94659000  0.58000000  1.0 -0.3918346247
N  N4  1  0.94659000  0.83041000  0.92000000  1.0 -0.3918346247
N  N5  1  0.56405000  0.16375000  0.88150000  1.0 -0.3918346247
N  N6  1  0.16375000  0.56405000  0.61850000  1.0 -0.3918346247
N  N7  1  0.43595000  0.83625000  0.11850000  1.0 -0.3918346247
N  N8  1  0.83625000  0.43595000  0.38150000  1.0 -0.3918346247
N  N9  1  0.02427000  0.91533000  0.21840000  1.0 -0.3692518193
N  N10  1  0.91533000  0.02427000  0.28160000  1.0 -0.3692518193
N  N11  1  0.97573000  0.08467000  0.78160000  1.0 -0.3692518193
N  N12  1  0.08467000  0.97573000  0.71840000  1.0 -0.3692518193
N  N13  1  0.26980000  0.82260000  0.88880000  1.0 -0.3609399404
N  N14  1  0.82260000  0.26980000  0.61120000  1.0 -0.3609399404
N  N15  1  0.73020000  0.17740000  0.11120000  1.0 -0.3609399404
N  N16  1  0.17740000  0.73020000  0.38880000  1.0 -0.3609399404
N  N17  1  0.33992000  0.85588000  0.61070000  1.0 -0.3692518193
N  N18  1  0.85588000  0.33992000  0.88930000  1.0 -0.3692518193
N  N19  1  0.66008000  0.14412000  0.38930000  1.0 -0.3692518193
N  N20  1  0.14412000  0.66008000  0.11070000  1.0 -0.3692518193
N  N21  1  0.56737000  0.21143000  0.54770000  1.0 -0.3918346247
N  N22  1  0.21143000  0.56737000  0.95230000  1.0 -0.3918346247
N  N23  1  0.43263000  0.78857000  0.45230000  1.0 -0.3918346247
N  N24  1  0.78857000  0.43263000  0.04770000  1.0 -0.3918346247
N  N25  1  0.42292000  0.34028000  0.63410000  1.0 -0.3819794114
N  N26  1  0.34028000  0.42292000  0.86590000  1.0 -0.3819794114
N  N27  1  0.57708000  0.65972000  0.36590000  1.0 -0.3819794114
N  N28  1  0.65972000  0.57708000  0.13410000  1.0 -0.3819794114
N  N29  1  0.65391000  0.90869000  0.91080000  1.0 0.3196962643
N  N30  1  0.90869000  0.65391000  0.58920000  1.0 0.3196962643
N  N31  1  0.34609000  0.09131000  0.08920000  1.0 0.3196962643
N  N32  1  0.09131000  0.34609000  0.41080000  1.0 0.3196962643
O  O1  1  0.25830000  0.25830000  0.25000000  1.0 -0.6789521035
O  O2  1  0.74170000  0.74170000  0.75000000  1.0 -0.6789521035
O  O3  1  0.65959000  0.42041000  0.82440000  1.0 -0.6591914649
O  O4  1  0.42041000  0.65959000  0.67560000  1.0 -0.6591914649
O  O5  1  0.34041000  0.57959000  0.17560000  1.0 -0.6591914649
O  O6  1  0.57959000  0.34041000  0.32440000  1.0 -0.6591914649
