# DDEC6 charges by PACMAN v1.1 (https://github.com/mtap-research/PACMAN-charge/)
data_IGIFOW_ASR_pacman
_symmetry_space_group_name_H-M   'P 1'
_cell_length_a   23.53880000
_cell_length_b   23.53880000
_cell_length_c   23.53880000
_cell_angle_alpha   125.77200000
_cell_angle_beta   115.17800000
_cell_angle_gamma   89.42700000
_symmetry_Int_Tables_number   1
_chemical_formula_structural   Zr3H5C17NO14
_chemical_formula_sum   'Zr24 H40 C136 N8 O112'
_cell_volume   9056.34688992
_cell_formula_units_Z   8
loop_
 _symmetry_equiv_pos_site_id
 _symmetry_equiv_pos_as_xyz
  1  'x, y, z'
loop_
 _atom_site_type_symbol
 _atom_site_label
 _atom_site_symmetry_multiplicity
 _atom_site_fract_x
 _atom_site_fract_y
 _atom_site_fract_z
 _atom_site_occupancy
 _atom_site_charge
Zr  Zr1  1  0.34938000  0.88118000  0.12524000  1.0 2.4287829646
Zr  Zr2  1  0.40374000  0.73049000  0.02895000  1.0 2.4386027007
Zr  Zr3  1  0.74406000  0.61882000  0.46820000  1.0 2.4241242954
Zr  Zr4  1  0.79846000  0.76951000  0.67325000  1.0 2.4287829646
Zr  Zr5  1  0.24406000  0.77586000  0.12524000  1.0 2.4287829646
Zr  Zr6  1  0.29846000  0.62521000  0.02895000  1.0 2.4386027007
Zr  Zr7  1  0.84938000  0.72414000  0.46820000  1.0 2.4241242954
Zr  Zr8  1  0.90374000  0.87479000  0.67325000  1.0 2.4287829646
Zr  Zr9  1  0.41384000  0.79710000  0.21094000  1.0 2.2841477939
Zr  Zr10  1  0.23430000  0.70911000  0.94341000  1.0 2.334005609
Zr  Zr11  1  0.91384000  0.70290000  0.61674000  1.0 2.2841477939
Zr  Zr12  1  0.73430000  0.79089000  0.52519000  1.0 2.334005609
Zr  Zr13  1  0.75594000  0.22414000  0.87476000  1.0 2.4287829646
Zr  Zr14  1  0.70154000  0.37479000  0.97105000  1.0 2.4386027007
Zr  Zr15  1  0.15062000  0.27586000  0.53180000  1.0 2.4287829646
Zr  Zr16  1  0.09626000  0.12521000  0.32675000  1.0 2.4386027007
Zr  Zr17  1  0.65062000  0.11882000  0.87476000  1.0 2.4287829646
Zr  Zr18  1  0.59626000  0.26951000  0.97105000  1.0 2.4386027007
Zr  Zr19  1  0.25594000  0.38118000  0.53180000  1.0 2.4287829646
Zr  Zr20  1  0.20154000  0.23049000  0.32675000  1.0 2.4386027007
Zr  Zr21  1  0.58616000  0.20290000  0.78906000  1.0 2.2841477939
Zr  Zr22  1  0.76570000  0.29089000  0.05659000  1.0 2.3380479166
Zr  Zr23  1  0.08616000  0.29710000  0.38326000  1.0 2.2841477939
Zr  Zr24  1  0.26570000  0.20911000  0.47481000  1.0 2.334005609
H  H1  1  0.27940000  0.98950000  0.01510000  1.0 0.1283867457
H  H2  1  0.12090000  0.79780000  0.83010000  1.0 0.1283867457
H  H3  1  0.29050000  0.36970000  0.22260000  1.0 0.1194572639
H  H4  1  0.12150000  0.97770000  0.83940000  1.0 0.1194572639
H  H5  1  0.23390000  0.24570000  0.15280000  1.0 0.1194572639
H  H6  1  0.52560000  0.51050000  0.28990000  1.0 0.1283867457
H  H7  1  0.53230000  0.70220000  0.32310000  1.0 0.1283867457
H  H8  1  0.35290000  0.13030000  0.92080000  1.0 0.1194572639
H  H9  1  0.36170000  0.52230000  0.14380000  1.0 0.1194572639
H  H10  1  0.40710000  0.25430000  0.98820000  1.0 0.1194572639
H  H11  1  0.02560000  0.73570000  0.01510000  1.0 0.1283867457
H  H12  1  0.03230000  0.70920000  0.83010000  1.0 0.1283867457
H  H13  1  0.85290000  0.93210000  0.22260000  1.0 0.1194572639
H  H14  1  0.86170000  0.71790000  0.83940000  1.0 0.1194572639
H  H15  1  0.90710000  0.91890000  0.15280000  1.0 0.1194572639
H  H16  1  0.77940000  0.76430000  0.28990000  1.0 0.1283867457
H  H17  1  0.62090000  0.79080000  0.32310000  1.0 0.1283867457
H  H18  1  0.79050000  0.56790000  0.92080000  1.0 0.1194572639
H  H19  1  0.62150000  0.78210000  0.14380000  1.0 0.1194572639
H  H20  1  0.73390000  0.58110000  0.98820000  1.0 0.1194572639
H  H21  1  0.97440000  0.26430000  0.98490000  1.0 0.1283867457
H  H22  1  0.96770000  0.29080000  0.16990000  1.0 0.1283867457
H  H23  1  0.14710000  0.06790000  0.77740000  1.0 0.1194572639
H  H24  1  0.13830000  0.28210000  0.16060000  1.0 0.1194572639
H  H25  1  0.09290000  0.08110000  0.84720000  1.0 0.1194572639
H  H26  1  0.22060000  0.23570000  0.71010000  1.0 0.1283867457
H  H27  1  0.37910000  0.20920000  0.67690000  1.0 0.1283867457
H  H28  1  0.20950000  0.43210000  0.07920000  1.0 0.1194572639
H  H29  1  0.37850000  0.21790000  0.85620000  1.0 0.1194572639
H  H30  1  0.26610000  0.41890000  0.01180000  1.0 0.1194572639
H  H31  1  0.72060000  0.01050000  0.98490000  1.0 0.1194572639
H  H32  1  0.87910000  0.20220000  0.16990000  1.0 0.1283867457
H  H33  1  0.70950000  0.63030000  0.77740000  1.0 0.1194572639
H  H34  1  0.87850000  0.02230000  0.16060000  1.0 0.1194572639
H  H35  1  0.76610000  0.75430000  0.84720000  1.0 0.1194572639
H  H36  1  0.47440000  0.48950000  0.71010000  1.0 0.1194572639
H  H37  1  0.46770000  0.29780000  0.67690000  1.0 0.1283867457
H  H38  1  0.64710000  0.86970000  0.07920000  1.0 0.1194572639
H  H39  1  0.63830000  0.47770000  0.85620000  1.0 0.1194572639
H  H40  1  0.59290000  0.74570000  0.01180000  1.0 0.1194572639
C  C1  1  0.30350000  0.21440000  0.05170000  1.0 0.0243383967
C  C2  1  0.20180000  0.88450000  0.92310000  1.0 -0.0208351509
C  C3  1  0.23660000  0.96270000  0.96690000  1.0 -0.1958414218
C  C4  1  0.26660000  0.19900000  0.07560000  1.0 -0.0886135185
C  C5  1  0.20380000  0.99400000  0.93440000  1.0 0.1789718182
C  C6  1  0.23540000  0.85610000  0.96750000  1.0 0.623126308
C  C7  1  0.14180000  0.84760000  0.85640000  1.0 -0.141970185
C  C8  1  0.03740000  0.84210000  0.74930000  1.0 0.594642336
C  C9  1  0.31090000  0.15740000  0.99010000  1.0 -0.0886135185
C  C10  1  0.29430000  0.32970000  0.17860000  1.0 -0.103916557
C  C11  1  0.14080000  0.95450000  0.86150000  1.0 -0.1845041415
C  C12  1  0.23340000  0.12820000  0.04340000  1.0 0.3966798433
C  C13  1  0.10640000  0.88200000  0.82160000  1.0 -0.0063176568
C  C14  1  0.26090000  0.25560000  0.13690000  1.0 -0.110213758
C  C15  1  0.27830000  0.08280000  0.94890000  1.0 0.3966798433
C  C16  1  0.30040000  0.65860000  0.83380000  1.0 0.9118763456
C  C17  1  0.48370000  0.96690000  0.31240000  1.0 0.9118763456
C  C18  1  0.33730000  0.28560000  0.08910000  1.0 0.0243383967
C  C19  1  0.53860000  0.61550000  0.31730000  1.0 -0.0208351509
C  C20  1  0.50420000  0.53730000  0.27390000  1.0 -0.1958414218
C  C21  1  0.37660000  0.30100000  0.06760000  1.0 -0.0886135185
C  C22  1  0.44040000  0.50600000  0.20980000  1.0 0.1789718182
C  C23  1  0.61140000  0.64390000  0.37930000  1.0 0.623126308
C  C24  1  0.50880000  0.65240000  0.29420000  1.0 -0.141970185
C  C25  1  0.40720000  0.65790000  0.19530000  1.0 0.5954456278
C  C26  1  0.33270000  0.34260000  0.15350000  1.0 -0.0886135185
C  C27  1  0.34890000  0.17030000  0.96460000  1.0 -0.103916557
C  C28  1  0.40700000  0.54550000  0.18630000  1.0 -0.1852196059
C  C29  1  0.41520000  0.37180000  0.10520000  1.0 0.3966798433
C  C30  1  0.43960000  0.61800000  0.22440000  1.0 -0.0063176568
C  C31  1  0.38130000  0.24440000  0.00530000  1.0 -0.110213758
C  C32  1  0.36610000  0.41720000  0.19550000  1.0 0.3966798433
C  C33  1  0.67520000  0.84140000  0.64180000  1.0 0.9118763456
C  C34  1  0.84550000  0.53310000  0.51680000  1.0 0.9118763456
C  C35  1  0.83730000  0.74820000  0.05170000  1.0 0.0243383967
C  C36  1  0.03860000  0.72130000  0.92310000  1.0 -0.0208351509
C  C37  1  0.00420000  0.73030000  0.96690000  1.0 -0.1958414218
C  C38  1  0.87660000  0.80900000  0.07560000  1.0 -0.0886135185
C  C39  1  0.94040000  0.73060000  0.93440000  1.0 0.1789718182
C  C40  1  0.11140000  0.73210000  0.96750000  1.0 0.623126308
C  C41  1  0.00880000  0.71460000  0.85640000  1.0 -0.141970185
C  C42  1  0.90720000  0.71190000  0.74930000  1.0 0.5954456278
C  C43  1  0.83270000  0.67920000  0.99010000  1.0 -0.0886135185
C  C44  1  0.84890000  0.88430000  0.17860000  1.0 -0.103916557
C  C45  1  0.90700000  0.72070000  0.86150000  1.0 -0.1852196059
C  C46  1  0.91520000  0.81000000  0.04340000  1.0 0.3966798433
C  C47  1  0.93960000  0.71520000  0.82160000  1.0 -0.0063176568
C  C48  1  0.88130000  0.87600000  0.13690000  1.0 -0.110213758
C  C49  1  0.86610000  0.67060000  0.94890000  1.0 0.3966798433
C  C50  1  0.17520000  0.53340000  0.83380000  1.0 0.9118763456
C  C51  1  0.34550000  0.82870000  0.31240000  1.0 0.9182487527
C  C52  1  0.80350000  0.75180000  0.08910000  1.0 0.0243383967
C  C53  1  0.70180000  0.77870000  0.31730000  1.0 -0.0208351509
C  C54  1  0.73660000  0.76970000  0.27390000  1.0 -0.1958414218
C  C55  1  0.76660000  0.69100000  0.06760000  1.0 -0.0886135185
C  C56  1  0.70380000  0.76940000  0.20980000  1.0 0.1789718182
C  C57  1  0.73540000  0.76790000  0.37930000  1.0 0.623126308
C  C58  1  0.64180000  0.78540000  0.29420000  1.0 -0.141970185
C  C59  1  0.53740000  0.78810000  0.19530000  1.0 0.5954456278
C  C60  1  0.81090000  0.82080000  0.15350000  1.0 -0.0886135185
C  C61  1  0.79430000  0.61570000  0.96460000  1.0 -0.103916557
C  C62  1  0.64080000  0.77930000  0.18630000  1.0 -0.1852196059
C  C63  1  0.73340000  0.69000000  0.10520000  1.0 0.3966798433
C  C64  1  0.60640000  0.78480000  0.22440000  1.0 -0.0063176568
C  C65  1  0.76090000  0.62400000  0.00530000  1.0 -0.110213758
C  C66  1  0.77830000  0.82940000  0.19550000  1.0 0.3966798433
C  C67  1  0.80040000  0.96660000  0.64180000  1.0 0.9118763456
C  C68  1  0.98370000  0.67130000  0.51680000  1.0 0.9182487527
C  C69  1  0.16270000  0.25180000  0.94830000  1.0 0.0243383967
C  C70  1  0.96140000  0.27870000  0.07690000  1.0 -0.0208351509
C  C71  1  0.99580000  0.26970000  0.03310000  1.0 -0.1958414218
C  C72  1  0.12340000  0.19100000  0.92440000  1.0 -0.0886135185
C  C73  1  0.05960000  0.26940000  0.06560000  1.0 0.1789718182
C  C74  1  0.88860000  0.26790000  0.03250000  1.0 0.623126308
C  C75  1  0.99120000  0.28540000  0.14360000  1.0 -0.141970185
C  C76  1  0.09280000  0.28810000  0.25070000  1.0 0.5954456278
C  C77  1  0.16730000  0.32080000  0.00990000  1.0 -0.0886135185
C  C78  1  0.15110000  0.11570000  0.82140000  1.0 -0.103916557
C  C79  1  0.09300000  0.27930000  0.13850000  1.0 -0.1852196059
C  C80  1  0.08480000  0.19000000  0.95660000  1.0 0.3966798433
C  C81  1  0.06040000  0.28480000  0.17840000  1.0 -0.0063176568
C  C82  1  0.11870000  0.12400000  0.86310000  1.0 -0.110213758
C  C83  1  0.13390000  0.32940000  0.05110000  1.0 0.3966798433
C  C84  1  0.82480000  0.46660000  0.16620000  1.0 0.9182487527
C  C85  1  0.65450000  0.17130000  0.68760000  1.0 0.9118763456
C  C86  1  0.19650000  0.24820000  0.91090000  1.0 0.0243383967
C  C87  1  0.29820000  0.22130000  0.68270000  1.0 -0.0208351509
C  C88  1  0.26340000  0.23030000  0.72610000  1.0 -0.1958414218
C  C89  1  0.23340000  0.30900000  0.93240000  1.0 -0.0886135185
C  C90  1  0.29620000  0.23060000  0.79020000  1.0 0.1789718182
C  C91  1  0.26460000  0.23210000  0.62070000  1.0 0.623126308
C  C92  1  0.35820000  0.21460000  0.70580000  1.0 -0.141970185
C  C93  1  0.46260000  0.21190000  0.80470000  1.0 0.594642336
C  C94  1  0.18910000  0.17920000  0.84650000  1.0 -0.0886135185
C  C95  1  0.20570000  0.38430000  0.03540000  1.0 -0.103916557
C  C96  1  0.35920000  0.22070000  0.81370000  1.0 -0.1852196059
C  C97  1  0.26660000  0.31000000  0.89480000  1.0 0.3966798433
C  C98  1  0.39360000  0.21520000  0.77560000  1.0 -0.0063176568
C  C99  1  0.23910000  0.37600000  0.99470000  1.0 -0.110213758
C  C100  1  0.22170000  0.17060000  0.80450000  1.0 0.3966798433
C  C101  1  0.19960000  0.03340000  0.35820000  1.0 0.9118763456
C  C102  1  0.01630000  0.32870000  0.48320000  1.0 0.9118763456
C  C103  1  0.69650000  0.78560000  0.94830000  1.0 0.0243383967
C  C104  1  0.79820000  0.11550000  0.07690000  1.0 -0.0208351509
C  C105  1  0.76340000  0.03730000  0.03310000  1.0 -0.1958414218
C  C106  1  0.73340000  0.80100000  0.92440000  1.0 -0.0886135185
C  C107  1  0.79620000  0.00600000  0.06560000  1.0 0.1789718182
C  C108  1  0.76460000  0.14390000  0.03250000  1.0 0.623126308
C  C109  1  0.85820000  0.15240000  0.14360000  1.0 -0.141970185
C  C110  1  0.96260000  0.15790000  0.25070000  1.0 0.5954456278
C  C111  1  0.68910000  0.84260000  0.00990000  1.0 -0.0886135185
C  C112  1  0.70570000  0.67030000  0.82140000  1.0 -0.103916557
C  C113  1  0.85920000  0.04550000  0.13850000  1.0 -0.1852196059
C  C114  1  0.76660000  0.87180000  0.95660000  1.0 0.3966798433
C  C115  1  0.89360000  0.11800000  0.17840000  1.0 -0.0063176568
C  C116  1  0.73910000  0.74440000  0.86310000  1.0 -0.110213758
C  C117  1  0.72170000  0.91720000  0.05110000  1.0 0.3966798433
C  C118  1  0.69960000  0.34140000  0.16620000  1.0 0.9182487527
C  C119  1  0.51630000  0.03310000  0.68760000  1.0 0.9118763456
C  C120  1  0.66270000  0.71440000  0.91090000  1.0 0.0243383967
C  C121  1  0.46140000  0.38450000  0.68270000  1.0 -0.0208351509
C  C122  1  0.49580000  0.46270000  0.72610000  1.0 -0.1958414218
C  C123  1  0.62340000  0.69900000  0.93240000  1.0 -0.0886135185
C  C124  1  0.55960000  0.49400000  0.79020000  1.0 0.1789718182
C  C125  1  0.38860000  0.35610000  0.62070000  1.0 0.623126308
C  C126  1  0.49120000  0.34760000  0.70580000  1.0 -0.141970185
C  C127  1  0.59280000  0.34210000  0.80470000  1.0 0.594642336
C  C128  1  0.66730000  0.65740000  0.84650000  1.0 -0.0886135185
C  C129  1  0.65110000  0.82970000  0.03540000  1.0 -0.103916557
C  C130  1  0.59300000  0.45450000  0.81370000  1.0 -0.1852196059
C  C131  1  0.58480000  0.62820000  0.89480000  1.0 0.3966798433
C  C132  1  0.56040000  0.38200000  0.77560000  1.0 -0.0063176568
C  C133  1  0.61870000  0.75560000  0.99470000  1.0 -0.110213758
C  C134  1  0.63390000  0.58280000  0.80450000  1.0 0.3966798433
C  C135  1  0.32480000  0.15860000  0.35820000  1.0 0.9118763456
C  C136  1  0.15450000  0.46690000  0.48320000  1.0 0.9118763456
N  N1  1  0.23900000  0.07320000  0.97520000  1.0 -0.2224172181
N  N2  1  0.40200000  0.42680000  0.16580000  1.0 -0.2224172181
N  N3  1  0.90200000  0.73620000  0.97520000  1.0 -0.2224172181
N  N4  1  0.73900000  0.76380000  0.16580000  1.0 -0.2224172181
N  N5  1  0.09800000  0.26380000  0.02480000  1.0 -0.2224172181
N  N6  1  0.26100000  0.23620000  0.83420000  1.0 -0.2224172181
N  N7  1  0.76100000  0.92680000  0.02480000  1.0 -0.2224172181
N  N8  1  0.59800000  0.57320000  0.83420000  1.0 -0.2224172181
O  O1  1  0.01340000  0.77750000  0.71310000  1.0 -0.527353873
O  O2  1  0.33570000  0.78940000  0.00510000  1.0 -1.1793758691
O  O3  1  0.21040000  0.78370000  0.91610000  1.0 -0.6058087059
O  O4  1  0.28200000  0.89720000  0.04020000  1.0 -0.6007689407
O  O5  1  0.24740000  0.66850000  0.83950000  1.0 -0.6795831095
O  O6  1  0.40540000  0.81490000  0.13290000  1.0 -1.1352724483
O  O7  1  0.01150000  0.88710000  0.74460000  1.0 -0.6007689407
O  O8  1  0.36310000  0.67870000  0.89540000  1.0 -0.751265054
O  O9  1  0.19930000  0.10910000  0.05800000  1.0 -0.3957770305
O  O10  1  0.27680000  0.02540000  0.88940000  1.0 -0.4411541461
O  O11  1  0.43910000  0.96840000  0.25250000  1.0 -0.7731245926
O  O12  1  0.47740000  0.91250000  0.31270000  1.0 -0.6795831095
O  O13  1  0.43560000  0.72250000  0.23590000  1.0 -0.527353873
O  O14  1  0.71570000  0.71060000  0.54630000  1.0 -1.1793758691
O  O15  1  0.63240000  0.71630000  0.42670000  1.0 -0.6058087059
O  O16  1  0.64300000  0.60280000  0.38480000  1.0 -0.6058087059
O  O17  1  0.67100000  0.83150000  0.57890000  1.0 -0.6795831095
O  O18  1  0.81800000  0.68510000  0.59050000  1.0 -1.1332260123
O  O19  1  0.35750000  0.61290000  0.12440000  1.0 -0.6007689407
O  O20  1  0.71670000  0.82130000  0.68440000  1.0 -0.751265054
O  O21  1  0.44890000  0.39090000  0.09020000  1.0 -0.3942931345
O  O22  1  0.36400000  0.47460000  0.25140000  1.0 -0.4411541461
O  O23  1  0.78410000  0.53160000  0.47070000  1.0 -0.7731245926
O  O24  1  0.90020000  0.58750000  0.56490000  1.0 -0.6795831095
O  O25  1  0.93560000  0.69970000  0.71310000  1.0 -0.527353873
O  O26  1  0.21570000  0.66940000  0.00510000  1.0 -1.1793758691
O  O27  1  0.13240000  0.70570000  0.91610000  1.0 -0.6058087059
O  O28  1  0.14300000  0.75820000  0.04020000  1.0 -0.6007689407
O  O29  1  0.17100000  0.59210000  0.83950000  1.0 -0.6795831095
O  O30  1  0.31800000  0.72750000  0.13290000  1.0 -1.1352724483
O  O31  1  0.85750000  0.73310000  0.74460000  1.0 -0.6007689407
O  O32  1  0.21670000  0.53230000  0.89540000  1.0 -0.751265054
O  O33  1  0.94890000  0.85870000  0.05800000  1.0 -0.3957770305
O  O34  1  0.86400000  0.61260000  0.88940000  1.0 -0.4411541461
O  O35  1  0.28410000  0.81340000  0.25250000  1.0 -0.7765241316
O  O36  1  0.40020000  0.83530000  0.31270000  1.0 -0.6795831095
O  O37  1  0.51340000  0.80030000  0.23590000  1.0 -0.527353873
O  O38  1  0.83570000  0.83060000  0.54630000  1.0 -1.1793758691
O  O39  1  0.71040000  0.79430000  0.42670000  1.0 -0.6058087059
O  O40  1  0.78200000  0.74180000  0.38480000  1.0 -0.6058087059
O  O41  1  0.74740000  0.90790000  0.57890000  1.0 -0.6795831095
O  O42  1  0.90540000  0.77250000  0.59050000  1.0 -1.1332260123
O  O43  1  0.51150000  0.76690000  0.12440000  1.0 -0.6007689407
O  O44  1  0.86310000  0.96770000  0.68440000  1.0 -0.751265054
O  O45  1  0.69930000  0.64130000  0.09020000  1.0 -0.3957770305
O  O46  1  0.77680000  0.88740000  0.25140000  1.0 -0.4411541461
O  O47  1  0.93910000  0.68660000  0.47070000  1.0 -0.7765241316
O  O48  1  0.97740000  0.66470000  0.56490000  1.0 -0.6865952066
O  O49  1  0.34330000  0.86530000  0.20860000  1.0 -1.1734111161
O  O50  1  0.26260000  0.79820000  0.06080000  1.0 -1.1055260947
O  O51  1  0.30880000  0.66990000  0.97870000  1.0 -1.1793758691
O  O52  1  0.40340000  0.69270000  0.09610000  1.0 -1.1196217886
O  O53  1  0.84330000  0.63470000  0.47800000  1.0 -1.1734111161
O  O54  1  0.76260000  0.70180000  0.46440000  1.0 -1.1055260947
O  O55  1  0.80880000  0.83010000  0.63890000  1.0 -1.1793758691
O  O56  1  0.90340000  0.80730000  0.71070000  1.0 -1.1196217886
O  O57  1  0.06440000  0.30030000  0.28690000  1.0 -0.527353873
O  O58  1  0.78430000  0.33060000  0.99490000  1.0 -1.1793758691
O  O59  1  0.86760000  0.29430000  0.08390000  1.0 -0.6058087059
O  O60  1  0.85700000  0.24180000  0.95980000  1.0 -0.6058087059
O  O61  1  0.82900000  0.40790000  0.16050000  1.0 -0.6795831095
O  O62  1  0.68200000  0.27250000  0.86710000  1.0 -1.1332260123
O  O63  1  0.14250000  0.26690000  0.25540000  1.0 -0.6007689407
O  O64  1  0.78330000  0.46770000  0.10460000  1.0 -0.751265054
O  O65  1  0.05110000  0.14130000  0.94200000  1.0 -0.3957770305
O  O66  1  0.13600000  0.38740000  0.11060000  1.0 -0.4411541461
O  O67  1  0.71590000  0.18660000  0.74750000  1.0 -0.7731245926
O  O68  1  0.59980000  0.16470000  0.68730000  1.0 -0.6795831095
O  O69  1  0.48660000  0.19970000  0.76410000  1.0 -0.527353873
O  O70  1  0.16430000  0.16940000  0.45370000  1.0 -1.1793758691
O  O71  1  0.28960000  0.20570000  0.57330000  1.0 -0.6058087059
O  O72  1  0.21800000  0.25820000  0.61520000  1.0 -0.6058087059
O  O73  1  0.25260000  0.09210000  0.42110000  1.0 -0.6795831095
O  O74  1  0.09460000  0.22750000  0.40950000  1.0 -1.1352724483
O  O75  1  0.48850000  0.23310000  0.87560000  1.0 -0.6007689407
O  O76  1  0.13690000  0.03230000  0.31560000  1.0 -0.751265054
O  O77  1  0.30070000  0.35870000  0.90980000  1.0 -0.3957770305
O  O78  1  0.22320000  0.11260000  0.74860000  1.0 -0.4411541461
O  O79  1  0.06090000  0.31340000  0.52930000  1.0 -0.7731245926
O  O80  1  0.02260000  0.33530000  0.43510000  1.0 -0.6795831095
O  O81  1  0.98660000  0.22250000  0.28690000  1.0 -0.527353873
O  O82  1  0.66430000  0.21060000  0.99490000  1.0 -1.1793758691
O  O83  1  0.78960000  0.21630000  0.08390000  1.0 -0.6058087059
O  O84  1  0.71800000  0.10280000  0.95980000  1.0 -0.6058087059
O  O85  1  0.75260000  0.33150000  0.16050000  1.0 -0.6795831095
O  O86  1  0.59460000  0.18510000  0.86710000  1.0 -1.1332260123
O  O87  1  0.98850000  0.11290000  0.25540000  1.0 -0.6007689407
O  O88  1  0.63690000  0.32130000  0.10460000  1.0 -0.751265054
O  O89  1  0.80070000  0.89090000  0.94200000  1.0 -0.3957770305
O  O90  1  0.72320000  0.97460000  0.11060000  1.0 -0.4411541461
O  O91  1  0.56090000  0.03160000  0.74750000  1.0 -0.7765241316
O  O92  1  0.52260000  0.08750000  0.68730000  1.0 -0.6795831095
O  O93  1  0.56440000  0.27750000  0.76410000  1.0 -0.527353873
O  O94  1  0.28430000  0.28940000  0.45370000  1.0 -1.1793758691
O  O95  1  0.36760000  0.28370000  0.57330000  1.0 -0.6058087059
O  O96  1  0.35700000  0.39720000  0.61520000  1.0 -0.6058087059
O  O97  1  0.32900000  0.16850000  0.42110000  1.0 -0.6795831095
O  O98  1  0.18200000  0.31490000  0.40950000  1.0 -1.1352724483
O  O99  1  0.64250000  0.38710000  0.87560000  1.0 -0.6007689407
O  O100  1  0.28330000  0.17870000  0.31560000  1.0 -0.751265054
O  O101  1  0.55110000  0.60910000  0.90980000  1.0 -0.3957770305
O  O102  1  0.63600000  0.52540000  0.74860000  1.0 -0.4411541461
O  O103  1  0.21590000  0.46840000  0.52930000  1.0 -0.7731245926
O  O104  1  0.09980000  0.41250000  0.43510000  1.0 -0.6795831095
O  O105  1  0.65670000  0.13470000  0.79140000  1.0 -1.1793758691
O  O106  1  0.73740000  0.20180000  0.93920000  1.0 -1.1055260947
O  O107  1  0.69120000  0.33010000  0.02130000  1.0 -1.1793758691
O  O108  1  0.59660000  0.30730000  0.90390000  1.0 -1.1196217886
O  O109  1  0.15670000  0.36530000  0.52200000  1.0 -1.1734111161
O  O110  1  0.23740000  0.29820000  0.53560000  1.0 -1.1055260947
O  O111  1  0.19120000  0.16990000  0.36110000  1.0 -1.1793758691
O  O112  1  0.09660000  0.19270000  0.28930000  1.0 -1.1196217886
