# DDEC6 charges by PACMAN v1.1 (https://github.com/mtap-research/PACMAN-charge/)
data_IGIGEN_ASR_pacman
_symmetry_space_group_name_H-M   'P 1'
_cell_length_a   23.70370000
_cell_length_b   23.70370000
_cell_length_c   23.70370000
_cell_angle_alpha   139.43500000
_cell_angle_beta   115.23200000
_cell_angle_gamma   79.28350000
_symmetry_Int_Tables_number   1
_chemical_formula_structural   Zr3H5C16NO12
_chemical_formula_sum   'Zr24 H40 C128 N8 O96'
_cell_volume   7616.40389347
_cell_formula_units_Z   8
loop_
 _symmetry_equiv_pos_site_id
 _symmetry_equiv_pos_as_xyz
  1  'x, y, z'
loop_
 _atom_site_type_symbol
 _atom_site_label
 _atom_site_symmetry_multiplicity
 _atom_site_fract_x
 _atom_site_fract_y
 _atom_site_fract_z
 _atom_site_occupancy
 _atom_site_charge
Zr  Zr1  1  0.33667000  0.89720000  0.13683000  1.0 2.4421757829
Zr  Zr2  1  0.39633000  0.70428000  0.00531000  1.0 2.4768136513
Zr  Zr3  1  0.73963000  0.60280000  0.43947000  1.0 2.4421757829
Zr  Zr4  1  0.80103000  0.79572000  0.69205000  1.0 2.4768136513
Zr  Zr5  1  0.23963000  0.80016000  0.13683000  1.0 2.4421757829
Zr  Zr6  1  0.30103000  0.60898000  0.00531000  1.0 2.4768136513
Zr  Zr7  1  0.83667000  0.69984000  0.43947000  1.0 2.4421757829
Zr  Zr8  1  0.89633000  0.89102000  0.69205000  1.0 2.4768136513
Zr  Zr9  1  0.22993000  0.68939000  0.91932000  1.0 2.3848098588
Zr  Zr10  1  0.40713000  0.81576000  0.22289000  1.0 2.3476169777
Zr  Zr11  1  0.72993000  0.81061000  0.54054000  1.0 2.3848098588
Zr  Zr12  1  0.90713000  0.68424000  0.59137000  1.0 2.3476169777
Zr  Zr13  1  0.76037000  0.19984000  0.86317000  1.0 2.4421757829
Zr  Zr14  1  0.69897000  0.39102000  0.99469000  1.0 2.4768136513
Zr  Zr15  1  0.16333000  0.30016000  0.56053000  1.0 2.4421757829
Zr  Zr16  1  0.10367000  0.10898000  0.30795000  1.0 2.4768136513
Zr  Zr17  1  0.66333000  0.10280000  0.86317000  1.0 2.4421757829
Zr  Zr18  1  0.60367000  0.29572000  0.99469000  1.0 2.4768136513
Zr  Zr19  1  0.26037000  0.39720000  0.56053000  1.0 2.4421757829
Zr  Zr20  1  0.19897000  0.20428000  0.30795000  1.0 2.4768136513
Zr  Zr21  1  0.77007000  0.31061000  0.08068000  1.0 2.3866698813
Zr  Zr22  1  0.59287000  0.18424000  0.77711000  1.0 2.3476169777
Zr  Zr23  1  0.27007000  0.18939000  0.45946000  1.0 2.3866698813
Zr  Zr24  1  0.09287000  0.31576000  0.40863000  1.0 2.3476169777
H  H1  1  0.02330000  0.74000000  0.01070000  1.0 0.1108528698
H  H2  1  0.02620000  0.71040000  0.81880000  1.0 0.1017238197
H  H3  1  0.86820000  0.74920000  0.85880000  1.0 0.1166460586
H  H4  1  0.88830000  0.96440000  0.21530000  1.0 0.1108528698
H  H5  1  0.82890000  0.96880000  0.27950000  1.0 0.1166460586
H  H6  1  0.77070000  0.76000000  0.28330000  1.0 0.1108528698
H  H7  1  0.60840000  0.78960000  0.31580000  1.0 0.1017238197
H  H8  1  0.60960000  0.75080000  0.11900000  1.0 0.1166460586
H  H9  1  0.75090000  0.53560000  0.92390000  1.0 0.1108528698
H  H10  1  0.81070000  0.53120000  0.86010000  1.0 0.1166460586
H  H11  1  0.27070000  0.98740000  0.01070000  1.0 0.1108528698
H  H12  1  0.10840000  0.79260000  0.81880000  1.0 0.1017238197
H  H13  1  0.10960000  0.99060000  0.85880000  1.0 0.1166460586
H  H14  1  0.25090000  0.32700000  0.21530000  1.0 0.1108528698
H  H15  1  0.31070000  0.45060000  0.27950000  1.0 0.1166460586
H  H16  1  0.52330000  0.51260000  0.28330000  1.0 0.1108528698
H  H17  1  0.52620000  0.70740000  0.31580000  1.0 0.1017238197
H  H18  1  0.36820000  0.50940000  0.11900000  1.0 0.1166460586
H  H19  1  0.38830000  0.17300000  0.92390000  1.0 0.1108528698
H  H20  1  0.32890000  0.04940000  0.86010000  1.0 0.1166460586
H  H21  1  0.72930000  0.01260000  0.98930000  1.0 0.1108528698
H  H22  1  0.89160000  0.20740000  0.18120000  1.0 0.1017238197
H  H23  1  0.89040000  0.00940000  0.14120000  1.0 0.1166460586
H  H24  1  0.74910000  0.67300000  0.78470000  1.0 0.1108528698
H  H25  1  0.68930000  0.54940000  0.72050000  1.0 0.1166460586
H  H26  1  0.47670000  0.48740000  0.71670000  1.0 0.1108528698
H  H27  1  0.47380000  0.29260000  0.68420000  1.0 0.1017238197
H  H28  1  0.63180000  0.49060000  0.88100000  1.0 0.1166460586
H  H29  1  0.61170000  0.82700000  0.07610000  1.0 0.1108528698
H  H30  1  0.67110000  0.95060000  0.13990000  1.0 0.1166460586
H  H31  1  0.97670000  0.26000000  0.98930000  1.0 0.1108528698
H  H32  1  0.97380000  0.28960000  0.18120000  1.0 0.1017238197
H  H33  1  0.13180000  0.25080000  0.14120000  1.0 0.1166460586
H  H34  1  0.11170000  0.03560000  0.78470000  1.0 0.1108528698
H  H35  1  0.17110000  0.03120000  0.72050000  1.0 0.1166460586
H  H36  1  0.22930000  0.24000000  0.71670000  1.0 0.1108528698
H  H37  1  0.39160000  0.21040000  0.68420000  1.0 0.1017238197
H  H38  1  0.39040000  0.24920000  0.88100000  1.0 0.1166460586
H  H39  1  0.24910000  0.46440000  0.07610000  1.0 0.1108528698
H  H40  1  0.18930000  0.46880000  0.13990000  1.0 0.1166460586
C  C1  1  0.91380000  0.73630000  0.76570000  1.0 0.6033943367
C  C2  1  0.94020000  0.73820000  0.93420000  1.0 0.1460198049
C  C3  1  0.90640000  0.82640000  0.06380000  1.0 0.3737655055
C  C4  1  0.94200000  0.73220000  0.83020000  1.0 -0.0732492286
C  C5  1  0.00340000  0.73640000  0.96340000  1.0 -0.1652710515
C  C6  1  0.00530000  0.72210000  0.85240000  1.0 -0.1031354893
C  C7  1  0.83760000  0.74790000  0.05070000  1.0 0.0176063661
C  C8  1  0.86930000  0.82910000  0.09880000  1.0 -0.1237763188
C  C9  1  0.91070000  0.74110000  0.87220000  1.0 -0.1587008911
C  C10  1  0.87260000  0.66470000  0.92430000  1.0 0.4127164778
C  C11  1  0.83820000  0.66380000  0.96380000  1.0 -0.0732492286
C  C12  1  0.86670000  0.91040000  0.18290000  1.0 -0.1058493595
C  C13  1  0.83060000  0.91310000  0.22150000  1.0 -0.0900775253
C  C14  1  0.46040000  0.01210000  0.35030000  1.0 0.8725583848
C  C15  1  0.10668000  0.73070000  0.95738000  1.0 0.6093328816
C  C16  1  0.03910000  0.72930000  0.92500000  1.0 -0.0900775253
C  C17  1  0.52940000  0.76370000  0.17750000  1.0 0.6033943367
C  C18  1  0.69600000  0.76180000  0.20200000  1.0 0.1460198049
C  C19  1  0.73740000  0.67360000  0.08000000  1.0 0.3737655055
C  C20  1  0.59800000  0.76780000  0.20980000  1.0 -0.0732492286
C  C21  1  0.72700000  0.76360000  0.26700000  1.0 -0.1587008911
C  C22  1  0.63030000  0.77790000  0.28320000  1.0 -0.1031354893
C  C23  1  0.80280000  0.75210000  0.08970000  1.0 0.0176063661
C  C24  1  0.76970000  0.67090000  0.04020000  1.0 -0.1237763188
C  C25  1  0.63110000  0.75890000  0.16960000  1.0 -0.1587008911
C  C26  1  0.75960000  0.83530000  0.20790000  1.0 0.4127164778
C  C27  1  0.80000000  0.83620000  0.17440000  1.0 -0.0732492286
C  C28  1  0.77250000  0.58960000  0.95630000  1.0 -0.1058493595
C  C29  1  0.80840000  0.58690000  0.91750000  1.0 -0.0900775253
C  C30  1  0.83820000  0.48790000  0.44830000  1.0 0.8725583848
C  C31  1  0.72668000  0.76930000  0.37598000  1.0 0.6093328816
C  C32  1  0.69570000  0.77070000  0.30980000  1.0 -0.0900775253
C  C33  1  0.02940000  0.85190000  0.76570000  1.0 0.6033943367
C  C34  1  0.19600000  0.99400000  0.93420000  1.0 0.1460198049
C  C35  1  0.23740000  0.15740000  0.06380000  1.0 0.3737655055
C  C36  1  0.09800000  0.88820000  0.83020000  1.0 -0.0732492286
C  C37  1  0.22700000  0.96000000  0.96340000  1.0 -0.1587008911
C  C38  1  0.13030000  0.84710000  0.85240000  1.0 -0.1031354893
C  C39  1  0.30280000  0.21310000  0.05070000  1.0 0.0176063661
C  C40  1  0.26970000  0.22950000  0.09880000  1.0 -0.1237763188
C  C41  1  0.13110000  0.96150000  0.87220000  1.0 -0.1587008911
C  C42  1  0.25960000  0.05170000  0.92430000  1.0 0.4127164778
C  C43  1  0.30000000  0.12560000  0.96380000  1.0 -0.0732492286
C  C44  1  0.27250000  0.31620000  0.18290000  1.0 -0.1058493595
C  C45  1  0.30840000  0.39090000  0.22150000  1.0 -0.0900775253
C  C46  1  0.33820000  0.88990000  0.35030000  1.0 0.8725583848
C  C47  1  0.22668000  0.85070000  0.95738000  1.0 0.6093328816
C  C48  1  0.19570000  0.88590000  0.92500000  1.0 -0.0900775253
C  C49  1  0.41380000  0.64810000  0.17750000  1.0 0.6033943367
C  C50  1  0.44020000  0.50600000  0.20200000  1.0 0.1460198049
C  C51  1  0.40640000  0.34260000  0.08000000  1.0 0.3737655055
C  C52  1  0.44200000  0.61180000  0.20980000  1.0 -0.0732492286
C  C53  1  0.50340000  0.54000000  0.26700000  1.0 -0.1652710515
C  C54  1  0.50530000  0.65290000  0.28320000  1.0 -0.1031354893
C  C55  1  0.33760000  0.28690000  0.08970000  1.0 0.0176063661
C  C56  1  0.36930000  0.27050000  0.04020000  1.0 -0.1237763188
C  C57  1  0.41070000  0.53850000  0.16960000  1.0 -0.1587008911
C  C58  1  0.37260000  0.44830000  0.20790000  1.0 0.4127164778
C  C59  1  0.33820000  0.37440000  0.17440000  1.0 -0.0732492286
C  C60  1  0.36670000  0.18380000  0.95630000  1.0 -0.1058493595
C  C61  1  0.33060000  0.10910000  0.91750000  1.0 -0.0900775253
C  C62  1  0.96040000  0.61010000  0.44830000  1.0 0.8725583848
C  C63  1  0.60668000  0.64930000  0.37598000  1.0 0.6093328816
C  C64  1  0.53910000  0.61410000  0.30980000  1.0 -0.0900775253
C  C65  1  0.97060000  0.14810000  0.23430000  1.0 0.6033943367
C  C66  1  0.80400000  0.00600000  0.06580000  1.0 0.1460198049
C  C67  1  0.76260000  0.84260000  0.93620000  1.0 0.3737655055
C  C68  1  0.90200000  0.11180000  0.16980000  1.0 -0.0732492286
C  C69  1  0.77300000  0.04000000  0.03660000  1.0 -0.1652710515
C  C70  1  0.86970000  0.15290000  0.14760000  1.0 -0.1031354893
C  C71  1  0.69720000  0.78690000  0.94930000  1.0 0.0176063661
C  C72  1  0.73030000  0.77050000  0.90120000  1.0 -0.1237763188
C  C73  1  0.86890000  0.03850000  0.12780000  1.0 -0.1587008911
C  C74  1  0.74040000  0.94830000  0.07570000  1.0 0.4127164778
C  C75  1  0.70000000  0.87440000  0.03620000  1.0 -0.0732492286
C  C76  1  0.72750000  0.68380000  0.81710000  1.0 -0.1058493595
C  C77  1  0.69160000  0.60910000  0.77850000  1.0 -0.0900775253
C  C78  1  0.66180000  0.11010000  0.64970000  1.0 0.8725583848
C  C79  1  0.77332000  0.14930000  0.04262000  1.0 0.6093328816
C  C80  1  0.80430000  0.11410000  0.07500000  1.0 -0.0900775253
C  C81  1  0.58620000  0.35190000  0.82250000  1.0 0.6033943367
C  C82  1  0.55980000  0.49400000  0.79800000  1.0 0.1460198049
C  C83  1  0.59360000  0.65740000  0.92000000  1.0 0.3737655055
C  C84  1  0.55800000  0.38820000  0.79020000  1.0 -0.0732492286
C  C85  1  0.49660000  0.46000000  0.73300000  1.0 -0.1587008911
C  C86  1  0.49470000  0.34710000  0.71680000  1.0 -0.1031354893
C  C87  1  0.66240000  0.71310000  0.91030000  1.0 0.0176063661
C  C88  1  0.63070000  0.72950000  0.95980000  1.0 -0.1237763188
C  C89  1  0.58930000  0.46150000  0.83040000  1.0 -0.1587008911
C  C90  1  0.62740000  0.55170000  0.79210000  1.0 0.4127164778
C  C91  1  0.66180000  0.62560000  0.82560000  1.0 -0.0732492286
C  C92  1  0.63330000  0.81620000  0.04370000  1.0 -0.1058493595
C  C93  1  0.66940000  0.89090000  0.08250000  1.0 -0.0900775253
C  C94  1  0.03960000  0.38990000  0.55170000  1.0 0.8725583848
C  C95  1  0.39332000  0.35070000  0.62402000  1.0 0.6093328816
C  C96  1  0.46090000  0.38590000  0.69020000  1.0 -0.0900775253
C  C97  1  0.08620000  0.26370000  0.23430000  1.0 0.6033943367
C  C98  1  0.05980000  0.26180000  0.06580000  1.0 0.1460198049
C  C99  1  0.09360000  0.17360000  0.93620000  1.0 0.3737655055
C  C100  1  0.05800000  0.26780000  0.16980000  1.0 -0.0732492286
C  C101  1  0.99660000  0.26360000  0.03660000  1.0 -0.1587008911
C  C102  1  0.99470000  0.27790000  0.14760000  1.0 -0.1031354893
C  C103  1  0.16240000  0.25210000  0.94930000  1.0 0.0176063661
C  C104  1  0.13070000  0.17090000  0.90120000  1.0 -0.1237763188
C  C105  1  0.08930000  0.25890000  0.12780000  1.0 -0.1587008911
C  C106  1  0.12740000  0.33530000  0.07570000  1.0 0.4127164778
C  C107  1  0.16180000  0.33620000  0.03620000  1.0 -0.0732492286
C  C108  1  0.13330000  0.08960000  0.81710000  1.0 -0.1058493595
C  C109  1  0.16940000  0.08690000  0.77850000  1.0 -0.0900775253
C  C110  1  0.53960000  0.98790000  0.64970000  1.0 0.8725583848
C  C111  1  0.89332000  0.26930000  0.04262000  1.0 0.6093328816
C  C112  1  0.96090000  0.27070000  0.07500000  1.0 -0.0900775253
C  C113  1  0.47060000  0.23630000  0.82250000  1.0 0.6033943367
C  C114  1  0.30400000  0.23820000  0.79800000  1.0 0.1460198049
C  C115  1  0.26260000  0.32640000  0.92000000  1.0 0.3737655055
C  C116  1  0.40200000  0.23220000  0.79020000  1.0 -0.0732492286
C  C117  1  0.27300000  0.23640000  0.73300000  1.0 -0.1652710515
C  C118  1  0.36970000  0.22210000  0.71680000  1.0 -0.1031354893
C  C119  1  0.19720000  0.24790000  0.91030000  1.0 0.0176063661
C  C120  1  0.23030000  0.32910000  0.95980000  1.0 -0.1237763188
C  C121  1  0.36890000  0.24110000  0.83040000  1.0 -0.1587008911
C  C122  1  0.24040000  0.16470000  0.79210000  1.0 0.4127164778
C  C123  1  0.20000000  0.16380000  0.82560000  1.0 -0.0732492286
C  C124  1  0.22750000  0.41040000  0.04370000  1.0 -0.1058493595
C  C125  1  0.19160000  0.41310000  0.08250000  1.0 -0.0900775253
C  C126  1  0.16180000  0.51210000  0.55170000  1.0 0.8725583848
C  C127  1  0.27332000  0.23070000  0.62402000  1.0 0.6093328816
C  C128  1  0.30430000  0.22930000  0.69020000  1.0 -0.0900775253
N  N1  1  0.90320000  0.74250000  0.97470000  1.0 -0.226947293
N  N2  1  0.73220000  0.75750000  0.16070000  1.0 -0.226947293
N  N3  1  0.23220000  0.07150000  0.97470000  1.0 -0.226947293
N  N4  1  0.40320000  0.42850000  0.16070000  1.0 -0.226947293
N  N5  1  0.76780000  0.92850000  0.02530000  1.0 -0.226947293
N  N6  1  0.59680000  0.57150000  0.83930000  1.0 -0.226947293
N  N7  1  0.09680000  0.25750000  0.02530000  1.0 -0.226947293
N  N8  1  0.26780000  0.24250000  0.83930000  1.0 -0.226947293
O  O1  1  0.41680000  0.01350000  0.29030000  1.0 -0.7295015681
O  O2  1  0.93290000  0.69610000  0.70180000  1.0 -0.5881756473
O  O3  1  0.13170000  0.69720000  0.90190000  1.0 -0.6206058043
O  O4  1  0.13690000  0.76270000  0.03960000  1.0 -0.6383170563
O  O5  1  0.86530000  0.76950000  0.76880000  1.0 -0.6140239465
O  O6  1  0.32310000  0.76570000  0.99880000  1.0 -1.2275592017
O  O7  1  0.41600000  0.83820000  0.15160000  1.0 -1.2275592017
O  O8  1  0.46760000  0.95180000  0.35000000  1.0 -0.7080767381
O  O9  1  0.94160000  0.89210000  0.10590000  1.0 -0.4367674145
O  O10  1  0.87390000  0.59380000  0.84910000  1.0 -0.4267172742
O  O11  1  0.77680000  0.48650000  0.40330000  1.0 -0.7295015681
O  O12  1  0.50570000  0.80390000  0.23680000  1.0 -0.5881756473
O  O13  1  0.70470000  0.80280000  0.43450000  1.0 -0.6206058043
O  O14  1  0.77690000  0.73730000  0.37420000  1.0 -0.6383170563
O  O15  1  0.49930000  0.73050000  0.09580000  1.0 -0.6140239465
O  O16  1  0.73310000  0.73430000  0.55740000  1.0 -1.236411008
O  O17  1  0.81340000  0.66180000  0.57780000  1.0 -1.2275592017
O  O18  1  0.89820000  0.54820000  0.51580000  1.0 -0.7080767381
O  O19  1  0.71380000  0.60790000  0.04950000  1.0 -0.4367674145
O  O20  1  0.75530000  0.90620000  0.28010000  1.0 -0.4267172742
O  O21  1  0.27680000  0.87350000  0.29030000  1.0 -0.7295015681
O  O22  1  0.00570000  0.76890000  0.70180000  1.0 -0.5881756473
O  O23  1  0.20470000  0.77020000  0.90190000  1.0 -0.6206058043
O  O24  1  0.27690000  0.90270000  0.03960000  1.0 -0.6383170563
O  O25  1  0.99930000  0.90350000  0.76880000  1.0 -0.6140239465
O  O26  1  0.23310000  0.67570000  0.99880000  1.0 -1.2275592017
O  O27  1  0.31340000  0.73560000  0.15160000  1.0 -1.2275592017
O  O28  1  0.39820000  0.88240000  0.35000000  1.0 -0.7080767381
O  O29  1  0.21380000  0.16430000  0.10590000  1.0 -0.4367674145
O  O30  1  0.25530000  0.97520000  0.84910000  1.0 -0.4267172742
O  O31  1  0.91680000  0.62650000  0.40330000  1.0 -0.7295015681
O  O32  1  0.43290000  0.73110000  0.23680000  1.0 -0.5881756473
O  O33  1  0.63170000  0.72980000  0.43450000  1.0 -0.6206058043
O  O34  1  0.63690000  0.59730000  0.37420000  1.0 -0.6383170563
O  O35  1  0.36530000  0.59650000  0.09580000  1.0 -0.6140239465
O  O36  1  0.82310000  0.82430000  0.55740000  1.0 -1.236411008
O  O37  1  0.91600000  0.76440000  0.57780000  1.0 -1.2275592017
O  O38  1  0.96760000  0.61760000  0.51580000  1.0 -0.7080767381
O  O39  1  0.44160000  0.33570000  0.04950000  1.0 -0.4367674145
O  O40  1  0.37390000  0.52480000  0.28010000  1.0 -0.4267172742
O  O41  1  0.30390000  0.61380000  0.91770000  1.0 -1.2497962344
O  O42  1  0.24090000  0.82380000  0.06470000  1.0 -1.2275592017
O  O43  1  0.38760000  0.69050000  0.07810000  1.0 -1.2041164566
O  O44  1  0.33140000  0.87300000  0.20440000  1.0 -1.2187320093
O  O45  1  0.80390000  0.88620000  0.69010000  1.0 -1.2497962344
O  O46  1  0.74090000  0.67620000  0.41710000  1.0 -1.2187320093
O  O47  1  0.88760000  0.80950000  0.69710000  1.0 -1.2041164566
O  O48  1  0.83140000  0.62700000  0.45840000  1.0 -1.2187320093
O  O49  1  0.72320000  0.12650000  0.70970000  1.0 -0.7295015681
O  O50  1  0.99430000  0.23110000  0.29820000  1.0 -0.5881756473
O  O51  1  0.79530000  0.22980000  0.09810000  1.0 -0.6206058043
O  O52  1  0.72310000  0.09730000  0.96040000  1.0 -0.6383170563
O  O53  1  0.00070000  0.09650000  0.23120000  1.0 -0.6140239465
O  O54  1  0.76690000  0.32430000  0.00120000  1.0 -1.236411008
O  O55  1  0.68660000  0.26440000  0.84840000  1.0 -1.2275592017
O  O56  1  0.60180000  0.11760000  0.65000000  1.0 -0.7080767381
O  O57  1  0.78620000  0.83570000  0.89410000  1.0 -0.4367674145
O  O58  1  0.74470000  0.02480000  0.15090000  1.0 -0.4267172742
O  O59  1  0.08320000  0.37350000  0.59670000  1.0 -0.7295015681
O  O60  1  0.56710000  0.26890000  0.76320000  1.0 -0.5881756473
O  O61  1  0.36830000  0.27020000  0.56550000  1.0 -0.6206058043
O  O62  1  0.36310000  0.40270000  0.62580000  1.0 -0.6383170563
O  O63  1  0.63470000  0.40350000  0.90420000  1.0 -0.6140239465
O  O64  1  0.17690000  0.17570000  0.44260000  1.0 -1.236411008
O  O65  1  0.08400000  0.23560000  0.42220000  1.0 -1.2275592017
O  O66  1  0.03240000  0.38240000  0.48420000  1.0 -0.7080767381
O  O67  1  0.55840000  0.66430000  0.95050000  1.0 -0.4367674145
O  O68  1  0.62610000  0.47520000  0.71990000  1.0 -0.4267172742
O  O69  1  0.58320000  0.98650000  0.70970000  1.0 -0.7295015681
O  O70  1  0.06710000  0.30390000  0.29820000  1.0 -0.5881756473
O  O71  1  0.86830000  0.30280000  0.09810000  1.0 -0.6206058043
O  O72  1  0.86310000  0.23730000  0.96040000  1.0 -0.6383170563
O  O73  1  0.13470000  0.23050000  0.23120000  1.0 -0.6140239465
O  O74  1  0.67690000  0.23430000  0.00120000  1.0 -1.236411008
O  O75  1  0.58400000  0.16180000  0.84840000  1.0 -1.2275592017
O  O76  1  0.53240000  0.04820000  0.65000000  1.0 -0.7080767381
O  O77  1  0.05840000  0.10790000  0.89410000  1.0 -0.4367674145
O  O78  1  0.12610000  0.40620000  0.15090000  1.0 -0.4267172742
O  O79  1  0.22320000  0.51350000  0.59670000  1.0 -0.7295015681
O  O80  1  0.49430000  0.19610000  0.76320000  1.0 -0.5881756473
O  O81  1  0.29530000  0.19720000  0.56550000  1.0 -0.6206058043
O  O82  1  0.22310000  0.26270000  0.62580000  1.0 -0.6383170563
O  O83  1  0.50070000  0.26950000  0.90420000  1.0 -0.6140239465
O  O84  1  0.26690000  0.26570000  0.44260000  1.0 -1.236411008
O  O85  1  0.18660000  0.33820000  0.42220000  1.0 -1.2275592017
O  O86  1  0.10180000  0.45180000  0.48420000  1.0 -0.7080767381
O  O87  1  0.28620000  0.39210000  0.95050000  1.0 -0.4367674145
O  O88  1  0.24470000  0.09380000  0.71990000  1.0 -0.4267172742
O  O89  1  0.69610000  0.38620000  0.08230000  1.0 -1.2497962344
O  O90  1  0.75910000  0.17620000  0.93530000  1.0 -1.2187320093
O  O91  1  0.61240000  0.30950000  0.92190000  1.0 -1.2041164566
O  O92  1  0.66860000  0.12700000  0.79560000  1.0 -1.2187320093
O  O93  1  0.19610000  0.11380000  0.30990000  1.0 -1.2497962344
O  O94  1  0.25910000  0.32380000  0.58290000  1.0 -1.2187320093
O  O95  1  0.11240000  0.19050000  0.30290000  1.0 -1.2041164566
O  O96  1  0.16860000  0.37300000  0.54160000  1.0 -1.2187320093
