# DDEC6 charges by PACMAN v1.1 (https://github.com/mtap-research/PACMAN-charge/)
data_IGIGIR_ASR_pacman
_symmetry_space_group_name_H-M   'P 1'
_cell_length_a   23.60760000
_cell_length_b   23.60760000
_cell_length_c   23.60760000
_cell_angle_alpha   139.10100000
_cell_angle_beta   114.76000000
_cell_angle_gamma   79.93940000
_symmetry_Int_Tables_number   1
_chemical_formula_structural   Zr4H5C18NO20
_chemical_formula_sum   'Zr32 H40 C144 N8 O160'
_cell_volume   7596.31900728
_cell_formula_units_Z   8
loop_
 _symmetry_equiv_pos_site_id
 _symmetry_equiv_pos_as_xyz
  1  'x, y, z'
loop_
 _atom_site_type_symbol
 _atom_site_label
 _atom_site_symmetry_multiplicity
 _atom_site_fract_x
 _atom_site_fract_y
 _atom_site_fract_z
 _atom_site_occupancy
 _atom_site_charge
Zr  Zr1  1  0.83573000  0.39001000  0.12968000  1.0 2.1874697131
Zr  Zr2  1  0.90587000  0.22539000  0.02088000  1.0 1.0432521368
Zr  Zr3  1  0.89361000  0.18182000  0.99079000  1.0 1.1053668524
Zr  Zr4  1  0.26033000  0.70605000  0.87032000  1.0 2.1848492886
Zr  Zr5  1  0.20451000  0.88499000  0.97912000  1.0 1.0576215053
Zr  Zr6  1  0.19103000  0.90282000  0.00921000  1.0 1.1020340467
Zr  Zr7  1  0.23967000  0.10999000  0.44572000  1.0 2.1874697131
Zr  Zr8  1  0.29549000  0.27461000  0.68048000  1.0 1.0576215053
Zr  Zr9  1  0.30897000  0.31818000  0.71179000  1.0 1.1020340467
Zr  Zr10  1  0.66427000  0.79395000  0.55428000  1.0 2.1874697131
Zr  Zr11  1  0.59413000  0.61501000  0.31952000  1.0 1.0576215053
Zr  Zr12  1  0.60639000  0.59718000  0.28821000  1.0 1.0907441641
Zr  Zr13  1  0.16427000  0.60999000  0.87032000  1.0 2.1874697131
Zr  Zr14  1  0.09413000  0.77461000  0.97912000  1.0 1.0576215053
Zr  Zr15  1  0.10639000  0.81818000  0.00921000  1.0 1.1020340467
Zr  Zr16  1  0.73967000  0.29395000  0.12968000  1.0 2.1874697131
Zr  Zr17  1  0.79549000  0.11501000  0.02088000  1.0 1.0456569458
Zr  Zr18  1  0.80897000  0.09718000  0.99079000  1.0 1.0907441641
Zr  Zr19  1  0.76033000  0.89001000  0.55428000  1.0 2.1874697131
Zr  Zr20  1  0.70451000  0.72539000  0.31952000  1.0 1.0576215053
Zr  Zr21  1  0.69103000  0.68182000  0.28821000  1.0 1.1020340467
Zr  Zr22  1  0.33573000  0.20605000  0.44572000  1.0 2.1874697131
Zr  Zr23  1  0.40587000  0.38499000  0.68048000  1.0 1.0576215053
Zr  Zr24  1  0.39361000  0.40282000  0.71179000  1.0 1.1020340467
Zr  Zr25  1  0.73140000  0.18193000  0.91333000  1.0 2.1403765942
Zr  Zr26  1  0.90713000  0.31433000  0.22146000  1.0 2.3089264895
Zr  Zr27  1  0.26860000  0.81807000  0.08667000  1.0 2.1403765942
Zr  Zr28  1  0.09287000  0.68567000  0.77854000  1.0 2.3089264895
Zr  Zr29  1  0.23140000  0.31807000  0.54947000  1.0 2.1403765942
Zr  Zr30  1  0.40713000  0.18567000  0.59280000  1.0 2.3089264895
Zr  Zr31  1  0.76860000  0.68193000  0.45053000  1.0 2.1403765942
Zr  Zr32  1  0.59287000  0.81433000  0.40720000  1.0 2.3089264895
H  H1  1  0.33110000  0.46940000  0.27630000  1.0 0.1409382608
H  H2  1  0.11070000  0.29070000  0.32100000  1.0 0.1316056428
H  H3  1  0.27360000  0.27050000  0.29410000  1.0 0.1409382608
H  H4  1  0.11130000  0.25530000  0.12400000  1.0 0.1316056428
H  H5  1  0.39040000  0.46140000  0.21280000  1.0 0.1316056428
H  H6  1  0.19310000  0.05480000  0.72370000  1.0 0.1409382608
H  H7  1  0.96970000  0.78970000  0.67900000  1.0 0.1316056428
H  H8  1  0.97640000  0.97950000  0.70590000  1.0 0.1409382608
H  H9  1  0.13130000  0.98730000  0.87600000  1.0 0.1316056428
H  H10  1  0.24860000  0.17760000  0.78720000  1.0 0.1316056428
H  H11  1  0.30690000  0.03060000  0.86170000  1.0 0.1409382608
H  H12  1  0.53030000  0.20930000  0.82000000  1.0 0.1316056428
H  H13  1  0.52360000  0.22950000  0.00310000  1.0 0.1409382608
H  H14  1  0.36870000  0.24470000  0.85600000  1.0 0.1316056428
H  H15  1  0.25140000  0.03860000  0.92900000  1.0 0.1316056428
H  H16  1  0.16890000  0.44520000  0.13830000  1.0 0.1409382608
H  H17  1  0.38930000  0.71030000  0.18000000  1.0 0.1316056428
H  H18  1  0.22640000  0.52050000  0.99690000  1.0 0.1409382608
H  H19  1  0.38870000  0.51270000  0.14400000  1.0 0.1316056428
H  H20  1  0.10960000  0.32240000  0.07100000  1.0 0.1316056428
H  H21  1  0.66890000  0.53060000  0.72370000  1.0 0.1409382608
H  H22  1  0.88930000  0.70930000  0.67900000  1.0 0.1316056428
H  H23  1  0.72640000  0.72950000  0.70590000  1.0 0.1409382608
H  H24  1  0.88870000  0.74470000  0.87600000  1.0 0.1316056428
H  H25  1  0.60960000  0.53860000  0.78720000  1.0 0.1316056428
H  H26  1  0.80690000  0.94520000  0.27630000  1.0 0.1409382608
H  H27  1  0.03030000  0.21030000  0.32100000  1.0 0.1316056428
H  H28  1  0.02360000  0.02050000  0.29410000  1.0 0.1409382608
H  H29  1  0.86870000  0.01270000  0.12400000  1.0 0.1316056428
H  H30  1  0.75140000  0.82240000  0.21280000  1.0 0.1316056428
H  H31  1  0.69310000  0.96940000  0.13830000  1.0 0.1409382608
H  H32  1  0.46970000  0.79070000  0.18000000  1.0 0.1316056428
H  H33  1  0.47640000  0.77050000  0.99690000  1.0 0.1409382608
H  H34  1  0.63130000  0.75530000  0.14400000  1.0 0.1316056428
H  H35  1  0.74860000  0.96140000  0.07100000  1.0 0.1316056428
H  H36  1  0.83110000  0.55480000  0.86170000  1.0 0.1409382608
H  H37  1  0.61070000  0.28970000  0.82000000  1.0 0.1316056428
H  H38  1  0.77360000  0.47950000  0.00310000  1.0 0.1409382608
H  H39  1  0.61130000  0.48730000  0.85600000  1.0 0.1316056428
H  H40  1  0.89040000  0.67760000  0.92900000  1.0 0.1316056428
C  C1  1  0.33240000  0.41320000  0.21880000  1.0 -0.0976379698
C  C2  1  0.36950000  0.32870000  0.09900000  1.0 -0.0664597993
C  C3  1  0.29900000  0.33410000  0.17130000  1.0 -0.064824674
C  C4  1  0.23500000  0.17610000  0.08270000  1.0 0.4229797574
C  C5  1  0.03100000  0.27080000  0.18360000  1.0 0.6385695527
C  C6  1  0.19790000  0.26380000  0.20490000  1.0 0.1725061352
C  C7  1  0.92960000  0.39670000  0.08390000  1.0 0.4595454598
C  C8  1  0.22960000  0.27940000  0.38640000  1.0 0.6385695527
C  C9  1  0.13230000  0.28170000  0.28940000  1.0 -0.0903604061
C  C10  1  0.22930000  0.27070000  0.27440000  1.0 -0.1540163343
C  C11  1  0.10030000  0.27150000  0.21620000  1.0 -0.0322540738
C  C12  1  0.13300000  0.26250000  0.17390000  1.0 -0.1636300586
C  C13  1  0.19720000  0.27820000  0.31520000  1.0 0.0020787702
C  C14  1  0.30110000  0.25070000  0.08680000  1.0 0.0219513506
C  C15  1  0.26230000  0.34150000  0.21440000  1.0 0.4319913353
C  C16  1  0.36750000  0.40800000  0.18070000  1.0 -0.0791341598
C  C17  1  0.75020000  0.05920000  0.72080000  1.0 0.3918292226
C  C18  1  0.79500000  0.06730000  0.76570000  1.0 0.3489147241
C  C19  1  0.19440000  0.11360000  0.78120000  1.0 -0.0976379698
C  C20  1  0.22970000  0.27050000  0.90100000  1.0 -0.0664597993
C  C21  1  0.16280000  0.12770000  0.82870000  1.0 -0.0664597993
C  C22  1  0.09340000  0.15230000  0.91730000  1.0 0.4229797574
C  C23  1  0.08720000  0.84740000  0.81640000  1.0 0.6385695527
C  C24  1  0.05890000  0.99300000  0.79510000  1.0 0.1725061352
C  C25  1  0.31280000  0.84570000  0.91610000  1.0 0.4526947165
C  C26  1  0.89300000  0.84320000  0.61360000  1.0 0.6385695527
C  C27  1  0.99230000  0.84290000  0.71060000  1.0 -0.0903604061
C  C28  1  0.99630000  0.95490000  0.72560000  1.0 -0.1540163343
C  C29  1  0.05530000  0.88410000  0.78380000  1.0 -0.0322540738
C  C30  1  0.08860000  0.95910000  0.82610000  1.0 -0.1636300586
C  C31  1  0.96300000  0.88200000  0.68480000  1.0 0.0020787702
C  C32  1  0.16390000  0.21430000  0.91320000  1.0 0.0219513506
C  C33  1  0.12710000  0.04790000  0.78560000  1.0 0.4319913353
C  C34  1  0.22730000  0.18680000  0.81930000  1.0 -0.0791341598
C  C35  1  0.33840000  0.02940000  0.27920000  1.0 0.3918292226
C  C36  1  0.30160000  0.02930000  0.23430000  1.0 0.3489147241
C  C37  1  0.30560000  0.08680000  0.91920000  1.0 -0.0976379698
C  C38  1  0.27030000  0.17130000  0.04080000  1.0 -0.0664597993
C  C39  1  0.33720000  0.16590000  0.96490000  1.0 -0.064824674
C  C40  1  0.40660000  0.32390000  0.05890000  1.0 0.4229797574
C  C41  1  0.41280000  0.22920000  0.76020000  1.0 0.6385695527
C  C42  1  0.44110000  0.23620000  0.93410000  1.0 0.1725061352
C  C43  1  0.18720000  0.10330000  0.53290000  1.0 0.4526947165
C  C44  1  0.60700000  0.22060000  0.95020000  1.0 0.6385695527
C  C45  1  0.50770000  0.21830000  0.85060000  1.0 -0.0903604061
C  C46  1  0.50370000  0.22930000  0.95860000  1.0 -0.1540163343
C  C47  1  0.44470000  0.22850000  0.82880000  1.0 -0.0322540738
C  C48  1  0.41140000  0.23750000  0.87050000  1.0 -0.1636300586
C  C49  1  0.53700000  0.22180000  0.91900000  1.0 0.0020787702
C  C50  1  0.33610000  0.24930000  0.05040000  1.0 0.0219513506
C  C51  1  0.37290000  0.15850000  0.92080000  1.0 0.4319913353
C  C52  1  0.27270000  0.09200000  0.95950000  1.0 -0.0791341598
C  C53  1  0.16160000  0.44080000  0.69100000  1.0 0.3918292226
C  C54  1  0.19840000  0.43270000  0.72770000  1.0 0.3489147241
C  C55  1  0.16760000  0.38640000  0.08080000  1.0 -0.0976379698
C  C56  1  0.13050000  0.22950000  0.95920000  1.0 -0.0664597993
C  C57  1  0.20100000  0.37230000  0.03510000  1.0 -0.064824674
C  C58  1  0.26500000  0.34770000  0.94110000  1.0 0.4229797574
C  C59  1  0.46900000  0.65260000  0.23980000  1.0 0.6385695527
C  C60  1  0.30210000  0.50700000  0.06590000  1.0 0.1725061352
C  C61  1  0.57040000  0.65430000  0.46710000  1.0 0.4595454598
C  C62  1  0.27040000  0.65680000  0.04980000  1.0 0.6385695527
C  C63  1  0.36770000  0.65710000  0.14940000  1.0 -0.0903604061
C  C64  1  0.27070000  0.54510000  0.04140000  1.0 -0.1540163343
C  C65  1  0.39970000  0.61590000  0.17120000  1.0 -0.0322540738
C  C66  1  0.36700000  0.54090000  0.12950000  1.0 -0.1636300586
C  C67  1  0.30280000  0.61800000  0.08100000  1.0 0.0020787702
C  C68  1  0.19890000  0.28570000  0.94960000  1.0 0.0219513506
C  C69  1  0.23770000  0.45210000  0.07920000  1.0 0.4319913353
C  C70  1  0.13250000  0.31320000  0.04050000  1.0 -0.0791341598
C  C71  1  0.74980000  0.47060000  0.30900000  1.0 0.3918292226
C  C72  1  0.70500000  0.47070000  0.27230000  1.0 0.3489147241
C  C73  1  0.66760000  0.58680000  0.78120000  1.0 -0.0976379698
C  C74  1  0.63050000  0.67130000  0.90100000  1.0 -0.0664597993
C  C75  1  0.70100000  0.66590000  0.82870000  1.0 -0.0664597993
C  C76  1  0.76500000  0.82390000  0.91730000  1.0 0.4229797574
C  C77  1  0.96900000  0.72920000  0.81640000  1.0 0.6385695527
C  C78  1  0.80210000  0.73620000  0.79510000  1.0 0.1725061352
C  C79  1  0.07040000  0.60330000  0.91610000  1.0 0.4526947165
C  C80  1  0.77040000  0.72060000  0.61360000  1.0 0.6385695527
C  C81  1  0.86770000  0.71830000  0.71060000  1.0 -0.0903604061
C  C82  1  0.77070000  0.72930000  0.72560000  1.0 -0.1540163343
C  C83  1  0.89970000  0.72850000  0.78380000  1.0 -0.0322540738
C  C84  1  0.86700000  0.73750000  0.82610000  1.0 -0.1636300586
C  C85  1  0.80280000  0.72180000  0.68480000  1.0 0.0020787702
C  C86  1  0.69890000  0.74930000  0.91320000  1.0 0.0219513506
C  C87  1  0.73770000  0.65850000  0.78560000  1.0 0.4319913353
C  C88  1  0.63250000  0.59200000  0.81930000  1.0 -0.0791341598
C  C89  1  0.24980000  0.94080000  0.27920000  1.0 0.3918292226
C  C90  1  0.20500000  0.93270000  0.23430000  1.0 0.3489147241
C  C91  1  0.80560000  0.88640000  0.21880000  1.0 -0.0976379698
C  C92  1  0.77030000  0.72950000  0.09900000  1.0 -0.0664597993
C  C93  1  0.83720000  0.87230000  0.17130000  1.0 -0.064824674
C  C94  1  0.90660000  0.84770000  0.08270000  1.0 0.4229797574
C  C95  1  0.91280000  0.15260000  0.18360000  1.0 0.6385695527
C  C96  1  0.94110000  0.00700000  0.20490000  1.0 0.1725061352
C  C97  1  0.68720000  0.15430000  0.08390000  1.0 0.4595454598
C  C98  1  0.10700000  0.15680000  0.38640000  1.0 0.6385695527
C  C99  1  0.00770000  0.15710000  0.28940000  1.0 -0.0903604061
C  C100  1  0.00370000  0.04510000  0.27440000  1.0 -0.1636300586
C  C101  1  0.94470000  0.11590000  0.21620000  1.0 -0.0322540738
C  C102  1  0.91140000  0.04090000  0.17390000  1.0 -0.1636300586
C  C103  1  0.03700000  0.11800000  0.31520000  1.0 0.0020787702
C  C104  1  0.83610000  0.78570000  0.08680000  1.0 0.0219513506
C  C105  1  0.87290000  0.95210000  0.21440000  1.0 0.4319913353
C  C106  1  0.77270000  0.81320000  0.18070000  1.0 -0.0791341598
C  C107  1  0.66160000  0.97060000  0.72080000  1.0 0.3918292226
C  C108  1  0.69840000  0.97070000  0.76570000  1.0 0.3489147241
C  C109  1  0.69440000  0.91320000  0.08080000  1.0 -0.0976379698
C  C110  1  0.72970000  0.82870000  0.95920000  1.0 -0.0664597993
C  C111  1  0.66280000  0.83410000  0.03510000  1.0 -0.064824674
C  C112  1  0.59340000  0.67610000  0.94110000  1.0 0.4229797574
C  C113  1  0.58720000  0.77080000  0.23980000  1.0 0.6385695527
C  C114  1  0.55890000  0.76380000  0.06590000  1.0 0.1725061352
C  C115  1  0.81280000  0.89670000  0.46710000  1.0 0.4526947165
C  C116  1  0.39300000  0.77940000  0.04980000  1.0 0.6385695527
C  C117  1  0.49230000  0.78170000  0.14940000  1.0 -0.0903604061
C  C118  1  0.49630000  0.77070000  0.04140000  1.0 -0.1540163343
C  C119  1  0.55530000  0.77150000  0.17120000  1.0 -0.0322540738
C  C120  1  0.58860000  0.76250000  0.12950000  1.0 -0.1636300586
C  C121  1  0.46300000  0.77820000  0.08100000  1.0 0.0020787702
C  C122  1  0.66390000  0.75070000  0.94960000  1.0 0.0219513506
C  C123  1  0.62710000  0.84150000  0.07920000  1.0 0.4319913353
C  C124  1  0.72730000  0.90800000  0.04050000  1.0 -0.0791341598
C  C125  1  0.83840000  0.55920000  0.30900000  1.0 0.3918292226
C  C126  1  0.80160000  0.56730000  0.27230000  1.0 0.3489147241
C  C127  1  0.83240000  0.61360000  0.91920000  1.0 -0.0976379698
C  C128  1  0.86950000  0.77050000  0.04080000  1.0 -0.0664597993
C  C129  1  0.79900000  0.62770000  0.96490000  1.0 -0.064824674
C  C130  1  0.73500000  0.65230000  0.05890000  1.0 0.4229797574
C  C131  1  0.53100000  0.34740000  0.76020000  1.0 0.6385695527
C  C132  1  0.69790000  0.49300000  0.93410000  1.0 0.1725061352
C  C133  1  0.42960000  0.34570000  0.53290000  1.0 0.4526947165
C  C134  1  0.72960000  0.34320000  0.95020000  1.0 0.6385695527
C  C135  1  0.63230000  0.34290000  0.85060000  1.0 -0.0903604061
C  C136  1  0.72930000  0.45490000  0.95860000  1.0 -0.1540163343
C  C137  1  0.60030000  0.38410000  0.82880000  1.0 -0.0322540738
C  C138  1  0.63300000  0.45910000  0.87050000  1.0 -0.1636300586
C  C139  1  0.69720000  0.38200000  0.91900000  1.0 0.0020787702
C  C140  1  0.80110000  0.71430000  0.05040000  1.0 0.0219513506
C  C141  1  0.76230000  0.54790000  0.92080000  1.0 0.4319913353
C  C142  1  0.86750000  0.68680000  0.95950000  1.0 -0.0791341598
C  C143  1  0.25020000  0.52940000  0.69100000  1.0 0.3918292226
C  C144  1  0.29500000  0.52930000  0.72770000  1.0 0.3489147241
N  N1  1  0.23254000  0.25894000  0.16400000  1.0 -0.2182357607
N  N2  1  0.09494000  0.06854000  0.83600000  1.0 -0.2182357607
N  N3  1  0.40506000  0.24106000  0.97360000  1.0 -0.2182357607
N  N4  1  0.26746000  0.43146000  0.02640000  1.0 -0.2182357607
N  N5  1  0.76746000  0.74106000  0.83600000  1.0 -0.2182357607
N  N6  1  0.90506000  0.93146000  0.16400000  1.0 -0.2182357607
N  N7  1  0.59494000  0.75894000  0.02640000  1.0 -0.2182357607
N  N8  1  0.73254000  0.56854000  0.97360000  1.0 -0.2182357607
O  O1  1  0.72910000  0.02590000  0.63780000  1.0 -0.3974017461
O  O2  1  0.82286000  0.25966000  0.00040000  1.0 -0.9866373275
O  O3  1  0.20549000  0.30924000  0.44105000  1.0 -0.5915186813
O  O4  1  0.00604000  0.30330000  0.23834000  1.0 -0.6262889539
O  O5  1  0.74350000  0.11990000  0.78940000  1.0 -0.3909562898
O  O6  1  0.92223000  0.34563000  0.15720000  1.0 -1.0427462111
O  O7  1  0.00030000  0.23280000  0.09910000  1.0 -0.5798180362
O  O8  1  0.27870000  0.24720000  0.38390000  1.0 -0.5991485451
O  O9  1  0.20817000  0.10817000  0.04660000  1.0 -0.3909562898
O  O10  1  0.78640000  0.00420000  0.70460000  1.0 -0.2967815769
O  O11  1  0.25700000  0.41170000  0.28530000  1.0 -0.4241348241
O  O12  1  0.90360000  0.44550000  0.13530000  1.0 -0.6092287039
O  O13  1  0.95200000  0.32330000  0.04810000  1.0 -0.2310696968
O  O14  1  0.94170000  0.09710000  0.92960000  1.0 -0.263902079
O  O15  1  0.89760000  0.17430000  0.88870000  1.0 -0.1813019533
O  O16  1  0.91800000  0.05200000  0.91980000  1.0 0.0081830675
O  O17  1  0.94950000  0.24530000  0.98740000  1.0 -0.0903604061
O  O18  1  0.85900000  0.09990000  0.84130000  1.0 -0.1813019533
O  O19  1  0.38810000  0.09130000  0.36220000  1.0 -0.3974017461
O  O20  1  0.25926000  0.82246000  0.99960000  1.0 -0.9866373275
O  O21  1  0.86819000  0.76444000  0.55895000  1.0 -0.5915186813
O  O22  1  0.06496000  0.76770000  0.76166000  1.0 -0.6262889539
O  O23  1  0.33050000  0.95410000  0.21060000  1.0 -0.3909562898
O  O24  1  0.18843000  0.76503000  0.84280000  1.0 -1.0427462111
O  O25  1  0.13370000  0.90120000  0.90090000  1.0 -0.5798180362
O  O26  1  0.86330000  0.89480000  0.61610000  1.0 -0.5991485451
O  O27  1  0.06157000  0.16157000  0.95340000  1.0 -0.3909562898
O  O28  1  0.29960000  0.08180000  0.29540000  1.0 -0.2967815769
O  O29  1  0.12640000  0.97170000  0.71470000  1.0 -0.4255376791
O  O30  1  0.31020000  0.76830000  0.86470000  1.0 -0.5991485451
O  O31  1  0.27520000  0.90390000  0.95190000  1.0 -0.2310696968
O  O32  1  0.16750000  0.01210000  0.07040000  1.0 -0.263902079
O  O33  1  0.28560000  0.00890000  0.11130000  1.0 -0.1813019533
O  O34  1  0.13220000  0.99820000  0.08020000  1.0 0.0081830675
O  O35  1  0.25790000  0.96210000  0.01260000  1.0 -0.0903604061
O  O36  1  0.25860000  0.01770000  0.15870000  1.0 -0.1813019533
O  O37  1  0.11190000  0.47410000  0.70320000  1.0 -0.3974017461
O  O38  1  0.24074000  0.24034000  0.56320000  1.0 -0.9866373275
O  O39  1  0.63181000  0.19076000  0.89625000  1.0 -0.5915186813
O  O40  1  0.43504000  0.19670000  0.70274000  1.0 -0.6262889539
O  O41  1  0.16950000  0.38010000  0.62360000  1.0 -0.3909562898
O  O42  1  0.31157000  0.15437000  0.57660000  1.0 -1.0427462111
O  O43  1  0.36630000  0.26720000  0.76750000  1.0 -0.5798180362
O  O44  1  0.63670000  0.25280000  0.03150000  1.0 -0.5991485451
O  O45  1  0.43843000  0.39183000  0.10000000  1.0 -0.3909562898
O  O46  1  0.20040000  0.49580000  0.78220000  1.0 -0.2967815769
O  O47  1  0.37360000  0.08830000  0.84530000  1.0 -0.4255376791
O  O48  1  0.18980000  0.05450000  0.45810000  1.0 -0.5991485451
O  O49  1  0.22480000  0.17670000  0.62870000  1.0 -0.2310696968
O  O50  1  0.33250000  0.40290000  0.84460000  1.0 -0.263902079
O  O51  1  0.21440000  0.32570000  0.72330000  1.0 -0.1813019533
O  O52  1  0.36780000  0.44800000  0.86600000  1.0 0.0081830675
O  O53  1  0.24210000  0.25470000  0.70420000  1.0 -0.0903604061
O  O54  1  0.24140000  0.40010000  0.75910000  1.0 -0.1864609604
O  O55  1  0.77090000  0.40870000  0.29680000  1.0 -0.3974017461
O  O56  1  0.67714000  0.67754000  0.43680000  1.0 -0.9866373275
O  O57  1  0.29451000  0.73556000  0.10375000  1.0 -0.5915186813
O  O58  1  0.49396000  0.73230000  0.29726000  1.0 -0.6262889539
O  O59  1  0.75650000  0.54590000  0.37640000  1.0 -0.3909562898
O  O60  1  0.57777000  0.73497000  0.42340000  1.0 -1.0427462111
O  O61  1  0.49970000  0.59880000  0.23250000  1.0 -0.5798180362
O  O62  1  0.22130000  0.60520000  0.96850000  1.0 -0.5991485451
O  O63  1  0.29183000  0.33843000  0.90000000  1.0 -0.3909562898
O  O64  1  0.71360000  0.41820000  0.21780000  1.0 -0.2967815769
O  O65  1  0.24300000  0.52830000  0.15470000  1.0 -0.4255376791
O  O66  1  0.59640000  0.73170000  0.54190000  1.0 -0.6092287039
O  O67  1  0.54800000  0.59610000  0.37130000  1.0 -0.2310696968
O  O68  1  0.55830000  0.48790000  0.15540000  1.0 -0.263902079
O  O69  1  0.60240000  0.49110000  0.27670000  1.0 -0.1735723426
O  O70  1  0.58200000  0.50180000  0.13400000  1.0 0.0081830675
O  O71  1  0.55050000  0.53790000  0.29580000  1.0 -0.0903604061
O  O72  1  0.64100000  0.48230000  0.24090000  1.0 -0.1864609604
O  O73  1  0.27090000  0.97410000  0.36220000  1.0 -0.3974017461
O  O74  1  0.17714000  0.74034000  0.99960000  1.0 -0.9866373275
O  O75  1  0.79451000  0.69076000  0.55895000  1.0 -0.5915186813
O  O76  1  0.99396000  0.69670000  0.76166000  1.0 -0.6262889539
O  O77  1  0.25650000  0.88010000  0.21060000  1.0 -0.3909562898
O  O78  1  0.07777000  0.65437000  0.84280000  1.0 -1.0427462111
O  O79  1  0.99970000  0.76720000  0.90090000  1.0 -0.5798180362
O  O80  1  0.72130000  0.75280000  0.61610000  1.0 -0.5991485451
O  O81  1  0.79183000  0.89183000  0.95340000  1.0 -0.3909562898
O  O82  1  0.21360000  0.99580000  0.29540000  1.0 -0.2967815769
O  O83  1  0.74300000  0.58830000  0.71470000  1.0 -0.4255376791
O  O84  1  0.09640000  0.55450000  0.86470000  1.0 -0.5991485451
O  O85  1  0.04800000  0.67670000  0.95190000  1.0 -0.2310696968
O  O86  1  0.05830000  0.90290000  0.07040000  1.0 -0.263902079
O  O87  1  0.10240000  0.82570000  0.11130000  1.0 -0.1813019533
O  O88  1  0.08200000  0.94800000  0.08020000  1.0 0.0081830675
O  O89  1  0.05050000  0.75470000  0.01260000  1.0 -0.0903604061
O  O90  1  0.14100000  0.90010000  0.15870000  1.0 -0.1864609604
O  O91  1  0.61190000  0.90870000  0.63780000  1.0 -0.3974017461
O  O92  1  0.74074000  0.17754000  0.00040000  1.0 -0.9866373275
O  O93  1  0.13181000  0.23556000  0.44105000  1.0 -0.5915186813
O  O94  1  0.93504000  0.23230000  0.23834000  1.0 -0.6262889539
O  O95  1  0.66950000  0.04590000  0.78940000  1.0 -0.3909562898
O  O96  1  0.81157000  0.23497000  0.15720000  1.0 -1.0521956717
O  O97  1  0.86630000  0.09880000  0.09910000  1.0 -0.5798180362
O  O98  1  0.13670000  0.10520000  0.38390000  1.0 -0.5991485451
O  O99  1  0.93843000  0.83843000  0.04660000  1.0 -0.3909562898
O  O100  1  0.70040000  0.91820000  0.70460000  1.0 -0.2967815769
O  O101  1  0.87360000  0.02830000  0.28530000  1.0 -0.4255376791
O  O102  1  0.68980000  0.23170000  0.13530000  1.0 -0.5991485451
O  O103  1  0.72480000  0.09610000  0.04810000  1.0 -0.2310696968
O  O104  1  0.83250000  0.98790000  0.92960000  1.0 -0.263902079
O  O105  1  0.71440000  0.99110000  0.88870000  1.0 -0.1813019533
O  O106  1  0.86780000  0.00180000  0.91980000  1.0 0.0081830675
O  O107  1  0.74210000  0.03790000  0.98740000  1.0 -0.0791341598
O  O108  1  0.74140000  0.98230000  0.84130000  1.0 -0.1813019533
O  O109  1  0.88810000  0.52590000  0.29680000  1.0 -0.3974017461
O  O110  1  0.75926000  0.75966000  0.43680000  1.0 -0.9866373275
O  O111  1  0.36819000  0.80924000  0.10375000  1.0 -0.5915186813
O  O112  1  0.56496000  0.80330000  0.29726000  1.0 -0.6262889539
O  O113  1  0.83050000  0.61990000  0.37640000  1.0 -0.3909562898
O  O114  1  0.68843000  0.84563000  0.42340000  1.0 -1.0427462111
O  O115  1  0.63370000  0.73280000  0.23250000  1.0 -0.5798180362
O  O116  1  0.36330000  0.74720000  0.96850000  1.0 -0.5991485451
O  O117  1  0.56157000  0.60817000  0.90000000  1.0 -0.3909562898
O  O118  1  0.79960000  0.50420000  0.21780000  1.0 -0.2967815769
O  O119  1  0.62640000  0.91170000  0.15470000  1.0 -0.4241348241
O  O120  1  0.81020000  0.94550000  0.54190000  1.0 -0.6092287039
O  O121  1  0.77520000  0.82330000  0.37130000  1.0 -0.2310696968
O  O122  1  0.66750000  0.59710000  0.15540000  1.0 -0.263902079
O  O123  1  0.78560000  0.67430000  0.27670000  1.0 -0.1735723426
O  O124  1  0.63220000  0.55200000  0.13400000  1.0 0.0081830675
O  O125  1  0.75790000  0.74530000  0.29580000  1.0 -0.0903604061
O  O126  1  0.75860000  0.59990000  0.24090000  1.0 -0.1864609604
O  O127  1  0.22910000  0.59130000  0.70320000  1.0 -0.3974017461
O  O128  1  0.32286000  0.32246000  0.56320000  1.0 -0.9866373275
O  O129  1  0.70549000  0.26444000  0.89625000  1.0 -0.5915186813
O  O130  1  0.50604000  0.26770000  0.70274000  1.0 -0.6262889539
O  O131  1  0.24350000  0.45410000  0.62360000  1.0 -0.3909562898
O  O132  1  0.42223000  0.26503000  0.57660000  1.0 -1.0427462111
O  O133  1  0.50030000  0.40120000  0.76750000  1.0 -0.5798180362
O  O134  1  0.77870000  0.39480000  0.03150000  1.0 -0.5991485451
O  O135  1  0.70817000  0.66157000  0.10000000  1.0 -0.3909562898
O  O136  1  0.28640000  0.58180000  0.78220000  1.0 -0.2967815769
O  O137  1  0.75700000  0.47170000  0.84530000  1.0 -0.4255376791
O  O138  1  0.40360000  0.26830000  0.45810000  1.0 -0.5991485451
O  O139  1  0.45200000  0.40390000  0.62870000  1.0 -0.2310696968
O  O140  1  0.44170000  0.51210000  0.84460000  1.0 -0.263902079
O  O141  1  0.39760000  0.50890000  0.72330000  1.0 -0.1813019533
O  O142  1  0.41800000  0.49820000  0.86600000  1.0 0.0081830675
O  O143  1  0.44950000  0.46210000  0.70420000  1.0 -0.0903604061
O  O144  1  0.35900000  0.51770000  0.75910000  1.0 -0.1864609604
O  O145  1  0.73610000  0.32330000  0.05940000  1.0 -0.9075615292
O  O146  1  0.88290000  0.19470000  0.07760000  1.0 -0.9487115179
O  O147  1  0.83150000  0.36050000  0.19200000  1.0 -1.0521956717
O  O148  1  0.80660000  0.10140000  0.90800000  1.0 -0.9438563918
O  O149  1  0.26390000  0.67670000  0.94060000  1.0 -0.9075615292
O  O150  1  0.11710000  0.80530000  0.92240000  1.0 -0.9487115179
O  O151  1  0.16850000  0.63950000  0.80800000  1.0 -1.0521956717
O  O152  1  0.19340000  0.89860000  0.09200000  1.0 -0.9487115179
O  O153  1  0.23610000  0.17670000  0.41280000  1.0 -0.9075615292
O  O154  1  0.38290000  0.30530000  0.68820000  1.0 -0.9487115179
O  O155  1  0.33150000  0.13950000  0.47100000  1.0 -1.0551320051
O  O156  1  0.30660000  0.39860000  0.70520000  1.0 -0.9487115179
O  O157  1  0.76390000  0.82330000  0.58720000  1.0 -0.9075615292
O  O158  1  0.61710000  0.69470000  0.31180000  1.0 -0.9487115179
O  O159  1  0.66850000  0.86050000  0.52900000  1.0 -1.0521956717
O  O160  1  0.69340000  0.60140000  0.29480000  1.0 -0.9438563918
