# DDEC6 charges by PACMAN v1.1 (https://github.com/mtap-research/PACMAN-charge/)
data_IGIGAJ_ASR_pacman
_symmetry_space_group_name_H-M   'P 1'
_cell_length_a   23.70310000
_cell_length_b   23.70310000
_cell_length_c   23.70310000
_cell_angle_alpha   135.53500000
_cell_angle_beta   115.68500000
_cell_angle_gamma   81.54160000
_symmetry_Int_Tables_number   1
_chemical_formula_structural   Zr6C33(NO13)2
_chemical_formula_sum   'Zr24 C132 N8 O104'
_cell_volume   8124.29787886
_cell_formula_units_Z   4
loop_
 _symmetry_equiv_pos_site_id
 _symmetry_equiv_pos_as_xyz
  1  'x, y, z'
loop_
 _atom_site_type_symbol
 _atom_site_label
 _atom_site_symmetry_multiplicity
 _atom_site_fract_x
 _atom_site_fract_y
 _atom_site_fract_z
 _atom_site_occupancy
 _atom_site_charge
Zr  Zr1  1  0.19923000  0.20944000  0.31109000  1.0 2.4489314541
Zr  Zr2  1  0.15934000  0.29032000  0.54760000  1.0 2.4188526059
Zr  Zr3  1  0.60165000  0.29056000  0.98979000  1.0 2.4489314541
Zr  Zr4  1  0.75728000  0.20968000  0.86902000  1.0 2.4188526059
Zr  Zr5  1  0.10165000  0.11186000  0.31109000  1.0 2.4489314541
Zr  Zr6  1  0.25728000  0.38826000  0.54760000  1.0 2.4188526059
Zr  Zr7  1  0.69923000  0.38814000  0.98979000  1.0 2.4489314541
Zr  Zr8  1  0.65934000  0.11174000  0.86902000  1.0 2.4188526059
Zr  Zr9  1  0.08995000  0.30540000  0.39535000  1.0 2.3129488016
Zr  Zr10  1  0.26991000  0.19560000  0.46551000  1.0 2.371267953
Zr  Zr11  1  0.58995000  0.19460000  0.78455000  1.0 2.3129488016
Zr  Zr12  1  0.76991000  0.30440000  0.07431000  1.0 2.371267953
Zr  Zr13  1  0.89835000  0.88814000  0.68891000  1.0 2.4489314541
Zr  Zr14  1  0.74272000  0.61174000  0.45240000  1.0 2.4188526059
Zr  Zr15  1  0.30077000  0.61186000  0.01021000  1.0 2.4551076079
Zr  Zr16  1  0.34066000  0.88826000  0.13098000  1.0 2.4188526059
Zr  Zr17  1  0.80077000  0.79056000  0.68891000  1.0 2.4489314541
Zr  Zr18  1  0.84066000  0.70968000  0.45240000  1.0 2.4188526059
Zr  Zr19  1  0.39835000  0.70944000  0.01021000  1.0 2.4551076079
Zr  Zr20  1  0.24272000  0.79032000  0.13098000  1.0 2.4188526059
Zr  Zr21  1  0.91005000  0.69460000  0.60465000  1.0 2.3129488016
Zr  Zr22  1  0.73009000  0.80440000  0.53449000  1.0 2.371267953
Zr  Zr23  1  0.41005000  0.80540000  0.21545000  1.0 2.3129488016
Zr  Zr24  1  0.23009000  0.69560000  0.92569000  1.0 2.371267953
C  C1  1  0.89090000  0.26360000  0.03830000  1.0 0.651489013
C  C2  1  0.16390000  0.33060000  0.02830000  1.0 -0.1203733253
C  C3  1  0.16230000  0.25310000  0.95040000  1.0 -0.006212129
C  C4  1  0.13280000  0.17390000  0.90570000  1.0 -0.0457336904
C  C5  1  0.09570000  0.18330000  0.95040000  1.0 0.4535071637
C  C6  1  0.11880000  0.34960000  0.07520000  1.0 0.4603080089
C  C7  1  0.16360000  0.09420000  0.78900000  1.0 0.0407374578
C  C8  1  0.05960000  0.27090000  0.17070000  1.0 -0.1481768591
C  C9  1  0.99220000  0.27090000  0.14110000  1.0 0.0570747853
C  C10  1  0.96260000  0.26420000  0.07100000  1.0 -0.1128395357
C  C11  1  0.99310000  0.25260000  0.02050000  1.0 -0.0377572616
C  C12  1  0.06050000  0.25970000  0.06460000  1.0 0.119774255
C  C13  1  0.08980000  0.26020000  0.12540000  1.0 0.0023652469
C  C14  1  0.09100000  0.27450000  0.24050000  1.0 0.6226660693
C  C15  1  0.12880000  0.09890000  0.83210000  1.0 0.0452567982
C  C16  1  0.03140000  0.36240000  0.52700000  1.0 0.8284888948
C  C17  1  0.27470000  0.23640000  0.62730000  1.0 0.651489013
C  C18  1  0.19770000  0.16940000  0.83330000  1.0 -0.1203733253
C  C19  1  0.19730000  0.24690000  0.90920000  1.0 -0.006212129
C  C20  1  0.23180000  0.32610000  0.95890000  1.0 -0.0457336904
C  C21  1  0.26710000  0.31670000  0.91240000  1.0 0.4535071637
C  C22  1  0.22560000  0.15040000  0.76920000  1.0 0.4603080089
C  C23  1  0.19480000  0.40580000  0.06940000  1.0 0.0407374578
C  C24  1  0.39980000  0.22910000  0.78870000  1.0 -0.1481768591
C  C25  1  0.37020000  0.22910000  0.72130000  1.0 0.0570747853
C  C26  1  0.30680000  0.23580000  0.69840000  1.0 -0.1128395357
C  C27  1  0.26790000  0.24740000  0.74050000  1.0 -0.0377572616
C  C28  1  0.30490000  0.24030000  0.80080000  1.0 0.119774255
C  C29  1  0.36520000  0.23980000  0.82960000  1.0 0.0023652469
C  C30  1  0.46600000  0.22550000  0.81650000  1.0 0.6226660693
C  C31  1  0.23320000  0.40110000  0.02990000  1.0 0.0452567982
C  C32  1  0.66460000  0.13760000  0.66900000  1.0 0.8284888948
C  C33  1  0.77470000  0.14740000  0.03830000  1.0 0.651489013
C  C34  1  0.69770000  0.86440000  0.02830000  1.0 -0.1203733253
C  C35  1  0.69730000  0.78810000  0.95040000  1.0 -0.006212129
C  C36  1  0.73180000  0.77290000  0.90570000  1.0 -0.0457336904
C  C37  1  0.76710000  0.85470000  0.95040000  1.0 0.4535071637
C  C38  1  0.72560000  0.95640000  0.07520000  1.0 0.4603080089
C  C39  1  0.69480000  0.62540000  0.78900000  1.0 0.0407374578
C  C40  1  0.89980000  0.11110000  0.17070000  1.0 -0.1481768591
C  C41  1  0.87020000  0.14890000  0.14110000  1.0 0.0570747853
C  C42  1  0.80680000  0.10840000  0.07100000  1.0 -0.1128395357
C  C43  1  0.76790000  0.02740000  0.02050000  1.0 -0.0377572616
C  C44  1  0.80490000  0.00410000  0.06460000  1.0 0.119774255
C  C45  1  0.86520000  0.03560000  0.12540000  1.0 0.0023652469
C  C46  1  0.96600000  0.14950000  0.24050000  1.0 0.6226660693
C  C47  1  0.73320000  0.70330000  0.83210000  1.0 0.0407374578
C  C48  1  0.16460000  0.49560000  0.52700000  1.0 0.8284888948
C  C49  1  0.39090000  0.35260000  0.62730000  1.0 0.651489013
C  C50  1  0.66390000  0.63560000  0.83330000  1.0 -0.1203733253
C  C51  1  0.66230000  0.71190000  0.90920000  1.0 -0.006212129
C  C52  1  0.63280000  0.72710000  0.95890000  1.0 -0.0457336904
C  C53  1  0.59570000  0.64530000  0.91240000  1.0 0.4535071637
C  C54  1  0.61880000  0.54360000  0.76920000  1.0 0.4603080089
C  C55  1  0.66360000  0.87460000  0.06940000  1.0 0.0407374578
C  C56  1  0.55960000  0.38890000  0.78870000  1.0 -0.1481768591
C  C57  1  0.49220000  0.35110000  0.72130000  1.0 0.0570747853
C  C58  1  0.46260000  0.39160000  0.69840000  1.0 -0.1128395357
C  C59  1  0.49310000  0.47260000  0.74050000  1.0 -0.0377572616
C  C60  1  0.56050000  0.49590000  0.80080000  1.0 0.119774255
C  C61  1  0.58980000  0.46440000  0.82960000  1.0 0.0023652469
C  C62  1  0.59100000  0.35050000  0.81650000  1.0 0.6226660693
C  C63  1  0.62880000  0.79670000  0.02990000  1.0 0.0407374578
C  C64  1  0.53140000  0.00440000  0.66900000  1.0 0.8284888948
C  C65  1  0.11900000  0.00800000  0.12700000  1.0 0.6647795821
C  C66  1  0.61900000  0.49200000  0.11100000  1.0 0.67019075
C  C67  1  0.22530000  0.85260000  0.96170000  1.0 0.651489013
C  C68  1  0.30230000  0.13560000  0.97170000  1.0 -0.1203733253
C  C69  1  0.30270000  0.21190000  0.04960000  1.0 -0.006212129
C  C70  1  0.26820000  0.22710000  0.09430000  1.0 -0.0457336904
C  C71  1  0.23290000  0.14530000  0.04960000  1.0 0.4535071637
C  C72  1  0.27440000  0.04360000  0.92480000  1.0 0.4603080089
C  C73  1  0.30520000  0.37460000  0.21100000  1.0 0.0407374578
C  C74  1  0.10020000  0.88890000  0.82930000  1.0 -0.1481768591
C  C75  1  0.12980000  0.85110000  0.85890000  1.0 0.0570747853
C  C76  1  0.19320000  0.89160000  0.92900000  1.0 -0.1128395357
C  C77  1  0.23210000  0.97260000  0.97950000  1.0 -0.0377572616
C  C78  1  0.19510000  0.99590000  0.93540000  1.0 0.119774255
C  C79  1  0.13480000  0.96440000  0.87460000  1.0 0.0023652469
C  C80  1  0.03400000  0.85050000  0.75950000  1.0 0.6226660693
C  C81  1  0.26680000  0.29670000  0.16790000  1.0 0.0452567982
C  C82  1  0.83540000  0.50440000  0.47300000  1.0 0.8284888948
C  C83  1  0.60910000  0.64740000  0.37270000  1.0 0.651489013
C  C84  1  0.33610000  0.36440000  0.16670000  1.0 -0.1203733253
C  C85  1  0.33770000  0.28810000  0.09080000  1.0 -0.006212129
C  C86  1  0.36720000  0.27290000  0.04110000  1.0 -0.0457336904
C  C87  1  0.40430000  0.35470000  0.08760000  1.0 0.4535071637
C  C88  1  0.38120000  0.45640000  0.23080000  1.0 0.4603080089
C  C89  1  0.33640000  0.12540000  0.93060000  1.0 0.0407374578
C  C90  1  0.44040000  0.61110000  0.21130000  1.0 -0.1481768591
C  C91  1  0.50780000  0.64890000  0.27870000  1.0 0.0570747853
C  C92  1  0.53740000  0.60840000  0.30160000  1.0 -0.1128395357
C  C93  1  0.50690000  0.52740000  0.25950000  1.0 -0.0377572616
C  C94  1  0.43950000  0.50410000  0.19920000  1.0 0.119774255
C  C95  1  0.41020000  0.53560000  0.17040000  1.0 0.0023652469
C  C96  1  0.40900000  0.64950000  0.18350000  1.0 0.6226660693
C  C97  1  0.37120000  0.20330000  0.97010000  1.0 0.0452567982
C  C98  1  0.46860000  0.99560000  0.33100000  1.0 0.8284888948
C  C99  1  0.10910000  0.73640000  0.96170000  1.0 0.651489013
C  C100  1  0.83610000  0.66940000  0.97170000  1.0 -0.1203733253
C  C101  1  0.83770000  0.74690000  0.04960000  1.0 -0.006212129
C  C102  1  0.86720000  0.82610000  0.09430000  1.0 -0.0457336904
C  C103  1  0.90430000  0.81670000  0.04960000  1.0 0.4535071637
C  C104  1  0.88120000  0.65040000  0.92480000  1.0 0.4603080089
C  C105  1  0.83640000  0.90580000  0.21100000  1.0 0.0407374578
C  C106  1  0.94040000  0.72910000  0.82930000  1.0 -0.1481768591
C  C107  1  0.00780000  0.72910000  0.85890000  1.0 0.0570747853
C  C108  1  0.03740000  0.73580000  0.92900000  1.0 -0.1128395357
C  C109  1  0.00690000  0.74740000  0.97950000  1.0 -0.0377572616
C  C110  1  0.93950000  0.74030000  0.93540000  1.0 0.119774255
C  C111  1  0.91020000  0.73980000  0.87460000  1.0 0.0023652469
C  C112  1  0.90900000  0.72550000  0.75950000  1.0 0.6226660693
C  C113  1  0.87120000  0.90110000  0.16790000  1.0 0.0452567982
C  C114  1  0.96860000  0.63760000  0.47300000  1.0 0.8284888948
C  C115  1  0.72530000  0.76360000  0.37270000  1.0 0.651489013
C  C116  1  0.80230000  0.83060000  0.16670000  1.0 -0.1203733253
C  C117  1  0.80270000  0.75310000  0.09080000  1.0 -0.006212129
C  C118  1  0.76820000  0.67390000  0.04110000  1.0 -0.0457336904
C  C119  1  0.73290000  0.68330000  0.08760000  1.0 0.4535071637
C  C120  1  0.77440000  0.84960000  0.23080000  1.0 0.4603080089
C  C121  1  0.80520000  0.59420000  0.93060000  1.0 0.0407374578
C  C122  1  0.60020000  0.77090000  0.21130000  1.0 -0.1481768591
C  C123  1  0.62980000  0.77090000  0.27870000  1.0 0.0570747853
C  C124  1  0.69320000  0.76420000  0.30160000  1.0 -0.1128395357
C  C125  1  0.73210000  0.75260000  0.25950000  1.0 -0.0377572616
C  C126  1  0.69510000  0.75970000  0.19920000  1.0 0.119774255
C  C127  1  0.63480000  0.76020000  0.17040000  1.0 0.0023652469
C  C128  1  0.53400000  0.77450000  0.18350000  1.0 0.6226660693
C  C129  1  0.76680000  0.59890000  0.97010000  1.0 0.0452567982
C  C130  1  0.33540000  0.86240000  0.33100000  1.0 0.8284888948
C  C131  1  0.88100000  0.99200000  0.87300000  1.0 0.67019075
C  C132  1  0.38100000  0.50800000  0.88900000  1.0 0.67019075
N  N1  1  0.09840000  0.26390000  0.02790000  1.0 -0.2539891864
N  N2  1  0.26400000  0.23610000  0.83450000  1.0 -0.2605877851
N  N3  1  0.76400000  0.92950000  0.02790000  1.0 -0.2539891864
N  N4  1  0.59840000  0.57050000  0.83450000  1.0 -0.2605877851
N  N5  1  0.23600000  0.07050000  0.97210000  1.0 -0.2605877851
N  N6  1  0.40160000  0.42950000  0.16550000  1.0 -0.2539891864
N  N7  1  0.90160000  0.73610000  0.97210000  1.0 -0.2605877851
N  N8  1  0.73600000  0.76390000  0.16550000  1.0 -0.2605877851
O  O1  1  0.06700000  0.30100000  0.29140000  1.0 -0.5484301215
O  O2  1  0.06800000  0.11480000  0.91340000  1.0 -0.4399670911
O  O3  1  0.86550000  0.29420000  0.08870000  1.0 -0.6017574733
O  O4  1  0.86020000  0.23200000  0.95600000  1.0 -0.6381513466
O  O5  1  0.28350000  0.27210000  0.44480000  1.0 -1.2466931437
O  O6  1  0.09880000  0.22990000  0.41270000  1.0 -1.1516350274
O  O7  1  0.12630000  0.40410000  0.14340000  1.0 -0.3379102946
O  O8  1  0.15280000  0.08040000  0.16760000  1.0 -0.6866736477
O  O9  1  0.13650000  0.24070000  0.23800000  1.0 -0.5444988524
O  O10  1  0.08150000  0.34960000  0.58170000  1.0 -0.8129857396
O  O11  1  0.02550000  0.36290000  0.45640000  1.0 -0.7331918095
O  O12  1  0.49040000  0.19900000  0.76600000  1.0 -0.5484301215
O  O13  1  0.29860000  0.38520000  0.95320000  1.0 -0.4399670911
O  O14  1  0.29450000  0.20580000  0.57130000  1.0 -0.6017574733
O  O15  1  0.22400000  0.26800000  0.62820000  1.0 -0.6381513466
O  O16  1  0.67270000  0.22790000  0.01140000  1.0 -1.2466931437
O  O17  1  0.68280000  0.27010000  0.86890000  1.0 -1.1516350274
O  O18  1  0.23930000  0.09590000  0.72220000  1.0 -0.3379102946
O  O19  1  0.58720000  0.41960000  0.07240000  1.0 -0.6866736477
O  O20  1  0.49730000  0.25930000  0.89580000  1.0 -0.5444988524
O  O21  1  0.73210000  0.15040000  0.73190000  1.0 -0.8129857396
O  O22  1  0.59350000  0.13710000  0.66260000  1.0 -0.7368462299
O  O23  1  0.99040000  0.22440000  0.29140000  1.0 -0.5484301215
O  O24  1  0.79860000  0.84540000  0.91340000  1.0 -0.4399670911
O  O25  1  0.79450000  0.22320000  0.08870000  1.0 -0.6017574733
O  O26  1  0.72400000  0.09580000  0.95600000  1.0 -0.6381513466
O  O27  1  0.17270000  0.16130000  0.44480000  1.0 -1.2466931437
O  O28  1  0.18280000  0.31390000  0.41270000  1.0 -1.1516350274
O  O29  1  0.73930000  0.01710000  0.14340000  1.0 -0.3379102946
O  O30  1  0.08720000  0.01480000  0.16760000  1.0 -0.6866736477
O  O31  1  0.99730000  0.10150000  0.23800000  1.0 -0.5444988524
O  O32  1  0.23210000  0.50020000  0.58170000  1.0 -0.8129857396
O  O33  1  0.09350000  0.43090000  0.45640000  1.0 -0.7331918095
O  O34  1  0.56700000  0.27560000  0.76600000  1.0 -0.5484301215
O  O35  1  0.56800000  0.65460000  0.95320000  1.0 -0.4399670911
O  O36  1  0.36550000  0.27680000  0.57130000  1.0 -0.6017574733
O  O37  1  0.36020000  0.40420000  0.62820000  1.0 -0.6381513466
O  O38  1  0.78350000  0.33870000  0.01140000  1.0 -1.2428109263
O  O39  1  0.59880000  0.18610000  0.86890000  1.0 -1.1516350274
O  O40  1  0.62630000  0.48290000  0.72220000  1.0 -0.3379102946
O  O41  1  0.65280000  0.48520000  0.07240000  1.0 -0.6866736477
O  O42  1  0.63650000  0.39850000  0.89580000  1.0 -0.5444988524
O  O43  1  0.58150000  0.99980000  0.73190000  1.0 -0.8129857396
O  O44  1  0.52550000  0.06910000  0.66260000  1.0 -0.7331918095
O  O45  1  0.09870000  0.18080000  0.27950000  1.0 -1.1691221267
O  O46  1  0.15880000  0.38260000  0.54140000  1.0 -1.1691221267
O  O47  1  0.24070000  0.30550000  0.54620000  1.0 -1.1691221267
O  O48  1  0.19550000  0.14870000  0.34420000  1.0 -1.2009831582
O  O49  1  0.59870000  0.31920000  0.91790000  1.0 -1.1691221267
O  O50  1  0.65880000  0.11740000  0.77620000  1.0 -1.1691221267
O  O51  1  0.74070000  0.19450000  0.93520000  1.0 -1.1691221267
O  O52  1  0.69550000  0.35130000  0.04680000  1.0 -1.2009831582
O  O53  1  0.00960000  0.77560000  0.70860000  1.0 -0.5484301215
O  O54  1  0.20140000  0.15460000  0.08660000  1.0 -0.4399670911
O  O55  1  0.20550000  0.77680000  0.91130000  1.0 -0.6017574733
O  O56  1  0.27600000  0.90420000  0.04400000  1.0 -0.6381513466
O  O57  1  0.82730000  0.83870000  0.55520000  1.0 -1.2428109263
O  O58  1  0.81720000  0.68610000  0.58730000  1.0 -1.1516350274
O  O59  1  0.26070000  0.98290000  0.85660000  1.0 -0.3379102946
O  O60  1  0.91280000  0.98520000  0.83240000  1.0 -0.6866736477
O  O61  1  0.00270000  0.89850000  0.76200000  1.0 -0.5444988524
O  O62  1  0.76790000  0.49980000  0.41830000  1.0 -0.8129857396
O  O63  1  0.90650000  0.56910000  0.54360000  1.0 -0.7331918095
O  O64  1  0.43300000  0.72440000  0.23400000  1.0 -0.5484301215
O  O65  1  0.43200000  0.34540000  0.04680000  1.0 -0.4399670911
O  O66  1  0.63450000  0.72320000  0.42870000  1.0 -0.6017574733
O  O67  1  0.63980000  0.59580000  0.37180000  1.0 -0.6381513466
O  O68  1  0.21650000  0.66130000  0.98860000  1.0 -1.2466931437
O  O69  1  0.40120000  0.81390000  0.13110000  1.0 -1.1516350274
O  O70  1  0.37370000  0.51710000  0.27780000  1.0 -0.3379102946
O  O71  1  0.34720000  0.51480000  0.92760000  1.0 -0.6866736477
O  O72  1  0.36350000  0.60150000  0.10420000  1.0 -0.5444988524
O  O73  1  0.41850000  0.00020000  0.26810000  1.0 -0.816727749
O  O74  1  0.47450000  0.93090000  0.33740000  1.0 -0.7368462299
O  O75  1  0.93300000  0.69900000  0.70860000  1.0 -0.5484301215
O  O76  1  0.93200000  0.88520000  0.08660000  1.0 -0.4399670911
O  O77  1  0.13450000  0.70580000  0.91130000  1.0 -0.6017574733
O  O78  1  0.13980000  0.76800000  0.04400000  1.0 -0.6381513466
O  O79  1  0.71650000  0.72790000  0.55520000  1.0 -1.2428109263
O  O80  1  0.90120000  0.77010000  0.58730000  1.0 -1.1516350274
O  O81  1  0.87370000  0.59590000  0.85660000  1.0 -0.3379102946
O  O82  1  0.84720000  0.91960000  0.83240000  1.0 -0.6866736477
O  O83  1  0.86350000  0.75930000  0.76200000  1.0 -0.5444988524
O  O84  1  0.91850000  0.65040000  0.41830000  1.0 -0.8129857396
O  O85  1  0.97450000  0.63710000  0.54360000  1.0 -0.7331918095
O  O86  1  0.50960000  0.80100000  0.23400000  1.0 -0.5484301215
O  O87  1  0.70140000  0.61480000  0.04680000  1.0 -0.4399670911
O  O88  1  0.70550000  0.79420000  0.42870000  1.0 -0.6017574733
O  O89  1  0.77600000  0.73200000  0.37180000  1.0 -0.6381513466
O  O90  1  0.32730000  0.77210000  0.98860000  1.0 -1.2466931437
O  O91  1  0.31720000  0.72990000  0.13110000  1.0 -1.1516350274
O  O92  1  0.76070000  0.90410000  0.27780000  1.0 -0.329790852
O  O93  1  0.41280000  0.58040000  0.92760000  1.0 -0.6866736477
O  O94  1  0.50270000  0.74070000  0.10420000  1.0 -0.5444988524
O  O95  1  0.26790000  0.84960000  0.26810000  1.0 -0.816727749
O  O96  1  0.40650000  0.86290000  0.33740000  1.0 -0.7331918095
O  O97  1  0.90130000  0.81920000  0.72050000  1.0 -1.1691221267
O  O98  1  0.84120000  0.61740000  0.45860000  1.0 -1.1691221267
O  O99  1  0.75930000  0.69450000  0.45380000  1.0 -1.1691221267
O  O100  1  0.80450000  0.85130000  0.65580000  1.0 -1.2009831582
O  O101  1  0.40130000  0.68080000  0.08210000  1.0 -1.1830384349
O  O102  1  0.34120000  0.88260000  0.22380000  1.0 -1.1691221267
O  O103  1  0.25930000  0.80550000  0.06480000  1.0 -1.1691221267
O  O104  1  0.30450000  0.64870000  0.95320000  1.0 -1.2009831582
