# DDEC6 charges by PACMAN v1.1 (https://github.com/mtap-research/PACMAN-charge/)
data_IGIZUV_ASR_pacman
_symmetry_space_group_name_H-M   'P 1'
_cell_length_a   22.28580000
_cell_length_b   17.37100000
_cell_length_c   10.17010000
_cell_angle_alpha   90.00000000
_cell_angle_beta   110.42500000
_cell_angle_gamma   90.00000000
_symmetry_Int_Tables_number   1
_chemical_formula_structural   Sr3P8H22(C2O7)4
_chemical_formula_sum   'Sr12 P32 H88 C32 O112'
_cell_volume   3689.58928030
_cell_formula_units_Z   4
loop_
 _symmetry_equiv_pos_site_id
 _symmetry_equiv_pos_as_xyz
  1  'x, y, z'
loop_
 _atom_site_type_symbol
 _atom_site_label
 _atom_site_symmetry_multiplicity
 _atom_site_fract_x
 _atom_site_fract_y
 _atom_site_fract_z
 _atom_site_occupancy
 _atom_site_charge
Sr  Sr1  1  0.50000000  0.02913000  0.75000000  1.0 1.543916109
Sr  Sr2  1  0.50000000  0.97087000  0.25000000  1.0 1.543916109
Sr  Sr3  1  0.00000000  0.52913000  0.75000000  1.0 1.543916109
Sr  Sr4  1  0.00000000  0.47087000  0.25000000  1.0 1.543916109
Sr  Sr5  1  0.33432000  0.11864000  0.54850000  1.0 1.4744485445
Sr  Sr6  1  0.66568000  0.88136000  0.45150000  1.0 1.4761167196
Sr  Sr7  1  0.66568000  0.11864000  0.95150000  1.0 1.4744485445
Sr  Sr8  1  0.33432000  0.88136000  0.04850000  1.0 1.4761167196
Sr  Sr9  1  0.83432000  0.61864000  0.54850000  1.0 1.4744485445
Sr  Sr10  1  0.16568000  0.38136000  0.45150000  1.0 1.4744485445
Sr  Sr11  1  0.16568000  0.61864000  0.95150000  1.0 1.4744485445
Sr  Sr12  1  0.83432000  0.38136000  0.04850000  1.0 1.4744485445
P  P1  1  0.47235000  0.17401000  0.44868000  1.0 1.1912220148
P  P2  1  0.52765000  0.82599000  0.55132000  1.0 1.1912220148
P  P3  1  0.52765000  0.17401000  0.05132000  1.0 1.1912220148
P  P4  1  0.47235000  0.82599000  0.94868000  1.0 1.1912220148
P  P5  1  0.97235000  0.67401000  0.44868000  1.0 1.1912220148
P  P6  1  0.02765000  0.32599000  0.55132000  1.0 1.1912220148
P  P7  1  0.02765000  0.67401000  0.05132000  1.0 1.1912220148
P  P8  1  0.97235000  0.32599000  0.94868000  1.0 1.1912220148
P  P9  1  0.36928000  0.05364000  0.90351000  1.0 1.496890503
P  P10  1  0.63072000  0.94636000  0.09649000  1.0 1.496890503
P  P11  1  0.63072000  0.05364000  0.59649000  1.0 1.496890503
P  P12  1  0.36928000  0.94636000  0.40351000  1.0 1.496890503
P  P13  1  0.86928000  0.55364000  0.90351000  1.0 1.496890503
P  P14  1  0.13072000  0.44636000  0.09649000  1.0 1.496890503
P  P15  1  0.13072000  0.55364000  0.59649000  1.0 1.496890503
P  P16  1  0.86928000  0.44636000  0.40351000  1.0 1.496890503
P  P17  1  0.29872000  0.32323000  0.38013000  1.0 1.2611748976
P  P18  1  0.70128000  0.67677000  0.61987000  1.0 1.2611748976
P  P19  1  0.70128000  0.32323000  0.11987000  1.0 1.2611748976
P  P20  1  0.29872000  0.67677000  0.88013000  1.0 1.2611748976
P  P21  1  0.79872000  0.82323000  0.38013000  1.0 1.2611748976
P  P22  1  0.20128000  0.17677000  0.61987000  1.0 1.2611748976
P  P23  1  0.20128000  0.82323000  0.11987000  1.0 1.2611748976
P  P24  1  0.79872000  0.17677000  0.88013000  1.0 1.2611748976
P  P25  1  0.19828000  0.01349000  0.48754000  1.0 1.2611748976
P  P26  1  0.80172000  0.98651000  0.51246000  1.0 1.2611748976
P  P27  1  0.80172000  0.01349000  0.01246000  1.0 1.2611748976
P  P28  1  0.19828000  0.98651000  0.98754000  1.0 1.2611748976
P  P29  1  0.69828000  0.51349000  0.48754000  1.0 1.2611748976
P  P30  1  0.30172000  0.48651000  0.51246000  1.0 1.2611748976
P  P31  1  0.30172000  0.51349000  0.01246000  1.0 1.2611748976
P  P32  1  0.69828000  0.48651000  0.98754000  1.0 1.2611748976
H  H1  1  0.57228000  0.24479000  0.69262000  1.0 0.1399617105
H  H2  1  0.42772000  0.75521000  0.30738000  1.0 0.1399617105
H  H3  1  0.42772000  0.24479000  0.80738000  1.0 0.1399617105
H  H4  1  0.57228000  0.75521000  0.19262000  1.0 0.1399617105
H  H5  1  0.07228000  0.74479000  0.69262000  1.0 0.1399617105
H  H6  1  0.92772000  0.25521000  0.30738000  1.0 0.1399617105
H  H7  1  0.92772000  0.74479000  0.80738000  1.0 0.1399617105
H  H8  1  0.07228000  0.25521000  0.19262000  1.0 0.1399617105
H  H9  1  0.56814000  0.31294000  0.56110000  1.0 0.1626452999
H  H10  1  0.43186000  0.68706000  0.43890000  1.0 0.1626452999
H  H11  1  0.43186000  0.31294000  0.93890000  1.0 0.1626452999
H  H12  1  0.56814000  0.68706000  0.06110000  1.0 0.1626452999
H  H13  1  0.06814000  0.81294000  0.56110000  1.0 0.1626452999
H  H14  1  0.93186000  0.18706000  0.43890000  1.0 0.1626452999
H  H15  1  0.93186000  0.81294000  0.93890000  1.0 0.1626452999
H  H16  1  0.06814000  0.18706000  0.06110000  1.0 0.1626452999
H  H17  1  0.63989000  0.25554000  0.63018000  1.0 0.1734843505
H  H18  1  0.36011000  0.74446000  0.36982000  1.0 0.1734843505
H  H19  1  0.36011000  0.25554000  0.86982000  1.0 0.1734843505
H  H20  1  0.63989000  0.74446000  0.13018000  1.0 0.1734843505
H  H21  1  0.13989000  0.75554000  0.63018000  1.0 0.1734843505
H  H22  1  0.86011000  0.24446000  0.36982000  1.0 0.1734843505
H  H23  1  0.86011000  0.75554000  0.86982000  1.0 0.1734843505
H  H24  1  0.13989000  0.24446000  0.13018000  1.0 0.1734843505
H  H25  1  0.38449000  0.25073000  0.40480000  1.0 0.3849542765
H  H26  1  0.61551000  0.74927000  0.59520000  1.0 0.3849542765
H  H27  1  0.61551000  0.25073000  0.09520000  1.0 0.3849542765
H  H28  1  0.38449000  0.74927000  0.90480000  1.0 0.3849542765
H  H29  1  0.88449000  0.75073000  0.40480000  1.0 0.3849542765
H  H30  1  0.11551000  0.24927000  0.59520000  1.0 0.3849542765
H  H31  1  0.11551000  0.75073000  0.09520000  1.0 0.3849542765
H  H32  1  0.88449000  0.24927000  0.90480000  1.0 0.3849542765
H  H33  1  0.08475000  0.18046000  0.35903000  1.0 0.1257436415
H  H34  1  0.91525000  0.81954000  0.64097000  1.0 0.1257436415
H  H35  1  0.91525000  0.18046000  0.14097000  1.0 0.1257436415
H  H36  1  0.08475000  0.81954000  0.85903000  1.0 0.1257436415
H  H37  1  0.58475000  0.68046000  0.35903000  1.0 0.1257436415
H  H38  1  0.41525000  0.31954000  0.64097000  1.0 0.1257436415
H  H39  1  0.41525000  0.68046000  0.14097000  1.0 0.1257436415
H  H40  1  0.58475000  0.31954000  0.85903000  1.0 0.1257436415
H  H41  1  0.07737000  0.09458000  0.44717000  1.0 0.1399617105
H  H42  1  0.92263000  0.90542000  0.55283000  1.0 0.1399617105
H  H43  1  0.92263000  0.09458000  0.05283000  1.0 0.1399617105
H  H44  1  0.07737000  0.90542000  0.94717000  1.0 0.1399617105
H  H45  1  0.57737000  0.59458000  0.44717000  1.0 0.1399617105
H  H46  1  0.42263000  0.40542000  0.55283000  1.0 0.1399617105
H  H47  1  0.42263000  0.59458000  0.05283000  1.0 0.1399617105
H  H48  1  0.57737000  0.40542000  0.94717000  1.0 0.1399617105
H  H49  1  0.08848000  0.08748000  0.28270000  1.0 0.1399617105
H  H50  1  0.91152000  0.91252000  0.71730000  1.0 0.1399617105
H  H51  1  0.91152000  0.08748000  0.21730000  1.0 0.1399617105
H  H52  1  0.08848000  0.91252000  0.78270000  1.0 0.1399617105
H  H53  1  0.58848000  0.58748000  0.28270000  1.0 0.1399617105
H  H54  1  0.41152000  0.41252000  0.71730000  1.0 0.1399617105
H  H55  1  0.41152000  0.58748000  0.21730000  1.0 0.1399617105
H  H56  1  0.58848000  0.41252000  0.78270000  1.0 0.1399617105
H  H57  1  0.21027000  0.19849000  0.35944000  1.0 0.3584419144
H  H58  1  0.78973000  0.80151000  0.64056000  1.0 0.3584419144
H  H59  1  0.78973000  0.19849000  0.14056000  1.0 0.3584419144
H  H60  1  0.21027000  0.80151000  0.85944000  1.0 0.3584419144
H  H61  1  0.71027000  0.69849000  0.35944000  1.0 0.3584419144
H  H62  1  0.28973000  0.30151000  0.64056000  1.0 0.3584419144
H  H63  1  0.28973000  0.69849000  0.14056000  1.0 0.3584419144
H  H64  1  0.71027000  0.30151000  0.85944000  1.0 0.3584419144
H  H65  1  0.31660000  0.41314000  0.20856000  1.0 0.4121593898
H  H66  1  0.68340000  0.58686000  0.79144000  1.0 0.4121593898
H  H67  1  0.68340000  0.41314000  0.29144000  1.0 0.4121593898
H  H68  1  0.31660000  0.58686000  0.70856000  1.0 0.4121593898
H  H69  1  0.81660000  0.91314000  0.20856000  1.0 0.4121593898
H  H70  1  0.18340000  0.08686000  0.79144000  1.0 0.4121593898
H  H71  1  0.18340000  0.91314000  0.29144000  1.0 0.4121593898
H  H72  1  0.81660000  0.08686000  0.70856000  1.0 0.4121593898
H  H73  1  0.16946000  0.98136000  0.66760000  1.0 0.4038772909
H  H74  1  0.83054000  0.01864000  0.33240000  1.0 0.4038772909
H  H75  1  0.83054000  0.98136000  0.83240000  1.0 0.4038772909
H  H76  1  0.16946000  0.01864000  0.16760000  1.0 0.4038772909
H  H77  1  0.66946000  0.48136000  0.66760000  1.0 0.4038772909
H  H78  1  0.33054000  0.51864000  0.33240000  1.0 0.4038772909
H  H79  1  0.33054000  0.48136000  0.83240000  1.0 0.4038772909
H  H80  1  0.66946000  0.51864000  0.16760000  1.0 0.4038772909
H  H81  1  0.55964000  0.13511000  0.27089000  1.0 0.3709624139
H  H82  1  0.44036000  0.86489000  0.72911000  1.0 0.3709624139
H  H83  1  0.44036000  0.13511000  0.22911000  1.0 0.3709624139
H  H84  1  0.55964000  0.86489000  0.77089000  1.0 0.3709624139
H  H85  1  0.05964000  0.63511000  0.27089000  1.0 0.3709624139
H  H86  1  0.94036000  0.36489000  0.72911000  1.0 0.3709624139
H  H87  1  0.94036000  0.63511000  0.22911000  1.0 0.3709624139
H  H88  1  0.05964000  0.36489000  0.77089000  1.0 0.3709624139
C  C1  1  0.55761000  0.19860000  0.48841000  1.0 0.277432206
C  C2  1  0.44239000  0.80140000  0.51159000  1.0 0.277432206
C  C3  1  0.44239000  0.19860000  0.01159000  1.0 0.277432206
C  C4  1  0.55761000  0.80140000  0.98841000  1.0 0.277432206
C  C5  1  0.05761000  0.69860000  0.48841000  1.0 0.277432206
C  C6  1  0.94239000  0.30140000  0.51159000  1.0 0.277432206
C  C7  1  0.94239000  0.69860000  0.01159000  1.0 0.277432206
C  C8  1  0.05761000  0.30140000  0.98841000  1.0 0.277432206
C  C9  1  0.58743000  0.25542000  0.60168000  1.0 -0.4493695172
C  C10  1  0.41257000  0.74458000  0.39832000  1.0 -0.4493695172
C  C11  1  0.41257000  0.25542000  0.89832000  1.0 -0.4493695172
C  C12  1  0.58743000  0.74458000  0.10168000  1.0 -0.4493695172
C  C13  1  0.08743000  0.75542000  0.60168000  1.0 -0.4493695172
C  C14  1  0.91257000  0.24458000  0.39832000  1.0 -0.4493695172
C  C15  1  0.91257000  0.75542000  0.89832000  1.0 -0.4493695172
C  C16  1  0.08743000  0.24458000  0.10168000  1.0 -0.4493695172
C  C17  1  0.17417000  0.11643000  0.45725000  1.0 -0.1923127128
C  C18  1  0.82583000  0.88357000  0.54275000  1.0 -0.1923127128
C  C19  1  0.82583000  0.11643000  0.04275000  1.0 -0.1923127128
C  C20  1  0.17417000  0.88357000  0.95725000  1.0 -0.1923127128
C  C21  1  0.67417000  0.61643000  0.45725000  1.0 -0.1923127128
C  C22  1  0.32583000  0.38357000  0.54275000  1.0 -0.1923127128
C  C23  1  0.32583000  0.61643000  0.04275000  1.0 -0.1923127128
C  C24  1  0.67417000  0.38357000  0.95725000  1.0 -0.1923127128
C  C25  1  0.10196000  0.12082000  0.38113000  1.0 -0.3906840133
C  C26  1  0.89804000  0.87918000  0.61887000  1.0 -0.3906840133
C  C27  1  0.89804000  0.12082000  0.11887000  1.0 -0.3906840133
C  C28  1  0.10196000  0.87918000  0.88113000  1.0 -0.3906840133
C  C29  1  0.60196000  0.62082000  0.38113000  1.0 -0.3906840133
C  C30  1  0.39804000  0.37918000  0.61887000  1.0 -0.3906840133
C  C31  1  0.39804000  0.62082000  0.11887000  1.0 -0.3906840133
C  C32  1  0.60196000  0.37918000  0.88113000  1.0 -0.3906840133
O  O1  1  0.45894000  0.14151000  0.57368000  1.0 -0.7794097597
O  O2  1  0.54106000  0.85849000  0.42632000  1.0 -0.7794097597
O  O3  1  0.54106000  0.14151000  0.92632000  1.0 -0.7794097597
O  O4  1  0.45894000  0.85849000  0.07368000  1.0 -0.7794097597
O  O5  1  0.95894000  0.64151000  0.57368000  1.0 -0.7794097597
O  O6  1  0.04106000  0.35849000  0.42632000  1.0 -0.7794097597
O  O7  1  0.04106000  0.64151000  0.92632000  1.0 -0.7794097597
O  O8  1  0.95894000  0.35849000  0.07368000  1.0 -0.7794097597
O  O9  1  0.54339000  0.89022000  0.67181000  1.0 -0.6847628526
O  O10  1  0.45661000  0.10978000  0.32819000  1.0 -0.6847628526
O  O11  1  0.45661000  0.89022000  0.82819000  1.0 -0.6862207028
O  O12  1  0.54339000  0.10978000  0.17181000  1.0 -0.6847628526
O  O13  1  0.04339000  0.39022000  0.67181000  1.0 -0.6862207028
O  O14  1  0.95661000  0.60978000  0.32819000  1.0 -0.6847628526
O  O15  1  0.95661000  0.39022000  0.82819000  1.0 -0.6847628526
O  O16  1  0.04339000  0.60978000  0.17181000  1.0 -0.6847628526
O  O17  1  0.44011000  0.24931000  0.38769000  1.0 -0.657434723
O  O18  1  0.55989000  0.75069000  0.61231000  1.0 -0.6546235355
O  O19  1  0.55989000  0.24931000  0.11231000  1.0 -0.6546235355
O  O20  1  0.44011000  0.75069000  0.88769000  1.0 -0.6546235355
O  O21  1  0.94011000  0.74931000  0.38769000  1.0 -0.6546235355
O  O22  1  0.05989000  0.25069000  0.61231000  1.0 -0.657434723
O  O23  1  0.05989000  0.74931000  0.11231000  1.0 -0.657434723
O  O24  1  0.94011000  0.25069000  0.88769000  1.0 -0.6546235355
O  O25  1  0.40395000  0.07598000  0.80501000  1.0 -0.8838153539
O  O26  1  0.59605000  0.92402000  0.19499000  1.0 -0.8852144452
O  O27  1  0.59605000  0.07598000  0.69499000  1.0 -0.8838153539
O  O28  1  0.40395000  0.92402000  0.30501000  1.0 -0.8838153539
O  O29  1  0.90395000  0.57598000  0.80501000  1.0 -0.8838153539
O  O30  1  0.09605000  0.42402000  0.19499000  1.0 -0.8838153539
O  O31  1  0.09605000  0.57598000  0.69499000  1.0 -0.8838153539
O  O32  1  0.90395000  0.42402000  0.30501000  1.0 -0.8838153539
O  O33  1  0.59471000  0.99960000  0.97890000  1.0 -0.8718256103
O  O34  1  0.40529000  0.00040000  0.02110000  1.0 -0.8718256103
O  O35  1  0.40529000  0.99960000  0.52110000  1.0 -0.8718256103
O  O36  1  0.59471000  0.00040000  0.47890000  1.0 -0.8718256103
O  O37  1  0.09471000  0.49960000  0.97890000  1.0 -0.8718256103
O  O38  1  0.90529000  0.50040000  0.02110000  1.0 -0.8718256103
O  O39  1  0.90529000  0.49960000  0.52110000  1.0 -0.8718256103
O  O40  1  0.09471000  0.50040000  0.47890000  1.0 -0.8718256103
O  O41  1  0.30463000  0.08100000  0.88027000  1.0 -0.7078910517
O  O42  1  0.69537000  0.91900000  0.11973000  1.0 -0.7078910517
O  O43  1  0.69537000  0.08100000  0.61973000  1.0 -0.7078910517
O  O44  1  0.30463000  0.91900000  0.38027000  1.0 -0.7078910517
O  O45  1  0.80463000  0.58100000  0.88027000  1.0 -0.7078910517
O  O46  1  0.19537000  0.41900000  0.11973000  1.0 -0.7078910517
O  O47  1  0.19537000  0.58100000  0.61973000  1.0 -0.7078910517
O  O48  1  0.80463000  0.41900000  0.38027000  1.0 -0.7078910517
O  O49  1  0.26848000  0.01401000  0.57578000  1.0 -0.7794097597
O  O50  1  0.73152000  0.98599000  0.42422000  1.0 -0.7794097597
O  O51  1  0.73152000  0.01401000  0.92422000  1.0 -0.7794097597
O  O52  1  0.26848000  0.98599000  0.07578000  1.0 -0.7794097597
O  O53  1  0.76848000  0.51401000  0.57578000  1.0 -0.7794097597
O  O54  1  0.23152000  0.48599000  0.42422000  1.0 -0.7794097597
O  O55  1  0.23152000  0.51401000  0.92422000  1.0 -0.7794097597
O  O56  1  0.76848000  0.48599000  0.07578000  1.0 -0.7794097597
O  O57  1  0.33857000  0.24593000  0.42691000  1.0 -0.7225433784
O  O58  1  0.66143000  0.75407000  0.57309000  1.0 -0.7225433784
O  O59  1  0.66143000  0.24593000  0.07309000  1.0 -0.7225433784
O  O60  1  0.33857000  0.75407000  0.92691000  1.0 -0.7225433784
O  O61  1  0.83857000  0.74593000  0.42691000  1.0 -0.7225433784
O  O62  1  0.16143000  0.25407000  0.57309000  1.0 -0.7225433784
O  O63  1  0.16143000  0.74593000  0.07309000  1.0 -0.7225433784
O  O64  1  0.83857000  0.25407000  0.92691000  1.0 -0.7225433784
O  O65  1  0.21131000  0.14158000  0.37082000  1.0 -0.4815482321
O  O66  1  0.78869000  0.85842000  0.62918000  1.0 -0.4815482321
O  O67  1  0.78869000  0.14158000  0.12918000  1.0 -0.4815482321
O  O68  1  0.21131000  0.85842000  0.87082000  1.0 -0.4815482321
O  O69  1  0.71131000  0.64158000  0.37082000  1.0 -0.4815482321
O  O70  1  0.28869000  0.35842000  0.62918000  1.0 -0.4815482321
O  O71  1  0.28869000  0.64158000  0.12918000  1.0 -0.4815482321
O  O72  1  0.71131000  0.35842000  0.87082000  1.0 -0.4815482321
O  O73  1  0.32125000  0.35664000  0.26704000  1.0 -0.5896402123
O  O74  1  0.67875000  0.64336000  0.73296000  1.0 -0.5896402123
O  O75  1  0.67875000  0.35664000  0.23296000  1.0 -0.5896402123
O  O76  1  0.32125000  0.64336000  0.76704000  1.0 -0.5896402123
O  O77  1  0.82125000  0.85664000  0.26704000  1.0 -0.5896402123
O  O78  1  0.17875000  0.14336000  0.73296000  1.0 -0.5896402123
O  O79  1  0.17875000  0.85664000  0.23296000  1.0 -0.5896402123
O  O80  1  0.82125000  0.14336000  0.76704000  1.0 -0.5896402123
O  O81  1  0.15542000  0.97352000  0.56428000  1.0 -0.6191083315
O  O82  1  0.84458000  0.02648000  0.43572000  1.0 -0.6191083315
O  O83  1  0.84458000  0.97352000  0.93572000  1.0 -0.6191083315
O  O84  1  0.15542000  0.02648000  0.06428000  1.0 -0.6191083315
O  O85  1  0.65542000  0.47352000  0.56428000  1.0 -0.6191083315
O  O86  1  0.34458000  0.52648000  0.43572000  1.0 -0.6191083315
O  O87  1  0.34458000  0.47352000  0.93572000  1.0 -0.6191083315
O  O88  1  0.65542000  0.52648000  0.06428000  1.0 -0.6191083315
O  O89  1  0.22862000  0.30258000  0.34632000  1.0 -0.792081331
O  O90  1  0.77138000  0.69742000  0.65368000  1.0 -0.792081331
O  O91  1  0.77138000  0.30258000  0.15368000  1.0 -0.792081331
O  O92  1  0.22862000  0.69742000  0.84632000  1.0 -0.792081331
O  O93  1  0.72862000  0.80258000  0.34632000  1.0 -0.792081331
O  O94  1  0.27138000  0.19742000  0.65368000  1.0 -0.792081331
O  O95  1  0.27138000  0.80258000  0.15368000  1.0 -0.792081331
O  O96  1  0.72862000  0.19742000  0.84632000  1.0 -0.792081331
O  O97  1  0.58709000  0.17296000  0.41362000  1.0 -0.2891693498
O  O98  1  0.41291000  0.82704000  0.58638000  1.0 -0.2891693498
O  O99  1  0.41291000  0.17296000  0.08638000  1.0 -0.2891693498
O  O100  1  0.58709000  0.82704000  0.91362000  1.0 -0.2891693498
O  O101  1  0.08709000  0.67296000  0.41362000  1.0 -0.2891693498
O  O102  1  0.91291000  0.32704000  0.58638000  1.0 -0.2891693498
O  O103  1  0.91291000  0.67296000  0.08638000  1.0 -0.2891693498
O  O104  1  0.08709000  0.32704000  0.91362000  1.0 -0.2891693498
O  O105  1  0.17643000  0.98009000  0.33934000  1.0 -0.657434723
O  O106  1  0.82357000  0.01991000  0.66066000  1.0 -0.657434723
O  O107  1  0.82357000  0.98009000  0.16066000  1.0 -0.657434723
O  O108  1  0.17643000  0.01991000  0.83934000  1.0 -0.657434723
O  O109  1  0.67643000  0.48009000  0.33934000  1.0 -0.657434723
O  O110  1  0.32357000  0.51991000  0.66066000  1.0 -0.657434723
O  O111  1  0.32357000  0.48009000  0.16066000  1.0 -0.6546235355
O  O112  1  0.67643000  0.51991000  0.83934000  1.0 -0.657434723
