# DDEC6 charges by PACMAN v1.1 (https://github.com/mtap-research/PACMAN-charge/)
data_IGIZOP_ASR_pacman
_symmetry_space_group_name_H-M   'P 1'
_cell_length_a   22.31190000
_cell_length_b   17.37740000
_cell_length_c   10.18540000
_cell_angle_alpha   90.00000000
_cell_angle_beta   110.29500000
_cell_angle_gamma   90.00000000
_symmetry_Int_Tables_number   1
_chemical_formula_structural   Sr3P8H22(C2O7)4
_chemical_formula_sum   'Sr12 P32 H88 C32 O112'
_cell_volume   3703.94791970
_cell_formula_units_Z   4
loop_
 _symmetry_equiv_pos_site_id
 _symmetry_equiv_pos_as_xyz
  1  'x, y, z'
loop_
 _atom_site_type_symbol
 _atom_site_label
 _atom_site_symmetry_multiplicity
 _atom_site_fract_x
 _atom_site_fract_y
 _atom_site_fract_z
 _atom_site_occupancy
 _atom_site_charge
Sr  Sr1  1  0.50000000  0.02774000  0.75000000  1.0 1.5472919038
Sr  Sr2  1  0.50000000  0.97226000  0.25000000  1.0 1.5472919038
Sr  Sr3  1  0.00000000  0.52774000  0.75000000  1.0 1.5472919038
Sr  Sr4  1  0.00000000  0.47226000  0.25000000  1.0 1.5472919038
Sr  Sr5  1  0.33371000  0.11702000  0.54600000  1.0 1.4856307796
Sr  Sr6  1  0.66629000  0.88298000  0.45400000  1.0 1.4856307796
Sr  Sr7  1  0.66629000  0.11702000  0.95400000  1.0 1.4856307796
Sr  Sr8  1  0.33371000  0.88298000  0.04600000  1.0 1.4856307796
Sr  Sr9  1  0.83371000  0.61702000  0.54600000  1.0 1.4856307796
Sr  Sr10  1  0.16629000  0.38298000  0.45400000  1.0 1.4856307796
Sr  Sr11  1  0.16629000  0.61702000  0.95400000  1.0 1.4856307796
Sr  Sr12  1  0.83371000  0.38298000  0.04600000  1.0 1.4856307796
P  P1  1  0.47234000  0.17309000  0.44880000  1.0 1.1964630774
P  P2  1  0.52766000  0.82691000  0.55120000  1.0 1.1964630774
P  P3  1  0.52766000  0.17309000  0.05120000  1.0 1.1964630774
P  P4  1  0.47234000  0.82691000  0.94880000  1.0 1.1964630774
P  P5  1  0.97234000  0.67309000  0.44880000  1.0 1.1964630774
P  P6  1  0.02766000  0.32691000  0.55120000  1.0 1.1964630774
P  P7  1  0.02766000  0.67309000  0.05120000  1.0 1.1964630774
P  P8  1  0.97234000  0.32691000  0.94880000  1.0 1.1964630774
P  P9  1  0.36878000  0.05596000  0.90236000  1.0 1.4965445837
P  P10  1  0.63122000  0.94404000  0.09764000  1.0 1.4965445837
P  P11  1  0.63122000  0.05596000  0.59764000  1.0 1.4965445837
P  P12  1  0.36878000  0.94404000  0.40236000  1.0 1.4965445837
P  P13  1  0.86878000  0.55596000  0.90236000  1.0 1.4965445837
P  P14  1  0.13122000  0.44404000  0.09764000  1.0 1.4965445837
P  P15  1  0.13122000  0.55596000  0.59764000  1.0 1.4965445837
P  P16  1  0.86878000  0.44404000  0.40236000  1.0 1.4965445837
P  P17  1  0.29932000  0.32347000  0.38367000  1.0 1.2635050109
P  P18  1  0.70068000  0.67653000  0.61633000  1.0 1.2635050109
P  P19  1  0.70068000  0.32347000  0.11633000  1.0 1.2635050109
P  P20  1  0.29932000  0.67653000  0.88367000  1.0 1.2635050109
P  P21  1  0.79932000  0.82347000  0.38367000  1.0 1.2635050109
P  P22  1  0.20068000  0.17653000  0.61633000  1.0 1.2635050109
P  P23  1  0.20068000  0.82347000  0.11633000  1.0 1.2635050109
P  P24  1  0.79932000  0.17653000  0.88367000  1.0 1.2635050109
P  P25  1  0.19766000  0.01343000  0.48551000  1.0 1.2536291471
P  P26  1  0.80234000  0.98657000  0.51449000  1.0 1.2536291471
P  P27  1  0.80234000  0.01343000  0.01449000  1.0 1.2536291471
P  P28  1  0.19766000  0.98657000  0.98551000  1.0 1.2536291471
P  P29  1  0.69766000  0.51343000  0.48551000  1.0 1.2536291471
P  P30  1  0.30234000  0.48657000  0.51449000  1.0 1.2536291471
P  P31  1  0.30234000  0.51343000  0.01449000  1.0 1.2536291471
P  P32  1  0.69766000  0.48657000  0.98551000  1.0 1.2536291471
H  H1  1  0.57170000  0.23968000  0.69503000  1.0 0.1417221411
H  H2  1  0.42830000  0.76032000  0.30497000  1.0 0.1417221411
H  H3  1  0.42830000  0.23968000  0.80497000  1.0 0.1417221411
H  H4  1  0.57170000  0.76032000  0.19503000  1.0 0.1417221411
H  H5  1  0.07170000  0.73968000  0.69503000  1.0 0.1417221411
H  H6  1  0.92830000  0.26032000  0.30497000  1.0 0.1417221411
H  H7  1  0.92830000  0.73968000  0.80497000  1.0 0.1417221411
H  H8  1  0.07170000  0.26032000  0.19503000  1.0 0.1417221411
H  H9  1  0.56564000  0.31148000  0.56853000  1.0 0.1619438147
H  H10  1  0.43436000  0.68852000  0.43147000  1.0 0.1619438147
H  H11  1  0.43436000  0.31148000  0.93147000  1.0 0.1619438147
H  H12  1  0.56564000  0.68852000  0.06853000  1.0 0.1619438147
H  H13  1  0.06564000  0.81148000  0.56853000  1.0 0.1619438147
H  H14  1  0.93436000  0.18852000  0.43147000  1.0 0.1619438147
H  H15  1  0.93436000  0.81148000  0.93147000  1.0 0.1619438147
H  H16  1  0.06564000  0.18852000  0.06853000  1.0 0.1619438147
H  H17  1  0.63855000  0.25632000  0.63308000  1.0 0.1725888243
H  H18  1  0.36145000  0.74368000  0.36692000  1.0 0.1725888243
H  H19  1  0.36145000  0.25632000  0.86692000  1.0 0.1725888243
H  H20  1  0.63855000  0.74368000  0.13308000  1.0 0.1725888243
H  H21  1  0.13855000  0.75632000  0.63308000  1.0 0.1725888243
H  H22  1  0.86145000  0.24368000  0.36692000  1.0 0.1725888243
H  H23  1  0.86145000  0.75632000  0.86692000  1.0 0.1725888243
H  H24  1  0.13855000  0.24368000  0.13308000  1.0 0.1725888243
H  H25  1  0.38454000  0.25058000  0.40822000  1.0 0.3874158552
H  H26  1  0.61546000  0.74942000  0.59178000  1.0 0.3874158552
H  H27  1  0.61546000  0.25058000  0.09178000  1.0 0.3874158552
H  H28  1  0.38454000  0.74942000  0.90822000  1.0 0.3874158552
H  H29  1  0.88454000  0.75058000  0.40822000  1.0 0.3874158552
H  H30  1  0.11546000  0.24942000  0.59178000  1.0 0.3874158552
H  H31  1  0.11546000  0.75058000  0.09178000  1.0 0.3874158552
H  H32  1  0.88454000  0.24942000  0.90822000  1.0 0.3874158552
H  H33  1  0.08437000  0.18062000  0.35585000  1.0 0.1265864363
H  H34  1  0.91563000  0.81938000  0.64415000  1.0 0.1265864363
H  H35  1  0.91563000  0.18062000  0.14415000  1.0 0.1265864363
H  H36  1  0.08437000  0.81938000  0.85585000  1.0 0.1265864363
H  H37  1  0.58437000  0.68062000  0.35585000  1.0 0.1265864363
H  H38  1  0.41563000  0.31938000  0.64415000  1.0 0.1265864363
H  H39  1  0.41563000  0.68062000  0.14415000  1.0 0.1265864363
H  H40  1  0.58437000  0.31938000  0.85585000  1.0 0.1265864363
H  H41  1  0.07658000  0.09474000  0.44420000  1.0 0.1417221411
H  H42  1  0.92342000  0.90526000  0.55580000  1.0 0.1417221411
H  H43  1  0.92342000  0.09474000  0.05580000  1.0 0.1417221411
H  H44  1  0.07658000  0.90526000  0.94420000  1.0 0.1417221411
H  H45  1  0.57658000  0.59474000  0.44420000  1.0 0.1417221411
H  H46  1  0.42342000  0.40526000  0.55580000  1.0 0.1417221411
H  H47  1  0.42342000  0.59474000  0.05580000  1.0 0.1450075796
H  H48  1  0.57658000  0.40526000  0.94420000  1.0 0.1417221411
H  H49  1  0.08774000  0.08752000  0.27963000  1.0 0.1417221411
H  H50  1  0.91226000  0.91248000  0.72037000  1.0 0.1417221411
H  H51  1  0.91226000  0.08752000  0.22037000  1.0 0.1417221411
H  H52  1  0.08774000  0.91248000  0.77963000  1.0 0.1417221411
H  H53  1  0.58774000  0.58752000  0.27963000  1.0 0.1417221411
H  H54  1  0.41226000  0.41248000  0.72037000  1.0 0.1417221411
H  H55  1  0.41226000  0.58752000  0.22037000  1.0 0.1417221411
H  H56  1  0.58774000  0.41248000  0.77963000  1.0 0.1417221411
H  H57  1  0.20954000  0.19808000  0.35679000  1.0 0.3586568227
H  H58  1  0.79046000  0.80192000  0.64321000  1.0 0.3586568227
H  H59  1  0.79046000  0.19808000  0.14321000  1.0 0.3586568227
H  H60  1  0.20954000  0.80192000  0.85679000  1.0 0.3586568227
H  H61  1  0.70954000  0.69808000  0.35679000  1.0 0.3586568227
H  H62  1  0.29046000  0.30192000  0.64321000  1.0 0.3586568227
H  H63  1  0.29046000  0.69808000  0.14321000  1.0 0.3586568227
H  H64  1  0.70954000  0.30192000  0.85679000  1.0 0.3586568227
H  H65  1  0.31727000  0.41309000  0.21165000  1.0 0.409266158
H  H66  1  0.68273000  0.58691000  0.78835000  1.0 0.409266158
H  H67  1  0.68273000  0.41309000  0.28835000  1.0 0.409266158
H  H68  1  0.31727000  0.58691000  0.71165000  1.0 0.409266158
H  H69  1  0.81727000  0.91309000  0.21165000  1.0 0.409266158
H  H70  1  0.18273000  0.08691000  0.78835000  1.0 0.409266158
H  H71  1  0.18273000  0.91309000  0.28835000  1.0 0.409266158
H  H72  1  0.81727000  0.08691000  0.71165000  1.0 0.409266158
H  H73  1  0.16791000  0.98150000  0.66376000  1.0 0.409266158
H  H74  1  0.83209000  0.01850000  0.33624000  1.0 0.409266158
H  H75  1  0.83209000  0.98150000  0.83624000  1.0 0.409266158
H  H76  1  0.16791000  0.01850000  0.16376000  1.0 0.409266158
H  H77  1  0.66791000  0.48150000  0.66376000  1.0 0.409266158
H  H78  1  0.33209000  0.51850000  0.33624000  1.0 0.409266158
H  H79  1  0.33209000  0.48150000  0.83624000  1.0 0.409266158
H  H80  1  0.66791000  0.51850000  0.16376000  1.0 0.409266158
H  H81  1  0.56004000  0.13621000  0.27129000  1.0 0.3719820073
H  H82  1  0.43996000  0.86379000  0.72871000  1.0 0.3719820073
H  H83  1  0.43996000  0.13621000  0.22871000  1.0 0.3719820073
H  H84  1  0.56004000  0.86379000  0.77129000  1.0 0.3719820073
H  H85  1  0.06004000  0.63621000  0.27129000  1.0 0.3719820073
H  H86  1  0.93996000  0.36379000  0.72871000  1.0 0.3719820073
H  H87  1  0.93996000  0.63621000  0.22871000  1.0 0.3719820073
H  H88  1  0.06004000  0.36379000  0.77129000  1.0 0.3719820073
C  C1  1  0.55717000  0.19903000  0.48807000  1.0 0.275600086
C  C2  1  0.44283000  0.80097000  0.51193000  1.0 0.275600086
C  C3  1  0.44283000  0.19903000  0.01193000  1.0 0.275600086
C  C4  1  0.55717000  0.80097000  0.98807000  1.0 0.275600086
C  C5  1  0.05717000  0.69903000  0.48807000  1.0 0.275600086
C  C6  1  0.94283000  0.30097000  0.51193000  1.0 0.275600086
C  C7  1  0.94283000  0.69903000  0.01193000  1.0 0.275600086
C  C8  1  0.05717000  0.30097000  0.98807000  1.0 0.275600086
C  C9  1  0.58618000  0.25394000  0.60479000  1.0 -0.4443552801
C  C10  1  0.41382000  0.74606000  0.39521000  1.0 -0.4443552801
C  C11  1  0.41382000  0.25394000  0.89521000  1.0 -0.4443552801
C  C12  1  0.58618000  0.74606000  0.10479000  1.0 -0.4443552801
C  C13  1  0.08618000  0.75394000  0.60479000  1.0 -0.4443552801
C  C14  1  0.91382000  0.24606000  0.39521000  1.0 -0.4443552801
C  C15  1  0.91382000  0.75394000  0.89521000  1.0 -0.4443552801
C  C16  1  0.08618000  0.24606000  0.10479000  1.0 -0.4443552801
C  C17  1  0.17347000  0.11622000  0.45355000  1.0 -0.1875127563
C  C18  1  0.82653000  0.88378000  0.54645000  1.0 -0.1875127563
C  C19  1  0.82653000  0.11622000  0.04645000  1.0 -0.1875127563
C  C20  1  0.17347000  0.88378000  0.95355000  1.0 -0.1875127563
C  C21  1  0.67347000  0.61622000  0.45355000  1.0 -0.1875127563
C  C22  1  0.32653000  0.38378000  0.54645000  1.0 -0.1875127563
C  C23  1  0.32653000  0.61622000  0.04645000  1.0 -0.1875127563
C  C24  1  0.67347000  0.38378000  0.95355000  1.0 -0.1875127563
C  C25  1  0.10136000  0.12080000  0.37810000  1.0 -0.3858625674
C  C26  1  0.89864000  0.87920000  0.62190000  1.0 -0.3858625674
C  C27  1  0.89864000  0.12080000  0.12190000  1.0 -0.3858625674
C  C28  1  0.10136000  0.87920000  0.87810000  1.0 -0.3858625674
C  C29  1  0.60136000  0.62080000  0.37810000  1.0 -0.3858625674
C  C30  1  0.39864000  0.37920000  0.62190000  1.0 -0.3858625674
C  C31  1  0.39864000  0.62080000  0.12190000  1.0 -0.3858625674
C  C32  1  0.60136000  0.37920000  0.87810000  1.0 -0.3858625674
O  O1  1  0.45944000  0.13929000  0.57346000  1.0 -0.7829992085
O  O2  1  0.54056000  0.86071000  0.42654000  1.0 -0.7829992085
O  O3  1  0.54056000  0.13929000  0.92654000  1.0 -0.7829992085
O  O4  1  0.45944000  0.86071000  0.07346000  1.0 -0.7829992085
O  O5  1  0.95944000  0.63929000  0.57346000  1.0 -0.7906264043
O  O6  1  0.04056000  0.36071000  0.42654000  1.0 -0.7829992085
O  O7  1  0.04056000  0.63929000  0.92654000  1.0 -0.7829992085
O  O8  1  0.95944000  0.36071000  0.07346000  1.0 -0.7829992085
O  O9  1  0.54394000  0.89008000  0.67308000  1.0 -0.6864264319
O  O10  1  0.45606000  0.10992000  0.32692000  1.0 -0.6864264319
O  O11  1  0.45606000  0.89008000  0.82692000  1.0 -0.6864264319
O  O12  1  0.54394000  0.10992000  0.17308000  1.0 -0.6864264319
O  O13  1  0.04394000  0.39008000  0.67308000  1.0 -0.6864264319
O  O14  1  0.95606000  0.60992000  0.32692000  1.0 -0.6864264319
O  O15  1  0.95606000  0.39008000  0.82692000  1.0 -0.6864264319
O  O16  1  0.04394000  0.60992000  0.17308000  1.0 -0.6864264319
O  O17  1  0.44019000  0.24871000  0.39076000  1.0 -0.6583244958
O  O18  1  0.55981000  0.75129000  0.60924000  1.0 -0.6583244958
O  O19  1  0.55981000  0.24871000  0.10924000  1.0 -0.6583244958
O  O20  1  0.44019000  0.75129000  0.89076000  1.0 -0.6583244958
O  O21  1  0.94019000  0.74871000  0.39076000  1.0 -0.6583244958
O  O22  1  0.05981000  0.25129000  0.60924000  1.0 -0.6583244958
O  O23  1  0.05981000  0.74871000  0.10924000  1.0 -0.6583244958
O  O24  1  0.94019000  0.25129000  0.89076000  1.0 -0.6583244958
O  O25  1  0.40288000  0.07580000  0.80209000  1.0 -0.8799839029
O  O26  1  0.59712000  0.92420000  0.19791000  1.0 -0.8852791497
O  O27  1  0.59712000  0.07580000  0.69791000  1.0 -0.8799839029
O  O28  1  0.40288000  0.92420000  0.30209000  1.0 -0.8852791497
O  O29  1  0.90288000  0.57580000  0.80209000  1.0 -0.8852791497
O  O30  1  0.09712000  0.42420000  0.19791000  1.0 -0.8799839029
O  O31  1  0.09712000  0.57580000  0.69791000  1.0 -0.8799839029
O  O32  1  0.90288000  0.42420000  0.30209000  1.0 -0.8852791497
O  O33  1  0.59553000  0.99676000  0.97954000  1.0 -0.8799839029
O  O34  1  0.40447000  0.00324000  0.02046000  1.0 -0.8749186108
O  O35  1  0.40447000  0.99676000  0.52046000  1.0 -0.8799839029
O  O36  1  0.59553000  0.00324000  0.47954000  1.0 -0.8749186108
O  O37  1  0.09553000  0.49676000  0.97954000  1.0 -0.8749186108
O  O38  1  0.90447000  0.50324000  0.02046000  1.0 -0.8799839029
O  O39  1  0.90447000  0.49676000  0.52046000  1.0 -0.8799839029
O  O40  1  0.09553000  0.50324000  0.47954000  1.0 -0.8749186108
O  O41  1  0.30460000  0.08474000  0.88115000  1.0 -0.7213957468
O  O42  1  0.69540000  0.91526000  0.11885000  1.0 -0.7213957468
O  O43  1  0.69540000  0.08474000  0.61885000  1.0 -0.7213957468
O  O44  1  0.30460000  0.91526000  0.38115000  1.0 -0.7213957468
O  O45  1  0.80460000  0.58474000  0.88115000  1.0 -0.7213957468
O  O46  1  0.19540000  0.41526000  0.11885000  1.0 -0.7213957468
O  O47  1  0.19540000  0.58474000  0.61885000  1.0 -0.7213957468
O  O48  1  0.80460000  0.41526000  0.38115000  1.0 -0.7213957468
O  O49  1  0.26725000  0.01380000  0.57544000  1.0 -0.7829992085
O  O50  1  0.73275000  0.98620000  0.42456000  1.0 -0.7829992085
O  O51  1  0.73275000  0.01380000  0.92456000  1.0 -0.7829992085
O  O52  1  0.26725000  0.98620000  0.07544000  1.0 -0.7829992085
O  O53  1  0.76725000  0.51380000  0.57544000  1.0 -0.7829992085
O  O54  1  0.23275000  0.48620000  0.42456000  1.0 -0.7829992085
O  O55  1  0.23275000  0.51380000  0.92456000  1.0 -0.7829992085
O  O56  1  0.76725000  0.48620000  0.07544000  1.0 -0.7829992085
O  O57  1  0.33884000  0.24596000  0.43017000  1.0 -0.7213957468
O  O58  1  0.66116000  0.75404000  0.56983000  1.0 -0.7213957468
O  O59  1  0.66116000  0.24596000  0.06983000  1.0 -0.7213957468
O  O60  1  0.33884000  0.75404000  0.93017000  1.0 -0.7213957468
O  O61  1  0.83884000  0.74596000  0.43017000  1.0 -0.7213957468
O  O62  1  0.16116000  0.25404000  0.56983000  1.0 -0.7213957468
O  O63  1  0.16116000  0.74596000  0.06983000  1.0 -0.7213957468
O  O64  1  0.83884000  0.25404000  0.93017000  1.0 -0.7213957468
O  O65  1  0.21072000  0.14113000  0.36830000  1.0 -0.4824639568
O  O66  1  0.78928000  0.85887000  0.63170000  1.0 -0.4824639568
O  O67  1  0.78928000  0.14113000  0.13170000  1.0 -0.4824639568
O  O68  1  0.21072000  0.85887000  0.86830000  1.0 -0.4824639568
O  O69  1  0.71072000  0.64113000  0.36830000  1.0 -0.4824639568
O  O70  1  0.28928000  0.35887000  0.63170000  1.0 -0.4824639568
O  O71  1  0.28928000  0.64113000  0.13170000  1.0 -0.4824639568
O  O72  1  0.71072000  0.35887000  0.86830000  1.0 -0.4824639568
O  O73  1  0.32225000  0.35672000  0.27094000  1.0 -0.5935861179
O  O74  1  0.67775000  0.64328000  0.72906000  1.0 -0.5935861179
O  O75  1  0.67775000  0.35672000  0.22906000  1.0 -0.5935861179
O  O76  1  0.32225000  0.64328000  0.77094000  1.0 -0.5935861179
O  O77  1  0.82225000  0.85672000  0.27094000  1.0 -0.5935861179
O  O78  1  0.17775000  0.14328000  0.72906000  1.0 -0.5935861179
O  O79  1  0.17775000  0.85672000  0.22906000  1.0 -0.5935861179
O  O80  1  0.82225000  0.14328000  0.77094000  1.0 -0.5935861179
O  O81  1  0.15391000  0.97368000  0.56089000  1.0 -0.6198564628
O  O82  1  0.84609000  0.02632000  0.43911000  1.0 -0.6198564628
O  O83  1  0.84609000  0.97368000  0.93911000  1.0 -0.6198564628
O  O84  1  0.15391000  0.02632000  0.06089000  1.0 -0.6198564628
O  O85  1  0.65391000  0.47368000  0.56089000  1.0 -0.6198564628
O  O86  1  0.34609000  0.52632000  0.43911000  1.0 -0.6198564628
O  O87  1  0.34609000  0.47368000  0.93911000  1.0 -0.6198564628
O  O88  1  0.65391000  0.52632000  0.06089000  1.0 -0.6198564628
O  O89  1  0.22934000  0.30359000  0.35033000  1.0 -0.7906264043
O  O90  1  0.77066000  0.69641000  0.64967000  1.0 -0.7906264043
O  O91  1  0.77066000  0.30359000  0.14967000  1.0 -0.7906264043
O  O92  1  0.22934000  0.69641000  0.85033000  1.0 -0.7906264043
O  O93  1  0.72934000  0.80359000  0.35033000  1.0 -0.7906264043
O  O94  1  0.27066000  0.19641000  0.64967000  1.0 -0.7906264043
O  O95  1  0.27066000  0.80359000  0.14967000  1.0 -0.7906264043
O  O96  1  0.72934000  0.19641000  0.85033000  1.0 -0.7906264043
O  O97  1  0.58683000  0.17560000  0.41216000  1.0 -0.2911367537
O  O98  1  0.41317000  0.82440000  0.58784000  1.0 -0.2911367537
O  O99  1  0.41317000  0.17560000  0.08784000  1.0 -0.2911367537
O  O100  1  0.58683000  0.82440000  0.91216000  1.0 -0.2911367537
O  O101  1  0.08683000  0.67560000  0.41216000  1.0 -0.2911367537
O  O102  1  0.91317000  0.32440000  0.58784000  1.0 -0.2911367537
O  O103  1  0.91317000  0.67560000  0.08784000  1.0 -0.2911367537
O  O104  1  0.08683000  0.32440000  0.91216000  1.0 -0.2911367537
O  O105  1  0.17667000  0.98003000  0.33761000  1.0 -0.6583244958
O  O106  1  0.82333000  0.01997000  0.66239000  1.0 -0.6583244958
O  O107  1  0.82333000  0.98003000  0.16239000  1.0 -0.6583244958
O  O108  1  0.17667000  0.01997000  0.83761000  1.0 -0.6583244958
O  O109  1  0.67667000  0.48003000  0.33761000  1.0 -0.6583244958
O  O110  1  0.32333000  0.51997000  0.66239000  1.0 -0.6583244958
O  O111  1  0.32333000  0.48003000  0.16239000  1.0 -0.6583244958
O  O112  1  0.67667000  0.51997000  0.83761000  1.0 -0.6583244958
