# DDEC6 charges by PACMAN v1.1 (https://github.com/mtap-research/PACMAN-charge/)
data_IGOPEC_ASR_pacman
_symmetry_space_group_name_H-M   'P 1'
_cell_length_a   21.70720000
_cell_length_b   21.70720000
_cell_length_c   12.54260000
_cell_angle_alpha   90.00000000
_cell_angle_beta   90.00000000
_cell_angle_gamma   90.00000000
_symmetry_Int_Tables_number   1
_chemical_formula_structural   ZnH28C44(NO2)4
_chemical_formula_sum   'Zn4 H112 C176 N16 O32'
_cell_volume   5910.10487586
_cell_formula_units_Z   4
loop_
 _symmetry_equiv_pos_site_id
 _symmetry_equiv_pos_as_xyz
  1  'x, y, z'
loop_
 _atom_site_type_symbol
 _atom_site_label
 _atom_site_symmetry_multiplicity
 _atom_site_fract_x
 _atom_site_fract_y
 _atom_site_fract_z
 _atom_site_occupancy
 _atom_site_charge
Zn  Zn1  1  0.08839000  0.08839000  0.50000000  1.0 0.4363562151
Zn  Zn2  1  0.91161000  0.91161000  0.00000000  1.0 0.4363562151
Zn  Zn3  1  0.41161000  0.58839000  0.75000000  1.0 0.4363562151
Zn  Zn4  1  0.58839000  0.41161000  0.25000000  1.0 0.4363562151
H  H1  1  0.01264000  0.00258000  0.36313000  1.0 0.0914751909
H  H2  1  0.99672000  0.90055000  0.32244000  1.0 0.1243605821
H  H3  1  0.13571000  0.85699000  0.52087000  1.0 0.1292417823
H  H4  1  0.15736000  0.68460000  0.47221000  1.0 0.1292417823
H  H5  1  0.20397000  0.58001000  0.48439000  1.0 0.0996025586
H  H6  1  0.19254000  0.47381000  0.49799000  1.0 0.1292417823
H  H7  1  0.00670000  0.48889000  0.47551000  1.0 0.1423812818
H  H8  1  0.96118000  0.59465000  0.45576000  1.0 0.1292417823
H  H9  1  0.97204000  0.70014000  0.45054000  1.0 0.1292417823
H  H10  1  0.13170000  0.31309000  0.42471000  1.0 0.1243605821
H  H11  1  0.03068000  0.28802000  0.68991000  1.0 0.1423812818
H  H12  1  0.13891000  0.20774000  0.40758000  1.0 0.0996025586
H  H13  1  0.03924000  0.18203000  0.66461000  1.0 0.0996025586
H  H14  1  0.14994000  0.96148000  0.55301000  1.0 0.0914751909
H  H15  1  0.00258000  0.01264000  0.63687000  1.0 0.0914751909
H  H16  1  0.90055000  0.99672000  0.67756000  1.0 0.1243605821
H  H17  1  0.85699000  0.13571000  0.47913000  1.0 0.1292417823
H  H18  1  0.68460000  0.15736000  0.52779000  1.0 0.1292417823
H  H19  1  0.58001000  0.20397000  0.51561000  1.0 0.0996025586
H  H20  1  0.47381000  0.19254000  0.50201000  1.0 0.1292417823
H  H21  1  0.48889000  0.00670000  0.52449000  1.0 0.1423812818
H  H22  1  0.59465000  0.96118000  0.54424000  1.0 0.1292417823
H  H23  1  0.70014000  0.97204000  0.54946000  1.0 0.1292417823
H  H24  1  0.31309000  0.13170000  0.57529000  1.0 0.1243605821
H  H25  1  0.28802000  0.03068000  0.31009000  1.0 0.1423812818
H  H26  1  0.20774000  0.13891000  0.59242000  1.0 0.0996025586
H  H27  1  0.18203000  0.03924000  0.33539000  1.0 0.0996025586
H  H28  1  0.96148000  0.14994000  0.44699000  1.0 0.0914751909
H  H29  1  0.98736000  0.99742000  0.86313000  1.0 0.0914751909
H  H30  1  0.00328000  0.09945000  0.82244000  1.0 0.1243605821
H  H31  1  0.86429000  0.14301000  0.02087000  1.0 0.1292417823
H  H32  1  0.84264000  0.31540000  0.97221000  1.0 0.1292417823
H  H33  1  0.79603000  0.41999000  0.98439000  1.0 0.0996025586
H  H34  1  0.80746000  0.52619000  0.99799000  1.0 0.1292417823
H  H35  1  0.99330000  0.51111000  0.97551000  1.0 0.1423812818
H  H36  1  0.03882000  0.40535000  0.95576000  1.0 0.1292417823
H  H37  1  0.02796000  0.29986000  0.95054000  1.0 0.1292417823
H  H38  1  0.86830000  0.68691000  0.92471000  1.0 0.1243605821
H  H39  1  0.96932000  0.71198000  0.18991000  1.0 0.1423812818
H  H40  1  0.86109000  0.79226000  0.90758000  1.0 0.0996025586
H  H41  1  0.96076000  0.81797000  0.16461000  1.0 0.0996025586
H  H42  1  0.85006000  0.03852000  0.05301000  1.0 0.0914751909
H  H43  1  0.99742000  0.98736000  0.13687000  1.0 0.0914751909
H  H44  1  0.09945000  0.00328000  0.17756000  1.0 0.1243605821
H  H45  1  0.14301000  0.86429000  0.97913000  1.0 0.1292417823
H  H46  1  0.31540000  0.84264000  0.02779000  1.0 0.1292417823
H  H47  1  0.41999000  0.79603000  0.01561000  1.0 0.0996025586
H  H48  1  0.52619000  0.80746000  0.00201000  1.0 0.1292417823
H  H49  1  0.51111000  0.99330000  0.02449000  1.0 0.1423812818
H  H50  1  0.40535000  0.03882000  0.04424000  1.0 0.1292417823
H  H51  1  0.29986000  0.02796000  0.04946000  1.0 0.1292417823
H  H52  1  0.68691000  0.86830000  0.07529000  1.0 0.1243605821
H  H53  1  0.71198000  0.96932000  0.81009000  1.0 0.1423812818
H  H54  1  0.79226000  0.86109000  0.09242000  1.0 0.0996025586
H  H55  1  0.81797000  0.96076000  0.83539000  1.0 0.0996025586
H  H56  1  0.03852000  0.85006000  0.94699000  1.0 0.0914751909
H  H57  1  0.49742000  0.51264000  0.61313000  1.0 0.0914751909
H  H58  1  0.59945000  0.49672000  0.57244000  1.0 0.1243605821
H  H59  1  0.64301000  0.63571000  0.77087000  1.0 0.1292417823
H  H60  1  0.81540000  0.65736000  0.72221000  1.0 0.1292417823
H  H61  1  0.91999000  0.70397000  0.73439000  1.0 0.0996025586
H  H62  1  0.02619000  0.69254000  0.74799000  1.0 0.1292417823
H  H63  1  0.01111000  0.50670000  0.72551000  1.0 0.1423812818
H  H64  1  0.90535000  0.46118000  0.70576000  1.0 0.1292417823
H  H65  1  0.79986000  0.47204000  0.70054000  1.0 0.1292417823
H  H66  1  0.18691000  0.63170000  0.67471000  1.0 0.1243605821
H  H67  1  0.21198000  0.53068000  0.93991000  1.0 0.1423812818
H  H68  1  0.29226000  0.63891000  0.65758000  1.0 0.0996025586
H  H69  1  0.31797000  0.53924000  0.91461000  1.0 0.0996025586
H  H70  1  0.53852000  0.64994000  0.80301000  1.0 0.0914751909
H  H71  1  0.48736000  0.50258000  0.88687000  1.0 0.0914751909
H  H72  1  0.50328000  0.40055000  0.92756000  1.0 0.1243605821
H  H73  1  0.36429000  0.35699000  0.72913000  1.0 0.1292417823
H  H74  1  0.34264000  0.18460000  0.77779000  1.0 0.1292417823
H  H75  1  0.29603000  0.08001000  0.76561000  1.0 0.0996025586
H  H76  1  0.30746000  0.97381000  0.75201000  1.0 0.1292417823
H  H77  1  0.49330000  0.98889000  0.77449000  1.0 0.1423812818
H  H78  1  0.53882000  0.09465000  0.79424000  1.0 0.1292417823
H  H79  1  0.52796000  0.20014000  0.79946000  1.0 0.1292417823
H  H80  1  0.36830000  0.81309000  0.82529000  1.0 0.1243605821
H  H81  1  0.46932000  0.78802000  0.56009000  1.0 0.1423812818
H  H82  1  0.36109000  0.70774000  0.84242000  1.0 0.0996025586
H  H83  1  0.46076000  0.68203000  0.58539000  1.0 0.0996025586
H  H84  1  0.35006000  0.46148000  0.69699000  1.0 0.0914751909
H  H85  1  0.50258000  0.48736000  0.11313000  1.0 0.0914751909
H  H86  1  0.40055000  0.50328000  0.07244000  1.0 0.1243605821
H  H87  1  0.35699000  0.36429000  0.27087000  1.0 0.1292417823
H  H88  1  0.18460000  0.34264000  0.22221000  1.0 0.1292417823
H  H89  1  0.08001000  0.29603000  0.23439000  1.0 0.0996025586
H  H90  1  0.97381000  0.30746000  0.24799000  1.0 0.1292417823
H  H91  1  0.98889000  0.49330000  0.22551000  1.0 0.1423812818
H  H92  1  0.09465000  0.53882000  0.20576000  1.0 0.1292417823
H  H93  1  0.20014000  0.52796000  0.20054000  1.0 0.1292417823
H  H94  1  0.81309000  0.36830000  0.17471000  1.0 0.1243605821
H  H95  1  0.78802000  0.46932000  0.43991000  1.0 0.1423812818
H  H96  1  0.70774000  0.36109000  0.15758000  1.0 0.0996025586
H  H97  1  0.68203000  0.46076000  0.41461000  1.0 0.0996025586
H  H98  1  0.46148000  0.35006000  0.30301000  1.0 0.0914751909
H  H99  1  0.51264000  0.49742000  0.38687000  1.0 0.0914751909
H  H100  1  0.49672000  0.59945000  0.42756000  1.0 0.1243605821
H  H101  1  0.63571000  0.64301000  0.22913000  1.0 0.1292417823
H  H102  1  0.65736000  0.81540000  0.27779000  1.0 0.1292417823
H  H103  1  0.70397000  0.91999000  0.26561000  1.0 0.0996025586
H  H104  1  0.69254000  0.02619000  0.25201000  1.0 0.1292417823
H  H105  1  0.50670000  0.01111000  0.27449000  1.0 0.1423812818
H  H106  1  0.46118000  0.90535000  0.29424000  1.0 0.1292417823
H  H107  1  0.47204000  0.79986000  0.29946000  1.0 0.1292417823
H  H108  1  0.63170000  0.18691000  0.32529000  1.0 0.1243605821
H  H109  1  0.53068000  0.21198000  0.06009000  1.0 0.1423812818
H  H110  1  0.63891000  0.29226000  0.34242000  1.0 0.0996025586
H  H111  1  0.53924000  0.31797000  0.08539000  1.0 0.0996025586
H  H112  1  0.64994000  0.53852000  0.19699000  1.0 0.0914751909
C  C1  1  0.03843000  0.97243000  0.39510000  1.0 0.0208600874
C  C2  1  0.02830000  0.91200000  0.37110000  1.0 -0.1774449129
C  C3  1  0.11000000  0.88649000  0.48700000  1.0 -0.1774449129
C  C4  1  0.06450000  0.86806000  0.41870000  1.0 0.0112713638
C  C5  1  0.05150000  0.80206000  0.39530000  1.0 0.4920707999
C  C6  1  0.06680000  0.69965000  0.46180000  1.0 0.2317711154
C  C7  1  0.11800000  0.66550000  0.46920000  1.0 -0.268741577
C  C8  1  0.11260000  0.60019000  0.47240000  1.0 0.0741545989
C  C9  1  0.16400000  0.56230000  0.48310000  1.0 -0.156118864
C  C10  1  0.15750000  0.49975000  0.49170000  1.0 -0.2082783129
C  C11  1  0.09730000  0.47469000  0.49110000  1.0 0.2317711154
C  C12  1  0.04610000  0.50790000  0.47860000  1.0 -0.2398926558
C  C13  1  0.05290000  0.57370000  0.46990000  1.0 0.0806853755
C  C14  1  0.00110000  0.61240000  0.46000000  1.0 -0.1203325743
C  C15  1  0.00720000  0.67430000  0.45650000  1.0 -0.1880884112
C  C16  1  0.07130000  0.37950000  0.57340000  1.0 0.5019977151
C  C17  1  0.07940000  0.31096000  0.55950000  1.0 0.0208600874
C  C18  1  0.11220000  0.28683000  0.47500000  1.0 -0.1774449129
C  C19  1  0.05270000  0.27226000  0.63040000  1.0 -0.1479005457
C  C20  1  0.11580000  0.22417000  0.46530000  1.0 0.0378127901
C  C21  1  0.05810000  0.20907000  0.61470000  1.0 0.056821814
C  C22  1  0.11800000  0.94888000  0.50610000  1.0 0.0496597422
C  C23  1  0.97243000  0.03843000  0.60490000  1.0 0.0208600874
C  C24  1  0.91200000  0.02830000  0.62890000  1.0 -0.1774449129
C  C25  1  0.88649000  0.11000000  0.51300000  1.0 -0.1774449129
C  C26  1  0.86806000  0.06450000  0.58130000  1.0 0.0112713638
C  C27  1  0.80206000  0.05150000  0.60470000  1.0 0.4920707999
C  C28  1  0.69965000  0.06680000  0.53820000  1.0 0.2317711154
C  C29  1  0.66550000  0.11800000  0.53080000  1.0 -0.268741577
C  C30  1  0.60019000  0.11260000  0.52760000  1.0 0.0741545989
C  C31  1  0.56230000  0.16400000  0.51690000  1.0 -0.156118864
C  C32  1  0.49975000  0.15750000  0.50830000  1.0 -0.2082783129
C  C33  1  0.47469000  0.09730000  0.50890000  1.0 0.2317711154
C  C34  1  0.50790000  0.04610000  0.52140000  1.0 -0.2398926558
C  C35  1  0.57370000  0.05290000  0.53010000  1.0 0.0806853755
C  C36  1  0.61240000  0.00110000  0.54000000  1.0 -0.1203325743
C  C37  1  0.67430000  0.00720000  0.54350000  1.0 -0.1880884112
C  C38  1  0.37950000  0.07130000  0.42660000  1.0 0.5019977151
C  C39  1  0.31096000  0.07940000  0.44050000  1.0 0.0208600874
C  C40  1  0.28683000  0.11220000  0.52500000  1.0 -0.1774449129
C  C41  1  0.27226000  0.05270000  0.36960000  1.0 -0.1479005457
C  C42  1  0.22417000  0.11580000  0.53470000  1.0 0.0378127901
C  C43  1  0.20907000  0.05810000  0.38530000  1.0 0.056821814
C  C44  1  0.94888000  0.11800000  0.49390000  1.0 0.0496597422
C  C45  1  0.96157000  0.02757000  0.89510000  1.0 0.0208600874
C  C46  1  0.97170000  0.08800000  0.87110000  1.0 -0.1774449129
C  C47  1  0.89000000  0.11351000  0.98700000  1.0 -0.1774449129
C  C48  1  0.93550000  0.13194000  0.91870000  1.0 0.0112713638
C  C49  1  0.94850000  0.19794000  0.89530000  1.0 0.4920707999
C  C50  1  0.93320000  0.30035000  0.96180000  1.0 0.2317711154
C  C51  1  0.88200000  0.33450000  0.96920000  1.0 -0.268741577
C  C52  1  0.88740000  0.39981000  0.97240000  1.0 0.0741545989
C  C53  1  0.83600000  0.43770000  0.98310000  1.0 -0.156118864
C  C54  1  0.84250000  0.50025000  0.99170000  1.0 -0.2082783129
C  C55  1  0.90270000  0.52531000  0.99110000  1.0 0.2317711154
C  C56  1  0.95390000  0.49210000  0.97860000  1.0 -0.2398926558
C  C57  1  0.94710000  0.42630000  0.96990000  1.0 0.0806853755
C  C58  1  0.99890000  0.38760000  0.96000000  1.0 -0.1203325743
C  C59  1  0.99280000  0.32570000  0.95650000  1.0 -0.1880884112
C  C60  1  0.92870000  0.62050000  0.07340000  1.0 0.5019977151
C  C61  1  0.92060000  0.68904000  0.05950000  1.0 0.0208600874
C  C62  1  0.88780000  0.71317000  0.97500000  1.0 -0.1774449129
C  C63  1  0.94730000  0.72774000  0.13040000  1.0 -0.1479005457
C  C64  1  0.88420000  0.77583000  0.96530000  1.0 0.0378127901
C  C65  1  0.94190000  0.79093000  0.11470000  1.0 0.056821814
C  C66  1  0.88200000  0.05112000  0.00610000  1.0 0.0496597422
C  C67  1  0.02757000  0.96157000  0.10490000  1.0 0.0208600874
C  C68  1  0.08800000  0.97170000  0.12890000  1.0 -0.1774449129
C  C69  1  0.11351000  0.89000000  0.01300000  1.0 -0.1774449129
C  C70  1  0.13194000  0.93550000  0.08130000  1.0 0.0112713638
C  C71  1  0.19794000  0.94850000  0.10470000  1.0 0.4920707999
C  C72  1  0.30035000  0.93320000  0.03820000  1.0 0.2317711154
C  C73  1  0.33450000  0.88200000  0.03080000  1.0 -0.268741577
C  C74  1  0.39981000  0.88740000  0.02760000  1.0 0.0741545989
C  C75  1  0.43770000  0.83600000  0.01690000  1.0 -0.156118864
C  C76  1  0.50025000  0.84250000  0.00830000  1.0 -0.2082783129
C  C77  1  0.52531000  0.90270000  0.00890000  1.0 0.2317711154
C  C78  1  0.49210000  0.95390000  0.02140000  1.0 -0.2398926558
C  C79  1  0.42630000  0.94710000  0.03010000  1.0 0.0806853755
C  C80  1  0.38760000  0.99890000  0.04000000  1.0 -0.1203325743
C  C81  1  0.32570000  0.99280000  0.04350000  1.0 -0.1880884112
C  C82  1  0.62050000  0.92870000  0.92660000  1.0 0.5019977151
C  C83  1  0.68904000  0.92060000  0.94050000  1.0 0.0208600874
C  C84  1  0.71317000  0.88780000  0.02500000  1.0 -0.1774449129
C  C85  1  0.72774000  0.94730000  0.86960000  1.0 -0.1479005457
C  C86  1  0.77583000  0.88420000  0.03470000  1.0 0.0378127901
C  C87  1  0.79093000  0.94190000  0.88530000  1.0 0.056821814
C  C88  1  0.05112000  0.88200000  0.99390000  1.0 0.0496597422
C  C89  1  0.52757000  0.53843000  0.64510000  1.0 0.0208600874
C  C90  1  0.58800000  0.52830000  0.62110000  1.0 -0.1774449129
C  C91  1  0.61351000  0.61000000  0.73700000  1.0 -0.1774449129
C  C92  1  0.63194000  0.56450000  0.66870000  1.0 0.0112713638
C  C93  1  0.69794000  0.55150000  0.64530000  1.0 0.4920707999
C  C94  1  0.80035000  0.56680000  0.71180000  1.0 0.2317711154
C  C95  1  0.83450000  0.61800000  0.71920000  1.0 -0.268741577
C  C96  1  0.89981000  0.61260000  0.72240000  1.0 0.0741545989
C  C97  1  0.93770000  0.66400000  0.73310000  1.0 -0.156118864
C  C98  1  0.00025000  0.65750000  0.74170000  1.0 -0.2082783129
C  C99  1  0.02531000  0.59730000  0.74110000  1.0 0.2317711154
C  C100  1  0.99210000  0.54610000  0.72860000  1.0 -0.2398926558
C  C101  1  0.92630000  0.55290000  0.71990000  1.0 0.0806853755
C  C102  1  0.88760000  0.50110000  0.71000000  1.0 -0.1203325743
C  C103  1  0.82570000  0.50720000  0.70650000  1.0 -0.1880884112
C  C104  1  0.12050000  0.57130000  0.82340000  1.0 0.5019977151
C  C105  1  0.18904000  0.57940000  0.80950000  1.0 0.0208600874
C  C106  1  0.21317000  0.61220000  0.72500000  1.0 -0.1774449129
C  C107  1  0.22774000  0.55270000  0.88040000  1.0 -0.1479005457
C  C108  1  0.27583000  0.61580000  0.71530000  1.0 0.0378127901
C  C109  1  0.29093000  0.55810000  0.86470000  1.0 0.056821814
C  C110  1  0.55112000  0.61800000  0.75610000  1.0 0.0496597422
C  C111  1  0.46157000  0.47243000  0.85490000  1.0 0.0208600874
C  C112  1  0.47170000  0.41200000  0.87890000  1.0 -0.1774449129
C  C113  1  0.39000000  0.38649000  0.76300000  1.0 -0.1774449129
C  C114  1  0.43550000  0.36806000  0.83130000  1.0 0.0112713638
C  C115  1  0.44850000  0.30206000  0.85470000  1.0 0.4920707999
C  C116  1  0.43320000  0.19965000  0.78820000  1.0 0.2317711154
C  C117  1  0.38200000  0.16550000  0.78080000  1.0 -0.268741577
C  C118  1  0.38740000  0.10019000  0.77760000  1.0 0.0741545989
C  C119  1  0.33600000  0.06230000  0.76690000  1.0 -0.156118864
C  C120  1  0.34250000  0.99975000  0.75830000  1.0 -0.2082783129
C  C121  1  0.40270000  0.97469000  0.75890000  1.0 0.2317711154
C  C122  1  0.45390000  0.00790000  0.77140000  1.0 -0.2398926558
C  C123  1  0.44710000  0.07370000  0.78010000  1.0 0.0806853755
C  C124  1  0.49890000  0.11240000  0.79000000  1.0 -0.1203325743
C  C125  1  0.49280000  0.17430000  0.79350000  1.0 -0.1880884112
C  C126  1  0.42870000  0.87950000  0.67660000  1.0 0.5019977151
C  C127  1  0.42060000  0.81096000  0.69050000  1.0 0.0208600874
C  C128  1  0.38780000  0.78683000  0.77500000  1.0 -0.1774449129
C  C129  1  0.44730000  0.77226000  0.61960000  1.0 -0.1479005457
C  C130  1  0.38420000  0.72417000  0.78470000  1.0 0.0378127901
C  C131  1  0.44190000  0.70907000  0.63530000  1.0 0.056821814
C  C132  1  0.38200000  0.44888000  0.74390000  1.0 0.0496597422
C  C133  1  0.47243000  0.46157000  0.14510000  1.0 0.0208600874
C  C134  1  0.41200000  0.47170000  0.12110000  1.0 -0.1774449129
C  C135  1  0.38649000  0.39000000  0.23700000  1.0 -0.1774449129
C  C136  1  0.36806000  0.43550000  0.16870000  1.0 0.0112713638
C  C137  1  0.30206000  0.44850000  0.14530000  1.0 0.4920707999
C  C138  1  0.19965000  0.43320000  0.21180000  1.0 0.2317711154
C  C139  1  0.16550000  0.38200000  0.21920000  1.0 -0.268741577
C  C140  1  0.10019000  0.38740000  0.22240000  1.0 0.0741545989
C  C141  1  0.06230000  0.33600000  0.23310000  1.0 -0.156118864
C  C142  1  0.99975000  0.34250000  0.24170000  1.0 -0.2043910564
C  C143  1  0.97469000  0.40270000  0.24110000  1.0 0.2317711154
C  C144  1  0.00790000  0.45390000  0.22860000  1.0 -0.2398926558
C  C145  1  0.07370000  0.44710000  0.21990000  1.0 0.0806853755
C  C146  1  0.11240000  0.49890000  0.21000000  1.0 -0.1203325743
C  C147  1  0.17430000  0.49280000  0.20650000  1.0 -0.1880884112
C  C148  1  0.87950000  0.42870000  0.32340000  1.0 0.5019977151
C  C149  1  0.81096000  0.42060000  0.30950000  1.0 0.0208600874
C  C150  1  0.78683000  0.38780000  0.22500000  1.0 -0.1774449129
C  C151  1  0.77226000  0.44730000  0.38040000  1.0 -0.1479005457
C  C152  1  0.72417000  0.38420000  0.21530000  1.0 0.0378127901
C  C153  1  0.70907000  0.44190000  0.36470000  1.0 0.056821814
C  C154  1  0.44888000  0.38200000  0.25610000  1.0 0.0496597422
C  C155  1  0.53843000  0.52757000  0.35490000  1.0 0.0208600874
C  C156  1  0.52830000  0.58800000  0.37890000  1.0 -0.1774449129
C  C157  1  0.61000000  0.61351000  0.26300000  1.0 -0.1774449129
C  C158  1  0.56450000  0.63194000  0.33130000  1.0 0.0112713638
C  C159  1  0.55150000  0.69794000  0.35470000  1.0 0.4920707999
C  C160  1  0.56680000  0.80035000  0.28820000  1.0 0.2317711154
C  C161  1  0.61800000  0.83450000  0.28080000  1.0 -0.268741577
C  C162  1  0.61260000  0.89981000  0.27760000  1.0 0.0741545989
C  C163  1  0.66400000  0.93770000  0.26690000  1.0 -0.156118864
C  C164  1  0.65750000  0.00025000  0.25830000  1.0 -0.2043910564
C  C165  1  0.59730000  0.02531000  0.25890000  1.0 0.2317711154
C  C166  1  0.54610000  0.99210000  0.27140000  1.0 -0.2398926558
C  C167  1  0.55290000  0.92630000  0.28010000  1.0 0.0806853755
C  C168  1  0.50110000  0.88760000  0.29000000  1.0 -0.1203325743
C  C169  1  0.50720000  0.82570000  0.29350000  1.0 -0.1880884112
C  C170  1  0.57130000  0.12050000  0.17660000  1.0 0.5019977151
C  C171  1  0.57940000  0.18904000  0.19050000  1.0 0.0208600874
C  C172  1  0.61220000  0.21317000  0.27500000  1.0 -0.1774449129
C  C173  1  0.55270000  0.22774000  0.11960000  1.0 -0.1479005457
C  C174  1  0.61580000  0.27583000  0.28470000  1.0 0.0378127901
C  C175  1  0.55810000  0.29093000  0.13530000  1.0 0.056821814
C  C176  1  0.61800000  0.55112000  0.24390000  1.0 0.0496597422
N  N1  1  0.08301000  0.99153000  0.46160000  1.0 -0.2082783129
N  N2  1  0.08871000  0.18482000  0.53220000  1.0 -0.2082783129
N  N3  1  0.99153000  0.08301000  0.53840000  1.0 -0.2082783129
N  N4  1  0.18482000  0.08871000  0.46780000  1.0 -0.2082783129
N  N5  1  0.91699000  0.00847000  0.96160000  1.0 -0.2082783129
N  N6  1  0.91129000  0.81518000  0.03220000  1.0 -0.2082783129
N  N7  1  0.00847000  0.91699000  0.03840000  1.0 -0.2082783129
N  N8  1  0.81518000  0.91129000  0.96780000  1.0 -0.2082783129
N  N9  1  0.50847000  0.58301000  0.71160000  1.0 -0.2082783129
N  N10  1  0.31518000  0.58871000  0.78220000  1.0 -0.2082783129
N  N11  1  0.41699000  0.49153000  0.78840000  1.0 -0.2082783129
N  N12  1  0.41129000  0.68482000  0.71780000  1.0 -0.2082783129
N  N13  1  0.49153000  0.41699000  0.21160000  1.0 -0.2082783129
N  N14  1  0.68482000  0.41129000  0.28220000  1.0 -0.2082783129
N  N15  1  0.58301000  0.50847000  0.28840000  1.0 -0.2082783129
N  N16  1  0.58871000  0.31518000  0.21780000  1.0 -0.2082783129
O  O1  1  0.02230000  0.78411000  0.32150000  1.0 -0.4606497491
O  O2  1  0.07577000  0.76496000  0.46850000  1.0 -0.268741577
O  O3  1  0.09656000  0.40990000  0.49220000  1.0 -0.2521637173
O  O4  1  0.04580000  0.40329000  0.64430000  1.0 -0.4268927404
O  O5  1  0.78411000  0.02230000  0.67850000  1.0 -0.4606497491
O  O6  1  0.76496000  0.07577000  0.53150000  1.0 -0.276031846
O  O7  1  0.40990000  0.09656000  0.50780000  1.0 -0.2521637173
O  O8  1  0.40329000  0.04580000  0.35570000  1.0 -0.4268927404
O  O9  1  0.97770000  0.21589000  0.82150000  1.0 -0.4606497491
O  O10  1  0.92423000  0.23504000  0.96850000  1.0 -0.276031846
O  O11  1  0.90344000  0.59010000  0.99220000  1.0 -0.2521637173
O  O12  1  0.95420000  0.59671000  0.14430000  1.0 -0.4268927404
O  O13  1  0.21589000  0.97770000  0.17850000  1.0 -0.4606497491
O  O14  1  0.23504000  0.92423000  0.03150000  1.0 -0.268741577
O  O15  1  0.59010000  0.90344000  0.00780000  1.0 -0.2521637173
O  O16  1  0.59671000  0.95420000  0.85570000  1.0 -0.4268927404
O  O17  1  0.71589000  0.52230000  0.57150000  1.0 -0.4606497491
O  O18  1  0.73504000  0.57577000  0.71850000  1.0 -0.276031846
O  O19  1  0.09010000  0.59656000  0.74220000  1.0 -0.2521637173
O  O20  1  0.09671000  0.54580000  0.89430000  1.0 -0.4268927404
O  O21  1  0.47770000  0.28411000  0.92850000  1.0 -0.4606497491
O  O22  1  0.42423000  0.26496000  0.78150000  1.0 -0.276031846
O  O23  1  0.40344000  0.90990000  0.75780000  1.0 -0.2521637173
O  O24  1  0.45420000  0.90329000  0.60570000  1.0 -0.4268927404
O  O25  1  0.28411000  0.47770000  0.07150000  1.0 -0.4606497491
O  O26  1  0.26496000  0.42423000  0.21850000  1.0 -0.268741577
O  O27  1  0.90990000  0.40344000  0.24220000  1.0 -0.2521637173
O  O28  1  0.90329000  0.45420000  0.39430000  1.0 -0.4268927404
O  O29  1  0.52230000  0.71589000  0.42850000  1.0 -0.4606497491
O  O30  1  0.57577000  0.73504000  0.28150000  1.0 -0.268741577
O  O31  1  0.59656000  0.09010000  0.25780000  1.0 -0.2521637173
O  O32  1  0.54580000  0.09671000  0.10570000  1.0 -0.4268927404
