# DDEC6 charges by PACMAN v1.1 (https://github.com/mtap-research/PACMAN-charge/)
data_IGOYIN_ASR_pacman
_symmetry_space_group_name_H-M   'P 1'
_cell_length_a   13.08870000
_cell_length_b   14.98130000
_cell_length_c   17.12160000
_cell_angle_alpha   110.81600000
_cell_angle_beta   109.23300000
_cell_angle_gamma   86.49400000
_symmetry_Int_Tables_number   1
_chemical_formula_structural   Na3Co3P4H16W6C8(NO18)2
_chemical_formula_sum   'Na6 Co6 P8 H32 W12 C16 N4 O72'
_cell_volume   2957.05668026
_cell_formula_units_Z   2
loop_
 _symmetry_equiv_pos_site_id
 _symmetry_equiv_pos_as_xyz
  1  'x, y, z'
loop_
 _atom_site_type_symbol
 _atom_site_label
 _atom_site_symmetry_multiplicity
 _atom_site_fract_x
 _atom_site_fract_y
 _atom_site_fract_z
 _atom_site_occupancy
 _atom_site_charge
Na  Na1  1  0.85330000  0.82070000  0.45140000  1.0 0.9056934066
Na  Na2  1  0.14670000  0.17930000  0.54860000  1.0 0.9056934066
Na  Na3  1  0.57870000  0.29610000  0.36840000  1.0 0.8719763108
Na  Na4  1  0.42130000  0.70390000  0.63160000  1.0 0.8719763108
Na  Na5  1  0.64820000  0.76730000  0.88460000  1.0 0.8786935457
Na  Na6  1  0.35180000  0.23270000  0.11540000  1.0 0.8786935457
Co  Co1  1  0.89698000  0.06675000  0.50212000  1.0 1.2065593548
Co  Co2  1  0.10302000  0.93325000  0.49788000  1.0 1.2065593548
Co  Co3  1  0.93250000  0.93630000  0.00714000  1.0 0.497153277
Co  Co4  1  0.06750000  0.06370000  0.99286000  1.0 0.497153277
Co  Co5  1  0.16010000  0.04300000  0.00610000  1.0 0.212230558
Co  Co6  1  0.83990000  0.95700000  0.99390000  1.0 0.212230558
P  P1  1  0.05280000  0.11150000  0.18857000  1.0 1.5060874768
P  P2  1  0.94720000  0.88850000  0.81143000  1.0 1.5012766667
P  P3  1  0.58880000  0.92900000  0.08029000  1.0 1.4831028529
P  P4  1  0.41120000  0.07100000  0.91971000  1.0 1.4831028529
P  P5  1  0.99030000  0.66440000  0.07514000  1.0 1.4711962887
P  P6  1  0.00970000  0.33560000  0.92486000  1.0 1.4711962887
P  P7  1  0.91516000  0.92153000  0.31347000  1.0 1.5197129794
P  P8  1  0.08484000  0.07847000  0.68653000  1.0 1.5197129794
H  H1  1  0.74330000  0.43160000  0.53750000  1.0 0.049693637
H  H2  1  0.25670000  0.56840000  0.46250000  1.0 0.049693637
H  H3  1  0.76640000  0.37180000  0.59970000  1.0 0.0781115636
H  H4  1  0.23360000  0.62820000  0.40030000  1.0 0.0781115636
H  H5  1  0.91620000  0.47300000  0.64210000  1.0 0.098728389
H  H6  1  0.08380000  0.52700000  0.35790000  1.0 0.098728389
H  H7  1  0.94740000  0.36690000  0.60780000  1.0 0.1180846602
H  H8  1  0.05260000  0.63310000  0.39220000  1.0 0.1180846602
H  H9  1  0.81030000  0.49730000  0.46750000  1.0 0.1084396191
H  H10  1  0.18970000  0.50270000  0.53250000  1.0 0.1084396191
H  H11  1  0.89630000  0.57330000  0.54750000  1.0 0.098728389
H  H12  1  0.10370000  0.42670000  0.45250000  1.0 0.098728389
H  H13  1  0.07780000  0.52280000  0.62090000  1.0 0.098728389
H  H14  1  0.92220000  0.47720000  0.37910000  1.0 0.098728389
H  H15  1  0.10320000  0.41470000  0.58670000  1.0 0.1180846602
H  H16  1  0.89680000  0.58530000  0.41330000  1.0 0.1180846602
H  H17  1  0.63600000  0.06570000  0.55700000  1.0 0.0852187969
H  H18  1  0.36400000  0.93430000  0.44300000  1.0 0.0852187969
H  H19  1  0.60990000  0.09510000  0.47330000  1.0 0.1326738619
H  H20  1  0.39010000  0.90490000  0.52670000  1.0 0.1326738619
H  H21  1  0.52900000  0.32790000  0.56620000  1.0 0.0781115636
H  H22  1  0.47100000  0.67210000  0.43380000  1.0 0.0781115636
H  H23  1  0.61190000  0.25040000  0.54510000  1.0 0.0781115636
H  H24  1  0.38810000  0.74960000  0.45490000  1.0 0.0781115636
H  H25  1  0.53830000  0.21220000  0.62900000  1.0 0.098728389
H  H26  1  0.46170000  0.78780000  0.37100000  1.0 0.098728389
H  H27  1  0.42080000  0.22470000  0.57210000  1.0 0.1180846602
H  H28  1  0.57920000  0.77530000  0.42790000  1.0 0.1180846602
H  H29  1  0.37440000  0.06300000  0.56690000  1.0 0.1326738619
H  H30  1  0.62560000  0.93700000  0.43310000  1.0 0.1326738619
H  H31  1  0.49450000  0.04240000  0.61090000  1.0 0.1180846602
H  H32  1  0.50550000  0.95760000  0.38910000  1.0 0.1180846602
W  W1  1  0.64927000  0.81749000  0.23006000  1.0 2.4199233599
W  W2  1  0.35073000  0.18251000  0.76994000  1.0 2.4116921969
W  W3  1  0.87675000  0.66997000  0.22468000  1.0 2.4262176104
W  W4  1  0.12325000  0.33003000  0.77532000  1.0 2.4199233599
W  W5  1  0.12734000  0.77154000  0.28804000  1.0 2.3339026519
W  W6  1  0.87266000  0.22846000  0.71196000  1.0 2.3339026519
W  W7  1  0.16525000  0.02799000  0.34943000  1.0 2.3145495005
W  W8  1  0.83475000  0.97201000  0.65057000  1.0 2.3189954507
W  W9  1  0.68657000  0.05636000  0.29592000  1.0 2.3996785231
W  W10  1  0.31343000  0.94364000  0.70408000  1.0 2.3996785231
W  W11  1  0.95191000  0.16509000  0.35260000  1.0 2.3189954507
W  W12  1  0.04809000  0.83491000  0.64740000  1.0 2.3189954507
C  C1  1  0.78680000  0.38220000  0.55390000  1.0 0.0107949697
C  C2  1  0.21320000  0.61780000  0.44610000  1.0 0.0107949697
C  C3  1  0.90450000  0.41580000  0.58980000  1.0 -0.1538216225
C  C4  1  0.09550000  0.58420000  0.41020000  1.0 -0.1538216225
C  C5  1  0.88720000  0.51550000  0.49610000  1.0 -0.1408285203
C  C6  1  0.11280000  0.48450000  0.50390000  1.0 -0.1408285203
C  C7  1  0.06610000  0.46570000  0.56850000  1.0 -0.1408285203
C  C8  1  0.93390000  0.53430000  0.43150000  1.0 -0.1408285203
C  C9  1  0.58190000  0.05980000  0.50050000  1.0 -0.1408285203
C  C10  1  0.41810000  0.94020000  0.49950000  1.0 -0.1408285203
C  C11  1  0.53540000  0.26080000  0.53480000  1.0 -0.0085070913
C  C12  1  0.46460000  0.73920000  0.46520000  1.0 -0.0085070913
C  C13  1  0.49140000  0.20330000  0.56930000  1.0 -0.1566529773
C  C14  1  0.50860000  0.79670000  0.43070000  1.0 -0.1566529773
C  C15  1  0.43990000  0.03770000  0.55490000  1.0 -0.1566529773
C  C16  1  0.56010000  0.96230000  0.44510000  1.0 -0.1566529773
N  N1  1  0.48010000  0.09920000  0.51390000  1.0 -0.015886122
N  N2  1  0.51990000  0.90080000  0.48610000  1.0 -0.015886122
N  N3  1  0.94450000  0.43750000  0.52410000  1.0 -0.0516402941
N  N4  1  0.05550000  0.56250000  0.47590000  1.0 -0.0516402941
O  O1  1  0.10640000  0.15000000  0.37650000  1.0 -0.993687456
O  O2  1  0.89360000  0.85000000  0.62350000  1.0 -0.993687456
O  O3  1  0.74390000  0.72720000  0.18650000  1.0 -0.9499814562
O  O4  1  0.25610000  0.27280000  0.81350000  1.0 -0.9499814562
O  O5  1  0.03430000  0.66110000  0.25240000  1.0 -0.9744234732
O  O6  1  0.96570000  0.33890000  0.74760000  1.0 -0.9744234732
O  O7  1  0.94120000  0.93900000  0.41310000  1.0 -0.8769120229
O  O8  1  0.05880000  0.06100000  0.58690000  1.0 -0.8769120229
O  O9  1  0.75120000  0.06820000  0.40840000  1.0 -0.8305134428
O  O10  1  0.24880000  0.93180000  0.59160000  1.0 -0.8305134428
O  O11  1  0.59550000  0.94490000  0.25950000  1.0 -0.9499814562
O  O12  1  0.40450000  0.05510000  0.74050000  1.0 -0.9499814562
O  O13  1  0.13930000  0.81610000  0.40190000  1.0 -0.8305134428
O  O14  1  0.86070000  0.18390000  0.59810000  1.0 -0.8305134428
O  O15  1  0.16760000  0.01670000  0.45000000  1.0 -0.9299196951
O  O16  1  0.83240000  0.98330000  0.55000000  1.0 -0.9299196951
O  O17  1  0.16140000  0.89470000  0.28740000  1.0 -0.8979753109
O  O18  1  0.83860000  0.10530000  0.71260000  1.0 -0.8979753109
O  O19  1  0.11440000  0.03340000  0.22260000  1.0 -0.7679951242
O  O20  1  0.88560000  0.96660000  0.77740000  1.0 -0.7679951242
O  O21  1  0.07490000  0.74490000  0.15090000  1.0 -0.7981686048
O  O22  1  0.92510000  0.25510000  0.84910000  1.0 -0.7981686048
O  O23  1  0.12740000  0.20100000  0.22180000  1.0 -0.6238845936
O  O24  1  0.87260000  0.79900000  0.77820000  1.0 -0.6238845936
O  O25  1  0.95710000  0.13510000  0.22500000  1.0 -0.789922779
O  O26  1  0.04290000  0.86490000  0.77500000  1.0 -0.789922779
O  O27  1  0.00670000  0.06760000  0.08810000  1.0 -0.7392091207
O  O28  1  0.99330000  0.93240000  0.91190000  1.0 -0.7392091207
O  O29  1  0.80360000  0.12390000  0.29130000  1.0 -0.8769120229
O  O30  1  0.19640000  0.87610000  0.70870000  1.0 -0.8769120229
O  O31  1  0.88220000  0.69910000  0.33320000  1.0 -0.8650384001
O  O32  1  0.11780000  0.30090000  0.66680000  1.0 -0.8650384001
O  O33  1  0.97690000  0.00000000  0.30430000  1.0 -0.8979753109
O  O34  1  0.02310000  0.00000000  0.69570000  1.0 -0.8979753109
O  O35  1  0.61570000  0.83960000  0.10400000  1.0 -0.8469270221
O  O36  1  0.38430000  0.16040000  0.89600000  1.0 -0.8469270221
O  O37  1  0.04340000  0.56690000  0.06740000  1.0 -0.6458172254
O  O38  1  0.95660000  0.43310000  0.93260000  1.0 -0.6458172254
O  O39  1  0.88730000  0.66580000  0.10130000  1.0 -0.812980657
O  O40  1  0.11270000  0.33420000  0.89870000  1.0 -0.8153033308
O  O41  1  0.79300000  0.92630000  0.26780000  1.0 -0.8933111183
O  O42  1  0.20700000  0.07370000  0.73220000  1.0 -0.8933111183
O  O43  1  0.59060000  0.14090000  0.30370000  1.0 -0.8305134428
O  O44  1  0.40940000  0.85910000  0.69630000  1.0 -0.8305134428
O  O45  1  0.65070000  0.01820000  0.15780000  1.0 -0.7589352928
O  O46  1  0.34930000  0.98180000  0.84220000  1.0 -0.7589352928
O  O47  1  0.69790000  0.81950000  0.33780000  1.0 -0.8769120229
O  O48  1  0.30210000  0.18050000  0.66220000  1.0 -0.8769120229
O  O49  1  0.48000000  0.23820000  0.44030000  1.0 -0.5887197755
O  O50  1  0.52000000  0.76180000  0.55970000  1.0 -0.5887197755
O  O51  1  0.95090000  0.82380000  0.26530000  1.0 -0.8979753109
O  O52  1  0.04910000  0.17620000  0.73470000  1.0 -0.8979753109
O  O53  1  0.46320000  0.93870000  0.06420000  1.0 -0.6311544828
O  O54  1  0.53680000  0.06130000  0.93580000  1.0 -0.6350968532
O  O55  1  0.76520000  0.29780000  0.48040000  1.0 -0.499998813
O  O56  1  0.23480000  0.70220000  0.51960000  1.0 -0.499998813
O  O57  1  0.95600000  0.15190000  0.45390000  1.0 -0.9299196951
O  O58  1  0.04400000  0.84810000  0.54610000  1.0 -0.9299196951
O  O59  1  0.95960000  0.67950000  0.98740000  1.0 -0.5887197755
O  O60  1  0.04040000  0.32050000  0.01260000  1.0 -0.5887197755
O  O61  1  0.61280000  0.92190000  0.99770000  1.0 -0.7589352928
O  O62  1  0.38720000  0.07810000  0.00230000  1.0 -0.7589352928
O  O63  1  0.78680000  0.00160000  0.94520000  1.0 -0.111902488
O  O64  1  0.21320000  0.99840000  0.05480000  1.0 -0.111902488
O  O65  1  0.90460000  0.90080000  0.11140000  1.0 0.26294517
O  O66  1  0.09540000  0.09920000  0.88860000  1.0 0.2760019847
O  O67  1  0.83200000  0.79520000  0.91830000  1.0 -0.5539249234
O  O68  1  0.16800000  0.20480000  0.08170000  1.0 -0.5565233282
O  O69  1  0.28000000  0.00700000  0.12900000  1.0 0.0781115636
O  O70  1  0.72000000  0.99300000  0.87100000  1.0 0.06964873
O  O71  1  0.13900000  0.07060000  0.89960000  1.0 0.064503374
O  O72  1  0.86100000  0.92940000  0.10040000  1.0 0.06964873
