# DDEC6 charges by PACMAN v1.1 (https://github.com/mtap-research/PACMAN-charge/)
data_IGUCEU_ASR_pacman
_symmetry_space_group_name_H-M   'P 1'
_cell_length_a   13.50690000
_cell_length_b   13.50690000
_cell_length_c   22.58100000
_cell_angle_alpha   75.54670000
_cell_angle_beta   104.45300000
_cell_angle_gamma   121.05500000
_symmetry_Int_Tables_number   1
_chemical_formula_structural   GdH12C13N8
_chemical_formula_sum   'Gd8 H96 C104 N64'
_cell_volume   3381.00455575
_cell_formula_units_Z   8
loop_
 _symmetry_equiv_pos_site_id
 _symmetry_equiv_pos_as_xyz
  1  'x, y, z'
loop_
 _atom_site_type_symbol
 _atom_site_label
 _atom_site_symmetry_multiplicity
 _atom_site_fract_x
 _atom_site_fract_y
 _atom_site_fract_z
 _atom_site_occupancy
 _atom_site_charge
Gd  Gd1  1  0.15148000  0.63556000  0.70648000  1.0 1.5728786619
Gd  Gd2  1  0.63556000  0.15148000  0.79352000  1.0 1.5728786619
Gd  Gd3  1  0.84852000  0.36444000  0.29352000  1.0 1.5728786619
Gd  Gd4  1  0.36444000  0.84852000  0.20648000  1.0 1.5728786619
Gd  Gd5  1  0.70473000  0.70473000  0.75000000  1.0 1.5435598822
Gd  Gd6  1  0.29527000  0.29527000  0.25000000  1.0 1.5435598822
Gd  Gd7  1  0.00000000  0.50000000  0.00000000  1.0 1.4979376526
Gd  Gd8  1  0.50000000  0.00000000  0.50000000  1.0 1.4948558541
H  H1  1  0.20270000  0.38410000  0.57400000  1.0 0.2692101555
H  H2  1  0.38410000  0.20270000  0.92600000  1.0 0.2692101555
H  H3  1  0.79730000  0.61590000  0.42600000  1.0 0.2692101555
H  H4  1  0.61590000  0.79730000  0.07400000  1.0 0.2692101555
H  H5  1  0.44580000  0.85460000  0.76110000  1.0 0.0883542457
H  H6  1  0.85460000  0.44580000  0.73890000  1.0 0.0883542457
H  H7  1  0.55420000  0.14540000  0.23890000  1.0 0.0883542457
H  H8  1  0.14540000  0.55420000  0.26110000  1.0 0.0883542457
H  H9  1  0.34240000  0.08460000  0.74010000  1.0 0.1002820624
H  H10  1  0.08460000  0.34240000  0.75990000  1.0 0.1002820624
H  H11  1  0.65760000  0.91540000  0.25990000  1.0 0.1002820624
H  H12  1  0.91540000  0.65760000  0.24010000  1.0 0.1002820624
H  H13  1  0.98530000  0.73150000  0.75610000  1.0 0.0697679253
H  H14  1  0.73150000  0.98530000  0.74390000  1.0 0.0697679253
H  H15  1  0.01470000  0.26850000  0.24390000  1.0 0.0697679253
H  H16  1  0.26850000  0.01470000  0.25610000  1.0 0.0697679253
H  H17  1  0.89380000  0.59220000  0.60560000  1.0 0.0883542457
H  H18  1  0.59220000  0.89380000  0.89440000  1.0 0.0883542457
H  H19  1  0.10620000  0.40780000  0.39440000  1.0 0.0883542457
H  H20  1  0.40780000  0.10620000  0.10560000  1.0 0.0883542457
H  H21  1  0.72600000  0.60000000  0.62440000  1.0 0.1085348117
H  H22  1  0.60000000  0.72600000  0.87560000  1.0 0.1085348117
H  H23  1  0.27400000  0.40000000  0.37560000  1.0 0.1085348117
H  H24  1  0.40000000  0.27400000  0.12440000  1.0 0.1085348117
H  H25  1  0.45030000  0.73270000  0.69630000  1.0 0.0804666381
H  H26  1  0.73270000  0.45030000  0.80370000  1.0 0.0804666381
H  H27  1  0.54970000  0.26730000  0.30370000  1.0 0.0804666381
H  H28  1  0.26730000  0.54970000  0.19630000  1.0 0.0804666381
H  H29  1  0.27030000  0.47490000  0.81610000  1.0 0.1002820624
H  H30  1  0.47490000  0.27030000  0.68390000  1.0 0.1002820624
H  H31  1  0.72970000  0.52510000  0.18390000  1.0 0.1002820624
H  H32  1  0.52510000  0.72970000  0.31610000  1.0 0.1002820624
H  H33  1  0.44770000  0.46750000  0.81560000  1.0 0.1002820624
H  H34  1  0.46750000  0.44770000  0.68440000  1.0 0.1002820624
H  H35  1  0.55230000  0.53250000  0.18440000  1.0 0.1002820624
H  H36  1  0.53250000  0.55230000  0.31560000  1.0 0.1002820624
H  H37  1  0.33390000  0.76090000  0.60280000  1.0 0.0804666381
H  H38  1  0.76090000  0.33390000  0.89720000  1.0 0.0804666381
H  H39  1  0.66610000  0.23910000  0.39720000  1.0 0.0804666381
H  H40  1  0.23910000  0.66610000  0.10280000  1.0 0.0804666381
H  H41  1  0.18310000  0.91270000  0.69280000  1.0 0.1002820624
H  H42  1  0.91270000  0.18310000  0.80720000  1.0 0.1002820624
H  H43  1  0.81690000  0.08730000  0.30720000  1.0 0.1002820624
H  H44  1  0.08730000  0.81690000  0.19280000  1.0 0.1002820624
H  H45  1  0.20650000  0.95050000  0.49380000  1.0 0.1085348117
H  H46  1  0.95050000  0.20650000  0.00620000  1.0 0.1085348117
H  H47  1  0.79350000  0.04950000  0.50620000  1.0 0.1085348117
H  H48  1  0.04950000  0.79350000  0.99380000  1.0 0.1085348117
H  H49  1  0.20490000  0.75890000  0.93200000  1.0 0.0883542457
H  H50  1  0.75890000  0.20490000  0.56800000  1.0 0.0883542457
H  H51  1  0.79510000  0.24110000  0.06800000  1.0 0.0883542457
H  H52  1  0.24110000  0.79510000  0.43200000  1.0 0.0883542457
H  H53  1  0.23520000  0.81660000  0.82210000  1.0 0.1002820624
H  H54  1  0.81660000  0.23520000  0.67790000  1.0 0.1002820624
H  H55  1  0.76480000  0.18340000  0.17790000  1.0 0.1002820624
H  H56  1  0.18340000  0.76480000  0.32210000  1.0 0.1002820624
H  H57  1  0.96960000  0.44960000  0.59600000  1.0 0.1002820624
H  H58  1  0.44960000  0.96960000  0.90400000  1.0 0.1002820624
H  H59  1  0.03040000  0.55040000  0.40400000  1.0 0.1002820624
H  H60  1  0.55040000  0.03040000  0.09600000  1.0 0.1002820624
H  H61  1  0.28740000  0.49880000  0.65950000  1.0 0.1002820624
H  H62  1  0.49880000  0.28740000  0.84050000  1.0 0.1002820624
H  H63  1  0.71260000  0.50120000  0.34050000  1.0 0.1002820624
H  H64  1  0.50120000  0.71260000  0.15950000  1.0 0.1002820624
H  H65  1  0.06350000  0.80590000  0.56050000  1.0 0.1085348117
H  H66  1  0.80590000  0.06350000  0.93950000  1.0 0.1085348117
H  H67  1  0.93650000  0.19410000  0.43950000  1.0 0.1085348117
H  H68  1  0.19410000  0.93650000  0.06050000  1.0 0.1085348117
H  H69  1  0.03300000  0.47800000  0.85070000  1.0 0.1085348117
H  H70  1  0.47800000  0.03300000  0.64930000  1.0 0.1085348117
H  H71  1  0.96700000  0.52200000  0.14930000  1.0 0.1085348117
H  H72  1  0.52200000  0.96700000  0.35070000  1.0 0.1085348117
H  H73  1  0.99880000  0.34740000  0.53360000  1.0 0.1085348117
H  H74  1  0.34740000  0.99880000  0.96640000  1.0 0.1085348117
H  H75  1  0.00120000  0.65260000  0.46640000  1.0 0.1085348117
H  H76  1  0.65260000  0.00120000  0.03360000  1.0 0.1085348117
H  H77  1  0.94170000  0.67790000  0.86290000  1.0 0.0804666381
H  H78  1  0.67790000  0.94170000  0.63710000  1.0 0.0804666381
H  H79  1  0.05830000  0.32210000  0.13710000  1.0 0.0804666381
H  H80  1  0.32210000  0.05830000  0.36290000  1.0 0.0804666381
H  H81  1  0.62030000  0.54830000  0.89280000  1.0 0.1002820624
H  H82  1  0.54830000  0.62030000  0.60720000  1.0 0.1002820624
H  H83  1  0.37970000  0.45170000  0.10720000  1.0 0.1002820624
H  H84  1  0.45170000  0.37970000  0.39280000  1.0 0.1002820624
H  H85  1  0.71870000  0.46410000  0.97890000  1.0 0.0883542457
H  H86  1  0.46410000  0.71870000  0.52110000  1.0 0.0883542457
H  H87  1  0.28130000  0.53590000  0.02110000  1.0 0.0883542457
H  H88  1  0.53590000  0.28130000  0.47890000  1.0 0.0883542457
H  H89  1  0.27850000  0.70430000  0.95050000  1.0 0.0883542457
H  H90  1  0.70430000  0.27850000  0.54950000  1.0 0.0883542457
H  H91  1  0.72150000  0.29570000  0.04950000  1.0 0.0883542457
H  H92  1  0.29570000  0.72150000  0.45050000  1.0 0.0883542457
H  H93  1  0.32270000  0.76070000  0.84700000  1.0 0.1085348117
H  H94  1  0.76070000  0.32270000  0.65300000  1.0 0.1085348117
H  H95  1  0.67730000  0.23930000  0.15300000  1.0 0.1085348117
H  H96  1  0.23930000  0.67730000  0.34700000  1.0 0.1085348117
C  C1  1  0.39810000  0.89090000  0.75070000  1.0 0.132571462
C  C2  1  0.89090000  0.39810000  0.74930000  1.0 0.132571462
C  C3  1  0.60190000  0.10910000  0.24930000  1.0 0.132571462
C  C4  1  0.10910000  0.60190000  0.25070000  1.0 0.132571462
C  C5  1  0.34530000  0.01630000  0.73930000  1.0 -0.0390838328
C  C6  1  0.01630000  0.34530000  0.76070000  1.0 -0.0498038603
C  C7  1  0.65470000  0.98370000  0.26070000  1.0 -0.0498038603
C  C8  1  0.98370000  0.65470000  0.23930000  1.0 -0.0498038603
C  C9  1  0.94160000  0.70020000  0.71900000  1.0 0.1412704023
C  C10  1  0.70020000  0.94160000  0.78100000  1.0 0.1412704023
C  C11  1  0.05840000  0.29980000  0.28100000  1.0 0.1412704023
C  C12  1  0.29980000  0.05840000  0.21900000  1.0 0.1412704023
C  C13  1  0.89310000  0.62370000  0.63870000  1.0 -0.0717050167
C  C14  1  0.62370000  0.89310000  0.86130000  1.0 -0.0717050167
C  C15  1  0.10690000  0.37630000  0.36130000  1.0 -0.0717050167
C  C16  1  0.37630000  0.10690000  0.13870000  1.0 -0.0717050167
C  C17  1  0.80110000  0.62910000  0.64870000  1.0 -0.0314806443
C  C18  1  0.62910000  0.80110000  0.85130000  1.0 -0.0314806443
C  C19  1  0.19890000  0.37090000  0.35130000  1.0 -0.0314806443
C  C20  1  0.37090000  0.19890000  0.14870000  1.0 -0.0314806443
C  C21  1  0.42700000  0.66540000  0.72700000  1.0 0.1412704023
C  C22  1  0.66540000  0.42700000  0.77300000  1.0 0.1412704023
C  C23  1  0.57300000  0.33460000  0.27300000  1.0 0.1412704023
C  C24  1  0.33460000  0.57300000  0.22700000  1.0 0.1412704023
C  C25  1  0.32860000  0.52720000  0.79040000  1.0 -0.0593458085
C  C26  1  0.52720000  0.32860000  0.70960000  1.0 -0.0593458085
C  C27  1  0.67140000  0.47280000  0.20960000  1.0 -0.0717050167
C  C28  1  0.47280000  0.67140000  0.29040000  1.0 -0.0593458085
C  C29  1  0.42750000  0.52470000  0.79110000  1.0 -0.0593458085
C  C30  1  0.52470000  0.42750000  0.70890000  1.0 -0.0593458085
C  C31  1  0.57250000  0.47530000  0.20890000  1.0 -0.0593458085
C  C32  1  0.47530000  0.57250000  0.29110000  1.0 -0.0593458085
C  C33  1  0.28430000  0.79410000  0.58410000  1.0 0.1412704023
C  C34  1  0.79410000  0.28430000  0.91590000  1.0 0.1412704023
C  C35  1  0.71570000  0.20590000  0.41590000  1.0 0.1412704023
C  C36  1  0.20590000  0.71570000  0.08410000  1.0 0.1412704023
C  C37  1  0.25630000  0.92010000  0.71390000  1.0 -0.0390838328
C  C38  1  0.92010000  0.25630000  0.78610000  1.0 -0.0390838328
C  C39  1  0.74370000  0.07990000  0.28610000  1.0 -0.0390838328
C  C40  1  0.07990000  0.74370000  0.21390000  1.0 -0.0390838328
C  C41  1  0.21770000  0.89430000  0.52540000  1.0 -0.0498038603
C  C42  1  0.89430000  0.21770000  0.97460000  1.0 -0.0498038603
C  C43  1  0.78230000  0.10570000  0.47460000  1.0 -0.0498038603
C  C44  1  0.10570000  0.78230000  0.02540000  1.0 -0.0498038603
C  C45  1  0.17850000  0.70690000  0.90300000  1.0 -0.0390838328
C  C46  1  0.70690000  0.17850000  0.59700000  1.0 -0.0390838328
C  C47  1  0.82150000  0.29310000  0.09700000  1.0 -0.0390838328
C  C48  1  0.29310000  0.82150000  0.40300000  1.0 -0.0390838328
C  C49  1  0.19850000  0.73910000  0.84320000  1.0 -0.0498038603
C  C50  1  0.73910000  0.19850000  0.65680000  1.0 -0.0498038603
C  C51  1  0.80150000  0.26090000  0.15680000  1.0 -0.0498038603
C  C52  1  0.26090000  0.80150000  0.34320000  1.0 -0.0498038603
C  C53  1  0.04050000  0.44910000  0.59830000  1.0 -0.0498038603
C  C54  1  0.44910000  0.04050000  0.90170000  1.0 -0.0498038603
C  C55  1  0.95950000  0.55090000  0.40170000  1.0 -0.0498038603
C  C56  1  0.55090000  0.95950000  0.09830000  1.0 -0.0498038603
C  C57  1  0.21390000  0.47850000  0.63410000  1.0 0.1181470187
C  C58  1  0.47850000  0.21390000  0.86590000  1.0 0.1181470187
C  C59  1  0.78610000  0.52150000  0.36590000  1.0 0.1181470187
C  C60  1  0.52150000  0.78610000  0.13410000  1.0 0.1181470187
C  C61  1  0.13900000  0.81560000  0.56240000  1.0 -0.0314806443
C  C62  1  0.81560000  0.13900000  0.93760000  1.0 -0.0314806443
C  C63  1  0.86100000  0.18440000  0.43760000  1.0 -0.0314806443
C  C64  1  0.18440000  0.86100000  0.06240000  1.0 -0.0314806443
C  C65  1  0.94050000  0.93310000  0.82270000  1.0 -0.1161774515
C  C66  1  0.93310000  0.94050000  0.67730000  1.0 -0.1161774515
C  C67  1  0.05950000  0.06690000  0.17730000  1.0 -0.1161774515
C  C68  1  0.06690000  0.05950000  0.32270000  1.0 -0.1161774515
C  C69  1  0.94830000  0.97130000  0.71460000  1.0 0.146362047
C  C70  1  0.97130000  0.94830000  0.78540000  1.0 0.146362047
C  C71  1  0.05170000  0.02870000  0.28540000  1.0 0.146362047
C  C72  1  0.02870000  0.05170000  0.21460000  1.0 0.146362047
C  C73  1  0.03270000  0.07310000  0.73780000  1.0 0.0574834229
C  C74  1  0.07310000  0.03270000  0.76220000  1.0 0.0574834229
C  C75  1  0.96730000  0.92690000  0.26220000  1.0 0.0574834229
C  C76  1  0.92690000  0.96730000  0.23780000  1.0 0.0574834229
C  C77  1  0.09100000  0.55400000  0.85960000  1.0 0.0312826227
C  C78  1  0.55400000  0.09100000  0.64040000  1.0 0.0312826227
C  C79  1  0.90900000  0.44600000  0.14040000  1.0 0.0312826227
C  C80  1  0.44600000  0.90900000  0.35960000  1.0 0.0312826227
C  C81  1  0.05320000  0.39160000  0.56510000  1.0 -0.1028677343
C  C82  1  0.39160000  0.05320000  0.93490000  1.0 -0.1028677343
C  C83  1  0.94680000  0.60840000  0.43490000  1.0 -0.1028677343
C  C84  1  0.60840000  0.94680000  0.06510000  1.0 -0.1028677343
C  C85  1  0.87240000  0.63460000  0.88140000  1.0 0.132571462
C  C86  1  0.63460000  0.87240000  0.61860000  1.0 0.132571462
C  C87  1  0.12760000  0.36540000  0.11860000  1.0 0.132571462
C  C88  1  0.36540000  0.12760000  0.38140000  1.0 0.132571462
C  C89  1  0.69890000  0.56490000  0.89710000  1.0 -0.0717050167
C  C90  1  0.56490000  0.69890000  0.60290000  1.0 -0.0717050167
C  C91  1  0.30110000  0.43510000  0.10290000  1.0 -0.0717050167
C  C92  1  0.43510000  0.30110000  0.39710000  1.0 -0.0717050167
C  C93  1  0.75320000  0.51900000  0.94460000  1.0 -0.0717050167
C  C94  1  0.51900000  0.75320000  0.55540000  1.0 -0.0717050167
C  C95  1  0.24680000  0.48100000  0.05540000  1.0 -0.0717050167
C  C96  1  0.48100000  0.24680000  0.44460000  1.0 -0.0717050167
C  C97  1  0.22590000  0.67110000  0.91530000  1.0 -0.0184818962
C  C98  1  0.67110000  0.22590000  0.58470000  1.0 -0.0184818962
C  C99  1  0.77410000  0.32890000  0.08470000  1.0 -0.0184818962
C  C100  1  0.32890000  0.77410000  0.41530000  1.0 -0.0184818962
C  C101  1  0.24960000  0.70080000  0.85900000  1.0 -0.0017493535
C  C102  1  0.70080000  0.24960000  0.64100000  1.0 -0.0017493535
C  C103  1  0.75040000  0.29920000  0.14100000  1.0 -0.0017493535
C  C104  1  0.29920000  0.75040000  0.35900000  1.0 -0.0017493535
N  N1  1  0.28830000  0.83930000  0.72340000  1.0 -0.429856406
N  N2  1  0.83930000  0.28830000  0.77660000  1.0 -0.429856406
N  N3  1  0.71170000  0.16070000  0.27660000  1.0 -0.429856406
N  N4  1  0.16070000  0.71170000  0.22340000  1.0 -0.429856406
N  N5  1  0.43670000  0.99870000  0.76250000  1.0 -0.429856406
N  N6  1  0.99870000  0.43670000  0.73750000  1.0 -0.429856406
N  N7  1  0.56330000  0.00130000  0.23750000  1.0 -0.429856406
N  N8  1  0.00130000  0.56330000  0.26250000  1.0 -0.429856406
N  N9  1  0.98440000  0.67080000  0.68390000  1.0 -0.4215544282
N  N10  1  0.67080000  0.98440000  0.81610000  1.0 -0.4215544282
N  N11  1  0.01560000  0.32920000  0.31610000  1.0 -0.4215544282
N  N12  1  0.32920000  0.01560000  0.18390000  1.0 -0.4215544282
N  N13  1  0.83440000  0.68340000  0.69940000  1.0 -0.429856406
N  N14  1  0.68340000  0.83440000  0.80060000  1.0 -0.429856406
N  N15  1  0.16560000  0.31660000  0.30060000  1.0 -0.429856406
N  N16  1  0.31660000  0.16560000  0.19940000  1.0 -0.429856406
N  N17  1  0.32580000  0.61540000  0.74770000  1.0 -0.429856406
N  N18  1  0.61540000  0.32580000  0.75230000  1.0 -0.429856406
N  N19  1  0.67420000  0.38460000  0.25230000  1.0 -0.429856406
N  N20  1  0.38460000  0.67420000  0.24770000  1.0 -0.429856406
N  N21  1  0.49340000  0.61600000  0.75170000  1.0 -0.3915805189
N  N22  1  0.61600000  0.49340000  0.74830000  1.0 -0.3915805189
N  N23  1  0.50660000  0.38400000  0.24830000  1.0 -0.3915805189
N  N24  1  0.38400000  0.50660000  0.25170000  1.0 -0.3915805189
N  N25  1  0.18390000  0.75350000  0.60220000  1.0 -0.374637988
N  N26  1  0.75350000  0.18390000  0.89780000  1.0 -0.374637988
N  N27  1  0.81610000  0.24650000  0.39780000  1.0 -0.374637988
N  N28  1  0.24650000  0.81610000  0.10220000  1.0 -0.374637988
N  N29  1  0.31430000  0.88310000  0.53880000  1.0 -0.4374034597
N  N30  1  0.88310000  0.31430000  0.96120000  1.0 -0.4374034597
N  N31  1  0.68570000  0.11690000  0.46120000  1.0 -0.4374034597
N  N32  1  0.11690000  0.68570000  0.03880000  1.0 -0.4374034597
N  N33  1  0.15330000  0.63330000  0.81820000  1.0 -0.3347162275
N  N34  1  0.63330000  0.15330000  0.68180000  1.0 -0.3347162275
N  N35  1  0.84670000  0.36670000  0.18180000  1.0 -0.3347162275
N  N36  1  0.36670000  0.84670000  0.31820000  1.0 -0.3347162275
N  N37  1  0.11260000  0.58460000  0.91530000  1.0 -0.3377386822
N  N38  1  0.58460000  0.11260000  0.58470000  1.0 -0.3377386822
N  N39  1  0.88740000  0.41540000  0.08470000  1.0 -0.3377386822
N  N40  1  0.41540000  0.88740000  0.41530000  1.0 -0.3377386822
N  N41  1  0.13950000  0.50850000  0.63650000  1.0 -0.3459290384
N  N42  1  0.50850000  0.13950000  0.86350000  1.0 -0.3459290384
N  N43  1  0.86050000  0.49150000  0.36350000  1.0 -0.3459290384
N  N44  1  0.49150000  0.86050000  0.13650000  1.0 -0.3459290384
N  N45  1  0.16680000  0.41100000  0.58760000  1.0 -0.1838263801
N  N46  1  0.41100000  0.16680000  0.91240000  1.0 -0.1838263801
N  N47  1  0.83320000  0.58900000  0.41240000  1.0 -0.1838263801
N  N48  1  0.58900000  0.83320000  0.08760000  1.0 -0.1838263801
N  N49  1  0.77550000  0.63950000  0.85550000  1.0 -0.4215544282
N  N50  1  0.63950000  0.77550000  0.64450000  1.0 -0.4215544282
N  N51  1  0.22450000  0.36050000  0.14450000  1.0 -0.4215544282
N  N52  1  0.36050000  0.22450000  0.35550000  1.0 -0.4215544282
N  N53  1  0.86610000  0.56450000  0.93540000  1.0 -0.429856406
N  N54  1  0.56450000  0.86610000  0.56460000  1.0 -0.429856406
N  N55  1  0.13390000  0.43550000  0.06460000  1.0 -0.429856406
N  N56  1  0.43550000  0.13390000  0.43540000  1.0 -0.429856406
N  N57  1  0.89480000  0.88860000  0.76540000  1.0 -0.0314806443
N  N58  1  0.88860000  0.89480000  0.73460000  1.0 -0.0314806443
N  N59  1  0.10520000  0.11140000  0.23460000  1.0 -0.0314806443
N  N60  1  0.11140000  0.10520000  0.26540000  1.0 -0.0314806443
N  N61  1  0.02640000  0.04560000  0.80480000  1.0 -0.2671596972
N  N62  1  0.04560000  0.02640000  0.69520000  1.0 -0.2671596972
N  N63  1  0.97360000  0.95440000  0.19520000  1.0 -0.2671596972
N  N64  1  0.95440000  0.97360000  0.30480000  1.0 -0.2671596972
