# DDEC6 charges by PACMAN v1.1 (https://github.com/mtap-research/PACMAN-charge/)
data_IGUKIG_ASR_pacman
_symmetry_space_group_name_H-M   'P 1'
_cell_length_a   10.00090000
_cell_length_b   15.47200000
_cell_length_c   20.80550000
_cell_angle_alpha   90.00000000
_cell_angle_beta   116.90300000
_cell_angle_gamma   90.00000000
_symmetry_Int_Tables_number   1
_chemical_formula_structural   CoH18C22N4O5
_chemical_formula_sum   'Co4 H72 C88 N16 O20'
_cell_volume   2870.90238779
_cell_formula_units_Z   4
loop_
 _symmetry_equiv_pos_site_id
 _symmetry_equiv_pos_as_xyz
  1  'x, y, z'
loop_
 _atom_site_type_symbol
 _atom_site_label
 _atom_site_symmetry_multiplicity
 _atom_site_fract_x
 _atom_site_fract_y
 _atom_site_fract_z
 _atom_site_occupancy
 _atom_site_charge
Co  Co1  1  0.41141000  0.79839000  0.32017000  1.0 0.8210448786
Co  Co2  1  0.58859000  0.79839000  0.17983000  1.0 0.8210448786
Co  Co3  1  0.58859000  0.20161000  0.67983000  1.0 0.8210448786
Co  Co4  1  0.41141000  0.20161000  0.82017000  1.0 0.8210448786
H  H1  1  0.95810000  0.78860000  0.32340000  1.0 0.1399771926
H  H2  1  0.04190000  0.78860000  0.17660000  1.0 0.1399771926
H  H3  1  0.28400000  0.86970000  0.51230000  1.0 0.1399771926
H  H4  1  0.71600000  0.86970000  0.98770000  1.0 0.1399771926
H  H5  1  0.85960000  0.86320000  0.48080000  1.0 0.1399771926
H  H6  1  0.14040000  0.86320000  0.01920000  1.0 0.1399771926
H  H7  1  0.59630000  0.96840000  0.36670000  1.0 0.1071153744
H  H8  1  0.40370000  0.96840000  0.13330000  1.0 0.1071153744
H  H9  1  0.57180000  0.11360000  0.35250000  1.0 0.1321984394
H  H10  1  0.42820000  0.11360000  0.14750000  1.0 0.1321984394
H  H11  1  0.13570000  0.07870000  0.22650000  1.0 0.1321984394
H  H12  1  0.86430000  0.07870000  0.27350000  1.0 0.1321984394
H  H13  1  0.17180000  0.93570000  0.24220000  1.0 0.1071153744
H  H14  1  0.82820000  0.93570000  0.25780000  1.0 0.1071153744
H  H15  1  0.11350000  0.24210000  0.22040000  1.0 0.1501605776
H  H16  1  0.88650000  0.24210000  0.27960000  1.0 0.1501605776
H  H17  1  0.19430000  0.21630000  0.17390000  1.0 0.1399771926
H  H18  1  0.80570000  0.21630000  0.32610000  1.0 0.1399771926
H  H19  1  0.22200000  0.30770000  0.21020000  1.0 0.1501605776
H  H20  1  0.77800000  0.30770000  0.28980000  1.0 0.1501605776
H  H21  1  0.58710000  0.29510000  0.44220000  1.0 0.1501605776
H  H22  1  0.41290000  0.29510000  0.05780000  1.0 0.1501605776
H  H23  1  0.62710000  0.38830000  0.47500000  1.0 0.1399771926
H  H24  1  0.37290000  0.38830000  0.02500000  1.0 0.1399771926
H  H25  1  0.70720000  0.35020000  0.43160000  1.0 0.1501605776
H  H26  1  0.29280000  0.35020000  0.06840000  1.0 0.1501605776
H  H27  1  0.63310000  0.52160000  0.45230000  1.0 0.1399771926
H  H28  1  0.36690000  0.52160000  0.04770000  1.0 0.1399771926
H  H29  1  0.61330000  0.66666667  0.43070000  1.0 0.117988748
H  H30  1  0.38670000  0.66666667  0.06930000  1.0 0.117988748
H  H31  1  0.28630000  0.62880000  0.25080000  1.0 0.117988748
H  H32  1  0.71370000  0.62880000  0.24920000  1.0 0.117988748
H  H33  1  0.31760000  0.48310000  0.26230000  1.0 0.1399771926
H  H34  1  0.68240000  0.48310000  0.23770000  1.0 0.1399771926
H  H35  1  0.05600000  0.92130000  0.58110000  1.0 0.3396031423
H  H36  1  0.94400000  0.92130000  0.91890000  1.0 0.3396031423
H  H37  1  0.04190000  0.21140000  0.67660000  1.0 0.1399771926
H  H38  1  0.95810000  0.21140000  0.82340000  1.0 0.1399771926
H  H39  1  0.71600000  0.13030000  0.48770000  1.0 0.1399771926
H  H40  1  0.28400000  0.13030000  0.01230000  1.0 0.1399771926
H  H41  1  0.14040000  0.13680000  0.51920000  1.0 0.1399771926
H  H42  1  0.85960000  0.13680000  0.98080000  1.0 0.1399771926
H  H43  1  0.40370000  0.03160000  0.63330000  1.0 0.1071153744
H  H44  1  0.59630000  0.03160000  0.86670000  1.0 0.1071153744
H  H45  1  0.42820000  0.88640000  0.64750000  1.0 0.1321984394
H  H46  1  0.57180000  0.88640000  0.85250000  1.0 0.1321984394
H  H47  1  0.86430000  0.92130000  0.77350000  1.0 0.1321984394
H  H48  1  0.13570000  0.92130000  0.72650000  1.0 0.1321984394
H  H49  1  0.82820000  0.06430000  0.75780000  1.0 0.1071153744
H  H50  1  0.17180000  0.06430000  0.74220000  1.0 0.1071153744
H  H51  1  0.88650000  0.75790000  0.77960000  1.0 0.1501605776
H  H52  1  0.11350000  0.75790000  0.72040000  1.0 0.1501605776
H  H53  1  0.80570000  0.78370000  0.82610000  1.0 0.1399771926
H  H54  1  0.19430000  0.78370000  0.67390000  1.0 0.1399771926
H  H55  1  0.77800000  0.69230000  0.78980000  1.0 0.1501605776
H  H56  1  0.22200000  0.69230000  0.71020000  1.0 0.1501605776
H  H57  1  0.41290000  0.70490000  0.55780000  1.0 0.1501605776
H  H58  1  0.58710000  0.70490000  0.94220000  1.0 0.1501605776
H  H59  1  0.37290000  0.61170000  0.52500000  1.0 0.1399771926
H  H60  1  0.62710000  0.61170000  0.97500000  1.0 0.1399771926
H  H61  1  0.29280000  0.64980000  0.56840000  1.0 0.1501605776
H  H62  1  0.70720000  0.64980000  0.93160000  1.0 0.1501605776
H  H63  1  0.36690000  0.47840000  0.54770000  1.0 0.1399771926
H  H64  1  0.63310000  0.47840000  0.95230000  1.0 0.1399771926
H  H65  1  0.38670000  0.33333333  0.56930000  1.0 0.117988748
H  H66  1  0.61330000  0.33333333  0.93070000  1.0 0.117988748
H  H67  1  0.71370000  0.37120000  0.74920000  1.0 0.117988748
H  H68  1  0.28630000  0.37120000  0.75080000  1.0 0.117988748
H  H69  1  0.68240000  0.51690000  0.73770000  1.0 0.1399771926
H  H70  1  0.31760000  0.51690000  0.76230000  1.0 0.1399771926
H  H71  1  0.94400000  0.07870000  0.41890000  1.0 0.3396031423
H  H72  1  0.05600000  0.07870000  0.08110000  1.0 0.3396031423
C  C1  1  0.72270000  0.80050000  0.34860000  1.0 0.5623048111
C  C2  1  0.27730000  0.80050000  0.15140000  1.0 0.5623048111
C  C3  1  0.88480000  0.81980000  0.39590000  1.0 -0.0078183765
C  C4  1  0.11520000  0.81980000  0.10410000  1.0 -0.0078183765
C  C5  1  0.98850000  0.80800000  0.37030000  1.0 -0.1519828276
C  C6  1  0.01150000  0.80800000  0.12970000  1.0 -0.1519828276
C  C7  1  0.13860000  0.82530000  0.41460000  1.0 0.0202916464
C  C8  1  0.86140000  0.82530000  0.08540000  1.0 0.0202916464
C  C9  1  0.18320000  0.85780000  0.48280000  1.0 -0.2095427053
C  C10  1  0.81680000  0.85780000  0.01720000  1.0 -0.2095427053
C  C11  1  0.07900000  0.87280000  0.50740000  1.0 0.2682904466
C  C12  1  0.92100000  0.87280000  0.99260000  1.0 0.2682904466
C  C13  1  0.93010000  0.85340000  0.46400000  1.0 -0.2563735382
C  C14  1  0.06990000  0.85340000  0.03600000  1.0 -0.2563735382
C  C15  1  0.25160000  0.81180000  0.38430000  1.0 0.5167294307
C  C16  1  0.74840000  0.81180000  0.11570000  1.0 0.5167294307
C  C17  1  0.50220000  0.99120000  0.33710000  1.0 0.0996850631
C  C18  1  0.49780000  0.99120000  0.16290000  1.0 0.0996850631
C  C19  1  0.48770000  0.07870000  0.32960000  1.0 -0.1731787609
C  C20  1  0.51230000  0.07870000  0.17040000  1.0 -0.1731787609
C  C21  1  0.35010000  0.11610000  0.28830000  1.0 0.0686652646
C  C22  1  0.64990000  0.11610000  0.21170000  1.0 0.0686652646
C  C23  1  0.23170000  0.05780000  0.25540000  1.0 -0.1937583522
C  C24  1  0.76830000  0.05780000  0.24460000  1.0 -0.1937583522
C  C25  1  0.25380000  0.97220000  0.26450000  1.0 0.0686652646
C  C26  1  0.74620000  0.97220000  0.23550000  1.0 0.0686652646
C  C27  1  0.33370000  0.21190000  0.28170000  1.0 0.2592195137
C  C28  1  0.66630000  0.21190000  0.21830000  1.0 0.2592195137
C  C29  1  0.20460000  0.24770000  0.21560000  1.0 -0.4972813861
C  C30  1  0.79540000  0.24770000  0.28440000  1.0 -0.4972813861
C  C31  1  0.49690000  0.38840000  0.36850000  1.0 0.243876317
C  C32  1  0.50310000  0.38840000  0.13150000  1.0 0.243876317
C  C33  1  0.61500000  0.35240000  0.43500000  1.0 -0.4902883233
C  C34  1  0.38500000  0.35240000  0.06500000  1.0 -0.4902883233
C  C35  1  0.48050000  0.48330000  0.36010000  1.0 0.0754703222
C  C36  1  0.51950000  0.48330000  0.13990000  1.0 0.0754703222
C  C37  1  0.56080000  0.54100000  0.40780000  1.0 -0.2030159723
C  C38  1  0.43920000  0.54100000  0.09220000  1.0 -0.2030159723
C  C39  1  0.54600000  0.62980000  0.39600000  1.0 0.0901646181
C  C40  1  0.45400000  0.62980000  0.10400000  1.0 0.0901646181
C  C41  1  0.36240000  0.60760000  0.29340000  1.0 0.0996850631
C  C42  1  0.63760000  0.60760000  0.20660000  1.0 0.0996850631
C  C43  1  0.37940000  0.51840000  0.30040000  1.0 -0.2030159723
C  C44  1  0.62060000  0.51840000  0.19960000  1.0 -0.2030159723
C  C45  1  0.27730000  0.19950000  0.65140000  1.0 0.5623048111
C  C46  1  0.72270000  0.19950000  0.84860000  1.0 0.5623048111
C  C47  1  0.11520000  0.18020000  0.60410000  1.0 -0.0078183765
C  C48  1  0.88480000  0.18020000  0.89590000  1.0 -0.0078183765
C  C49  1  0.01150000  0.19200000  0.62970000  1.0 -0.1519828276
C  C50  1  0.98850000  0.19200000  0.87030000  1.0 -0.1519828276
C  C51  1  0.86140000  0.17470000  0.58540000  1.0 0.0202916464
C  C52  1  0.13860000  0.17470000  0.91460000  1.0 0.0202916464
C  C53  1  0.81680000  0.14220000  0.51720000  1.0 -0.2095427053
C  C54  1  0.18320000  0.14220000  0.98280000  1.0 -0.2095427053
C  C55  1  0.92100000  0.12720000  0.49260000  1.0 0.2682904466
C  C56  1  0.07900000  0.12720000  0.00740000  1.0 0.2682904466
C  C57  1  0.06990000  0.14660000  0.53600000  1.0 -0.2563735382
C  C58  1  0.93010000  0.14660000  0.96400000  1.0 -0.2563735382
C  C59  1  0.74840000  0.18820000  0.61570000  1.0 0.5167294307
C  C60  1  0.25160000  0.18820000  0.88430000  1.0 0.5167294307
C  C61  1  0.49780000  0.00880000  0.66290000  1.0 0.0996850631
C  C62  1  0.50220000  0.00880000  0.83710000  1.0 0.0996850631
C  C63  1  0.51230000  0.92130000  0.67040000  1.0 -0.1731787609
C  C64  1  0.48770000  0.92130000  0.82960000  1.0 -0.1731787609
C  C65  1  0.64990000  0.88390000  0.71170000  1.0 0.0686652646
C  C66  1  0.35010000  0.88390000  0.78830000  1.0 0.0686652646
C  C67  1  0.76830000  0.94220000  0.74460000  1.0 -0.1937583522
C  C68  1  0.23170000  0.94220000  0.75540000  1.0 -0.1937583522
C  C69  1  0.74620000  0.02780000  0.73550000  1.0 0.0686652646
C  C70  1  0.25380000  0.02780000  0.76450000  1.0 0.0686652646
C  C71  1  0.66630000  0.78810000  0.71830000  1.0 0.2592195137
C  C72  1  0.33370000  0.78810000  0.78170000  1.0 0.2592195137
C  C73  1  0.79540000  0.75230000  0.78440000  1.0 -0.4972813861
C  C74  1  0.20460000  0.75230000  0.71560000  1.0 -0.4972813861
C  C75  1  0.50310000  0.61160000  0.63150000  1.0 0.243876317
C  C76  1  0.49690000  0.61160000  0.86850000  1.0 0.243876317
C  C77  1  0.38500000  0.64760000  0.56500000  1.0 -0.4902883233
C  C78  1  0.61500000  0.64760000  0.93500000  1.0 -0.4902883233
C  C79  1  0.51950000  0.51670000  0.63990000  1.0 0.0754703222
C  C80  1  0.48050000  0.51670000  0.86010000  1.0 0.0754703222
C  C81  1  0.43920000  0.45900000  0.59220000  1.0 -0.2030159723
C  C82  1  0.56080000  0.45900000  0.90780000  1.0 -0.2030159723
C  C83  1  0.45400000  0.37020000  0.60400000  1.0 0.0901646181
C  C84  1  0.54600000  0.37020000  0.89600000  1.0 0.0901646181
C  C85  1  0.63760000  0.39240000  0.70660000  1.0 0.0996850631
C  C86  1  0.36240000  0.39240000  0.79340000  1.0 0.0996850631
C  C87  1  0.62060000  0.48160000  0.69960000  1.0 -0.2030159723
C  C88  1  0.37940000  0.48160000  0.80040000  1.0 -0.2030159723
N  N1  1  0.38860000  0.93700000  0.30440000  1.0 -0.2340650992
N  N2  1  0.61140000  0.93700000  0.19560000  1.0 -0.2340650992
N  N3  1  0.43000000  0.25310000  0.33110000  1.0 -0.2404312143
N  N4  1  0.57000000  0.25310000  0.16890000  1.0 -0.2404312143
N  N5  1  0.41150000  0.34450000  0.32040000  1.0 -0.2030159723
N  N6  1  0.58850000  0.34450000  0.17960000  1.0 -0.2030159723
N  N7  1  0.44210000  0.66170000  0.33930000  1.0 -0.2095427053
N  N8  1  0.55790000  0.66170000  0.16070000  1.0 -0.2095427053
N  N9  1  0.61140000  0.06300000  0.69560000  1.0 -0.2340650992
N  N10  1  0.38860000  0.06300000  0.80440000  1.0 -0.2340650992
N  N11  1  0.57000000  0.74690000  0.66890000  1.0 -0.2404312143
N  N12  1  0.43000000  0.74690000  0.83110000  1.0 -0.2404312143
N  N13  1  0.58850000  0.65550000  0.67960000  1.0 -0.2095427053
N  N14  1  0.41150000  0.65550000  0.82040000  1.0 -0.2030159723
N  N15  1  0.55790000  0.33830000  0.66070000  1.0 -0.2095427053
N  N16  1  0.44210000  0.33830000  0.83930000  1.0 -0.2095427053
O  O1  1  0.63460000  0.81340000  0.37610000  1.0 -0.5305611478
O  O2  1  0.36540000  0.81340000  0.12390000  1.0 -0.5305611478
O  O3  1  0.68250000  0.77520000  0.28640000  1.0 -0.5482475595
O  O4  1  0.31750000  0.77520000  0.21360000  1.0 -0.5482475595
O  O5  1  0.20360000  0.79070000  0.32080000  1.0 -0.5078127818
O  O6  1  0.79640000  0.79070000  0.17920000  1.0 -0.5078127818
O  O7  1  0.38770000  0.82520000  0.42430000  1.0 -0.5305611478
O  O8  1  0.61230000  0.82520000  0.07570000  1.0 -0.5305611478
O  O9  1  0.12820000  0.90760000  0.57470000  1.0 -0.4366580383
O  O10  1  0.87180000  0.90760000  0.92530000  1.0 -0.4366580383
O  O11  1  0.36540000  0.18660000  0.62390000  1.0 -0.5305611478
O  O12  1  0.63460000  0.18660000  0.87610000  1.0 -0.5305611478
O  O13  1  0.31750000  0.22480000  0.71360000  1.0 -0.5482475595
O  O14  1  0.68250000  0.22480000  0.78640000  1.0 -0.5482475595
O  O15  1  0.79640000  0.20930000  0.67920000  1.0 -0.5078127818
O  O16  1  0.20360000  0.20930000  0.82080000  1.0 -0.5078127818
O  O17  1  0.61230000  0.17480000  0.57570000  1.0 -0.5305611478
O  O18  1  0.38770000  0.17480000  0.92430000  1.0 -0.5305611478
O  O19  1  0.87180000  0.09240000  0.42530000  1.0 -0.4366580383
O  O20  1  0.12820000  0.09240000  0.07470000  1.0 -0.4366580383
