# DDEC6 charges by PACMAN v1.1 (https://github.com/mtap-research/PACMAN-charge/)
data_IGUTEK_FSR_pacman
_symmetry_space_group_name_H-M   'P 1'
_cell_length_a   9.31519000
_cell_length_b   9.31519000
_cell_length_c   9.31519000
_cell_angle_alpha   93.25050000
_cell_angle_beta   93.25050000
_cell_angle_gamma   93.25050000
_symmetry_Int_Tables_number   1
_chemical_formula_structural   AlPO4
_chemical_formula_sum   'Al6 P6 O24'
_cell_volume   804.24914009
_cell_formula_units_Z   6
loop_
 _symmetry_equiv_pos_site_id
 _symmetry_equiv_pos_as_xyz
  1  'x, y, z'
loop_
 _atom_site_type_symbol
 _atom_site_label
 _atom_site_symmetry_multiplicity
 _atom_site_fract_x
 _atom_site_fract_y
 _atom_site_fract_z
 _atom_site_occupancy
 _atom_site_charge
Al  Al1  1  0.66666667  0.13298000  0.89899000  1.0 1.5130400654
Al  Al2  1  0.13298000  0.89899000  0.66666667  1.0 1.5130400654
Al  Al3  1  0.89899000  0.66666667  0.13298000  1.0 1.5130400654
Al  Al4  1  0.33329000  0.86702000  0.10101000  1.0 1.5165882823
Al  Al5  1  0.86702000  0.10101000  0.33329000  1.0 1.5130400654
Al  Al6  1  0.10101000  0.33329000  0.86702000  1.0 1.5130400654
P  P1  1  0.86694000  0.33342000  0.10033000  1.0 1.6043616053
P  P2  1  0.33342000  0.10033000  0.86694000  1.0 1.6073694345
P  P3  1  0.10033000  0.86694000  0.33342000  1.0 1.6073694345
P  P4  1  0.13306000  0.66658000  0.89967000  1.0 1.6073694345
P  P5  1  0.66658000  0.89967000  0.13306000  1.0 1.6043616053
P  P6  1  0.89967000  0.13306000  0.66658000  1.0 1.6073694345
O  O1  1  0.72560000  0.27310000  0.99890000  1.0 -0.8004480286
O  O2  1  0.27310000  0.99890000  0.72560000  1.0 -0.8004480286
O  O3  1  0.99890000  0.72560000  0.27310000  1.0 -0.8004480286
O  O4  1  0.27440000  0.72690000  0.00110000  1.0 -0.8004480286
O  O5  1  0.72690000  0.00110000  0.27440000  1.0 -0.8004480286
O  O6  1  0.00110000  0.27440000  0.72690000  1.0 -0.8004480286
O  O7  1  0.84760000  0.50130000  0.15180000  1.0 -0.7323053006
O  O8  1  0.50130000  0.15180000  0.84760000  1.0 -0.7323053006
O  O9  1  0.15180000  0.84760000  0.50130000  1.0 -0.7323053006
O  O10  1  0.15240000  0.49870000  0.84820000  1.0 -0.7323053006
O  O11  1  0.49870000  0.84820000  0.15240000  1.0 -0.7323053006
O  O12  1  0.84820000  0.15240000  0.49870000  1.0 -0.7352608326
O  O13  1  0.01170000  0.31860000  0.00960000  1.0 -0.8337219241
O  O14  1  0.31860000  0.00960000  0.01170000  1.0 -0.8337219241
O  O15  1  0.00960000  0.01170000  0.31860000  1.0 -0.8357967916
O  O16  1  0.98830000  0.68140000  0.99040000  1.0 -0.8337219241
O  O17  1  0.68140000  0.99040000  0.98830000  1.0 -0.8337219241
O  O18  1  0.99040000  0.98830000  0.68140000  1.0 -0.8357967916
O  O19  1  0.88250000  0.24370000  0.24490000  1.0 -0.7523387952
O  O20  1  0.24370000  0.24490000  0.88250000  1.0 -0.7523387952
O  O21  1  0.24490000  0.88250000  0.24370000  1.0 -0.7523387952
O  O22  1  0.11750000  0.75630000  0.75510000  1.0 -0.7523387952
O  O23  1  0.75630000  0.75510000  0.11750000  1.0 -0.7523387952
O  O24  1  0.75510000  0.11750000  0.75630000  1.0 -0.7523387952
