# DDEC6 charges by PACMAN v1.1 (https://github.com/mtap-research/PACMAN-charge/)
data_IHOTEG_FSR_pacman
_symmetry_space_group_name_H-M   'P 1'
_cell_length_a   17.47490000
_cell_length_b   17.47490000
_cell_length_c   17.47490000
_cell_angle_alpha   96.84870000
_cell_angle_beta   96.84870000
_cell_angle_gamma   139.59700000
_symmetry_Int_Tables_number   1
_chemical_formula_structural   Mg5H26(C8O9)2
_chemical_formula_sum   'Mg20 H104 C64 O72'
_cell_volume   3246.03339883
_cell_formula_units_Z   4
loop_
 _symmetry_equiv_pos_site_id
 _symmetry_equiv_pos_as_xyz
  1  'x, y, z'
loop_
 _atom_site_type_symbol
 _atom_site_label
 _atom_site_symmetry_multiplicity
 _atom_site_fract_x
 _atom_site_fract_y
 _atom_site_fract_z
 _atom_site_occupancy
 _atom_site_charge
Mg  Mg1  1  0.75493000  0.91744000  0.42217000  1.0 1.3679062148
Mg  Mg2  1  0.49527000  0.33276000  0.57783000  1.0 1.3679062148
Mg  Mg3  1  0.58276000  0.50493000  0.33749000  1.0 1.3679062148
Mg  Mg4  1  0.16744000  0.24527000  0.66251000  1.0 1.3679062148
Mg  Mg5  1  0.49507000  0.83256000  0.07783000  1.0 1.3679062148
Mg  Mg6  1  0.75473000  0.41724000  0.92217000  1.0 1.3679062148
Mg  Mg7  1  0.66724000  0.24507000  0.16251000  1.0 1.3679062148
Mg  Mg8  1  0.08256000  0.50473000  0.83749000  1.0 1.3679062148
Mg  Mg9  1  0.62500000  0.87500000  0.25000000  1.0 1.3840530236
Mg  Mg10  1  0.62500000  0.37500000  0.75000000  1.0 1.3840530236
Mg  Mg11  1  0.62500000  0.37500000  0.25000000  1.0 1.3840530236
Mg  Mg12  1  0.12500000  0.37500000  0.75000000  1.0 1.3840530236
Mg  Mg13  1  0.81147000  0.78674000  0.42741000  1.0 1.3863579054
Mg  Mg14  1  0.35933000  0.38406000  0.57259000  1.0 1.3863579054
Mg  Mg15  1  0.63406000  0.56147000  0.52473000  1.0 1.3863579054
Mg  Mg16  1  0.03674000  0.10933000  0.47527000  1.0 1.3863579054
Mg  Mg17  1  0.43853000  0.96326000  0.07259000  1.0 1.3863579054
Mg  Mg18  1  0.89067000  0.36594000  0.92741000  1.0 1.3863579054
Mg  Mg19  1  0.61594000  0.18853000  0.97527000  1.0 1.3863579054
Mg  Mg20  1  0.21326000  0.64067000  0.02473000  1.0 1.3863579054
H  H1  1  0.86100000  0.91700000  0.36400000  1.0 0.3941591998
H  H2  1  0.55300000  0.49700000  0.63600000  1.0 0.3941591998
H  H3  1  0.74700000  0.61100000  0.44400000  1.0 0.3941591998
H  H4  1  0.16700000  0.30300000  0.55600000  1.0 0.3941591998
H  H5  1  0.38900000  0.83300000  0.13600000  1.0 0.3941591998
H  H6  1  0.69700000  0.25300000  0.86400000  1.0 0.3941591998
H  H7  1  0.50300000  0.13900000  0.05600000  1.0 0.3941591998
H  H8  1  0.08300000  0.44700000  0.94400000  1.0 0.3941591998
H  H9  1  0.77250000  0.09340000  0.55470000  1.0 0.1710530924
H  H10  1  0.53870000  0.21780000  0.44530000  1.0 0.1710530924
H  H11  1  0.46780000  0.52250000  0.17910000  1.0 0.1710530924
H  H12  1  0.34340000  0.28870000  0.82090000  1.0 0.1710530924
H  H13  1  0.47750000  0.65660000  0.94530000  1.0 0.1710530924
H  H14  1  0.71130000  0.53220000  0.05470000  1.0 0.1710530924
H  H15  1  0.78220000  0.22750000  0.32090000  1.0 0.1710530924
H  H16  1  0.90660000  0.46130000  0.67910000  1.0 0.1710530924
H  H17  1  0.89120000  0.23160000  0.61900000  1.0 0.1612109976
H  H18  1  0.61260000  0.27220000  0.38100000  1.0 0.1612109976
H  H19  1  0.52220000  0.64120000  0.15960000  1.0 0.1612109976
H  H20  1  0.48160000  0.36260000  0.84040000  1.0 0.1612109976
H  H21  1  0.35880000  0.51840000  0.88100000  1.0 0.1612109976
H  H22  1  0.63740000  0.47780000  0.11900000  1.0 0.1612109976
H  H23  1  0.72780000  0.10880000  0.34040000  1.0 0.1612109976
H  H24  1  0.76840000  0.38740000  0.65960000  1.0 0.1612109976
H  H25  1  0.87670000  0.20860000  0.52410000  1.0 0.1771000494
H  H26  1  0.68450000  0.35260000  0.47590000  1.0 0.1771000494
H  H27  1  0.60260000  0.62670000  0.16810000  1.0 0.1771000494
H  H28  1  0.45860000  0.43450000  0.83190000  1.0 0.1771000494
H  H29  1  0.37330000  0.54140000  0.97590000  1.0 0.1771000494
H  H30  1  0.56550000  0.39740000  0.02410000  1.0 0.1771000494
H  H31  1  0.64740000  0.12330000  0.33190000  1.0 0.1771000494
H  H32  1  0.79140000  0.31550000  0.66810000  1.0 0.1771000494
H  H33  1  0.76050000  0.93540000  0.61250000  1.0 0.1612109976
H  H34  1  0.32290000  0.14800000  0.38750000  1.0 0.1612109976
H  H35  1  0.39800000  0.51050000  0.32510000  1.0 0.1612109976
H  H36  1  0.18540000  0.07290000  0.67490000  1.0 0.1612109976
H  H37  1  0.48950000  0.81460000  0.88750000  1.0 0.1612109976
H  H38  1  0.92710000  0.60200000  0.11250000  1.0 0.1612109976
H  H39  1  0.85200000  0.23950000  0.17490000  1.0 0.1612109976
H  H40  1  0.06460000  0.67710000  0.82510000  1.0 0.1612109976
H  H41  1  0.61210000  0.80790000  0.58300000  1.0 0.1710530924
H  H42  1  0.22490000  0.02910000  0.41700000  1.0 0.1710530924
H  H43  1  0.27910000  0.36210000  0.30420000  1.0 0.1710530924
H  H44  1  0.05790000  0.97490000  0.69580000  1.0 0.1710530924
H  H45  1  0.63790000  0.94210000  0.91700000  1.0 0.1710530924
H  H46  1  0.02510000  0.72090000  0.08300000  1.0 0.1710530924
H  H47  1  0.97090000  0.38790000  0.19580000  1.0 0.1710530924
H  H48  1  0.19210000  0.77510000  0.80420000  1.0 0.1710530924
H  H49  1  0.69880000  0.83710000  0.66070000  1.0 0.1710530924
H  H50  1  0.17640000  0.03810000  0.33930000  1.0 0.1710530924
H  H51  1  0.28810000  0.44880000  0.36170000  1.0 0.1710530924
H  H52  1  0.08710000  0.92640000  0.63830000  1.0 0.1710530924
H  H53  1  0.55120000  0.91290000  0.83930000  1.0 0.1710530924
H  H54  1  0.07360000  0.71190000  0.16070000  1.0 0.1710530924
H  H55  1  0.96190000  0.30120000  0.13830000  1.0 0.1710530924
H  H56  1  0.16290000  0.82360000  0.86170000  1.0 0.1710530924
H  H57  1  0.39690000  0.77020000  0.43510000  1.0 0.1612109976
H  H58  1  0.33510000  0.96180000  0.56490000  1.0 0.1612109976
H  H59  1  0.21180000  0.14690000  0.12670000  1.0 0.1612109976
H  H60  1  0.02020000  0.08510000  0.87330000  1.0 0.1612109976
H  H61  1  0.85310000  0.97980000  0.06490000  1.0 0.1612109976
H  H62  1  0.91490000  0.78820000  0.93510000  1.0 0.1612109976
H  H63  1  0.03820000  0.60310000  0.37330000  1.0 0.1612109976
H  H64  1  0.22980000  0.66490000  0.62670000  1.0 0.1612109976
H  H65  1  0.51560000  0.91530000  0.48830000  1.0 0.1612109976
H  H66  1  0.42700000  0.02730000  0.51170000  1.0 0.1612109976
H  H67  1  0.27730000  0.26560000  0.10030000  1.0 0.1612109976
H  H68  1  0.16530000  0.17700000  0.89970000  1.0 0.1612109976
H  H69  1  0.73440000  0.83470000  0.01170000  1.0 0.1612109976
H  H70  1  0.82300000  0.72270000  0.98830000  1.0 0.1612109976
H  H71  1  0.97270000  0.48440000  0.39970000  1.0 0.1612109976
H  H72  1  0.08470000  0.57300000  0.60030000  1.0 0.1612109976
H  H73  1  0.43450000  0.87160000  0.39910000  1.0 0.1612109976
H  H74  1  0.47250000  0.03540000  0.60090000  1.0 0.1612109976
H  H75  1  0.28540000  0.18450000  0.06290000  1.0 0.1612109976
H  H76  1  0.12160000  0.22250000  0.93710000  1.0 0.1612109976
H  H77  1  0.81550000  0.87840000  0.10090000  1.0 0.1612109976
H  H78  1  0.77750000  0.71460000  0.89910000  1.0 0.1612109976
H  H79  1  0.96460000  0.56550000  0.43710000  1.0 0.1612109976
H  H80  1  0.12840000  0.52750000  0.56290000  1.0 0.1612109976
H  H81  1  0.98900000  0.19570000  0.25650000  1.0 0.1612109976
H  H82  1  0.93920000  0.73250000  0.74350000  1.0 0.1612109976
H  H83  1  0.98250000  0.73900000  0.29330000  1.0 0.1612109976
H  H84  1  0.44570000  0.68920000  0.70670000  1.0 0.1612109976
H  H85  1  0.26100000  0.55430000  0.24350000  1.0 0.1612109976
H  H86  1  0.31080000  0.01750000  0.75650000  1.0 0.1612109976
H  H87  1  0.26750000  0.01100000  0.20670000  1.0 0.1612109976
H  H88  1  0.80430000  0.06080000  0.79330000  1.0 0.1612109976
H  H89  1  0.85170000  0.12290000  0.23980000  1.0 0.1514913832
H  H90  1  0.88310000  0.61190000  0.76020000  1.0 0.1514913832
H  H91  1  0.86190000  0.60170000  0.22880000  1.0 0.1514913832
H  H92  1  0.37290000  0.63310000  0.77120000  1.0 0.1514913832
H  H93  1  0.39830000  0.62710000  0.26020000  1.0 0.1514913832
H  H94  1  0.36690000  0.13810000  0.73980000  1.0 0.1514913832
H  H95  1  0.38810000  0.14830000  0.27120000  1.0 0.1514913832
H  H96  1  0.87710000  0.11690000  0.72880000  1.0 0.1514913832
H  H97  1  0.96820000  0.25780000  0.30780000  1.0 0.1612109976
H  H98  1  0.95000000  0.66040000  0.69220000  1.0 0.1612109976
H  H99  1  0.91040000  0.71820000  0.21040000  1.0 0.1612109976
H  H100  1  0.50780000  0.70000000  0.78960000  1.0 0.1612109976
H  H101  1  0.28180000  0.49220000  0.19220000  1.0 0.1612109976
H  H102  1  0.30000000  0.08960000  0.80780000  1.0 0.1612109976
H  H103  1  0.33960000  0.03180000  0.28960000  1.0 0.1612109976
H  H104  1  0.74220000  0.05000000  0.71040000  1.0 0.1612109976
C  C1  1  0.93350000  0.15390000  0.57980000  1.0 0.7471343373
C  C2  1  0.57410000  0.35370000  0.42020000  1.0 0.7471343373
C  C3  1  0.60370000  0.68350000  0.27960000  1.0 0.7471343373
C  C4  1  0.40390000  0.32410000  0.72040000  1.0 0.7471343373
C  C5  1  0.31650000  0.59610000  0.92020000  1.0 0.7471343373
C  C6  1  0.67590000  0.39630000  0.07980000  1.0 0.7471343373
C  C7  1  0.64630000  0.06650000  0.22040000  1.0 0.7471343373
C  C8  1  0.84610000  0.42590000  0.77960000  1.0 0.7471343373
C  C9  1  0.86210000  0.17370000  0.56840000  1.0 -0.6207555439
C  C10  1  0.60530000  0.29370000  0.43160000  1.0 -0.6207555439
C  C11  1  0.54370000  0.61210000  0.18840000  1.0 -0.6207555439
C  C12  1  0.42370000  0.35530000  0.81160000  1.0 -0.6207555439
C  C13  1  0.38790000  0.57630000  0.93160000  1.0 -0.6207555439
C  C14  1  0.64470000  0.45630000  0.06840000  1.0 -0.6207555439
C  C15  1  0.70630000  0.13790000  0.31160000  1.0 -0.6207555439
C  C16  1  0.82630000  0.39470000  0.68840000  1.0 -0.6207555439
C  C17  1  0.70300000  0.78500000  0.55360000  1.0 0.7310456243
C  C18  1  0.23140000  0.14940000  0.44640000  1.0 0.7310456243
C  C19  1  0.39940000  0.45300000  0.41800000  1.0 0.7310456243
C  C20  1  0.03500000  0.98140000  0.58200000  1.0 0.7310456243
C  C21  1  0.54700000  0.96500000  0.94640000  1.0 0.7310456243
C  C22  1  0.01860000  0.60060000  0.05360000  1.0 0.7310456243
C  C23  1  0.85060000  0.29700000  0.08200000  1.0 0.7310456243
C  C24  1  0.21500000  0.76860000  0.91800000  1.0 0.7310456243
C  C25  1  0.69270000  0.84640000  0.60690000  1.0 -0.6262129674
C  C26  1  0.23950000  0.08580000  0.39310000  1.0 -0.6262129674
C  C27  1  0.33580000  0.44270000  0.34630000  1.0 -0.6262129674
C  C28  1  0.09640000  0.98950000  0.65370000  1.0 -0.6262129674
C  C29  1  0.55730000  0.90360000  0.89310000  1.0 -0.6262129674
C  C30  1  0.01050000  0.66420000  0.10690000  1.0 -0.6262129674
C  C31  1  0.91420000  0.30730000  0.15370000  1.0 -0.6262129674
C  C32  1  0.15360000  0.76050000  0.84630000  1.0 -0.6262129674
C  C33  1  0.54830000  0.86810000  0.39720000  1.0 0.7100080867
C  C34  1  0.47090000  0.15110000  0.60280000  1.0 0.7100080867
C  C35  1  0.40110000  0.29830000  0.18020000  1.0 0.7100080867
C  C36  1  0.11810000  0.22090000  0.81980000  1.0 0.7100080867
C  C37  1  0.70170000  0.88190000  0.10280000  1.0 0.7100080867
C  C38  1  0.77910000  0.59890000  0.89720000  1.0 0.7100080867
C  C39  1  0.84890000  0.45170000  0.31980000  1.0 0.7100080867
C  C40  1  0.13190000  0.52910000  0.68020000  1.0 0.7100080867
C  C41  1  0.46680000  0.85520000  0.43300000  1.0 -0.6023227218
C  C42  1  0.42220000  0.03380000  0.56700000  1.0 -0.6023227218
C  C43  1  0.28380000  0.21680000  0.11160000  1.0 -0.6023227218
C  C44  1  0.10520000  0.17220000  0.88840000  1.0 -0.6023227218
C  C45  1  0.78320000  0.89480000  0.06700000  1.0 -0.6023227218
C  C46  1  0.82780000  0.71620000  0.93300000  1.0 -0.6023227218
C  C47  1  0.96620000  0.53320000  0.38840000  1.0 -0.6023227218
C  C48  1  0.14480000  0.57780000  0.61160000  1.0 -0.6023227218
C  C49  1  0.91370000  0.12000000  0.34350000  1.0 0.7310456243
C  C50  1  0.77650000  0.57020000  0.65650000  1.0 0.7310456243
C  C51  1  0.82020000  0.66370000  0.29370000  1.0 0.7310456243
C  C52  1  0.37000000  0.52650000  0.70630000  1.0 0.7310456243
C  C53  1  0.33630000  0.63000000  0.15650000  1.0 0.7310456243
C  C54  1  0.47350000  0.17980000  0.84350000  1.0 0.7310456243
C  C55  1  0.42980000  0.08630000  0.20630000  1.0 0.7310456243
C  C56  1  0.88000000  0.22350000  0.79370000  1.0 0.7310456243
C  C57  1  0.93220000  0.17910000  0.28170000  1.0 -0.6123203616
C  C58  1  0.89740000  0.65050000  0.71830000  1.0 -0.6123203616
C  C59  1  0.90050000  0.68220000  0.25310000  1.0 -0.6123203616
C  C60  1  0.42910000  0.64740000  0.74690000  1.0 -0.6123203616
C  C61  1  0.31780000  0.57090000  0.21830000  1.0 -0.6123203616
C  C62  1  0.35260000  0.09950000  0.78170000  1.0 -0.6123203616
C  C63  1  0.34950000  0.06780000  0.24690000  1.0 -0.6123203616
C  C64  1  0.82090000  0.10260000  0.75310000  1.0 -0.6123203616
O  O1  1  0.90684000  0.08094000  0.52238000  1.0 -0.6586837004
O  O2  1  0.55856000  0.38446000  0.47762000  1.0 -0.6586837004
O  O3  1  0.63446000  0.65684000  0.32590000  1.0 -0.6586837004
O  O4  1  0.33094000  0.30856000  0.67410000  1.0 -0.6586837004
O  O5  1  0.34316000  0.66906000  0.97762000  1.0 -0.6586837004
O  O6  1  0.69144000  0.36554000  0.02238000  1.0 -0.6586837004
O  O7  1  0.61554000  0.09316000  0.17410000  1.0 -0.6586837004
O  O8  1  0.91906000  0.44144000  0.82590000  1.0 -0.6586837004
O  O9  1  0.02260000  0.21800000  0.64660000  1.0 -0.7131131272
O  O10  1  0.57140000  0.37600000  0.35340000  1.0 -0.7131131272
O  O11  1  0.62600000  0.77260000  0.30460000  1.0 -0.7131131272
O  O12  1  0.46800000  0.32140000  0.69540000  1.0 -0.7131131272
O  O13  1  0.22740000  0.53200000  0.85340000  1.0 -0.7131131272
O  O14  1  0.67860000  0.37400000  0.14660000  1.0 -0.7131131272
O  O15  1  0.62400000  0.97740000  0.19540000  1.0 -0.7131131272
O  O16  1  0.78200000  0.42860000  0.80460000  1.0 -0.7131131272
O  O17  1  0.72967000  0.81136000  0.48983000  1.0 -0.6840255241
O  O18  1  0.32153000  0.23984000  0.51017000  1.0 -0.6840255241
O  O19  1  0.48984000  0.47967000  0.41831000  1.0 -0.6840255241
O  O20  1  0.06136000  0.07153000  0.58169000  1.0 -0.6840255241
O  O21  1  0.52033000  0.93864000  0.01017000  1.0 -0.6840255241
O  O22  1  0.92847000  0.51016000  0.98983000  1.0 -0.6840255241
O  O23  1  0.76016000  0.27033000  0.08169000  1.0 -0.6840255241
O  O24  1  0.18864000  0.67847000  0.91831000  1.0 -0.6840255241
O  O25  1  0.69360000  0.71570000  0.57790000  1.0 -0.5926445405
O  O26  1  0.13780000  0.11570000  0.42210000  1.0 -0.5926445405
O  O27  1  0.36570000  0.44360000  0.47790000  1.0 -0.5926445405
O  O28  1  0.96570000  0.88780000  0.52210000  1.0 -0.5926445405
O  O29  1  0.55640000  0.03430000  0.92210000  1.0 -0.5926445405
O  O30  1  0.11220000  0.63430000  0.07790000  1.0 -0.5926445405
O  O31  1  0.88430000  0.30640000  0.02210000  1.0 -0.5926445405
O  O32  1  0.28430000  0.86220000  0.97790000  1.0 -0.5926445405
O  O33  1  0.62450000  0.88680000  0.44370000  1.0 -0.6586837004
O  O34  1  0.44310000  0.18080000  0.55630000  1.0 -0.6586837004
O  O35  1  0.43080000  0.37450000  0.23770000  1.0 -0.6586837004
O  O36  1  0.13680000  0.19310000  0.76230000  1.0 -0.6586837004
O  O37  1  0.62550000  0.86320000  0.05630000  1.0 -0.6586837004
O  O38  1  0.80690000  0.56920000  0.94370000  1.0 -0.6586837004
O  O39  1  0.81920000  0.37550000  0.26230000  1.0 -0.6586837004
O  O40  1  0.11320000  0.55690000  0.73770000  1.0 -0.6586837004
O  O41  1  0.53730000  0.86320000  0.32430000  1.0 -0.6397564019
O  O42  1  0.53890000  0.21300000  0.67570000  1.0 -0.6397564019
O  O43  1  0.46300000  0.28730000  0.17410000  1.0 -0.6397564019
O  O44  1  0.11320000  0.28890000  0.82590000  1.0 -0.6397564019
O  O45  1  0.71270000  0.88680000  0.17570000  1.0 -0.6397564019
O  O46  1  0.71110000  0.53700000  0.82430000  1.0 -0.6397564019
O  O47  1  0.78700000  0.46270000  0.32590000  1.0 -0.6397564019
O  O48  1  0.13680000  0.46110000  0.67410000  1.0 -0.6397564019
O  O49  1  0.80089000  0.02330000  0.34359000  1.0 -0.7401759605
O  O50  1  0.67971000  0.45730000  0.65641000  1.0 -0.7401759605
O  O51  1  0.70730000  0.55089000  0.27759000  1.0 -0.7401759605
O  O52  1  0.27330000  0.42971000  0.72241000  1.0 -0.7401759605
O  O53  1  0.44911000  0.72670000  0.15641000  1.0 -0.7401759605
O  O54  1  0.57029000  0.29270000  0.84359000  1.0 -0.7401759605
O  O55  1  0.54270000  0.19911000  0.22241000  1.0 -0.7401759605
O  O56  1  0.97670000  0.32029000  0.77759000  1.0 -0.7401759605
O  O57  1  0.00610000  0.16660000  0.39270000  1.0 -0.6023227218
O  O58  1  0.77390000  0.61340000  0.60730000  1.0 -0.6023227218
O  O59  1  0.86340000  0.75610000  0.33950000  1.0 -0.6023227218
O  O60  1  0.41660000  0.52390000  0.66050000  1.0 -0.6023227218
O  O61  1  0.24390000  0.58340000  0.10730000  1.0 -0.6023227218
O  O62  1  0.47610000  0.13660000  0.89270000  1.0 -0.6023227218
O  O63  1  0.38660000  0.99390000  0.16050000  1.0 -0.6023227218
O  O64  1  0.83340000  0.22610000  0.83950000  1.0 -0.6023227218
O  O65  1  0.87600000  0.93210000  0.40250000  1.0 -0.9788939263
O  O66  1  0.52960000  0.47350000  0.59750000  1.0 -0.9788939263
O  O67  1  0.72350000  0.62600000  0.44390000  1.0 -0.9788939263
O  O68  1  0.18210000  0.27960000  0.55610000  1.0 -0.9788939263
O  O69  1  0.37400000  0.81790000  0.09750000  1.0 -0.9788939263
O  O70  1  0.72040000  0.27650000  0.90250000  1.0 -0.9788939263
O  O71  1  0.52650000  0.12400000  0.05610000  1.0 -0.9788939263
O  O72  1  0.06790000  0.47040000  0.94390000  1.0 -0.9788939263
