# DDEC6 charges by PACMAN v1.1 (https://github.com/mtap-research/PACMAN-charge/)
data_IHUTIQ_ASR_pacman
_symmetry_space_group_name_H-M   'P 1'
_cell_length_a   14.34900000
_cell_length_b   12.08800000
_cell_length_c   26.62000000
_cell_angle_alpha   90.00000000
_cell_angle_beta   97.25500000
_cell_angle_gamma   90.00000000
_symmetry_Int_Tables_number   1
_chemical_formula_structural   CoH20C20(NO)4
_chemical_formula_sum   'Co8 H160 C160 N32 O32'
_cell_volume   4580.29187675
_cell_formula_units_Z   8
loop_
 _symmetry_equiv_pos_site_id
 _symmetry_equiv_pos_as_xyz
  1  'x, y, z'
loop_
 _atom_site_type_symbol
 _atom_site_label
 _atom_site_symmetry_multiplicity
 _atom_site_fract_x
 _atom_site_fract_y
 _atom_site_fract_z
 _atom_site_occupancy
 _atom_site_charge
Co  Co1  1  0.84054000  0.78829000  0.69270000  1.0 0.8566599729
Co  Co2  1  0.15946000  0.28829000  0.80730000  1.0 0.8566599729
Co  Co3  1  0.15946000  0.21171000  0.30730000  1.0 0.8566599729
Co  Co4  1  0.84054000  0.71171000  0.19270000  1.0 0.8566599729
Co  Co5  1  0.35806000  0.16238000  0.21494000  1.0 0.8421717526
Co  Co6  1  0.64194000  0.66238000  0.28506000  1.0 0.8421717526
Co  Co7  1  0.64194000  0.83762000  0.78506000  1.0 0.8421717526
Co  Co8  1  0.35806000  0.33762000  0.71494000  1.0 0.8421717526
H  H1  1  0.88070000  0.01730000  0.74540000  1.0 0.109674971
H  H2  1  0.11930000  0.51730000  0.75460000  1.0 0.109674971
H  H3  1  0.11930000  0.98270000  0.25460000  1.0 0.109674971
H  H4  1  0.88070000  0.48270000  0.24540000  1.0 0.109674971
H  H5  1  0.94800000  0.09330000  0.82020000  1.0 0.1421651
H  H6  1  0.05200000  0.59330000  0.67980000  1.0 0.1421651
H  H7  1  0.05200000  0.90670000  0.17980000  1.0 0.1421651
H  H8  1  0.94800000  0.40670000  0.32020000  1.0 0.1421651
H  H9  1  0.05170000  0.78990000  0.85940000  1.0 0.1421651
H  H10  1  0.94830000  0.28990000  0.64060000  1.0 0.1421651
H  H11  1  0.94830000  0.21010000  0.14060000  1.0 0.1421651
H  H12  1  0.05170000  0.71010000  0.35940000  1.0 0.1421651
H  H13  1  0.98220000  0.72540000  0.78290000  1.0 0.109674971
H  H14  1  0.01780000  0.22540000  0.71710000  1.0 0.109674971
H  H15  1  0.01780000  0.27460000  0.21710000  1.0 0.109674971
H  H16  1  0.98220000  0.77460000  0.28290000  1.0 0.109674971
H  H17  1  0.04450000  0.07030000  0.90490000  1.0 0.109674971
H  H18  1  0.95550000  0.57030000  0.59510000  1.0 0.109674971
H  H19  1  0.95550000  0.92970000  0.09510000  1.0 0.109674971
H  H20  1  0.04450000  0.42970000  0.40490000  1.0 0.109674971
H  H21  1  0.14040000  0.85780000  0.01430000  1.0 0.098997055
H  H22  1  0.85960000  0.35780000  0.48570000  1.0 0.098997055
H  H23  1  0.85960000  0.14220000  0.98570000  1.0 0.098997055
H  H24  1  0.14040000  0.64220000  0.51430000  1.0 0.098997055
H  H25  1  0.16260000  0.14670000  0.04440000  1.0 0.1314971083
H  H26  1  0.83740000  0.64670000  0.45560000  1.0 0.1314971083
H  H27  1  0.83740000  0.85330000  0.95560000  1.0 0.1314971083
H  H28  1  0.16260000  0.35330000  0.54440000  1.0 0.1314971083
H  H29  1  0.23790000  0.22190000  0.11690000  1.0 0.109674971
H  H30  1  0.76210000  0.72190000  0.38310000  1.0 0.109674971
H  H31  1  0.76210000  0.77810000  0.88310000  1.0 0.109674971
H  H32  1  0.23790000  0.27810000  0.61690000  1.0 0.109674971
H  H33  1  0.29400000  0.92900000  0.17430000  1.0 0.098997055
H  H34  1  0.70600000  0.42900000  0.32570000  1.0 0.098997055
H  H35  1  0.70600000  0.07100000  0.82570000  1.0 0.098997055
H  H36  1  0.29400000  0.57100000  0.67430000  1.0 0.098997055
H  H37  1  0.22010000  0.84620000  0.10210000  1.0 0.1194201519
H  H38  1  0.77990000  0.34620000  0.39790000  1.0 0.1194201519
H  H39  1  0.77990000  0.15380000  0.89790000  1.0 0.1194201519
H  H40  1  0.22010000  0.65380000  0.60210000  1.0 0.1194201519
H  H41  1  0.78010000  0.55520000  0.64990000  1.0 0.109674971
H  H42  1  0.21990000  0.05520000  0.85010000  1.0 0.109674971
H  H43  1  0.21990000  0.44480000  0.35010000  1.0 0.109674971
H  H44  1  0.78010000  0.94480000  0.14990000  1.0 0.109674971
H  H45  1  0.70630000  0.47170000  0.57920000  1.0 0.1314971083
H  H46  1  0.29370000  0.97170000  0.92080000  1.0 0.1314971083
H  H47  1  0.29370000  0.52830000  0.42080000  1.0 0.1314971083
H  H48  1  0.70630000  0.02830000  0.07920000  1.0 0.1314971083
H  H49  1  0.64680000  0.77360000  0.52020000  1.0 0.1314971083
H  H50  1  0.35320000  0.27360000  0.97980000  1.0 0.1314971083
H  H51  1  0.35320000  0.22640000  0.47980000  1.0 0.1314971083
H  H52  1  0.64680000  0.72640000  0.02020000  1.0 0.1314971083
H  H53  1  0.72570000  0.84920000  0.59240000  1.0 0.1194201519
H  H54  1  0.27430000  0.34920000  0.90760000  1.0 0.1194201519
H  H55  1  0.27430000  0.15080000  0.40760000  1.0 0.1194201519
H  H56  1  0.72570000  0.65080000  0.09240000  1.0 0.1194201519
H  H57  1  0.58760000  0.61040000  0.47000000  1.0 0.109674971
H  H58  1  0.41240000  0.11040000  0.03000000  1.0 0.109674971
H  H59  1  0.41240000  0.38960000  0.53000000  1.0 0.109674971
H  H60  1  0.58760000  0.88960000  0.97000000  1.0 0.109674971
H  H61  1  0.60580000  0.29080000  0.44750000  1.0 0.098997055
H  H62  1  0.39420000  0.79080000  0.05250000  1.0 0.098997055
H  H63  1  0.39420000  0.70920000  0.55250000  1.0 0.098997055
H  H64  1  0.60580000  0.20920000  0.94750000  1.0 0.098997055
H  H65  1  0.47100000  0.44900000  0.35160000  1.0 0.1314971083
H  H66  1  0.52900000  0.94900000  0.14840000  1.0 0.1314971083
H  H67  1  0.52900000  0.55100000  0.64840000  1.0 0.1314971083
H  H68  1  0.47100000  0.05100000  0.85160000  1.0 0.1314971083
H  H69  1  0.39620000  0.38520000  0.27560000  1.0 0.109674971
H  H70  1  0.60380000  0.88520000  0.22440000  1.0 0.109674971
H  H71  1  0.60380000  0.61480000  0.72440000  1.0 0.109674971
H  H72  1  0.39620000  0.11480000  0.77560000  1.0 0.109674971
H  H73  1  0.50650000  0.09350000  0.29970000  1.0 0.109674971
H  H74  1  0.49350000  0.59350000  0.20030000  1.0 0.109674971
H  H75  1  0.49350000  0.90650000  0.70030000  1.0 0.109674971
H  H76  1  0.50650000  0.40650000  0.79970000  1.0 0.109674971
H  H77  1  0.57850000  0.14650000  0.37780000  1.0 0.1421651
H  H78  1  0.42150000  0.64650000  0.12220000  1.0 0.1421651
H  H79  1  0.42150000  0.85350000  0.62220000  1.0 0.1421651
H  H80  1  0.57850000  0.35350000  0.87780000  1.0 0.1421651
H  H81  1  0.74150000  0.09890000  0.65580000  1.0 0.109674971
H  H82  1  0.25850000  0.59890000  0.84420000  1.0 0.109674971
H  H83  1  0.25850000  0.90110000  0.34420000  1.0 0.109674971
H  H84  1  0.74150000  0.40110000  0.15580000  1.0 0.109674971
H  H85  1  0.54360000  0.06670000  0.64960000  1.0 0.109674971
H  H86  1  0.45640000  0.56670000  0.85040000  1.0 0.109674971
H  H87  1  0.45640000  0.93330000  0.35040000  1.0 0.109674971
H  H88  1  0.54360000  0.43330000  0.14960000  1.0 0.109674971
H  H89  1  0.60710000  0.01880000  0.61090000  1.0 0.0911376569
H  H90  1  0.39290000  0.51880000  0.88910000  1.0 0.0911376569
H  H91  1  0.39290000  0.98120000  0.38910000  1.0 0.0911376569
H  H92  1  0.60710000  0.48120000  0.11090000  1.0 0.0911376569
H  H93  1  0.52520000  0.17930000  0.57880000  1.0 0.098997055
H  H94  1  0.47480000  0.67930000  0.92120000  1.0 0.098997055
H  H95  1  0.47480000  0.82070000  0.42120000  1.0 0.098997055
H  H96  1  0.52520000  0.32070000  0.07880000  1.0 0.098997055
H  H97  1  0.63420000  0.19340000  0.58070000  1.0 0.098997055
H  H98  1  0.36580000  0.69340000  0.91930000  1.0 0.098997055
H  H99  1  0.36580000  0.80660000  0.41930000  1.0 0.098997055
H  H100  1  0.63420000  0.30660000  0.08070000  1.0 0.098997055
H  H101  1  0.58040000  0.35380000  0.61040000  1.0 0.098997055
H  H102  1  0.41960000  0.85380000  0.88960000  1.0 0.098997055
H  H103  1  0.41960000  0.64620000  0.38960000  1.0 0.098997055
H  H104  1  0.58040000  0.14620000  0.11040000  1.0 0.098997055
H  H105  1  0.72300000  0.30540000  0.65450000  1.0 0.0911376569
H  H106  1  0.27700000  0.80540000  0.84550000  1.0 0.0911376569
H  H107  1  0.27700000  0.69460000  0.34550000  1.0 0.0911376569
H  H108  1  0.72300000  0.19460000  0.15450000  1.0 0.098997055
H  H109  1  0.66420000  0.36140000  0.69340000  1.0 0.098997055
H  H110  1  0.33580000  0.86140000  0.80660000  1.0 0.098997055
H  H111  1  0.33580000  0.63860000  0.30660000  1.0 0.098997055
H  H112  1  0.66420000  0.13860000  0.19340000  1.0 0.098997055
H  H113  1  0.62490000  0.18590000  0.72350000  1.0 0.109674971
H  H114  1  0.37510000  0.68590000  0.77650000  1.0 0.109674971
H  H115  1  0.37510000  0.81410000  0.27650000  1.0 0.109674971
H  H116  1  0.62490000  0.31410000  0.22350000  1.0 0.109674971
H  H117  1  0.73460000  0.19910000  0.72950000  1.0 0.098997055
H  H118  1  0.26540000  0.69910000  0.77050000  1.0 0.098997055
H  H119  1  0.26540000  0.80090000  0.27050000  1.0 0.098997055
H  H120  1  0.73460000  0.30090000  0.22950000  1.0 0.098997055
H  H121  1  0.74600000  0.52720000  0.82150000  1.0 0.109674971
H  H122  1  0.25400000  0.02720000  0.67850000  1.0 0.109674971
H  H123  1  0.25400000  0.47280000  0.17850000  1.0 0.109674971
H  H124  1  0.74600000  0.97280000  0.32150000  1.0 0.109674971
H  H125  1  0.86670000  0.63200000  0.87010000  1.0 0.0911376569
H  H126  1  0.13330000  0.13200000  0.62990000  1.0 0.098997055
H  H127  1  0.13330000  0.36800000  0.12990000  1.0 0.0911376569
H  H128  1  0.86670000  0.86800000  0.37010000  1.0 0.0911376569
H  H129  1  0.94210000  0.57860000  0.83960000  1.0 0.098997055
H  H130  1  0.05790000  0.07860000  0.66040000  1.0 0.098997055
H  H131  1  0.05790000  0.42140000  0.16040000  1.0 0.098997055
H  H132  1  0.94210000  0.92140000  0.33960000  1.0 0.098997055
H  H133  1  0.94490000  0.48470000  0.91580000  1.0 0.098997055
H  H134  1  0.05510000  0.98470000  0.58420000  1.0 0.098997055
H  H135  1  0.05510000  0.51530000  0.08420000  1.0 0.098997055
H  H136  1  0.94490000  0.01530000  0.41580000  1.0 0.098997055
H  H137  1  0.83650000  0.46320000  0.90560000  1.0 0.0911376569
H  H138  1  0.16350000  0.96320000  0.59440000  1.0 0.0911376569
H  H139  1  0.16350000  0.53680000  0.09440000  1.0 0.0911376569
H  H140  1  0.83650000  0.03680000  0.40560000  1.0 0.0911376569
H  H141  1  0.90210000  0.29990000  0.88920000  1.0 0.098997055
H  H142  1  0.09790000  0.79990000  0.61080000  1.0 0.098997055
H  H143  1  0.09790000  0.70010000  0.11080000  1.0 0.098997055
H  H144  1  0.90210000  0.20010000  0.38920000  1.0 0.098997055
H  H145  1  0.77810000  0.32550000  0.82850000  1.0 0.0911376569
H  H146  1  0.22190000  0.82550000  0.67150000  1.0 0.0911376569
H  H147  1  0.22190000  0.67450000  0.17150000  1.0 0.0911376569
H  H148  1  0.77810000  0.17450000  0.32850000  1.0 0.0911376569
H  H149  1  0.85680000  0.27420000  0.79990000  1.0 0.098997055
H  H150  1  0.14320000  0.77420000  0.70010000  1.0 0.0911376569
H  H151  1  0.14320000  0.72580000  0.20010000  1.0 0.098997055
H  H152  1  0.85680000  0.22580000  0.29990000  1.0 0.098997055
H  H153  1  0.78490000  0.42100000  0.75320000  1.0 0.098997055
H  H154  1  0.21510000  0.92100000  0.74680000  1.0 0.098997055
H  H155  1  0.21510000  0.57900000  0.24680000  1.0 0.098997055
H  H156  1  0.78490000  0.07900000  0.25320000  1.0 0.098997055
H  H157  1  0.89150000  0.44790000  0.76920000  1.0 0.098997055
H  H158  1  0.10850000  0.94790000  0.73080000  1.0 0.098997055
H  H159  1  0.10850000  0.55210000  0.23080000  1.0 0.098997055
H  H160  1  0.89150000  0.05210000  0.26920000  1.0 0.098997055
C  C1  1  0.91420000  0.97140000  0.76920000  1.0 0.0911376569
C  C2  1  0.08580000  0.47140000  0.73080000  1.0 0.0911376569
C  C3  1  0.08580000  0.02860000  0.23080000  1.0 0.0911376569
C  C4  1  0.91420000  0.52860000  0.26920000  1.0 0.0911376569
C  C5  1  0.95440000  0.01820000  0.81390000  1.0 -0.1809904407
C  C6  1  0.04560000  0.51820000  0.68610000  1.0 -0.1809904407
C  C7  1  0.04560000  0.98180000  0.18610000  1.0 -0.1809904407
C  C8  1  0.95440000  0.48180000  0.31390000  1.0 -0.1809904407
C  C9  1  0.00470000  0.94940000  0.84940000  1.0 0.1314971083
C  C10  1  0.99530000  0.44940000  0.65060000  1.0 0.1314971083
C  C11  1  0.99530000  0.05060000  0.15060000  1.0 0.1314971083
C  C12  1  0.00470000  0.55060000  0.34940000  1.0 0.1314971083
C  C13  1  0.01620000  0.83700000  0.83700000  1.0 -0.1809904407
C  C14  1  0.98380000  0.33700000  0.66300000  1.0 -0.1809904407
C  C15  1  0.98380000  0.16300000  0.16300000  1.0 -0.1809904407
C  C16  1  0.01620000  0.66300000  0.33700000  1.0 -0.1809904407
C  C17  1  0.97380000  0.79910000  0.79140000  1.0 0.0725761491
C  C18  1  0.02620000  0.29910000  0.70860000  1.0 0.0725761491
C  C19  1  0.02620000  0.20090000  0.20860000  1.0 0.0725761491
C  C20  1  0.97380000  0.70090000  0.29140000  1.0 0.0725761491
C  C21  1  0.04300000  0.99410000  0.90000000  1.0 0.0322765389
C  C22  1  0.95700000  0.49410000  0.60000000  1.0 0.0322765389
C  C23  1  0.95700000  0.00590000  0.10000000  1.0 0.0322765389
C  C24  1  0.04300000  0.50590000  0.40000000  1.0 0.0322765389
C  C25  1  0.14200000  0.93450000  0.01700000  1.0 0.0197753786
C  C26  1  0.85800000  0.43450000  0.48300000  1.0 0.0197753786
C  C27  1  0.85800000  0.06550000  0.98300000  1.0 0.0197753786
C  C28  1  0.14200000  0.56550000  0.51700000  1.0 0.0197753786
C  C29  1  0.18360000  0.98780000  0.06350000  1.0 0.109674971
C  C30  1  0.81640000  0.48780000  0.43650000  1.0 0.109674971
C  C31  1  0.81640000  0.01220000  0.93650000  1.0 0.109674971
C  C32  1  0.18360000  0.51220000  0.56350000  1.0 0.109674971
C  C33  1  0.18970000  0.10020000  0.07000000  1.0 -0.1712887129
C  C34  1  0.81030000  0.60020000  0.43000000  1.0 -0.1712887129
C  C35  1  0.81030000  0.89980000  0.93000000  1.0 -0.1712887129
C  C36  1  0.18970000  0.39980000  0.57000000  1.0 -0.1712887129
C  C37  1  0.23520000  0.14530000  0.11370000  1.0 0.0801927315
C  C38  1  0.76480000  0.64530000  0.38630000  1.0 0.0801927315
C  C39  1  0.76480000  0.85470000  0.88630000  1.0 0.0801927315
C  C40  1  0.23520000  0.35470000  0.61370000  1.0 0.0801927315
C  C41  1  0.26850000  0.97330000  0.14750000  1.0 0.0911376569
C  C42  1  0.73150000  0.47330000  0.35250000  1.0 0.0911376569
C  C43  1  0.73150000  0.02670000  0.85250000  1.0 0.0911376569
C  C44  1  0.26850000  0.52670000  0.64750000  1.0 0.0911376569
C  C45  1  0.22360000  0.92290000  0.10410000  1.0 -0.2095172947
C  C46  1  0.77640000  0.42290000  0.39590000  1.0 -0.2095172947
C  C47  1  0.77640000  0.07710000  0.89590000  1.0 -0.2095172947
C  C48  1  0.22360000  0.57710000  0.60410000  1.0 -0.2095172947
C  C49  1  0.75380000  0.59940000  0.62320000  1.0 0.0725761491
C  C50  1  0.24620000  0.09940000  0.87680000  1.0 0.0725761491
C  C51  1  0.24620000  0.40060000  0.37680000  1.0 0.0725761491
C  C52  1  0.75380000  0.90060000  0.12320000  1.0 0.0725761491
C  C53  1  0.70860000  0.54850000  0.58110000  1.0 -0.1712887129
C  C54  1  0.29140000  0.04850000  0.91890000  1.0 -0.1712887129
C  C55  1  0.29140000  0.45150000  0.41890000  1.0 -0.1712887129
C  C56  1  0.70860000  0.95150000  0.08110000  1.0 -0.1712887129
C  C57  1  0.66640000  0.61170000  0.54160000  1.0 0.1194201519
C  C58  1  0.33360000  0.11170000  0.95840000  1.0 0.1194201519
C  C59  1  0.33360000  0.38830000  0.45840000  1.0 0.1194201519
C  C60  1  0.66640000  0.88830000  0.04160000  1.0 0.1194201519
C  C61  1  0.67380000  0.72790000  0.54620000  1.0 -0.2027478102
C  C62  1  0.32620000  0.22790000  0.95380000  1.0 -0.2027478102
C  C63  1  0.32620000  0.27210000  0.45380000  1.0 -0.2027478102
C  C64  1  0.67380000  0.77210000  0.04620000  1.0 -0.2027478102
C  C65  1  0.72150000  0.77260000  0.58950000  1.0 0.0801927315
C  C66  1  0.27850000  0.27260000  0.91050000  1.0 0.0801927315
C  C67  1  0.27850000  0.22740000  0.41050000  1.0 0.0801927315
C  C68  1  0.72150000  0.72740000  0.08950000  1.0 0.0801927315
C  C69  1  0.61690000  0.56320000  0.49470000  1.0 0.0377427086
C  C70  1  0.38310000  0.06320000  0.00530000  1.0 0.0377427086
C  C71  1  0.38310000  0.43680000  0.50530000  1.0 0.0377427086
C  C72  1  0.61690000  0.93680000  0.99470000  1.0 0.0377427086
C  C73  1  0.57190000  0.34050000  0.42560000  1.0 0.0197753786
C  C74  1  0.42810000  0.84050000  0.07440000  1.0 0.0197753786
C  C75  1  0.42810000  0.65950000  0.57440000  1.0 0.0197753786
C  C76  1  0.57190000  0.15950000  0.92560000  1.0 0.0197753786
C  C77  1  0.52910000  0.30210000  0.37480000  1.0 0.109674971
C  C78  1  0.47090000  0.80210000  0.12520000  1.0 0.109674971
C  C79  1  0.47090000  0.69790000  0.62520000  1.0 0.109674971
C  C80  1  0.52910000  0.19790000  0.87480000  1.0 0.109674971
C  C81  1  0.47680000  0.37530000  0.34250000  1.0 -0.160357116
C  C82  1  0.52320000  0.87530000  0.15750000  1.0 -0.160357116
C  C83  1  0.52320000  0.62470000  0.65750000  1.0 -0.160357116
C  C84  1  0.47680000  0.12470000  0.84250000  1.0 -0.160357116
C  C85  1  0.43340000  0.33660000  0.29650000  1.0 0.0911376569
C  C86  1  0.56660000  0.83660000  0.20350000  1.0 0.0911376569
C  C87  1  0.56660000  0.66340000  0.70350000  1.0 0.0911376569
C  C88  1  0.43340000  0.16340000  0.79650000  1.0 0.0911376569
C  C89  1  0.49720000  0.16520000  0.31070000  1.0 0.0911376569
C  C90  1  0.50280000  0.66520000  0.18930000  1.0 0.0911376569
C  C91  1  0.50280000  0.83480000  0.68930000  1.0 0.0911376569
C  C92  1  0.49720000  0.33480000  0.81070000  1.0 0.0911376569
C  C93  1  0.54110000  0.19660000  0.35780000  1.0 -0.2027478102
C  C94  1  0.45890000  0.69660000  0.14220000  1.0 -0.2027478102
C  C95  1  0.45890000  0.80340000  0.64220000  1.0 -0.2027478102
C  C96  1  0.54110000  0.30340000  0.85780000  1.0 -0.2027478102
C  C97  1  0.69770000  0.98340000  0.70420000  1.0 0.5795099975
C  C98  1  0.30230000  0.48340000  0.79580000  1.0 0.5795099975
C  C99  1  0.30230000  0.01660000  0.29580000  1.0 0.5795099975
C  C100  1  0.69770000  0.51660000  0.20420000  1.0 0.5795099975
C  C101  1  0.68610000  0.09070000  0.67350000  1.0 -0.110946906
C  C102  1  0.31390000  0.59070000  0.82650000  1.0 -0.110946906
C  C103  1  0.31390000  0.90930000  0.32650000  1.0 -0.110946906
C  C104  1  0.68610000  0.40930000  0.17350000  1.0 -0.110946906
C  C105  1  0.59880000  0.08090000  0.63300000  1.0 -0.1712887129
C  C106  1  0.40120000  0.58090000  0.86700000  1.0 -0.1712887129
C  C107  1  0.40120000  0.91910000  0.36700000  1.0 -0.1712887129
C  C108  1  0.59880000  0.41910000  0.13300000  1.0 -0.1712887129
C  C109  1  0.58360000  0.18610000  0.60140000  1.0 -0.1809904407
C  C110  1  0.41640000  0.68610000  0.89860000  1.0 -0.1809904407
C  C111  1  0.41640000  0.81390000  0.39860000  1.0 -0.1809904407
C  C112  1  0.58360000  0.31390000  0.10140000  1.0 -0.1809904407
C  C113  1  0.57960000  0.29020000  0.63320000  1.0 -0.1001192016
C  C114  1  0.42040000  0.79020000  0.86680000  1.0 -0.1001192016
C  C115  1  0.42040000  0.70980000  0.36680000  1.0 -0.1001192016
C  C116  1  0.57960000  0.20980000  0.13320000  1.0 -0.1001192016
C  C117  1  0.66820000  0.29700000  0.67210000  1.0 -0.1882520766
C  C118  1  0.33180000  0.79700000  0.82790000  1.0 -0.1882520766
C  C119  1  0.33180000  0.70300000  0.32790000  1.0 -0.1882520766
C  C120  1  0.66820000  0.20300000  0.17210000  1.0 -0.1882520766
C  C121  1  0.67870000  0.19260000  0.70500000  1.0 -0.1809904407
C  C122  1  0.32130000  0.69260000  0.79500000  1.0 -0.1809904407
C  C123  1  0.32130000  0.80740000  0.29500000  1.0 -0.1809904407
C  C124  1  0.67870000  0.30740000  0.20500000  1.0 -0.1809904407
C  C125  1  0.49030000  0.30140000  0.66140000  1.0 0.5405735613
C  C126  1  0.50970000  0.80140000  0.83860000  1.0 0.5405735613
C  C127  1  0.50970000  0.69860000  0.33860000  1.0 0.5405735613
C  C128  1  0.49030000  0.19860000  0.16140000  1.0 0.5405735613
C  C129  1  0.78990000  0.64320000  0.77290000  1.0 0.587292874
C  C130  1  0.21010000  0.14320000  0.72710000  1.0 0.587292874
C  C131  1  0.21010000  0.35680000  0.22710000  1.0 0.587292874
C  C132  1  0.78990000  0.85680000  0.27290000  1.0 0.587292874
C  C133  1  0.80480000  0.54140000  0.80740000  1.0 -0.110946906
C  C134  1  0.19520000  0.04140000  0.69260000  1.0 -0.110946906
C  C135  1  0.19520000  0.45860000  0.19260000  1.0 -0.110946906
C  C136  1  0.80480000  0.95860000  0.30740000  1.0 -0.110946906
C  C137  1  0.88280000  0.56560000  0.85260000  1.0 -0.1712887129
C  C138  1  0.11720000  0.06560000  0.64740000  1.0 -0.1712887129
C  C139  1  0.11720000  0.43440000  0.14740000  1.0 -0.1712887129
C  C140  1  0.88280000  0.93440000  0.35260000  1.0 -0.1712887129
C  C141  1  0.89340000  0.46920000  0.88950000  1.0 -0.1712887129
C  C142  1  0.10660000  0.96920000  0.61050000  1.0 -0.1712887129
C  C143  1  0.10660000  0.53080000  0.11050000  1.0 -0.1712887129
C  C144  1  0.89340000  0.03080000  0.38950000  1.0 -0.1712887129
C  C145  1  0.91170000  0.35810000  0.86480000  1.0 -0.1178757979
C  C146  1  0.08830000  0.85810000  0.63520000  1.0 -0.1178757979
C  C147  1  0.08830000  0.64190000  0.13520000  1.0 -0.1178757979
C  C148  1  0.91170000  0.14190000  0.36480000  1.0 -0.1178757979
C  C149  1  0.83920000  0.33940000  0.81770000  1.0 -0.1882520766
C  C150  1  0.16080000  0.83940000  0.68230000  1.0 -0.1882520766
C  C151  1  0.16080000  0.66060000  0.18230000  1.0 -0.1882520766
C  C152  1  0.83920000  0.16060000  0.31770000  1.0 -0.1882520766
C  C153  1  0.83160000  0.43690000  0.78190000  1.0 -0.1809904407
C  C154  1  0.16840000  0.93690000  0.71810000  1.0 -0.1809904407
C  C155  1  0.16840000  0.56310000  0.21810000  1.0 -0.1809904407
C  C156  1  0.83160000  0.06310000  0.28190000  1.0 -0.1809904407
C  C157  1  0.01040000  0.34750000  0.85250000  1.0 0.565658191
C  C158  1  0.98960000  0.84750000  0.64750000  1.0 0.565658191
C  C159  1  0.98960000  0.65250000  0.14750000  1.0 0.565658191
C  C160  1  0.01040000  0.15250000  0.35250000  1.0 0.565658191
N  N1  1  0.92020000  0.86460000  0.75798000  1.0 -0.2478897145
N  N2  1  0.07980000  0.36460000  0.74202000  1.0 -0.2478897145
N  N3  1  0.07980000  0.13540000  0.24202000  1.0 -0.2478897145
N  N4  1  0.92020000  0.63540000  0.25798000  1.0 -0.2478897145
N  N5  1  0.07330000  0.93120000  0.93638000  1.0 -0.2027478102
N  N6  1  0.92670000  0.43120000  0.56362000  1.0 -0.2027478102
N  N7  1  0.92670000  0.06880000  0.06362000  1.0 -0.2027478102
N  N8  1  0.07330000  0.56880000  0.43638000  1.0 -0.2027478102
N  N9  1  0.10710000  0.99630000  0.97939000  1.0 -0.1809904407
N  N10  1  0.89290000  0.49630000  0.52061000  1.0 -0.1882520766
N  N11  1  0.89290000  0.00370000  0.02061000  1.0 -0.1809904407
N  N12  1  0.10710000  0.50370000  0.47939000  1.0 -0.1809904407
N  N13  1  0.27620000  0.08230000  0.15208000  1.0 -0.239146077
N  N14  1  0.72380000  0.58230000  0.34792000  1.0 -0.239146077
N  N15  1  0.72380000  0.91770000  0.84792000  1.0 -0.239146077
N  N16  1  0.27620000  0.41770000  0.65208000  1.0 -0.239146077
N  N17  1  0.76240000  0.71000000  0.62817000  1.0 -0.239146077
N  N18  1  0.23760000  0.21000000  0.87183000  1.0 -0.239146077
N  N19  1  0.23760000  0.29000000  0.37183000  1.0 -0.239146077
N  N20  1  0.76240000  0.79000000  0.12817000  1.0 -0.239146077
N  N21  1  0.61310000  0.46110000  0.48692000  1.0 -0.1882520766
N  N22  1  0.38690000  0.96110000  0.01308000  1.0 -0.1882520766
N  N23  1  0.38690000  0.53890000  0.51308000  1.0 -0.1882520766
N  N24  1  0.61310000  0.03890000  0.98692000  1.0 -0.1882520766
N  N25  1  0.56340000  0.43860000  0.43950000  1.0 -0.1809904407
N  N26  1  0.43660000  0.93860000  0.06050000  1.0 -0.1809904407
N  N27  1  0.43660000  0.56140000  0.56050000  1.0 -0.1809904407
N  N28  1  0.56340000  0.06140000  0.93950000  1.0 -0.1809904407
N  N29  1  0.44260000  0.23230000  0.28066000  1.0 -0.239146077
N  N30  1  0.55740000  0.73230000  0.21934000  1.0 -0.239146077
N  N31  1  0.55740000  0.76770000  0.71934000  1.0 -0.239146077
N  N32  1  0.44260000  0.26770000  0.78066000  1.0 -0.239146077
O  O1  1  0.74150000  0.90680000  0.68579000  1.0 -0.5817039369
O  O2  1  0.25850000  0.40680000  0.81421000  1.0 -0.5817039369
O  O3  1  0.25850000  0.09320000  0.31421000  1.0 -0.5817039369
O  O4  1  0.74150000  0.59320000  0.18579000  1.0 -0.5817039369
O  O5  1  0.65910000  0.97700000  0.74338000  1.0 -0.5489455818
O  O6  1  0.34090000  0.47700000  0.75662000  1.0 -0.5489455818
O  O7  1  0.34090000  0.02300000  0.25662000  1.0 -0.5489455818
O  O8  1  0.65910000  0.52300000  0.24338000  1.0 -0.5489455818
O  O9  1  0.42540000  0.23240000  0.65460000  1.0 -0.5396027275
O  O10  1  0.57460000  0.73240000  0.84540000  1.0 -0.5396027275
O  O11  1  0.57460000  0.76760000  0.34540000  1.0 -0.5396027275
O  O12  1  0.42540000  0.26760000  0.15460000  1.0 -0.5396027275
O  O13  1  0.48550000  0.38130000  0.68982000  1.0 -0.5396027275
O  O14  1  0.51450000  0.88130000  0.81018000  1.0 -0.5396027275
O  O15  1  0.51450000  0.61870000  0.31018000  1.0 -0.5396027275
O  O16  1  0.48550000  0.11870000  0.18982000  1.0 -0.5396027275
O  O17  1  0.74140000  0.72110000  0.78775000  1.0 -0.5918861388
O  O18  1  0.25860000  0.22110000  0.71225000  1.0 -0.5918861388
O  O19  1  0.25860000  0.27890000  0.21225000  1.0 -0.5918861388
O  O20  1  0.74140000  0.77890000  0.28775000  1.0 -0.5918861388
O  O21  1  0.83010000  0.64620000  0.73323000  1.0 -0.5617035387
O  O22  1  0.16990000  0.14620000  0.76677000  1.0 -0.5617035387
O  O23  1  0.16990000  0.35380000  0.26677000  1.0 -0.5617035387
O  O24  1  0.83010000  0.85380000  0.23323000  1.0 -0.5617035387
O  O25  1  0.03180000  0.25470000  0.83240000  1.0 -0.5964972733
O  O26  1  0.96820000  0.75470000  0.66760000  1.0 -0.5964972733
O  O27  1  0.96820000  0.74530000  0.16760000  1.0 -0.5964972733
O  O28  1  0.03180000  0.24530000  0.33240000  1.0 -0.5964972733
O  O29  1  0.07000000  0.42120000  0.85810000  1.0 -0.5396027275
O  O30  1  0.93000000  0.92120000  0.64190000  1.0 -0.5396027275
O  O31  1  0.93000000  0.57880000  0.14190000  1.0 -0.5396027275
O  O32  1  0.07000000  0.07880000  0.35810000  1.0 -0.5396027275
