# DDEC6 charges by PACMAN v1.1 (https://github.com/mtap-research/PACMAN-charge/)
data_IJANEN_ASR_pacman
_symmetry_space_group_name_H-M   'P 1'
_cell_length_a   11.49770000
_cell_length_b   11.49770000
_cell_length_c   23.12400000
_cell_angle_alpha   72.43310000
_cell_angle_beta   107.56700000
_cell_angle_gamma   131.35000000
_symmetry_Int_Tables_number   1
_chemical_formula_structural   Zn3H22C38(N2O7)2
_chemical_formula_sum   'Zn6 H44 C76 N8 O28'
_cell_volume   2165.26007884
_cell_formula_units_Z   2
loop_
 _symmetry_equiv_pos_site_id
 _symmetry_equiv_pos_as_xyz
  1  'x, y, z'
loop_
 _atom_site_type_symbol
 _atom_site_label
 _atom_site_symmetry_multiplicity
 _atom_site_fract_x
 _atom_site_fract_y
 _atom_site_fract_z
 _atom_site_occupancy
 _atom_site_charge
Zn  Zn1  1  0.93293000  0.35701000  0.73863000  1.0 0.8129742172
Zn  Zn2  1  0.35701000  0.93293000  0.76137000  1.0 0.8129742172
Zn  Zn3  1  0.06707000  0.64299000  0.26137000  1.0 0.8129742172
Zn  Zn4  1  0.64299000  0.06707000  0.23863000  1.0 0.8129742172
Zn  Zn5  1  0.91565000  0.91565000  0.75000000  1.0 0.6368330148
Zn  Zn6  1  0.08435000  0.08435000  0.25000000  1.0 0.6368330148
H  H1  1  0.25330000  0.62930000  0.57090000  1.0 0.1087430392
H  H2  1  0.62930000  0.25330000  0.92910000  1.0 0.1087430392
H  H3  1  0.74670000  0.37070000  0.42910000  1.0 0.1087430392
H  H4  1  0.37070000  0.74670000  0.07090000  1.0 0.1087430392
H  H5  1  0.45920000  0.86680000  0.52570000  1.0 0.1087430392
H  H6  1  0.86680000  0.45920000  0.97430000  1.0 0.1087430392
H  H7  1  0.54080000  0.13320000  0.47430000  1.0 0.1087430392
H  H8  1  0.13320000  0.54080000  0.02570000  1.0 0.1087430392
H  H9  1  0.66260000  0.05900000  0.58510000  1.0 0.1087430392
H  H10  1  0.05900000  0.66260000  0.91490000  1.0 0.1087430392
H  H11  1  0.33740000  0.94100000  0.41490000  1.0 0.1087430392
H  H12  1  0.94100000  0.33740000  0.08510000  1.0 0.1087430392
H  H13  1  0.25140000  0.91640000  0.16790000  1.0 0.1087430392
H  H14  1  0.91640000  0.25140000  0.33210000  1.0 0.1087430392
H  H15  1  0.74860000  0.08360000  0.83210000  1.0 0.1087430392
H  H16  1  0.08360000  0.74860000  0.66790000  1.0 0.1087430392
H  H17  1  0.22890000  0.99250000  0.06350000  1.0 0.1337282647
H  H18  1  0.99250000  0.22890000  0.43650000  1.0 0.1337282647
H  H19  1  0.77110000  0.00750000  0.93650000  1.0 0.1337282647
H  H20  1  0.00750000  0.77110000  0.56350000  1.0 0.1337282647
H  H21  1  0.79710000  0.58230000  0.04910000  1.0 0.1337282647
H  H22  1  0.58230000  0.79710000  0.45090000  1.0 0.1337282647
H  H23  1  0.20290000  0.41770000  0.95090000  1.0 0.1337282647
H  H24  1  0.41770000  0.20290000  0.54910000  1.0 0.1337282647
H  H25  1  0.83290000  0.51750000  0.15300000  1.0 0.1223285784
H  H26  1  0.51750000  0.83290000  0.34700000  1.0 0.1223285784
H  H27  1  0.16710000  0.48250000  0.84700000  1.0 0.1223285784
H  H28  1  0.48250000  0.16710000  0.65300000  1.0 0.1223285784
H  H29  1  0.21720000  0.97560000  0.96480000  1.0 0.1337282647
H  H30  1  0.97560000  0.21720000  0.53520000  1.0 0.1337282647
H  H31  1  0.78280000  0.02440000  0.03520000  1.0 0.1337282647
H  H32  1  0.02440000  0.78280000  0.46480000  1.0 0.1337282647
H  H33  1  0.17830000  0.02010000  0.86030000  1.0 0.1012511578
H  H34  1  0.02010000  0.17830000  0.63970000  1.0 0.1012511578
H  H35  1  0.82170000  0.97990000  0.13970000  1.0 0.1012511578
H  H36  1  0.97990000  0.82170000  0.36030000  1.0 0.1012511578
H  H37  1  0.73200000  0.77160000  0.85700000  1.0 0.1223285784
H  H38  1  0.77160000  0.73200000  0.64300000  1.0 0.1223285784
H  H39  1  0.26800000  0.22840000  0.14300000  1.0 0.1223285784
H  H40  1  0.22840000  0.26800000  0.35700000  1.0 0.1223285784
H  H41  1  0.75660000  0.71640000  0.96070000  1.0 0.1363997784
H  H42  1  0.71640000  0.75660000  0.53930000  1.0 0.1363997784
H  H43  1  0.24340000  0.28360000  0.03930000  1.0 0.1363997784
H  H44  1  0.28360000  0.24340000  0.46070000  1.0 0.1363997784
C  C1  1  0.33648000  0.70634000  0.59489000  1.0 -0.1386661801
C  C2  1  0.70634000  0.33648000  0.90511000  1.0 -0.1386661801
C  C3  1  0.66352000  0.29366000  0.40511000  1.0 -0.1386661801
C  C4  1  0.29366000  0.66352000  0.09489000  1.0 -0.1386661801
C  C5  1  0.45978000  0.84850000  0.56772000  1.0 -0.1017589189
C  C6  1  0.84850000  0.45978000  0.93228000  1.0 -0.1017589189
C  C7  1  0.54022000  0.15150000  0.43228000  1.0 -0.1017589189
C  C8  1  0.15150000  0.54022000  0.06772000  1.0 -0.1017589189
C  C9  1  0.58263000  0.96189000  0.60343000  1.0 -0.1251207415
C  C10  1  0.96189000  0.58263000  0.89657000  1.0 -0.1251207415
C  C11  1  0.41737000  0.03811000  0.39657000  1.0 -0.1245094362
C  C12  1  0.03811000  0.41737000  0.10343000  1.0 -0.1245094362
C  C13  1  0.58826000  0.93252000  0.66687000  1.0 -0.0497217189
C  C14  1  0.93252000  0.58826000  0.83313000  1.0 -0.0497217189
C  C15  1  0.41174000  0.06748000  0.33313000  1.0 -0.0497217189
C  C16  1  0.06748000  0.41174000  0.16687000  1.0 -0.0497217189
C  C17  1  0.46408000  0.79146000  0.69447000  1.0 -0.0694854252
C  C18  1  0.79146000  0.46408000  0.80553000  1.0 -0.0694854252
C  C19  1  0.53592000  0.20854000  0.30553000  1.0 -0.0694854252
C  C20  1  0.20854000  0.53592000  0.19447000  1.0 -0.0694854252
C  C21  1  0.33677000  0.67867000  0.65741000  1.0 -0.0694854252
C  C22  1  0.67867000  0.33677000  0.84259000  1.0 -0.0694854252
C  C23  1  0.66323000  0.32133000  0.34259000  1.0 -0.0694854252
C  C24  1  0.32133000  0.66323000  0.15741000  1.0 -0.0694854252
C  C25  1  0.19427000  0.53041000  0.68239000  1.0 0.4472192106
C  C26  1  0.53041000  0.19427000  0.81761000  1.0 0.4472192106
C  C27  1  0.80573000  0.46959000  0.31761000  1.0 0.4472192106
C  C28  1  0.46959000  0.80573000  0.18239000  1.0 0.4472192106
C  C29  1  0.46762000  0.76032000  0.76251000  1.0 0.5896147516
C  C30  1  0.76032000  0.46762000  0.73749000  1.0 0.5896147516
C  C31  1  0.53238000  0.23968000  0.23749000  1.0 0.5896147516
C  C32  1  0.23968000  0.53238000  0.26251000  1.0 0.5896147516
C  C33  1  0.73205000  0.05397000  0.70452000  1.0 0.5717998173
C  C34  1  0.05397000  0.73205000  0.79548000  1.0 0.5717998173
C  C35  1  0.26795000  0.94603000  0.29548000  1.0 0.5717998173
C  C36  1  0.94603000  0.26795000  0.20452000  1.0 0.5717998173
C  C37  1  0.15895000  0.84861000  0.14344000  1.0 0.1087430392
C  C38  1  0.84861000  0.15895000  0.35656000  1.0 0.1087430392
C  C39  1  0.84105000  0.15139000  0.85656000  1.0 0.1087430392
C  C40  1  0.15139000  0.84105000  0.64344000  1.0 0.1087430392
C  C41  1  0.14614000  0.89534000  0.08056000  1.0 -0.1941025082
C  C42  1  0.89534000  0.14614000  0.41944000  1.0 -0.1941025082
C  C43  1  0.85386000  0.10466000  0.91944000  1.0 -0.1941025082
C  C44  1  0.10466000  0.85386000  0.58056000  1.0 -0.1941025082
C  C45  1  0.00965000  0.79645000  0.04366000  1.0 0.1012511578
C  C46  1  0.79645000  0.00965000  0.45634000  1.0 0.1012511578
C  C47  1  0.99035000  0.20355000  0.95634000  1.0 0.1012511578
C  C48  1  0.20355000  0.99035000  0.54366000  1.0 0.1012511578
C  C49  1  0.89108000  0.65262000  0.07229000  1.0 -0.1941025082
C  C50  1  0.65262000  0.89108000  0.42771000  1.0 -0.1941025082
C  C51  1  0.10892000  0.34738000  0.92771000  1.0 -0.1941025082
C  C52  1  0.34738000  0.10892000  0.57229000  1.0 -0.1941025082
C  C53  1  0.91295000  0.61455000  0.13464000  1.0 0.0947021421
C  C54  1  0.61455000  0.91295000  0.36536000  1.0 0.0947021421
C  C55  1  0.08705000  0.38545000  0.86536000  1.0 0.0947021421
C  C56  1  0.38545000  0.08705000  0.63464000  1.0 0.0947021421
C  C57  1  0.98985000  0.83749000  0.97625000  1.0 0.1012511578
C  C58  1  0.83749000  0.98985000  0.52375000  1.0 0.1012511578
C  C59  1  0.01015000  0.16251000  0.02375000  1.0 0.1012511578
C  C60  1  0.16251000  0.01015000  0.47625000  1.0 0.1012511578
C  C61  1  0.11649000  0.93105000  0.94389000  1.0 -0.2059277344
C  C62  1  0.93105000  0.11649000  0.55611000  1.0 -0.2059277344
C  C63  1  0.88351000  0.06895000  0.05611000  1.0 -0.2059277344
C  C64  1  0.06895000  0.88351000  0.44389000  1.0 -0.2059277344
C  C65  1  0.09207000  0.95721000  0.88097000  1.0 0.0484028755
C  C66  1  0.95721000  0.09207000  0.61903000  1.0 0.0484028755
C  C67  1  0.90793000  0.04279000  0.11903000  1.0 0.0484028755
C  C68  1  0.04279000  0.90793000  0.38097000  1.0 0.0484028755
C  C69  1  0.83107000  0.81153000  0.87889000  1.0 0.1012511578
C  C70  1  0.81153000  0.83107000  0.62111000  1.0 0.1012511578
C  C71  1  0.16893000  0.18847000  0.12111000  1.0 0.1012511578
C  C72  1  0.18847000  0.16893000  0.37889000  1.0 0.1012511578
C  C73  1  0.84516000  0.77870000  0.94149000  1.0 -0.2002975318
C  C74  1  0.77870000  0.84516000  0.55851000  1.0 -0.2002975318
C  C75  1  0.15484000  0.22130000  0.05851000  1.0 -0.2002975318
C  C76  1  0.22130000  0.15484000  0.44149000  1.0 -0.2002975318
N  N1  1  0.04507000  0.71171000  0.16998000  1.0 -0.2363580588
N  N2  1  0.71171000  0.04507000  0.33002000  1.0 -0.2363580588
N  N3  1  0.95493000  0.28829000  0.83002000  1.0 -0.2363580588
N  N4  1  0.28829000  0.95493000  0.66998000  1.0 -0.2363580588
N  N5  1  0.95006000  0.89680000  0.84765000  1.0 -0.2169104415
N  N6  1  0.89680000  0.95006000  0.65235000  1.0 -0.2169104415
N  N7  1  0.04994000  0.10320000  0.15235000  1.0 -0.2169104415
N  N8  1  0.10320000  0.04994000  0.34765000  1.0 -0.2169104415
O  O1  1  0.14826000  0.53546000  0.72312000  1.0 -0.5020365688
O  O2  1  0.53546000  0.14826000  0.77688000  1.0 -0.5020365688
O  O3  1  0.85174000  0.46454000  0.27688000  1.0 -0.5020365688
O  O4  1  0.46454000  0.85174000  0.22312000  1.0 -0.5020365688
O  O5  1  0.16057000  0.39963000  0.67421000  1.0 -0.0816982958
O  O6  1  0.39963000  0.16057000  0.82579000  1.0 -0.0816982958
O  O7  1  0.83943000  0.60037000  0.32579000  1.0 -0.0816982958
O  O8  1  0.60037000  0.83943000  0.17421000  1.0 -0.0816982958
O  O9  1  0.47828000  0.65626000  0.79278000  1.0 -0.5504231128
O  O10  1  0.65626000  0.47828000  0.70722000  1.0 -0.5504231128
O  O11  1  0.52172000  0.34374000  0.20722000  1.0 -0.5504231128
O  O12  1  0.34374000  0.52172000  0.29278000  1.0 -0.5504231128
O  O13  1  0.46818000  0.84402000  0.78724000  1.0 -0.5504231128
O  O14  1  0.84402000  0.46818000  0.71276000  1.0 -0.5504231128
O  O15  1  0.53182000  0.15598000  0.21276000  1.0 -0.5504231128
O  O16  1  0.15598000  0.53182000  0.28724000  1.0 -0.5504231128
O  O17  1  0.76411000  0.18665000  0.69200000  1.0 -0.5337794546
O  O18  1  0.18665000  0.76411000  0.80800000  1.0 -0.5337794546
O  O19  1  0.23589000  0.81335000  0.30800000  1.0 -0.5337794546
O  O20  1  0.81335000  0.23589000  0.19200000  1.0 -0.5337794546
O  O21  1  0.81141000  0.02279000  0.74423000  1.0 -0.5504231128
O  O22  1  0.02279000  0.81141000  0.75577000  1.0 -0.5504231128
O  O23  1  0.18859000  0.97721000  0.25577000  1.0 -0.5504231128
O  O24  1  0.97721000  0.18859000  0.24423000  1.0 -0.5504231128
O  O25  1  0.09175000  0.42745000  0.64868000  1.0 -0.0436758801
O  O26  1  0.42745000  0.09175000  0.85132000  1.0 -0.0436758801
O  O27  1  0.90825000  0.57255000  0.35132000  1.0 -0.0436758801
O  O28  1  0.57255000  0.90825000  0.14868000  1.0 -0.0436758801
