# DDEC6 charges by PACMAN v1.1 (https://github.com/mtap-research/PACMAN-charge/)
data_IJAPIU_ASR_pacman
_symmetry_space_group_name_H-M   'P 1'
_cell_length_a   16.72450000
_cell_length_b   16.72450000
_cell_length_c   16.72450000
_cell_angle_alpha   68.68160000
_cell_angle_beta   68.68160000
_cell_angle_gamma   68.68160000
_symmetry_Int_Tables_number   1
_chemical_formula_structural   ZnH9C13(NO2)2
_chemical_formula_sum   'Zn6 H54 C78 N12 O24'
_cell_volume   3912.75164214
_cell_formula_units_Z   6
loop_
 _symmetry_equiv_pos_site_id
 _symmetry_equiv_pos_as_xyz
  1  'x, y, z'
loop_
 _atom_site_type_symbol
 _atom_site_label
 _atom_site_symmetry_multiplicity
 _atom_site_fract_x
 _atom_site_fract_y
 _atom_site_fract_z
 _atom_site_occupancy
 _atom_site_charge
Zn  Zn1  1  0.50716000  0.08392000  0.50716000  1.0 0.9524399092
Zn  Zn2  1  0.08392000  0.50716000  0.50716000  1.0 0.9524399092
Zn  Zn3  1  0.50716000  0.50716000  0.08392000  1.0 0.9524399092
Zn  Zn4  1  0.91608000  0.49284000  0.49284000  1.0 0.9524399092
Zn  Zn5  1  0.49284000  0.91608000  0.49284000  1.0 0.9524399092
Zn  Zn6  1  0.49284000  0.49284000  0.91608000  1.0 0.9524399092
H  H1  1  0.53040000  0.23090000  0.23090000  1.0 0.1389213155
H  H2  1  0.23090000  0.23090000  0.53040000  1.0 0.1389213155
H  H3  1  0.23090000  0.53040000  0.23090000  1.0 0.1389213155
H  H4  1  0.76910000  0.46960000  0.76910000  1.0 0.1389213155
H  H5  1  0.76910000  0.76910000  0.46960000  1.0 0.1389213155
H  H6  1  0.46960000  0.76910000  0.76910000  1.0 0.1389213155
H  H7  1  0.51850000  0.00230000  0.21430000  1.0 0.1237959886
H  H8  1  0.00230000  0.21430000  0.51850000  1.0 0.1237959886
H  H9  1  0.21430000  0.51850000  0.00230000  1.0 0.1237959886
H  H10  1  0.99770000  0.48150000  0.78570000  1.0 0.1237959886
H  H11  1  0.78570000  0.99770000  0.48150000  1.0 0.1237959886
H  H12  1  0.48150000  0.78570000  0.99770000  1.0 0.1237959886
H  H13  1  0.48150000  0.99770000  0.78570000  1.0 0.1237959886
H  H14  1  0.99770000  0.78570000  0.48150000  1.0 0.1237959886
H  H15  1  0.78570000  0.48150000  0.99770000  1.0 0.1237959886
H  H16  1  0.00230000  0.51850000  0.21430000  1.0 0.1237959886
H  H17  1  0.21430000  0.00230000  0.51850000  1.0 0.1237959886
H  H18  1  0.51850000  0.21430000  0.00230000  1.0 0.1237959886
H  H19  1  0.41110000  0.13810000  0.00200000  1.0 0.1075245868
H  H20  1  0.13810000  0.00200000  0.41110000  1.0 0.1075245868
H  H21  1  0.00200000  0.41110000  0.13810000  1.0 0.1075245868
H  H22  1  0.86190000  0.58890000  0.99800000  1.0 0.1075245868
H  H23  1  0.99800000  0.86190000  0.58890000  1.0 0.1075245868
H  H24  1  0.58890000  0.99800000  0.86190000  1.0 0.1075245868
H  H25  1  0.58890000  0.86190000  0.99800000  1.0 0.1075245868
H  H26  1  0.86190000  0.99800000  0.58890000  1.0 0.1075245868
H  H27  1  0.99800000  0.58890000  0.86190000  1.0 0.1075245868
H  H28  1  0.13810000  0.41110000  0.00200000  1.0 0.1075245868
H  H29  1  0.00200000  0.13810000  0.41110000  1.0 0.1075245868
H  H30  1  0.41110000  0.00200000  0.13810000  1.0 0.1075245868
H  H31  1  0.66200000  0.95090000  0.10390000  1.0 0.2729874303
H  H32  1  0.95090000  0.10390000  0.66200000  1.0 0.2729874303
H  H33  1  0.10390000  0.66200000  0.95090000  1.0 0.2729874303
H  H34  1  0.04910000  0.33800000  0.89610000  1.0 0.2729874303
H  H35  1  0.89610000  0.04910000  0.33800000  1.0 0.2729874303
H  H36  1  0.33800000  0.89610000  0.04910000  1.0 0.2729874303
H  H37  1  0.33800000  0.04910000  0.89610000  1.0 0.2729874303
H  H38  1  0.04910000  0.89610000  0.33800000  1.0 0.2729874303
H  H39  1  0.89610000  0.33800000  0.04910000  1.0 0.2729874303
H  H40  1  0.95090000  0.66200000  0.10390000  1.0 0.2729874303
H  H41  1  0.10390000  0.95090000  0.66200000  1.0 0.2729874303
H  H42  1  0.66200000  0.10390000  0.95090000  1.0 0.2729874303
H  H43  1  0.67680000  0.86830000  0.07960000  1.0 0.2858443136
H  H44  1  0.86830000  0.07960000  0.67680000  1.0 0.2858443136
H  H45  1  0.07960000  0.67680000  0.86830000  1.0 0.2858443136
H  H46  1  0.13170000  0.32320000  0.92040000  1.0 0.2858443136
H  H47  1  0.92040000  0.13170000  0.32320000  1.0 0.2858443136
H  H48  1  0.32320000  0.92040000  0.13170000  1.0 0.2858443136
H  H49  1  0.32320000  0.13170000  0.92040000  1.0 0.2858443136
H  H50  1  0.13170000  0.92040000  0.32320000  1.0 0.2858443136
H  H51  1  0.92040000  0.32320000  0.13170000  1.0 0.2858443136
H  H52  1  0.86830000  0.67680000  0.07960000  1.0 0.2858443136
H  H53  1  0.07960000  0.86830000  0.67680000  1.0 0.2858443136
H  H54  1  0.67680000  0.07960000  0.86830000  1.0 0.2858443136
C  C1  1  0.51897000  0.06926000  0.33389000  1.0 0.5956515322
C  C2  1  0.06926000  0.33389000  0.51897000  1.0 0.5956515322
C  C3  1  0.33389000  0.51897000  0.06926000  1.0 0.5956515322
C  C4  1  0.93074000  0.48103000  0.66611000  1.0 0.5956515322
C  C5  1  0.66611000  0.93074000  0.48103000  1.0 0.5956515322
C  C6  1  0.48103000  0.66611000  0.93074000  1.0 0.5956515322
C  C7  1  0.48103000  0.93074000  0.66611000  1.0 0.5956515322
C  C8  1  0.93074000  0.66611000  0.48103000  1.0 0.5956515322
C  C9  1  0.66611000  0.48103000  0.93074000  1.0 0.5956515322
C  C10  1  0.06926000  0.51897000  0.33389000  1.0 0.5956515322
C  C11  1  0.33389000  0.06926000  0.51897000  1.0 0.5956515322
C  C12  1  0.51897000  0.33389000  0.06926000  1.0 0.5956515322
C  C13  1  0.52342000  0.11061000  0.23745000  1.0 -0.0245128682
C  C14  1  0.11061000  0.23745000  0.52342000  1.0 -0.0257155554
C  C15  1  0.23745000  0.52342000  0.11061000  1.0 -0.0245128682
C  C16  1  0.88939000  0.47658000  0.76255000  1.0 -0.0245128682
C  C17  1  0.76255000  0.88939000  0.47658000  1.0 -0.0245128682
C  C18  1  0.47658000  0.76255000  0.88939000  1.0 -0.0245128682
C  C19  1  0.47658000  0.88939000  0.76255000  1.0 -0.0245128682
C  C20  1  0.88939000  0.76255000  0.47658000  1.0 -0.0245128682
C  C21  1  0.76255000  0.47658000  0.88939000  1.0 -0.0245128682
C  C22  1  0.11061000  0.52342000  0.23745000  1.0 -0.0245128682
C  C23  1  0.23745000  0.11061000  0.52342000  1.0 -0.0245128682
C  C24  1  0.52342000  0.23745000  0.11061000  1.0 -0.0245128682
C  C25  1  0.51848000  0.09892000  0.09892000  1.0 0.0718426705
C  C26  1  0.09892000  0.09892000  0.51848000  1.0 0.0718426705
C  C27  1  0.09892000  0.51848000  0.09892000  1.0 0.0718426705
C  C28  1  0.90108000  0.48152000  0.90108000  1.0 0.0718426705
C  C29  1  0.90108000  0.90108000  0.48152000  1.0 0.0718426705
C  C30  1  0.48152000  0.90108000  0.90108000  1.0 0.0718426705
C  C31  1  0.51188000  0.04666000  0.04666000  1.0 -0.0430373018
C  C32  1  0.04666000  0.04666000  0.51188000  1.0 -0.0451628727
C  C33  1  0.04666000  0.51188000  0.04666000  1.0 -0.0430373018
C  C34  1  0.95334000  0.48812000  0.95334000  1.0 -0.0430373018
C  C35  1  0.95334000  0.95334000  0.48812000  1.0 -0.0430373018
C  C36  1  0.48812000  0.95334000  0.95334000  1.0 -0.0430373018
C  C37  1  0.52636000  0.19833000  0.19833000  1.0 -0.1109294072
C  C38  1  0.19833000  0.19833000  0.52636000  1.0 -0.1109294072
C  C39  1  0.19833000  0.52636000  0.19833000  1.0 -0.1109294072
C  C40  1  0.80167000  0.47364000  0.80167000  1.0 -0.1109294072
C  C41  1  0.80167000  0.80167000  0.47364000  1.0 -0.1109294072
C  C42  1  0.47364000  0.80167000  0.80167000  1.0 -0.1109294072
C  C43  1  0.51990000  0.06139000  0.18762000  1.0 -0.157431261
C  C44  1  0.06139000  0.18762000  0.51990000  1.0 -0.157431261
C  C45  1  0.18762000  0.51990000  0.06139000  1.0 -0.157431261
C  C46  1  0.93861000  0.48010000  0.81238000  1.0 -0.157431261
C  C47  1  0.81238000  0.93861000  0.48010000  1.0 -0.157431261
C  C48  1  0.48010000  0.81238000  0.93861000  1.0 -0.157431261
C  C49  1  0.48010000  0.93861000  0.81238000  1.0 -0.157431261
C  C50  1  0.93861000  0.81238000  0.48010000  1.0 -0.157431261
C  C51  1  0.81238000  0.48010000  0.93861000  1.0 -0.157431261
C  C52  1  0.06139000  0.51990000  0.18762000  1.0 -0.157431261
C  C53  1  0.18762000  0.06139000  0.51990000  1.0 -0.157431261
C  C54  1  0.51990000  0.18762000  0.06139000  1.0 -0.157431261
C  C55  1  0.44817000  0.08117000  0.00107000  1.0 -0.1229122436
C  C56  1  0.08117000  0.00107000  0.44817000  1.0 -0.1229122436
C  C57  1  0.00107000  0.44817000  0.08117000  1.0 -0.1229122436
C  C58  1  0.91883000  0.55183000  0.99893000  1.0 -0.1229122436
C  C59  1  0.99893000  0.91883000  0.55183000  1.0 -0.1229122436
C  C60  1  0.55183000  0.99893000  0.91883000  1.0 -0.1229122436
C  C61  1  0.55183000  0.91883000  0.99893000  1.0 -0.1229122436
C  C62  1  0.91883000  0.99893000  0.55183000  1.0 -0.1229122436
C  C63  1  0.99893000  0.55183000  0.91883000  1.0 -0.1229122436
C  C64  1  0.08117000  0.44817000  0.00107000  1.0 -0.1229122436
C  C65  1  0.00107000  0.08117000  0.44817000  1.0 -0.1229122436
C  C66  1  0.44817000  0.00107000  0.08117000  1.0 -0.1229122436
C  C67  1  0.56402000  0.96462000  0.04662000  1.0 0.1261812262
C  C68  1  0.96462000  0.04662000  0.56402000  1.0 0.1261812262
C  C69  1  0.04662000  0.56402000  0.96462000  1.0 0.1261812262
C  C70  1  0.03538000  0.43598000  0.95338000  1.0 0.1261812262
C  C71  1  0.95338000  0.03538000  0.43598000  1.0 0.1261812262
C  C72  1  0.43598000  0.95338000  0.03538000  1.0 0.1261812262
C  C73  1  0.43598000  0.03538000  0.95338000  1.0 0.1261812262
C  C74  1  0.03538000  0.95338000  0.43598000  1.0 0.1261812262
C  C75  1  0.95338000  0.43598000  0.03538000  1.0 0.1261812262
C  C76  1  0.96462000  0.56402000  0.04662000  1.0 0.1261812262
C  C77  1  0.04662000  0.96462000  0.56402000  1.0 0.1261812262
C  C78  1  0.56402000  0.04662000  0.96462000  1.0 0.1261812262
N  N1  1  0.64610000  0.92170000  0.08180000  1.0 -0.6317464163
N  N2  1  0.92170000  0.08180000  0.64610000  1.0 -0.6317464163
N  N3  1  0.08180000  0.64610000  0.92170000  1.0 -0.6317464163
N  N4  1  0.07830000  0.35390000  0.91820000  1.0 -0.6317464163
N  N5  1  0.91820000  0.07830000  0.35390000  1.0 -0.6317464163
N  N6  1  0.35390000  0.91820000  0.07830000  1.0 -0.6317464163
N  N7  1  0.35390000  0.07830000  0.91820000  1.0 -0.6317464163
N  N8  1  0.07830000  0.91820000  0.35390000  1.0 -0.6317464163
N  N9  1  0.91820000  0.35390000  0.07830000  1.0 -0.6317464163
N  N10  1  0.92170000  0.64610000  0.08180000  1.0 -0.6317464163
N  N11  1  0.08180000  0.92170000  0.64610000  1.0 -0.6317464163
N  N12  1  0.64610000  0.08180000  0.92170000  1.0 -0.6317464163
O  O1  1  0.52256000  0.11756000  0.37518000  1.0 -0.5457439174
O  O2  1  0.11756000  0.37518000  0.52256000  1.0 -0.5449048628
O  O3  1  0.37518000  0.52256000  0.11756000  1.0 -0.5457439174
O  O4  1  0.88244000  0.47744000  0.62482000  1.0 -0.5457439174
O  O5  1  0.62482000  0.88244000  0.47744000  1.0 -0.5457439174
O  O6  1  0.47744000  0.62482000  0.88244000  1.0 -0.5457439174
O  O7  1  0.47744000  0.88244000  0.62482000  1.0 -0.5449048628
O  O8  1  0.88244000  0.62482000  0.47744000  1.0 -0.5457439174
O  O9  1  0.62482000  0.47744000  0.88244000  1.0 -0.5457439174
O  O10  1  0.11756000  0.52256000  0.37518000  1.0 -0.5457439174
O  O11  1  0.37518000  0.11756000  0.52256000  1.0 -0.5449048628
O  O12  1  0.52256000  0.37518000  0.11756000  1.0 -0.5457439174
O  O13  1  0.51387000  0.99161000  0.36516000  1.0 -0.5341893732
O  O14  1  0.99161000  0.36516000  0.51387000  1.0 -0.5341893732
O  O15  1  0.36516000  0.51387000  0.99161000  1.0 -0.5341893732
O  O16  1  0.00839000  0.48613000  0.63484000  1.0 -0.5341893732
O  O17  1  0.63484000  0.00839000  0.48613000  1.0 -0.5341893732
O  O18  1  0.48613000  0.63484000  0.00839000  1.0 -0.5341893732
O  O19  1  0.48613000  0.00839000  0.63484000  1.0 -0.5341893732
O  O20  1  0.00839000  0.63484000  0.48613000  1.0 -0.5341893732
O  O21  1  0.63484000  0.48613000  0.00839000  1.0 -0.5341893732
O  O22  1  0.99161000  0.51387000  0.36516000  1.0 -0.5341893732
O  O23  1  0.36516000  0.99161000  0.51387000  1.0 -0.5341893732
O  O24  1  0.51387000  0.36516000  0.99161000  1.0 -0.5341893732
