# DDEC6 charges by PACMAN v1.1 (https://github.com/mtap-research/PACMAN-charge/)
data_IJAPOA_ASR_pacman
_symmetry_space_group_name_H-M   'P 1'
_cell_length_a   16.77500000
_cell_length_b   16.77500000
_cell_length_c   16.77500000
_cell_angle_alpha   67.36300000
_cell_angle_beta   67.36300000
_cell_angle_gamma   67.36300000
_symmetry_Int_Tables_number   1
_chemical_formula_structural   CuH9C13(NO2)2
_chemical_formula_sum   'Cu6 H54 C78 N12 O24'
_cell_volume   3862.77452680
_cell_formula_units_Z   6
loop_
 _symmetry_equiv_pos_site_id
 _symmetry_equiv_pos_as_xyz
  1  'x, y, z'
loop_
 _atom_site_type_symbol
 _atom_site_label
 _atom_site_symmetry_multiplicity
 _atom_site_fract_x
 _atom_site_fract_y
 _atom_site_fract_z
 _atom_site_occupancy
 _atom_site_charge
Cu  Cu1  1  0.42550000  0.99550000  0.99550000  1.0 0.8485831563
Cu  Cu2  1  0.99550000  0.99550000  0.42550000  1.0 0.8485831563
Cu  Cu3  1  0.99550000  0.42550000  0.99550000  1.0 0.8485831563
Cu  Cu4  1  0.00450000  0.57450000  0.00450000  1.0 0.8485831563
Cu  Cu5  1  0.00450000  0.00450000  0.57450000  1.0 0.8485831563
Cu  Cu6  1  0.57450000  0.00450000  0.00450000  1.0 0.8485831563
H  H1  1  0.35680000  0.08430000  0.50420000  1.0 0.111029219
H  H2  1  0.08430000  0.50420000  0.35680000  1.0 0.111029219
H  H3  1  0.50420000  0.35680000  0.08430000  1.0 0.111029219
H  H4  1  0.91570000  0.64320000  0.49580000  1.0 0.111029219
H  H5  1  0.49580000  0.91570000  0.64320000  1.0 0.111029219
H  H6  1  0.64320000  0.49580000  0.91570000  1.0 0.111029219
H  H7  1  0.64320000  0.91570000  0.49580000  1.0 0.111029219
H  H8  1  0.91570000  0.49580000  0.64320000  1.0 0.111029219
H  H9  1  0.49580000  0.64320000  0.91570000  1.0 0.111029219
H  H10  1  0.08430000  0.35680000  0.50420000  1.0 0.111029219
H  H11  1  0.50420000  0.08430000  0.35680000  1.0 0.111029219
H  H12  1  0.35680000  0.50420000  0.08430000  1.0 0.111029219
H  H13  1  0.50060000  0.98050000  0.28570000  1.0 0.1195506137
H  H14  1  0.98050000  0.28570000  0.50060000  1.0 0.1195506137
H  H15  1  0.28570000  0.50060000  0.98050000  1.0 0.1195506137
H  H16  1  0.01950000  0.49940000  0.71430000  1.0 0.1195506137
H  H17  1  0.71430000  0.01950000  0.49940000  1.0 0.1195506137
H  H18  1  0.49940000  0.71430000  0.01950000  1.0 0.1195506137
H  H19  1  0.49940000  0.01950000  0.71430000  1.0 0.1195506137
H  H20  1  0.01950000  0.71430000  0.49940000  1.0 0.1195506137
H  H21  1  0.71430000  0.49940000  0.01950000  1.0 0.1195506137
H  H22  1  0.98050000  0.50060000  0.28570000  1.0 0.1195506137
H  H23  1  0.28570000  0.98050000  0.50060000  1.0 0.1195506137
H  H24  1  0.50060000  0.28570000  0.98050000  1.0 0.1195506137
H  H25  1  0.27225000  0.97030000  0.27225000  1.0 0.1416047905
H  H26  1  0.97030000  0.27225000  0.27225000  1.0 0.1416047905
H  H27  1  0.27225000  0.27225000  0.97030000  1.0 0.1416047905
H  H28  1  0.02970000  0.72775000  0.72775000  1.0 0.1416047905
H  H29  1  0.72775000  0.02970000  0.72775000  1.0 0.1416047905
H  H30  1  0.72775000  0.72775000  0.02970000  1.0 0.1416047905
H  H31  1  0.38030000  0.84740000  0.56910000  1.0 0.2720530835
H  H32  1  0.84740000  0.56910000  0.38030000  1.0 0.2720530835
H  H33  1  0.56910000  0.38030000  0.84740000  1.0 0.2720530835
H  H34  1  0.15260000  0.61970000  0.43090000  1.0 0.2720530835
H  H35  1  0.43090000  0.15260000  0.61970000  1.0 0.2720530835
H  H36  1  0.61970000  0.43090000  0.15260000  1.0 0.2720530835
H  H37  1  0.61970000  0.15260000  0.43090000  1.0 0.2720530835
H  H38  1  0.15260000  0.43090000  0.61970000  1.0 0.2720530835
H  H39  1  0.43090000  0.61970000  0.15260000  1.0 0.2720530835
H  H40  1  0.84740000  0.38030000  0.56910000  1.0 0.2720530835
H  H41  1  0.56910000  0.84740000  0.38030000  1.0 0.2720530835
H  H42  1  0.38030000  0.56910000  0.84740000  1.0 0.2720530835
H  H43  1  0.41120000  0.83410000  0.64660000  1.0 0.2720530835
H  H44  1  0.83410000  0.64660000  0.41120000  1.0 0.2720530835
H  H45  1  0.64660000  0.41120000  0.83410000  1.0 0.2720530835
H  H46  1  0.16590000  0.58880000  0.35340000  1.0 0.2720530835
H  H47  1  0.35340000  0.16590000  0.58880000  1.0 0.2720530835
H  H48  1  0.58880000  0.35340000  0.16590000  1.0 0.2720530835
H  H49  1  0.58880000  0.16590000  0.35340000  1.0 0.2720530835
H  H50  1  0.16590000  0.35340000  0.58880000  1.0 0.2720530835
H  H51  1  0.35340000  0.58880000  0.16590000  1.0 0.2720530835
H  H52  1  0.83410000  0.41120000  0.64660000  1.0 0.2720530835
H  H53  1  0.64660000  0.83410000  0.41120000  1.0 0.2720530835
H  H54  1  0.41120000  0.64660000  0.83410000  1.0 0.2720530835
C  C1  1  0.41580000  0.04950000  0.50160000  1.0 -0.1193840187
C  C2  1  0.04950000  0.50160000  0.41580000  1.0 -0.1193840187
C  C3  1  0.50160000  0.41580000  0.04950000  1.0 -0.1193840187
C  C4  1  0.95050000  0.58420000  0.49840000  1.0 -0.1193840187
C  C5  1  0.49840000  0.95050000  0.58420000  1.0 -0.1193840187
C  C6  1  0.58420000  0.49840000  0.95050000  1.0 -0.1193840187
C  C7  1  0.58420000  0.95050000  0.49840000  1.0 -0.1193840187
C  C8  1  0.95050000  0.49840000  0.58420000  1.0 -0.1193840187
C  C9  1  0.49840000  0.58420000  0.95050000  1.0 -0.1193840187
C  C10  1  0.04950000  0.41580000  0.50160000  1.0 -0.1193840187
C  C11  1  0.50160000  0.04950000  0.41580000  1.0 -0.1193840187
C  C12  1  0.41580000  0.50160000  0.04950000  1.0 -0.1193840187
C  C13  1  0.45110000  0.93870000  0.53840000  1.0 0.1334447445
C  C14  1  0.93870000  0.53840000  0.45110000  1.0 0.1334447445
C  C15  1  0.53840000  0.45110000  0.93870000  1.0 0.1334447445
C  C16  1  0.06130000  0.54890000  0.46160000  1.0 0.1334447445
C  C17  1  0.46160000  0.06130000  0.54890000  1.0 0.1334447445
C  C18  1  0.54890000  0.46160000  0.06130000  1.0 0.1334447445
C  C19  1  0.54890000  0.06130000  0.46160000  1.0 0.1334447445
C  C20  1  0.06130000  0.46160000  0.54890000  1.0 0.1334447445
C  C21  1  0.46160000  0.54890000  0.06130000  1.0 0.1334447445
C  C22  1  0.93870000  0.45110000  0.53840000  1.0 0.1334447445
C  C23  1  0.53840000  0.93870000  0.45110000  1.0 0.1334447445
C  C24  1  0.45110000  0.53840000  0.93870000  1.0 0.1334447445
C  C25  1  0.43417000  0.98037000  0.16647000  1.0 0.578989093
C  C26  1  0.98037000  0.16647000  0.43417000  1.0 0.578989093
C  C27  1  0.16647000  0.43417000  0.98037000  1.0 0.578989093
C  C28  1  0.01963000  0.56583000  0.83353000  1.0 0.578989093
C  C29  1  0.83353000  0.01963000  0.56583000  1.0 0.578989093
C  C30  1  0.56583000  0.83353000  0.01963000  1.0 0.578989093
C  C31  1  0.56583000  0.01963000  0.83353000  1.0 0.578989093
C  C32  1  0.01963000  0.83353000  0.56583000  1.0 0.578989093
C  C33  1  0.83353000  0.56583000  0.01963000  1.0 0.578989093
C  C34  1  0.98037000  0.43417000  0.16647000  1.0 0.578989093
C  C35  1  0.16647000  0.98037000  0.43417000  1.0 0.578989093
C  C36  1  0.43417000  0.16647000  0.98037000  1.0 0.578989093
C  C37  1  0.44082000  0.98032000  0.31272000  1.0 -0.1574896679
C  C38  1  0.98032000  0.31272000  0.44082000  1.0 -0.1574896679
C  C39  1  0.31272000  0.44082000  0.98032000  1.0 -0.1574896679
C  C40  1  0.01968000  0.55918000  0.68728000  1.0 -0.1574896679
C  C41  1  0.68728000  0.01968000  0.55918000  1.0 -0.1574896679
C  C42  1  0.55918000  0.68728000  0.01968000  1.0 -0.1574896679
C  C43  1  0.55918000  0.01968000  0.68728000  1.0 -0.1574896679
C  C44  1  0.01968000  0.68728000  0.55918000  1.0 -0.1574896679
C  C45  1  0.68728000  0.55918000  0.01968000  1.0 -0.1574896679
C  C46  1  0.98032000  0.44082000  0.31272000  1.0 -0.1574896679
C  C47  1  0.31272000  0.98032000  0.44082000  1.0 -0.1574896679
C  C48  1  0.44082000  0.31272000  0.98032000  1.0 -0.1574896679
C  C49  1  0.40156000  0.98291000  0.40156000  1.0 0.078211194
C  C50  1  0.98291000  0.40156000  0.40156000  1.0 0.078211194
C  C51  1  0.40156000  0.40156000  0.98291000  1.0 0.078211194
C  C52  1  0.01709000  0.59844000  0.59844000  1.0 0.078211194
C  C53  1  0.59844000  0.01709000  0.59844000  1.0 0.078211194
C  C54  1  0.59844000  0.59844000  0.01709000  1.0 0.078211194
C  C55  1  0.39188000  0.97728000  0.26348000  1.0 -0.0137261478
C  C56  1  0.97728000  0.26348000  0.39188000  1.0 -0.0137261478
C  C57  1  0.26348000  0.39188000  0.97728000  1.0 -0.0137261478
C  C58  1  0.02272000  0.60812000  0.73652000  1.0 -0.0137261478
C  C59  1  0.73652000  0.02272000  0.60812000  1.0 -0.0137261478
C  C60  1  0.60812000  0.73652000  0.02272000  1.0 -0.0137261478
C  C61  1  0.60812000  0.02272000  0.73652000  1.0 -0.0137261478
C  C62  1  0.02272000  0.73652000  0.60812000  1.0 -0.0137261478
C  C63  1  0.73652000  0.60812000  0.02272000  1.0 -0.0137261478
C  C64  1  0.97728000  0.39188000  0.26348000  1.0 -0.0137261478
C  C65  1  0.26348000  0.97728000  0.39188000  1.0 -0.0137261478
C  C66  1  0.39188000  0.26348000  0.97728000  1.0 -0.0137261478
C  C67  1  0.30440000  0.97440000  0.30440000  1.0 -0.111917762
C  C68  1  0.97440000  0.30440000  0.30440000  1.0 -0.111917762
C  C69  1  0.30440000  0.30440000  0.97440000  1.0 -0.111917762
C  C70  1  0.02560000  0.69560000  0.69560000  1.0 -0.111917762
C  C71  1  0.69560000  0.02560000  0.69560000  1.0 -0.111917762
C  C72  1  0.69560000  0.69560000  0.02560000  1.0 -0.111917762
C  C73  1  0.45289000  0.99044000  0.45289000  1.0 -0.0309588927
C  C74  1  0.99044000  0.45289000  0.45289000  1.0 -0.0309588927
C  C75  1  0.45289000  0.45289000  0.99044000  1.0 -0.0309588927
C  C76  1  0.00956000  0.54711000  0.54711000  1.0 -0.0309588927
C  C77  1  0.54711000  0.00956000  0.54711000  1.0 -0.0309588927
C  C78  1  0.54711000  0.54711000  0.00956000  1.0 -0.0309588927
N  N1  1  0.40800000  0.86240000  0.59240000  1.0 -0.6253725237
N  N2  1  0.86240000  0.59240000  0.40800000  1.0 -0.6253725237
N  N3  1  0.59240000  0.40800000  0.86240000  1.0 -0.6253725237
N  N4  1  0.13760000  0.59200000  0.40760000  1.0 -0.6248114761
N  N5  1  0.40760000  0.13760000  0.59200000  1.0 -0.6253725237
N  N6  1  0.59200000  0.40760000  0.13760000  1.0 -0.6253725237
N  N7  1  0.59200000  0.13760000  0.40760000  1.0 -0.6253725237
N  N8  1  0.13760000  0.40760000  0.59200000  1.0 -0.6253725237
N  N9  1  0.40760000  0.59200000  0.13760000  1.0 -0.6253725237
N  N10  1  0.86240000  0.40800000  0.59240000  1.0 -0.6253725237
N  N11  1  0.59240000  0.86240000  0.40800000  1.0 -0.6253725237
N  N12  1  0.40800000  0.59240000  0.86240000  1.0 -0.6253725237
O  O1  1  0.38656000  0.97810000  0.12587000  1.0 -0.5141466415
O  O2  1  0.97810000  0.12587000  0.38656000  1.0 -0.5141466415
O  O3  1  0.12587000  0.38656000  0.97810000  1.0 -0.5141466415
O  O4  1  0.02190000  0.61344000  0.87413000  1.0 -0.5141466415
O  O5  1  0.87413000  0.02190000  0.61344000  1.0 -0.5141466415
O  O6  1  0.61344000  0.87413000  0.02190000  1.0 -0.5141466415
O  O7  1  0.61344000  0.02190000  0.87413000  1.0 -0.5141466415
O  O8  1  0.02190000  0.87413000  0.61344000  1.0 -0.5141466415
O  O9  1  0.87413000  0.61344000  0.02190000  1.0 -0.5141466415
O  O10  1  0.97810000  0.38656000  0.12587000  1.0 -0.5141466415
O  O11  1  0.12587000  0.97810000  0.38656000  1.0 -0.5141466415
O  O12  1  0.38656000  0.12587000  0.97810000  1.0 -0.5141466415
O  O13  1  0.51335000  0.98623000  0.13297000  1.0 -0.5198088344
O  O14  1  0.98623000  0.13297000  0.51335000  1.0 -0.5198088344
O  O15  1  0.13297000  0.51335000  0.98623000  1.0 -0.5198088344
O  O16  1  0.01377000  0.48665000  0.86703000  1.0 -0.5198088344
O  O17  1  0.86703000  0.01377000  0.48665000  1.0 -0.5198088344
O  O18  1  0.48665000  0.86703000  0.01377000  1.0 -0.5198088344
O  O19  1  0.48665000  0.01377000  0.86703000  1.0 -0.5198088344
O  O20  1  0.01377000  0.86703000  0.48665000  1.0 -0.5198088344
O  O21  1  0.86703000  0.48665000  0.01377000  1.0 -0.5198088344
O  O22  1  0.98623000  0.51335000  0.13297000  1.0 -0.5198088344
O  O23  1  0.13297000  0.98623000  0.51335000  1.0 -0.5198088344
O  O24  1  0.51335000  0.13297000  0.98623000  1.0 -0.5198088344
