# DDEC6 charges by PACMAN v1.1 (https://github.com/mtap-research/PACMAN-charge/)
data_IJEVIE_ASR_pacman
_symmetry_space_group_name_H-M   'P 1'
_cell_length_a   10.14300000
_cell_length_b   16.12700000
_cell_length_c   22.93700000
_cell_angle_alpha   79.01500000
_cell_angle_beta   84.96300000
_cell_angle_gamma   77.48400000
_symmetry_Int_Tables_number   1
_chemical_formula_structural   Cd11H32(C2O)48
_chemical_formula_sum   'Cd11 H32 C96 O48'
_cell_volume   3591.43471846
_cell_formula_units_Z   1
loop_
 _symmetry_equiv_pos_site_id
 _symmetry_equiv_pos_as_xyz
  1  'x, y, z'
loop_
 _atom_site_type_symbol
 _atom_site_label
 _atom_site_symmetry_multiplicity
 _atom_site_fract_x
 _atom_site_fract_y
 _atom_site_fract_z
 _atom_site_occupancy
 _atom_site_charge
Cd  Cd1  1  0.20449000  0.97191000  0.21140000  1.0 1.02916251
Cd  Cd2  1  0.79551000  0.02809000  0.78860000  1.0 1.02916251
Cd  Cd3  1  0.13597000  0.44438000  0.19551000  1.0 1.023077889
Cd  Cd4  1  0.86403000  0.55562000  0.80449000  1.0 1.023077889
Cd  Cd5  1  0.42404000  0.03628000  0.30690000  1.0 1.040828033
Cd  Cd6  1  0.57596000  0.96372000  0.69310000  1.0 1.040828033
Cd  Cd7  1  0.49880000  0.68616000  0.23099000  1.0 1.0887047487
Cd  Cd8  1  0.50120000  0.31384000  0.76901000  1.0 1.0887047487
Cd  Cd9  1  0.32378000  0.52314000  0.28797000  1.0 1.0080969768
Cd  Cd10  1  0.67622000  0.47686000  0.71203000  1.0 1.0080969768
Cd  Cd11  1  0.50000000  0.00000000  0.50000000  1.0 0.9323491293
H  H1  1  0.87040000  0.14930000  0.08510000  1.0 0.1302544477
H  H2  1  0.12960000  0.85070000  0.91490000  1.0 0.1302544477
H  H3  1  0.48590000  0.14190000  0.06970000  1.0 0.1302544477
H  H4  1  0.51410000  0.85810000  0.93030000  1.0 0.1302544477
H  H5  1  0.68790000  0.99320000  0.20770000  1.0 0.1395136056
H  H6  1  0.31210000  0.00680000  0.79230000  1.0 0.1395136056
H  H7  1  0.49840000  0.33790000  0.08060000  1.0 0.1302544477
H  H8  1  0.50160000  0.66210000  0.91940000  1.0 0.1302544477
H  H9  1  0.88970000  0.35530000  0.05120000  1.0 0.1302544477
H  H10  1  0.11030000  0.64470000  0.94880000  1.0 0.1302544477
H  H11  1  0.66640000  0.45620000  0.18540000  1.0 0.1302544477
H  H12  1  0.33360000  0.54380000  0.81460000  1.0 0.1302544477
H  H13  1  0.73630000  0.40150000  0.94350000  1.0 0.1395136056
H  H14  1  0.26370000  0.59850000  0.05650000  1.0 0.1395136056
H  H15  1  0.67560000  0.12300000  0.96230000  1.0 0.1395136056
H  H16  1  0.32440000  0.87700000  0.03770000  1.0 0.1395136056
H  H17  1  0.20700000  0.61980000  0.45750000  1.0 0.1302544477
H  H18  1  0.79300000  0.38020000  0.54250000  1.0 0.1302544477
H  H19  1  0.19580000  0.90790000  0.44790000  1.0 0.1302544477
H  H20  1  0.80420000  0.09210000  0.55210000  1.0 0.1302544477
H  H21  1  0.95010000  0.83050000  0.58120000  1.0 0.1302544477
H  H22  1  0.04990000  0.16950000  0.41880000  1.0 0.1302544477
H  H23  1  0.09350000  0.95970000  0.68680000  1.0 0.1487685877
H  H24  1  0.90650000  0.04030000  0.31320000  1.0 0.1487685877
H  H25  1  0.33080000  0.87710000  0.55140000  1.0 0.1085669721
H  H26  1  0.66920000  0.12290000  0.44860000  1.0 0.1085669721
H  H27  1  0.95570000  0.66600000  0.56990000  1.0 0.1302544477
H  H28  1  0.04430000  0.33400000  0.43010000  1.0 0.1302544477
H  H29  1  0.12760000  0.49610000  0.70590000  1.0 0.1487685877
H  H30  1  0.87240000  0.50390000  0.29410000  1.0 0.1487685877
H  H31  1  0.35710000  0.61660000  0.58030000  1.0 0.1302544477
H  H32  1  0.64290000  0.38340000  0.41970000  1.0 0.1302544477
C  C1  1  0.93420000  0.02900000  0.17910000  1.0 0.5447639662
C  C2  1  0.06580000  0.97100000  0.82090000  1.0 0.5476511953
C  C3  1  0.80230000  0.06440000  0.15040000  1.0 -0.002931898
C  C4  1  0.19770000  0.93560000  0.84960000  1.0 -0.002931898
C  C5  1  0.79480000  0.12620000  0.09900000  1.0 -0.1301062889
C  C6  1  0.20520000  0.87380000  0.90100000  1.0 -0.1301062889
C  C7  1  0.67730000  0.15440000  0.06780000  1.0 0.0521706852
C  C8  1  0.32270000  0.84560000  0.93220000  1.0 0.0521706852
C  C9  1  0.56480000  0.12350000  0.09040000  1.0 -0.142409612
C  C10  1  0.43520000  0.87650000  0.90960000  1.0 -0.142409612
C  C11  1  0.56520000  0.06470000  0.14400000  1.0 -0.0190379986
C  C12  1  0.43480000  0.93530000  0.85600000  1.0 -0.0190379986
C  C13  1  0.68510000  0.03410000  0.17300000  1.0 -0.1003260316
C  C14  1  0.31490000  0.96590000  0.82700000  1.0 -0.1003260316
C  C15  1  0.44050000  0.03200000  0.16720000  1.0 0.569339751
C  C16  1  0.55950000  0.96800000  0.83280000  1.0 0.569339751
C  C17  1  0.43210000  0.41640000  0.17380000  1.0 0.5872676807
C  C18  1  0.56790000  0.58360000  0.82620000  1.0 0.5872676807
C  C19  1  0.56230000  0.39800000  0.13850000  1.0 -0.0190379986
C  C20  1  0.43770000  0.60200000  0.86150000  1.0 -0.0190379986
C  C21  1  0.57330000  0.35610000  0.09040000  1.0 -0.142409612
C  C22  1  0.42670000  0.64390000  0.90960000  1.0 -0.142409612
C  C23  1  0.69410000  0.34060000  0.05640000  1.0 0.0581171659
C  C24  1  0.30590000  0.65940000  0.94360000  1.0 0.0581171659
C  C25  1  0.80790000  0.36630000  0.07290000  1.0 -0.1301062889
C  C26  1  0.19210000  0.63370000  0.92710000  1.0 -0.1301062889
C  C27  1  0.79830000  0.40830000  0.12200000  1.0 -0.0190379986
C  C28  1  0.20170000  0.59170000  0.87800000  1.0 -0.0190379986
C  C29  1  0.67450000  0.42610000  0.15410000  1.0 -0.1057783974
C  C30  1  0.32550000  0.57390000  0.84590000  1.0 -0.1003260316
C  C31  1  0.92010000  0.42760000  0.14250000  1.0 0.5476511953
C  C32  1  0.07990000  0.57240000  0.85750000  1.0 0.5476511953
C  C33  1  0.70190000  0.29860000  0.00370000  1.0 0.0306753937
C  C34  1  0.29810000  0.70140000  0.99630000  1.0 0.0306753937
C  C35  1  0.72250000  0.34560000  0.94670000  1.0 -0.1301062889
C  C36  1  0.27750000  0.65440000  0.05330000  1.0 -0.1301062889
C  C37  1  0.72340000  0.31350000  0.89550000  1.0 -0.0687741538
C  C38  1  0.27660000  0.68650000  0.10450000  1.0 -0.0687741538
C  C39  1  0.70250000  0.22690000  0.90050000  1.0 -0.0109178634
C  C40  1  0.29750000  0.77310000  0.09950000  1.0 -0.0109178634
C  C41  1  0.68570000  0.17980000  0.95840000  1.0 -0.154209168
C  C42  1  0.31430000  0.82020000  0.04160000  1.0 -0.1603934062
C  C43  1  0.68360000  0.21400000  0.00890000  1.0 0.0440801072
C  C44  1  0.31640000  0.78600000  0.99110000  1.0 0.0440801072
C  C45  1  0.74650000  0.36900000  0.83760000  1.0 0.6164429026
C  C46  1  0.25350000  0.63100000  0.16240000  1.0 0.6164429026
C  C47  1  0.71340000  0.17860000  0.84910000  1.0 0.569339751
C  C48  1  0.28660000  0.82140000  0.15090000  1.0 0.569339751
C  C49  1  0.28390000  0.86910000  0.34430000  1.0 0.6094917295
C  C50  1  0.71610000  0.13090000  0.65570000  1.0 0.6164429026
C  C51  1  0.24430000  0.81210000  0.40050000  1.0 -0.0109178634
C  C52  1  0.75570000  0.18790000  0.59950000  1.0 -0.0109178634
C  C53  1  0.24430000  0.72610000  0.40310000  1.0 -0.0109178634
C  C54  1  0.75570000  0.27390000  0.59690000  1.0 -0.0109178634
C  C55  1  0.20840000  0.67760000  0.45620000  1.0 -0.142409612
C  C56  1  0.79160000  0.32240000  0.54380000  1.0 -0.142409612
C  C57  1  0.17360000  0.71330000  0.50860000  1.0 0.0306753937
C  C58  1  0.82640000  0.28670000  0.49140000  1.0 0.0306753937
C  C59  1  0.16910000  0.80100000  0.50430000  1.0 0.0223029486
C  C60  1  0.83090000  0.19900000  0.49570000  1.0 0.0223029486
C  C61  1  0.20210000  0.84890000  0.45060000  1.0 -0.1603934062
C  C62  1  0.79790000  0.15110000  0.54940000  1.0 -0.1603934062
C  C63  1  0.29410000  0.67980000  0.35020000  1.0 0.6094917295
C  C64  1  0.70590000  0.32020000  0.64980000  1.0 0.6094917295
C  C65  1  0.14340000  0.84540000  0.55670000  1.0 0.0800510186
C  C66  1  0.85660000  0.15460000  0.44330000  1.0 0.0800510186
C  C67  1  0.01950000  0.85440000  0.59050000  1.0 -0.1603934062
C  C68  1  0.98050000  0.14560000  0.40950000  1.0 -0.1603934062
C  C69  1  0.00200000  0.89890000  0.63770000  1.0 -0.002931898
C  C70  1  0.99800000  0.10110000  0.36230000  1.0 -0.002931898
C  C71  1  0.10570000  0.93200000  0.65410000  1.0 -0.1003260316
C  C72  1  0.89430000  0.06800000  0.34590000  1.0 -0.1003260316
C  C73  1  0.23070000  0.92320000  0.62050000  1.0 -0.002931898
C  C74  1  0.76930000  0.07680000  0.37950000  1.0 -0.002931898
C  C75  1  0.24880000  0.88190000  0.57340000  1.0 -0.1838127834
C  C76  1  0.75120000  0.11810000  0.42660000  1.0 -0.1838127834
C  C77  1  0.35070000  0.95240000  0.63710000  1.0 0.5797218072
C  C78  1  0.64930000  0.04760000  0.36290000  1.0 0.5797218072
C  C79  1  0.86520000  0.91340000  0.66930000  1.0 0.5872676807
C  C80  1  0.13480000  0.08660000  0.33070000  1.0 0.5872676807
C  C81  1  0.15790000  0.65230000  0.56580000  1.0 0.0581171659
C  C82  1  0.84210000  0.34770000  0.43420000  1.0 0.0581171659
C  C83  1  0.03330000  0.63630000  0.58940000  1.0 -0.142409612
C  C84  1  0.96670000  0.36370000  0.41060000  1.0 -0.142409612
C  C85  1  0.02100000  0.57690000  0.64140000  1.0 -0.0109178634
C  C86  1  0.97900000  0.42310000  0.35860000  1.0 -0.0109178634
C  C87  1  0.13530000  0.53400000  0.67030000  1.0 -0.1003260316
C  C88  1  0.86470000  0.46600000  0.32970000  1.0 -0.1003260316
C  C89  1  0.26190000  0.54600000  0.64770000  1.0 -0.0109178634
C  C90  1  0.73810000  0.45400000  0.35230000  1.0 -0.0109178634
C  C91  1  0.27250000  0.60690000  0.59530000  1.0 -0.142409612
C  C92  1  0.72750000  0.39310000  0.40470000  1.0 -0.142409612
C  C93  1  0.38730000  0.49690000  0.67890000  1.0 0.6035788196
C  C94  1  0.61270000  0.50310000  0.32110000  1.0 0.6035788196
C  C95  1  0.88530000  0.55780000  0.66350000  1.0 0.5797218072
C  C96  1  0.11470000  0.44220000  0.33650000  1.0 0.5797218072
O  O1  1  0.94540000  0.96720000  0.22210000  1.0 -0.5091483257
O  O2  1  0.05460000  0.03280000  0.77790000  1.0 -0.5091483257
O  O3  1  0.03350000  0.06250000  0.15950000  1.0 -0.4999089551
O  O4  1  0.96650000  0.93750000  0.84050000  1.0 -0.4999089551
O  O5  1  0.43650000  0.98820000  0.22000000  1.0 -0.5801648063
O  O6  1  0.56350000  0.01180000  0.78000000  1.0 -0.5801648063
O  O7  1  0.34090000  0.04820000  0.13570000  1.0 -0.487061919
O  O8  1  0.65910000  0.95180000  0.86430000  1.0 -0.487061919
O  O9  1  0.33150000  0.40670000  0.14940000  1.0 -0.5296199285
O  O10  1  0.66850000  0.59330000  0.85060000  1.0 -0.5296199285
O  O11  1  0.42990000  0.43420000  0.22420000  1.0 -0.5715421401
O  O12  1  0.57010000  0.56580000  0.77580000  1.0 -0.5715421401
O  O13  1  0.91140000  0.46430000  0.18640000  1.0 -0.5390147729
O  O14  1  0.08860000  0.53570000  0.81360000  1.0 -0.5390147729
O  O15  1  0.03380000  0.40290000  0.11620000  1.0 -0.5498287442
O  O16  1  0.96620000  0.59710000  0.88380000  1.0 -0.5498287442
O  O17  1  0.83240000  0.41310000  0.83600000  1.0 -0.5091483257
O  O18  1  0.16760000  0.58690000  0.16400000  1.0 -0.5091483257
O  O19  1  0.68130000  0.36890000  0.79390000  1.0 -0.5801648063
O  O20  1  0.31870000  0.63110000  0.20610000  1.0 -0.5801648063
O  O21  1  0.61720000  0.18830000  0.81770000  1.0 -0.5296199285
O  O22  1  0.38280000  0.81170000  0.18230000  1.0 -0.5390147729
O  O23  1  0.81730000  0.12820000  0.84340000  1.0 -0.4322674436
O  O24  1  0.18270000  0.87180000  0.15660000  1.0 -0.4322674436
O  O25  1  0.21170000  0.88260000  0.30070000  1.0 -0.5091483257
O  O26  1  0.78830000  0.11740000  0.69930000  1.0 -0.5091483257
O  O27  1  0.38060000  0.90380000  0.34720000  1.0 -0.5390147729
O  O28  1  0.61940000  0.09620000  0.65280000  1.0 -0.5390147729
O  O29  1  0.38830000  0.70530000  0.31840000  1.0 -0.5498287442
O  O30  1  0.61170000  0.29470000  0.68160000  1.0 -0.5582544965
O  O31  1  0.23410000  0.62170000  0.34470000  1.0 -0.518542291
O  O32  1  0.76590000  0.37830000  0.65530000  1.0 -0.518542291
O  O33  1  0.45280000  0.94930000  0.60280000  1.0 -0.5980689687
O  O34  1  0.54720000  0.05070000  0.39720000  1.0 -0.5980689687
O  O35  1  0.34400000  0.97840000  0.68600000  1.0 -0.4999089551
O  O36  1  0.65600000  0.02160000  0.31400000  1.0 -0.4999089551
O  O37  1  0.85010000  0.92500000  0.72210000  1.0 -0.5582544965
O  O38  1  0.14990000  0.07500000  0.27790000  1.0 -0.5582544965
O  O39  1  0.76210000  0.91450000  0.63910000  1.0 -0.5715421401
O  O40  1  0.23790000  0.08550000  0.36090000  1.0 -0.5715421401
O  O41  1  0.49550000  0.51970000  0.65960000  1.0 -0.518542291
O  O42  1  0.50450000  0.48030000  0.34040000  1.0 -0.518542291
O  O43  1  0.37650000  0.43770000  0.72240000  1.0 -0.5801648063
O  O44  1  0.62350000  0.56230000  0.27760000  1.0 -0.5801648063
O  O45  1  0.87980000  0.51130000  0.71490000  1.0 -0.5715421401
O  O46  1  0.12020000  0.48870000  0.28510000  1.0 -0.5715421401
O  O47  1  0.78880000  0.57970000  0.63110000  1.0 -0.4698924583
O  O48  1  0.21120000  0.42030000  0.36890000  1.0 -0.4698924583
