# DDEC6 charges by PACMAN v1.1 (https://github.com/mtap-research/PACMAN-charge/)
data_IJEXUR_ASR_pacman
_symmetry_space_group_name_H-M   'P 1'
_cell_length_a   10.78820000
_cell_length_b   12.30720000
_cell_length_c   14.28930000
_cell_angle_alpha   83.18300000
_cell_angle_beta   110.41000000
_cell_angle_gamma   114.82600000
_symmetry_Int_Tables_number   1
_chemical_formula_structural   Zn5H34C46S2(N2O3)6
_chemical_formula_sum   'Zn5 H34 C46 S2 N12 O18'
_cell_volume   1612.94211395
_cell_formula_units_Z   1
loop_
 _symmetry_equiv_pos_site_id
 _symmetry_equiv_pos_as_xyz
  1  'x, y, z'
loop_
 _atom_site_type_symbol
 _atom_site_label
 _atom_site_symmetry_multiplicity
 _atom_site_fract_x
 _atom_site_fract_y
 _atom_site_fract_z
 _atom_site_occupancy
 _atom_site_charge
Zn  Zn1  1  0.75157000  0.44568000  0.96180000  1.0 0.8596659635
Zn  Zn2  1  0.24843000  0.55432000  0.03820000  1.0 0.8596659635
Zn  Zn3  1  0.78919000  0.20392000  0.09321000  1.0 0.8596659635
Zn  Zn4  1  0.21081000  0.79608000  0.90679000  1.0 0.8596659635
Zn  Zn5  1  0.50000000  0.50000000  0.00000000  1.0 0.8496383164
H  H1  1  0.49810000  0.68140000  0.02230000  1.0 0.3655948375
H  H2  1  0.50190000  0.31860000  0.97770000  1.0 0.3655948375
H  H3  1  0.92600000  0.35520000  0.00310000  1.0 0.3627959226
H  H4  1  0.07400000  0.64480000  0.99690000  1.0 0.3627959226
H  H5  1  0.54600000  0.28470000  0.32970000  1.0 0.1506326593
H  H6  1  0.45400000  0.71530000  0.67030000  1.0 0.1506326593
H  H7  1  0.50690000  0.31360000  0.16200000  1.0 0.1204659377
H  H8  1  0.49310000  0.68640000  0.83800000  1.0 0.1204659377
H  H9  1  0.67180000  0.65860000  0.19970000  1.0 0.1204659377
H  H10  1  0.32820000  0.34140000  0.80030000  1.0 0.1204659377
H  H11  1  0.61910000  0.31310000  0.61730000  1.0 0.1506326593
H  H12  1  0.38090000  0.68690000  0.38270000  1.0 0.1506326593
H  H13  1  0.13950000  0.77380000  0.12740000  1.0 0.1310120805
H  H14  1  0.86050000  0.22620000  0.87260000  1.0 0.1204659377
H  H15  1  0.79800000  0.85750000  0.05820000  1.0 0.1310120805
H  H16  1  0.20200000  0.14250000  0.94180000  1.0 0.1310120805
H  H17  1  0.77580000  0.63980000  0.81200000  1.0 0.1204659377
H  H18  1  0.22420000  0.36020000  0.18800000  1.0 0.1204659377
H  H19  1  0.71600000  0.63920000  0.36790000  1.0 0.1310120805
H  H20  1  0.28400000  0.36080000  0.63210000  1.0 0.1310120805
H  H21  1  0.87450000  0.22640000  0.45550000  1.0 0.1506326593
H  H22  1  0.12550000  0.77360000  0.54450000  1.0 0.1506326593
H  H23  1  0.98720000  0.54260000  0.32580000  1.0 0.1375964616
H  H24  1  0.01280000  0.45740000  0.67420000  1.0 0.1375964616
H  H25  1  0.20760000  0.10050000  0.19440000  1.0 0.1310120805
H  H26  1  0.79240000  0.89950000  0.80560000  1.0 0.1310120805
H  H27  1  0.80240000  0.13630000  0.30700000  1.0 0.1310120805
H  H28  1  0.19760000  0.86370000  0.69300000  1.0 0.1310120805
H  H29  1  0.65080000  0.29690000  0.78500000  1.0 0.1204659377
H  H30  1  0.34920000  0.70310000  0.21500000  1.0 0.1204659377
H  H31  1  0.75020000  0.66680000  0.64730000  1.0 0.1506326593
H  H32  1  0.24980000  0.33320000  0.35270000  1.0 0.1506326593
H  H33  1  0.90830000  0.44290000  0.17750000  1.0 0.1058937395
H  H34  1  0.09170000  0.55710000  0.82250000  1.0 0.1058937395
C  C1  1  0.84250000  0.67420000  0.03610000  1.0 0.578746054
C  C2  1  0.15750000  0.32580000  0.96390000  1.0 0.578746054
C  C3  1  0.57100000  0.36140000  0.30460000  1.0 -0.1899550225
C  C4  1  0.42900000  0.63860000  0.69540000  1.0 -0.1899550225
C  C5  1  0.54860000  0.38050000  0.20450000  1.0 0.1015121822
C  C6  1  0.45140000  0.61950000  0.79550000  1.0 0.1015121822
C  C7  1  0.95220000  0.79640000  0.08550000  1.0 -0.0176243148
C  C8  1  0.04780000  0.20360000  0.91450000  1.0 -0.0176243148
C  C9  1  0.64510000  0.58250000  0.22580000  1.0 0.0795677934
C  C10  1  0.35490000  0.41750000  0.77420000  1.0 0.0795677934
C  C11  1  0.65230000  0.38080000  0.65690000  1.0 -0.2090610046
C  C12  1  0.34770000  0.61920000  0.34310000  1.0 -0.2090610046
C  C13  1  0.10270000  0.82980000  0.12760000  1.0 -0.1095626469
C  C14  1  0.89730000  0.17020000  0.87240000  1.0 -0.1095626469
C  C15  1  0.89700000  0.87740000  0.08500000  1.0 -0.1211849715
C  C16  1  0.10300000  0.12260000  0.91500000  1.0 -0.1211849715
C  C17  1  0.99510000  0.99290000  0.12660000  1.0 -0.0176243148
C  C18  1  0.00490000  0.00710000  0.87340000  1.0 -0.0176243148
C  C19  1  0.74570000  0.57350000  0.77150000  1.0 0.0895526654
C  C20  1  0.25430000  0.42650000  0.22850000  1.0 0.0895526654
C  C21  1  0.19820000  0.94350000  0.16940000  1.0 -0.0632393969
C  C22  1  0.80180000  0.05650000  0.83060000  1.0 -0.0632393969
C  C23  1  0.93930000  0.39470000  0.40690000  1.0 0.1775885035
C  C24  1  0.06070000  0.60530000  0.59310000  1.0 0.1775885035
C  C25  1  0.67130000  0.57140000  0.32610000  1.0 -0.2010914501
C  C26  1  0.32870000  0.42860000  0.67390000  1.0 -0.2010914501
C  C27  1  0.88270000  0.27200000  0.39950000  1.0 -0.1899550225
C  C28  1  0.11730000  0.72800000  0.60050000  1.0 -0.1899550225
C  C29  1  0.93790000  0.08220000  0.12300000  1.0 0.5316694711
C  C30  1  0.06210000  0.91780000  0.87700000  1.0 0.5316694711
C  C31  1  0.94910000  0.45940000  0.32270000  1.0 -0.2090610046
C  C32  1  0.05090000  0.54060000  0.67730000  1.0 -0.2090610046
C  C33  1  0.68280000  0.49360000  0.61560000  1.0 0.1506326593
C  C34  1  0.31720000  0.50640000  0.38440000  1.0 0.1506326593
C  C35  1  0.14530000  0.02360000  0.16800000  1.0 -0.100088742
C  C36  1  0.85470000  0.97640000  0.83200000  1.0 -0.100088742
C  C37  1  0.83980000  0.21950000  0.31130000  1.0 0.0895526654
C  C38  1  0.16020000  0.78050000  0.68870000  1.0 0.0895526654
C  C39  1  0.67210000  0.37180000  0.75670000  1.0 0.1058937395
C  C40  1  0.32790000  0.62820000  0.24330000  1.0 0.1015121822
C  C41  1  0.63140000  0.45970000  0.36460000  1.0 0.1506326593
C  C42  1  0.36860000  0.54030000  0.63540000  1.0 0.1506326593
C  C43  1  0.72970000  0.59080000  0.67360000  1.0 -0.2010914501
C  C44  1  0.27030000  0.40920000  0.32640000  1.0 -0.2010914501
C  C45  1  0.90220000  0.39950000  0.23480000  1.0 0.0895526654
C  C46  1  0.09780000  0.60050000  0.76520000  1.0 0.0895526654
S  S1  1  0.39610000  0.98570000  0.22340000  1.0 1.1233726476
S  S2  1  0.60390000  0.01430000  0.77660000  1.0 1.1233726476
N  N1  1  0.58180000  0.48680000  0.16410000  1.0 -0.2206616964
N  N2  1  0.41820000  0.51320000  0.83590000  1.0 -0.2206616964
N  N3  1  0.72090000  0.46740000  0.81340000  1.0 -0.2551743652
N  N4  1  0.27910000  0.53260000  0.18660000  1.0 -0.2547340359
N  N5  1  0.84770000  0.28060000  0.22830000  1.0 -0.2361828353
N  N6  1  0.15230000  0.71940000  0.77170000  1.0 -0.2361828353
N  N7  1  0.66750000  0.51840000  0.51160000  1.0 -0.0885782208
N  N8  1  0.33250000  0.48160000  0.48840000  1.0 -0.0885782208
N  N9  1  0.64800000  0.43570000  0.46930000  1.0 -0.0632393969
N  N10  1  0.35200000  0.56430000  0.53070000  1.0 -0.0632393969
N  N11  1  0.98340000  0.44560000  0.50020000  1.0 -0.1386221464
N  N12  1  0.01660000  0.55440000  0.49980000  1.0 -0.1386221464
O  O1  1  0.42120000  0.91040000  0.17450000  1.0 -0.5311670071
O  O2  1  0.57880000  0.08960000  0.82550000  1.0 -0.5311670071
O  O3  1  0.42770000  0.95410000  0.32050000  1.0 -0.5392757918
O  O4  1  0.57230000  0.04590000  0.67950000  1.0 -0.5392757918
O  O5  1  0.46440000  0.10190000  0.19320000  1.0 -0.5835383202
O  O6  1  0.53560000  0.89810000  0.80680000  1.0 -0.5835383202
O  O7  1  0.89750000  0.60430000  0.03110000  1.0 -0.5311670071
O  O8  1  0.10250000  0.39570000  0.96890000  1.0 -0.5311670071
O  O9  1  0.70880000  0.64950000  0.00410000  1.0 -0.5747419264
O  O10  1  0.29120000  0.35050000  0.99590000  1.0 -0.5747419264
O  O11  1  0.42450000  0.61480000  0.01000000  1.0 -0.8371385898
O  O12  1  0.57550000  0.38520000  0.99000000  1.0 -0.8371385898
O  O13  1  0.84450000  0.33730000  0.00990000  1.0 -0.8371385898
O  O14  1  0.15550000  0.66270000  0.99010000  1.0 -0.8371385898
O  O15  1  0.80030000  0.04940000  0.09570000  1.0 -0.5191846158
O  O16  1  0.19970000  0.95060000  0.90430000  1.0 -0.5191846158
O  O17  1  0.02170000  0.18760000  0.14370000  1.0 -0.5311670071
O  O18  1  0.97830000  0.81240000  0.85630000  1.0 -0.5311670071
