# DDEC6 charges by PACMAN v1.1 (https://github.com/mtap-research/PACMAN-charge/)
data_IJEYON_FSR_pacman
_symmetry_space_group_name_H-M   'P 1'
_cell_length_a   8.11560000
_cell_length_b   20.38610000
_cell_length_c   11.74230000
_cell_angle_alpha   90.00000000
_cell_angle_beta   132.51000000
_cell_angle_gamma   90.00000000
_symmetry_Int_Tables_number   1
_chemical_formula_structural   CuH12(CN2)12
_chemical_formula_sum   'Cu2 H24 C24 N48'
_cell_volume   1432.08689643
_cell_formula_units_Z   2
loop_
 _symmetry_equiv_pos_site_id
 _symmetry_equiv_pos_as_xyz
  1  'x, y, z'
loop_
 _atom_site_type_symbol
 _atom_site_label
 _atom_site_symmetry_multiplicity
 _atom_site_fract_x
 _atom_site_fract_y
 _atom_site_fract_z
 _atom_site_occupancy
 _atom_site_charge
Cu  Cu1  1  0.50000000  0.50000000  0.00000000  1.0 0.5046307583
Cu  Cu2  1  0.50000000  0.00000000  0.50000000  1.0 0.5046307583
H  H1  1  0.27250000  0.86310000  0.27900000  1.0 0.1203996602
H  H2  1  0.72750000  0.36310000  0.22100000  1.0 0.1203996602
H  H3  1  0.72750000  0.13690000  0.72100000  1.0 0.1203996602
H  H4  1  0.27250000  0.63690000  0.77900000  1.0 0.1203996602
H  H5  1  0.87700000  0.83670000  0.36450000  1.0 0.1138985556
H  H6  1  0.12300000  0.33670000  0.13550000  1.0 0.1138985556
H  H7  1  0.12300000  0.16330000  0.63550000  1.0 0.1138985556
H  H8  1  0.87700000  0.66330000  0.86450000  1.0 0.1138985556
H  H9  1  0.11300000  0.65100000  0.17280000  1.0 0.1203996602
H  H10  1  0.88700000  0.15100000  0.32720000  1.0 0.1203996602
H  H11  1  0.88700000  0.34900000  0.82720000  1.0 0.1203996602
H  H12  1  0.11300000  0.84900000  0.67280000  1.0 0.1203996602
H  H13  1  0.59830000  0.64000000  0.14960000  1.0 0.1203996602
H  H14  1  0.40170000  0.14000000  0.35040000  1.0 0.1203996602
H  H15  1  0.40170000  0.36000000  0.85040000  1.0 0.1203996602
H  H16  1  0.59830000  0.86000000  0.64960000  1.0 0.1203996602
H  H17  1  0.76040000  0.50300000  0.86800000  1.0 0.1203996602
H  H18  1  0.23960000  0.00300000  0.63200000  1.0 0.1203996602
H  H19  1  0.23960000  0.49700000  0.13200000  1.0 0.1203996602
H  H20  1  0.76040000  0.99700000  0.36800000  1.0 0.1203996602
H  H21  1  0.13740000  0.49160000  0.45500000  1.0 0.1138985556
H  H22  1  0.86260000  0.99160000  0.04500000  1.0 0.1138985556
H  H23  1  0.86260000  0.50840000  0.54500000  1.0 0.1138985556
H  H24  1  0.13740000  0.00840000  0.95500000  1.0 0.1138985556
C  C1  1  0.19340000  0.87020000  0.31120000  1.0 0.0388357787
C  C2  1  0.80660000  0.37020000  0.18880000  1.0 0.0388357787
C  C3  1  0.80660000  0.12980000  0.68880000  1.0 0.0388357787
C  C4  1  0.19340000  0.62980000  0.81120000  1.0 0.0388357787
C  C5  1  0.97690000  0.85600000  0.35790000  1.0 0.0074341696
C  C6  1  0.02310000  0.35600000  0.14210000  1.0 0.0074341696
C  C7  1  0.02310000  0.14400000  0.64210000  1.0 0.0074341696
C  C8  1  0.97690000  0.64400000  0.85790000  1.0 0.0074341696
C  C9  1  0.98660000  0.63530000  0.15440000  1.0 0.0049800452
C  C10  1  0.01340000  0.13530000  0.34560000  1.0 0.0049800452
C  C11  1  0.01340000  0.36470000  0.84560000  1.0 0.0049800452
C  C12  1  0.98660000  0.86470000  0.65440000  1.0 0.0074341696
C  C13  1  0.70450000  0.62980000  0.14170000  1.0 0.0540277677
C  C14  1  0.29550000  0.12980000  0.35830000  1.0 0.0540277677
C  C15  1  0.29550000  0.37020000  0.85830000  1.0 0.0540277677
C  C16  1  0.70450000  0.87020000  0.64170000  1.0 0.0540277677
C  C17  1  0.60220000  0.50030000  0.78950000  1.0 0.0691518045
C  C18  1  0.39780000  0.00030000  0.71050000  1.0 0.0691518045
C  C19  1  0.39780000  0.49970000  0.21050000  1.0 0.0691518045
C  C20  1  0.60220000  0.99970000  0.28950000  1.0 0.0691518045
C  C21  1  0.26050000  0.49380000  0.56350000  1.0 0.0540277677
C  C22  1  0.73950000  0.99380000  0.93650000  1.0 0.0540277677
C  C23  1  0.73950000  0.50620000  0.43650000  1.0 0.0540277677
C  C24  1  0.26050000  0.00620000  0.06350000  1.0 0.0540277677
N  N1  1  0.19900000  0.92370000  0.37350000  1.0 -0.2017072748
N  N2  1  0.80100000  0.42370000  0.12650000  1.0 -0.2017072748
N  N3  1  0.80100000  0.07630000  0.62650000  1.0 -0.2017072748
N  N4  1  0.19900000  0.57630000  0.87350000  1.0 -0.2017072748
N  N5  1  0.05860000  0.91480000  0.40280000  1.0 -0.2105647982
N  N6  1  0.94140000  0.41480000  0.09720000  1.0 -0.2105647982
N  N7  1  0.94140000  0.08520000  0.59720000  1.0 -0.2105647982
N  N8  1  0.05860000  0.58520000  0.90280000  1.0 -0.2105647982
N  N9  1  0.05760000  0.82590000  0.29900000  1.0 0.0771810426
N  N10  1  0.94240000  0.32590000  0.20100000  1.0 0.0691518045
N  N11  1  0.94240000  0.17410000  0.70100000  1.0 0.0771810426
N  N12  1  0.05760000  0.67410000  0.79900000  1.0 0.0771810426
N  N13  1  0.03320000  0.76320000  0.24380000  1.0 -0.0711312435
N  N14  1  0.96680000  0.26320000  0.25620000  1.0 -0.0711312435
N  N15  1  0.96680000  0.23680000  0.75620000  1.0 -0.0711312435
N  N16  1  0.03320000  0.73680000  0.74380000  1.0 -0.0711312435
N  N17  1  0.89740000  0.73290000  0.24050000  1.0 -0.0813621983
N  N18  1  0.10260000  0.23290000  0.25950000  1.0 -0.0813621983
N  N19  1  0.10260000  0.26710000  0.75950000  1.0 -0.0813621983
N  N20  1  0.89740000  0.76710000  0.74050000  1.0 -0.0813621983
N  N21  1  0.87340000  0.66920000  0.18560000  1.0 0.0691518045
N  N22  1  0.12660000  0.16920000  0.31440000  1.0 0.0691518045
N  N23  1  0.12660000  0.33080000  0.81440000  1.0 0.0691518045
N  N24  1  0.87340000  0.83080000  0.68560000  1.0 0.0691518045
N  N25  1  0.89180000  0.57850000  0.09550000  1.0 -0.1945012669
N  N26  1  0.10820000  0.07850000  0.40450000  1.0 -0.1945012669
N  N27  1  0.10820000  0.42150000  0.90450000  1.0 -0.1945012669
N  N28  1  0.89180000  0.92150000  0.59550000  1.0 -0.1945012669
N  N29  1  0.71220000  0.57590000  0.08720000  1.0 -0.1627339993
N  N30  1  0.28780000  0.07590000  0.41280000  1.0 -0.1627339993
N  N31  1  0.28780000  0.42410000  0.91280000  1.0 -0.1627339993
N  N32  1  0.71220000  0.92410000  0.58720000  1.0 -0.1627339993
N  N33  1  0.46430000  0.49810000  0.81130000  1.0 -0.18125032
N  N34  1  0.53570000  0.99810000  0.68870000  1.0 -0.18125032
N  N35  1  0.53570000  0.50190000  0.18870000  1.0 -0.18125032
N  N36  1  0.46430000  0.00190000  0.31130000  1.0 -0.18125032
N  N37  1  0.24600000  0.49300000  0.66680000  1.0 -0.2166758936
N  N38  1  0.75400000  0.99300000  0.83320000  1.0 -0.2166758936
N  N39  1  0.75400000  0.50700000  0.33320000  1.0 -0.2105647982
N  N40  1  0.24600000  0.00700000  0.16680000  1.0 -0.2105647982
N  N41  1  0.47880000  0.49810000  0.63400000  1.0 0.0691518045
N  N42  1  0.52120000  0.99810000  0.86600000  1.0 0.0691518045
N  N43  1  0.52120000  0.50190000  0.36600000  1.0 0.0691518045
N  N44  1  0.47880000  0.00190000  0.13400000  1.0 0.0691518045
N  N45  1  0.57570000  0.50070000  0.57260000  1.0 -0.0873878907
N  N46  1  0.42430000  0.00070000  0.92740000  1.0 -0.0873878907
N  N47  1  0.42430000  0.49930000  0.42740000  1.0 -0.0873878907
N  N48  1  0.57570000  0.99930000  0.07260000  1.0 -0.0873878907
