# DDEC6 charges by PACMAN v1.1 (https://github.com/mtap-research/PACMAN-charge/)
data_IJIGOX_ASR_pacman
_symmetry_space_group_name_H-M   'P 1'
_cell_length_a   9.84800000
_cell_length_b   12.47000000
_cell_length_c   12.60300000
_cell_angle_alpha   63.47000000
_cell_angle_beta   74.56000000
_cell_angle_gamma   76.03000000
_symmetry_Int_Tables_number   1
_chemical_formula_structural   Ga3Co2(PO4)5
_chemical_formula_sum   'Ga6 Co4 P10 O40'
_cell_volume   1321.22451249
_cell_formula_units_Z   2
loop_
 _symmetry_equiv_pos_site_id
 _symmetry_equiv_pos_as_xyz
  1  'x, y, z'
loop_
 _atom_site_type_symbol
 _atom_site_label
 _atom_site_symmetry_multiplicity
 _atom_site_fract_x
 _atom_site_fract_y
 _atom_site_fract_z
 _atom_site_occupancy
 _atom_site_charge
Ga  Ga1  1  0.20020000  0.88246000  0.51811000  1.0 1.5656909317
Ga  Ga2  1  0.79980000  0.11754000  0.48189000  1.0 1.5656909317
Ga  Ga3  1  0.09730000  0.40144000  0.16234000  1.0 1.553081728
Ga  Ga4  1  0.90270000  0.59856000  0.83766000  1.0 1.553081728
Ga  Ga5  1  0.36690000  0.16190000  0.50600000  1.0 1.5553128093
Ga  Ga6  1  0.63310000  0.83810000  0.49400000  1.0 1.553081728
Co  Co1  1  0.39210000  0.66020000  0.90310000  1.0 1.1772315473
Co  Co2  1  0.60790000  0.33980000  0.09690000  1.0 1.1772315473
Co  Co3  1  0.53140000  0.53530000  0.31000000  1.0 1.1482818693
Co  Co4  1  0.46860000  0.46470000  0.69000000  1.0 1.1482818693
P  P1  1  0.11570000  0.16940000  0.40040000  1.0 1.4891245216
P  P2  1  0.88430000  0.83060000  0.59960000  1.0 1.4891245216
P  P3  1  0.36160000  0.89670000  0.68510000  1.0 1.5077261299
P  P4  1  0.63840000  0.10330000  0.31490000  1.0 1.5077261299
P  P5  1  0.33870000  0.50870000  0.17060000  1.0 1.4891245216
P  P6  1  0.66130000  0.49130000  0.82940000  1.0 1.4847559303
P  P7  1  0.45180000  0.69790000  0.45120000  1.0 1.4847559303
P  P8  1  0.54820000  0.30210000  0.54880000  1.0 1.4847559303
P  P9  1  0.21020000  0.48940000  0.88310000  1.0 1.4891245216
P  P10  1  0.78980000  0.51060000  0.11690000  1.0 1.4891245216
O  O1  1  0.34490000  0.81110000  0.43320000  1.0 -0.7398603333
O  O2  1  0.65510000  0.18890000  0.56680000  1.0 -0.7398603333
O  O3  1  0.23670000  0.86680000  0.66020000  1.0 -0.7471298009
O  O4  1  0.76330000  0.13320000  0.33980000  1.0 -0.7471298009
O  O5  1  0.18280000  0.04470000  0.41440000  1.0 -0.7577366561
O  O6  1  0.81720000  0.95530000  0.58560000  1.0 -0.7577366561
O  O7  1  0.96080000  0.17830000  0.46380000  1.0 -0.7289301186
O  O8  1  0.03920000  0.82170000  0.53620000  1.0 -0.7289301186
O  O9  1  0.15690000  0.40080000  0.01070000  1.0 -0.7398603333
O  O10  1  0.84310000  0.59920000  0.98930000  1.0 -0.7398603333
O  O11  1  0.09090000  0.53310000  0.81100000  1.0 -0.7110003859
O  O12  1  0.90910000  0.46690000  0.18900000  1.0 -0.7110003859
O  O13  1  0.12710000  0.24210000  0.26450000  1.0 -0.6892612408
O  O14  1  0.87290000  0.75790000  0.73550000  1.0 -0.6963729292
O  O15  1  0.18140000  0.49650000  0.19940000  1.0 -0.7110003859
O  O16  1  0.81860000  0.50350000  0.80060000  1.0 -0.7110003859
O  O17  1  0.19280000  0.22320000  0.45260000  1.0 -0.7289301186
O  O18  1  0.80720000  0.77680000  0.54740000  1.0 -0.7228046884
O  O19  1  0.34190000  0.02930000  0.65520000  1.0 -0.7228046884
O  O20  1  0.65810000  0.97070000  0.34480000  1.0 -0.7228046884
O  O21  1  0.49760000  0.85790000  0.61540000  1.0 -0.7756246656
O  O22  1  0.50240000  0.14210000  0.38460000  1.0 -0.7756246656
O  O23  1  0.59090000  0.71940000  0.46210000  1.0 -0.7398603333
O  O24  1  0.40910000  0.28060000  0.53790000  1.0 -0.7398603333
O  O25  1  0.36540000  0.82780000  0.82100000  1.0 -0.6477077633
O  O26  1  0.63460000  0.17220000  0.17900000  1.0 -0.6477077633
O  O27  1  0.25640000  0.59470000  0.88410000  1.0 -0.7398603333
O  O28  1  0.74360000  0.40530000  0.11590000  1.0 -0.7471298009
O  O29  1  0.42160000  0.40620000  0.13700000  1.0 -0.7715066105
O  O30  1  0.57840000  0.59380000  0.86300000  1.0 -0.7715066105
O  O31  1  0.36560000  0.63000000  0.06600000  1.0 -0.7110003859
O  O32  1  0.63440000  0.37000000  0.93400000  1.0 -0.7110003859
O  O33  1  0.46920000  0.66930000  0.34230000  1.0 -0.6615572602
O  O34  1  0.53080000  0.33070000  0.65770000  1.0 -0.6615572602
O  O35  1  0.33160000  0.41800000  0.82760000  1.0 -0.6813975006
O  O36  1  0.66840000  0.58200000  0.17240000  1.0 -0.6813975006
O  O37  1  0.39400000  0.59420000  0.56290000  1.0 -0.7577366561
O  O38  1  0.60600000  0.40580000  0.43710000  1.0 -0.7577366561
O  O39  1  0.37370000  0.50720000  0.28120000  1.0 -0.6892612408
O  O40  1  0.62630000  0.49280000  0.71880000  1.0 -0.6892612408
