# DDEC6 charges by PACMAN v1.1 (https://github.com/mtap-research/PACMAN-charge/)
data_IJIROI_ASR_pacman
_symmetry_space_group_name_H-M   'P 1'
_cell_length_a   13.76420000
_cell_length_b   15.67960000
_cell_length_c   4.69020000
_cell_angle_alpha   90.00000000
_cell_angle_beta   90.00000000
_cell_angle_gamma   90.00000000
_symmetry_Int_Tables_number   1
_chemical_formula_structural   V3P4H4C2O13
_chemical_formula_sum   'V6 P8 H8 C4 O26'
_cell_volume   1012.22559843
_cell_formula_units_Z   2
loop_
 _symmetry_equiv_pos_site_id
 _symmetry_equiv_pos_as_xyz
  1  'x, y, z'
loop_
 _atom_site_type_symbol
 _atom_site_label
 _atom_site_symmetry_multiplicity
 _atom_site_fract_x
 _atom_site_fract_y
 _atom_site_fract_z
 _atom_site_occupancy
 _atom_site_charge
V  V1  1  0.75000000  0.75000000  0.26888000  1.0 1.9089484622
V  V2  1  0.25000000  0.25000000  0.73112000  1.0 1.9089484622
V  V3  1  0.50000000  0.50000000  0.00000000  1.0 1.7192042579
V  V4  1  0.00000000  0.00000000  0.00000000  1.0 1.7192042579
V  V5  1  0.50000000  0.00000000  0.00000000  1.0 1.7192042579
V  V6  1  0.00000000  0.50000000  0.00000000  1.0 1.7192042579
P  P1  1  0.63823000  0.57664000  0.49034000  1.0 1.4821629037
P  P2  1  0.36177000  0.42336000  0.50966000  1.0 1.4821629037
P  P3  1  0.86177000  0.92336000  0.49034000  1.0 1.4821629037
P  P4  1  0.13823000  0.07664000  0.50966000  1.0 1.4821629037
P  P5  1  0.36177000  0.07664000  0.50966000  1.0 1.4821629037
P  P6  1  0.63823000  0.92336000  0.49034000  1.0 1.4821629037
P  P7  1  0.13823000  0.42336000  0.50966000  1.0 1.4821629037
P  P8  1  0.86177000  0.57664000  0.49034000  1.0 1.4821629037
H  H1  1  0.75000000  0.47290000  0.67260000  1.0 0.1997369525
H  H2  1  0.25000000  0.52710000  0.32740000  1.0 0.1997369525
H  H3  1  0.75000000  0.02710000  0.67260000  1.0 0.1997369525
H  H4  1  0.25000000  0.97290000  0.32740000  1.0 0.1997369525
H  H5  1  0.75000000  0.57140000  0.86993000  1.0 0.1997369525
H  H6  1  0.25000000  0.42860000  0.13007000  1.0 0.1997369525
H  H7  1  0.75000000  0.92860000  0.86993000  1.0 0.1997369525
H  H8  1  0.25000000  0.07140000  0.13007000  1.0 0.1997369525
C  C1  1  0.75000000  0.54294000  0.65409000  1.0 -0.7805452983
C  C2  1  0.25000000  0.45706000  0.34591000  1.0 -0.7805452983
C  C3  1  0.75000000  0.95706000  0.65409000  1.0 -0.7805452983
C  C4  1  0.25000000  0.04294000  0.34591000  1.0 -0.7805452983
O  O1  1  0.65169000  0.66785000  0.38076000  1.0 -0.8005393469
O  O2  1  0.34831000  0.33215000  0.61924000  1.0 -0.8005393469
O  O3  1  0.84831000  0.83215000  0.38076000  1.0 -0.8005393469
O  O4  1  0.15169000  0.16785000  0.61924000  1.0 -0.8005393469
O  O5  1  0.34831000  0.16785000  0.61924000  1.0 -0.8005393469
O  O6  1  0.65169000  0.83215000  0.38076000  1.0 -0.8005393469
O  O7  1  0.15169000  0.33215000  0.61924000  1.0 -0.8005393469
O  O8  1  0.84831000  0.66785000  0.38076000  1.0 -0.8005393469
O  O9  1  0.55750000  0.57385000  0.72201000  1.0 -0.8057889446
O  O10  1  0.44250000  0.42615000  0.27799000  1.0 -0.8057889446
O  O11  1  0.94250000  0.92615000  0.72201000  1.0 -0.8057889446
O  O12  1  0.05750000  0.07385000  0.27799000  1.0 -0.8057889446
O  O13  1  0.44250000  0.07385000  0.27799000  1.0 -0.8005393469
O  O14  1  0.55750000  0.92615000  0.72201000  1.0 -0.8057889446
O  O15  1  0.05750000  0.42615000  0.27799000  1.0 -0.8057889446
O  O16  1  0.94250000  0.57385000  0.72201000  1.0 -0.8057889446
O  O17  1  0.75000000  0.75000000  0.93273000  1.0 -0.7153498123
O  O18  1  0.25000000  0.25000000  0.06727000  1.0 -0.7153498123
O  O19  1  0.61273000  0.51438000  0.24324000  1.0 -0.8439569067
O  O20  1  0.38727000  0.48562000  0.75676000  1.0 -0.8439569067
O  O21  1  0.88727000  0.98562000  0.24324000  1.0 -0.8439569067
O  O22  1  0.11273000  0.01438000  0.75676000  1.0 -0.8439569067
O  O23  1  0.38727000  0.01438000  0.75676000  1.0 -0.8439569067
O  O24  1  0.61273000  0.98562000  0.24324000  1.0 -0.8439569067
O  O25  1  0.11273000  0.48562000  0.75676000  1.0 -0.8439569067
O  O26  1  0.88727000  0.51438000  0.24324000  1.0 -0.8439569067
