# DDEC6 charges by PACMAN v1.1 (https://github.com/mtap-research/PACMAN-charge/)
data_IKETOH_ASR_pacman
_symmetry_space_group_name_H-M   'P 1'
_cell_length_a   18.62380000
_cell_length_b   18.62380000
_cell_length_c   18.62380000
_cell_angle_alpha   60.00000000
_cell_angle_beta   60.00000000
_cell_angle_gamma   60.00000000
_symmetry_Int_Tables_number   1
_chemical_formula_structural   CuH2(C3O2)2
_chemical_formula_sum   'Cu12 H24 C72 O48'
_cell_volume   4567.61930213
_cell_formula_units_Z   12
loop_
 _symmetry_equiv_pos_site_id
 _symmetry_equiv_pos_as_xyz
  1  'x, y, z'
loop_
 _atom_site_type_symbol
 _atom_site_label
 _atom_site_symmetry_multiplicity
 _atom_site_fract_x
 _atom_site_fract_y
 _atom_site_fract_z
 _atom_site_occupancy
 _atom_site_charge
Cu  Cu1  1  0.50000000  0.07021000  0.50000000  1.0 0.8625667237
Cu  Cu2  1  0.07021000  0.50000000  0.92979000  1.0 0.8625667237
Cu  Cu3  1  0.50000000  0.92979000  0.50000000  1.0 0.8625667237
Cu  Cu4  1  0.92979000  0.50000000  0.07021000  1.0 0.8625667237
Cu  Cu5  1  0.50000000  0.50000000  0.92979000  1.0 0.8625667237
Cu  Cu6  1  0.07021000  0.92979000  0.50000000  1.0 0.8625667237
Cu  Cu7  1  0.50000000  0.50000000  0.07021000  1.0 0.8625667237
Cu  Cu8  1  0.92979000  0.07021000  0.50000000  1.0 0.8625667237
Cu  Cu9  1  0.50000000  0.92979000  0.07021000  1.0 0.8625667237
Cu  Cu10  1  0.07021000  0.50000000  0.50000000  1.0 0.8625667237
Cu  Cu11  1  0.50000000  0.07021000  0.92979000  1.0 0.8625667237
Cu  Cu12  1  0.92979000  0.50000000  0.50000000  1.0 0.8625667237
H  H1  1  0.53480000  0.23349000  0.23544000  1.0 0.1257028982
H  H2  1  0.23349000  0.53480000  0.99627000  1.0 0.1257028982
H  H3  1  0.23544000  0.99627000  0.53480000  1.0 0.1257028982
H  H4  1  0.99627000  0.23544000  0.23349000  1.0 0.1257028982
H  H5  1  0.53480000  0.23544000  0.99627000  1.0 0.1257028982
H  H6  1  0.23349000  0.99627000  0.23544000  1.0 0.1257028982
H  H7  1  0.23544000  0.53480000  0.23349000  1.0 0.1257028982
H  H8  1  0.99627000  0.23349000  0.53480000  1.0 0.1257028982
H  H9  1  0.53480000  0.99627000  0.23544000  1.0 0.1257028982
H  H10  1  0.23544000  0.23349000  0.53480000  1.0 0.1257028982
H  H11  1  0.23349000  0.23544000  0.99627000  1.0 0.1257028982
H  H12  1  0.99627000  0.53480000  0.23349000  1.0 0.1257028982
H  H13  1  0.76651000  0.46520000  0.76456000  1.0 0.1257028982
H  H14  1  0.46520000  0.76651000  0.00373000  1.0 0.1257028982
H  H15  1  0.00373000  0.76456000  0.46520000  1.0 0.1257028982
H  H16  1  0.76456000  0.00373000  0.76651000  1.0 0.1257028982
H  H17  1  0.76456000  0.46520000  0.00373000  1.0 0.1257028982
H  H18  1  0.00373000  0.76651000  0.76456000  1.0 0.1257028982
H  H19  1  0.46520000  0.76456000  0.76651000  1.0 0.1257028982
H  H20  1  0.76651000  0.00373000  0.46520000  1.0 0.1257028982
H  H21  1  0.00373000  0.46520000  0.76456000  1.0 0.1257028982
H  H22  1  0.76651000  0.76456000  0.46520000  1.0 0.1257028982
H  H23  1  0.76456000  0.76651000  0.00373000  1.0 0.1257028982
H  H24  1  0.46520000  0.00373000  0.76651000  1.0 0.1257028982
C  C1  1  0.53370000  0.19950000  0.19950000  1.0 -0.0641127661
C  C2  1  0.19950000  0.53370000  0.06730000  1.0 -0.0641127661
C  C3  1  0.19950000  0.06730000  0.53370000  1.0 -0.0641127661
C  C4  1  0.06730000  0.19950000  0.19950000  1.0 -0.0641127661
C  C5  1  0.53370000  0.19950000  0.06730000  1.0 -0.0641127661
C  C6  1  0.19950000  0.06730000  0.19950000  1.0 -0.0641127661
C  C7  1  0.19950000  0.53370000  0.19950000  1.0 -0.0641127661
C  C8  1  0.06730000  0.19950000  0.53370000  1.0 -0.0641127661
C  C9  1  0.53370000  0.06730000  0.19950000  1.0 -0.0641127661
C  C10  1  0.19950000  0.19950000  0.53370000  1.0 -0.0641127661
C  C11  1  0.19950000  0.19950000  0.06730000  1.0 -0.0641127661
C  C12  1  0.06730000  0.53370000  0.19950000  1.0 -0.0641127661
C  C13  1  0.80050000  0.46630000  0.80050000  1.0 -0.0641127661
C  C14  1  0.46630000  0.80050000  0.93270000  1.0 -0.0641127661
C  C15  1  0.93270000  0.80050000  0.46630000  1.0 -0.0641127661
C  C16  1  0.80050000  0.93270000  0.80050000  1.0 -0.0641127661
C  C17  1  0.80050000  0.46630000  0.93270000  1.0 -0.0641127661
C  C18  1  0.93270000  0.80050000  0.80050000  1.0 -0.0641127661
C  C19  1  0.46630000  0.80050000  0.80050000  1.0 -0.0641127661
C  C20  1  0.80050000  0.93270000  0.46630000  1.0 -0.0641127661
C  C21  1  0.93270000  0.46630000  0.80050000  1.0 -0.0641127661
C  C22  1  0.80050000  0.80050000  0.46630000  1.0 -0.0641127661
C  C23  1  0.80050000  0.80050000  0.93270000  1.0 -0.0641127661
C  C24  1  0.46630000  0.93270000  0.80050000  1.0 -0.0641127661
C  C25  1  0.52490000  0.06890000  0.33730000  1.0 0.5895338076
C  C26  1  0.53300000  0.11240000  0.24220000  1.0 -0.0457585051
C  C27  1  0.06890000  0.52490000  0.06890000  1.0 0.5895338076
C  C28  1  0.11240000  0.53300000  0.11240000  1.0 -0.0457585051
C  C29  1  0.33730000  0.06890000  0.52490000  1.0 0.5895338076
C  C30  1  0.24220000  0.11240000  0.53300000  1.0 -0.0457585051
C  C31  1  0.06890000  0.33730000  0.06890000  1.0 0.5895338076
C  C32  1  0.11240000  0.24220000  0.11240000  1.0 -0.0457585051
C  C33  1  0.52490000  0.33730000  0.06890000  1.0 0.5895338076
C  C34  1  0.53300000  0.24220000  0.11240000  1.0 -0.0457585051
C  C35  1  0.06890000  0.06890000  0.33730000  1.0 0.5895338076
C  C36  1  0.11240000  0.11240000  0.24220000  1.0 -0.0457585051
C  C37  1  0.33730000  0.52490000  0.06890000  1.0 0.5895338076
C  C38  1  0.24220000  0.53300000  0.11240000  1.0 -0.0457585051
C  C39  1  0.06890000  0.06890000  0.52490000  1.0 0.5895338076
C  C40  1  0.11240000  0.11240000  0.53300000  1.0 -0.0457585051
C  C41  1  0.52490000  0.06890000  0.06890000  1.0 0.5895338076
C  C42  1  0.53300000  0.11240000  0.11240000  1.0 -0.0457585051
C  C43  1  0.06890000  0.33730000  0.52490000  1.0 0.5895338076
C  C44  1  0.11240000  0.24220000  0.53300000  1.0 -0.0457585051
C  C45  1  0.33730000  0.06890000  0.06890000  1.0 0.5895338076
C  C46  1  0.24220000  0.11240000  0.11240000  1.0 -0.0457585051
C  C47  1  0.06890000  0.52490000  0.33730000  1.0 0.5895338076
C  C48  1  0.11240000  0.53300000  0.24220000  1.0 -0.0457585051
C  C49  1  0.93110000  0.47510000  0.66270000  1.0 0.5895338076
C  C50  1  0.88760000  0.46700000  0.75780000  1.0 -0.0457585051
C  C51  1  0.47510000  0.93110000  0.93110000  1.0 0.5895338076
C  C52  1  0.46700000  0.88760000  0.88760000  1.0 -0.0457585051
C  C53  1  0.93110000  0.66270000  0.47510000  1.0 0.5895338076
C  C54  1  0.88760000  0.75780000  0.46700000  1.0 -0.0457585051
C  C55  1  0.66270000  0.93110000  0.93110000  1.0 0.5895338076
C  C56  1  0.75780000  0.88760000  0.88760000  1.0 -0.0457585051
C  C57  1  0.66270000  0.47510000  0.93110000  1.0 0.5895338076
C  C58  1  0.75780000  0.46700000  0.88760000  1.0 -0.0457585051
C  C59  1  0.93110000  0.93110000  0.66270000  1.0 0.5895338076
C  C60  1  0.88760000  0.88760000  0.75780000  1.0 -0.0457585051
C  C61  1  0.47510000  0.66270000  0.93110000  1.0 0.5895338076
C  C62  1  0.46700000  0.75780000  0.88760000  1.0 -0.0457585051
C  C63  1  0.93110000  0.93110000  0.47510000  1.0 0.5895338076
C  C64  1  0.88760000  0.88760000  0.46700000  1.0 -0.0457585051
C  C65  1  0.93110000  0.47510000  0.93110000  1.0 0.5895338076
C  C66  1  0.88760000  0.46700000  0.88760000  1.0 -0.0457585051
C  C67  1  0.66270000  0.93110000  0.47510000  1.0 0.5895338076
C  C68  1  0.75780000  0.88760000  0.46700000  1.0 -0.0457585051
C  C69  1  0.93110000  0.66270000  0.93110000  1.0 0.5895338076
C  C70  1  0.88760000  0.75780000  0.88760000  1.0 -0.0457585051
C  C71  1  0.47510000  0.93110000  0.66270000  1.0 0.5895338076
C  C72  1  0.46700000  0.88760000  0.75780000  1.0 -0.0457585051
O  O1  1  0.52120000  0.11280000  0.37400000  1.0 -0.5183243982
O  O2  1  0.11280000  0.52120000  0.99200000  1.0 -0.5183243982
O  O3  1  0.37400000  0.99200000  0.52120000  1.0 -0.5183243982
O  O4  1  0.99200000  0.37400000  0.11280000  1.0 -0.5183243982
O  O5  1  0.52120000  0.37400000  0.99200000  1.0 -0.5183243982
O  O6  1  0.11280000  0.99200000  0.37400000  1.0 -0.5183243982
O  O7  1  0.37400000  0.52120000  0.11280000  1.0 -0.5183243982
O  O8  1  0.99200000  0.11280000  0.52120000  1.0 -0.5183243982
O  O9  1  0.52120000  0.99200000  0.11280000  1.0 -0.5183243982
O  O10  1  0.11280000  0.37400000  0.52120000  1.0 -0.5183243982
O  O11  1  0.37400000  0.11280000  0.99200000  1.0 -0.5183243982
O  O12  1  0.99200000  0.52120000  0.37400000  1.0 -0.5183243982
O  O13  1  0.88720000  0.47880000  0.62600000  1.0 -0.5183243982
O  O14  1  0.47880000  0.88720000  0.00800000  1.0 -0.5183243982
O  O15  1  0.00800000  0.62600000  0.47880000  1.0 -0.5183243982
O  O16  1  0.62600000  0.00800000  0.88720000  1.0 -0.5183243982
O  O17  1  0.62600000  0.47880000  0.00800000  1.0 -0.5183243982
O  O18  1  0.00800000  0.88720000  0.62600000  1.0 -0.5183243982
O  O19  1  0.47880000  0.62600000  0.88720000  1.0 -0.5183243982
O  O20  1  0.88720000  0.00800000  0.47880000  1.0 -0.5183243982
O  O21  1  0.00800000  0.47880000  0.88720000  1.0 -0.5183243982
O  O22  1  0.62600000  0.88720000  0.47880000  1.0 -0.5183243982
O  O23  1  0.88720000  0.62600000  0.00800000  1.0 -0.5183243982
O  O24  1  0.47880000  0.00800000  0.62600000  1.0 -0.5183243982
O  O25  1  0.47880000  0.88720000  0.62600000  1.0 -0.5183243982
O  O26  1  0.88720000  0.47880000  0.00800000  1.0 -0.5183243982
O  O27  1  0.62600000  0.00800000  0.47880000  1.0 -0.5183243982
O  O28  1  0.00800000  0.62600000  0.88720000  1.0 -0.5183243982
O  O29  1  0.47880000  0.62600000  0.00800000  1.0 -0.5183243982
O  O30  1  0.88720000  0.00800000  0.62600000  1.0 -0.5183243982
O  O31  1  0.62600000  0.47880000  0.88720000  1.0 -0.5183243982
O  O32  1  0.00800000  0.88720000  0.47880000  1.0 -0.5183243982
O  O33  1  0.47880000  0.00800000  0.88720000  1.0 -0.5183243982
O  O34  1  0.88720000  0.62600000  0.47880000  1.0 -0.5183243982
O  O35  1  0.62600000  0.88720000  0.00800000  1.0 -0.5183243982
O  O36  1  0.00800000  0.47880000  0.62600000  1.0 -0.5183243982
O  O37  1  0.11280000  0.52120000  0.37400000  1.0 -0.5183243982
O  O38  1  0.52120000  0.11280000  0.99200000  1.0 -0.5183243982
O  O39  1  0.99200000  0.37400000  0.52120000  1.0 -0.5183243982
O  O40  1  0.37400000  0.99200000  0.11280000  1.0 -0.5183243982
O  O41  1  0.37400000  0.52120000  0.99200000  1.0 -0.5183243982
O  O42  1  0.99200000  0.11280000  0.37400000  1.0 -0.5183243982
O  O43  1  0.52120000  0.37400000  0.11280000  1.0 -0.5183243982
O  O44  1  0.11280000  0.99200000  0.52120000  1.0 -0.5183243982
O  O45  1  0.99200000  0.52120000  0.11280000  1.0 -0.5183243982
O  O46  1  0.37400000  0.11280000  0.52120000  1.0 -0.5183243982
O  O47  1  0.11280000  0.37400000  0.99200000  1.0 -0.5183243982
O  O48  1  0.52120000  0.99200000  0.37400000  1.0 -0.5183243982
