# DDEC6 charges by PACMAN v1.1 (https://github.com/mtap-research/PACMAN-charge/)
data_IKETUN_FSR_pacman
_symmetry_space_group_name_H-M   'P 1'
_cell_length_a   18.63440000
_cell_length_b   18.63440000
_cell_length_c   18.63440000
_cell_angle_alpha   60.00000000
_cell_angle_beta   60.00000000
_cell_angle_gamma   60.00000000
_symmetry_Int_Tables_number   1
_chemical_formula_structural   Cu12PW12(C9O13)8
_chemical_formula_sum   'Cu12 P1 W12 C72 O104'
_cell_volume   4575.42291798
_cell_formula_units_Z   1
loop_
 _symmetry_equiv_pos_site_id
 _symmetry_equiv_pos_as_xyz
  1  'x, y, z'
loop_
 _atom_site_type_symbol
 _atom_site_label
 _atom_site_symmetry_multiplicity
 _atom_site_fract_x
 _atom_site_fract_y
 _atom_site_fract_z
 _atom_site_occupancy
 _atom_site_charge
Cu  Cu1  1  0.93001000  0.50000000  0.06999000  1.0 0.9229429653
Cu  Cu2  1  0.06999000  0.93001000  0.50000000  1.0 0.9229429653
Cu  Cu3  1  0.50000000  0.06999000  0.93001000  1.0 0.9229429653
Cu  Cu4  1  0.93001000  0.06999000  0.50000000  1.0 0.9229429653
Cu  Cu5  1  0.50000000  0.93001000  0.06999000  1.0 0.9229429653
Cu  Cu6  1  0.06999000  0.50000000  0.93001000  1.0 0.9229429653
Cu  Cu7  1  0.50000000  0.93001000  0.50000000  1.0 0.9229429653
Cu  Cu8  1  0.50000000  0.50000000  0.06999000  1.0 0.9229429653
Cu  Cu9  1  0.50000000  0.50000000  0.93001000  1.0 0.9229429653
Cu  Cu10  1  0.50000000  0.06999000  0.50000000  1.0 0.9258531458
Cu  Cu11  1  0.06999000  0.50000000  0.50000000  1.0 0.9229429653
Cu  Cu12  1  0.93001000  0.50000000  0.50000000  1.0 0.9229429653
P  P1  1  0.00000000  0.00000000  0.00000000  1.0 0.7426338322
W  W1  1  0.00000000  0.19083000  0.00000000  1.0 2.3212891348
W  W2  1  0.00000000  0.00000000  0.19083000  1.0 2.3212891348
W  W3  1  0.19083000  0.00000000  0.00000000  1.0 2.3212891348
W  W4  1  0.19083000  0.00000000  0.80917000  1.0 2.3212891348
W  W5  1  0.19083000  0.80917000  0.00000000  1.0 2.3212891348
W  W6  1  0.80917000  0.19083000  0.00000000  1.0 2.3212891348
W  W7  1  0.00000000  0.19083000  0.80917000  1.0 2.3212891348
W  W8  1  0.80917000  0.00000000  0.19083000  1.0 2.3212891348
W  W9  1  0.00000000  0.80917000  0.19083000  1.0 2.3212891348
W  W10  1  0.00000000  0.80917000  0.00000000  1.0 2.3212891348
W  W11  1  0.00000000  0.00000000  0.80917000  1.0 2.3212891348
W  W12  1  0.80917000  0.00000000  0.00000000  1.0 2.3212891348
C  C1  1  0.06770000  0.33770000  0.06770000  1.0 0.6313344342
C  C2  1  0.06770000  0.06770000  0.33770000  1.0 0.6313344342
C  C3  1  0.33770000  0.06770000  0.06770000  1.0 0.6313344342
C  C4  1  0.47310000  0.93230000  0.66230000  1.0 0.6313344342
C  C5  1  0.47310000  0.66230000  0.93230000  1.0 0.6313344342
C  C6  1  0.47310000  0.93230000  0.93230000  1.0 0.6313344342
C  C7  1  0.93230000  0.47310000  0.93230000  1.0 0.6313344342
C  C8  1  0.66230000  0.47310000  0.93230000  1.0 0.6313344342
C  C9  1  0.93230000  0.47310000  0.66230000  1.0 0.6313344342
C  C10  1  0.66230000  0.93230000  0.47310000  1.0 0.6313344342
C  C11  1  0.93230000  0.93230000  0.47310000  1.0 0.6313344342
C  C12  1  0.93230000  0.66230000  0.47310000  1.0 0.6313344342
C  C13  1  0.93230000  0.66230000  0.93230000  1.0 0.6313344342
C  C14  1  0.93230000  0.93230000  0.66230000  1.0 0.6313344342
C  C15  1  0.66230000  0.93230000  0.93230000  1.0 0.6313344342
C  C16  1  0.52690000  0.06770000  0.33770000  1.0 0.6313344342
C  C17  1  0.52690000  0.33770000  0.06770000  1.0 0.6313344342
C  C18  1  0.52690000  0.06770000  0.06770000  1.0 0.6313344342
C  C19  1  0.06770000  0.52690000  0.06770000  1.0 0.6313344342
C  C20  1  0.33770000  0.52690000  0.06770000  1.0 0.6313344342
C  C21  1  0.06770000  0.52690000  0.33770000  1.0 0.6313344342
C  C22  1  0.33770000  0.06770000  0.52690000  1.0 0.6313344342
C  C23  1  0.06770000  0.06770000  0.52690000  1.0 0.6313344342
C  C24  1  0.06770000  0.33770000  0.52690000  1.0 0.6313344342
C  C25  1  0.11190000  0.23990000  0.11190000  1.0 -0.0922691417
C  C26  1  0.11190000  0.11190000  0.23990000  1.0 -0.0922691417
C  C27  1  0.23990000  0.11190000  0.11190000  1.0 -0.0922691417
C  C28  1  0.46370000  0.88810000  0.76010000  1.0 -0.0922691417
C  C29  1  0.46370000  0.76010000  0.88810000  1.0 -0.0922691417
C  C30  1  0.46370000  0.88810000  0.88810000  1.0 -0.0922691417
C  C31  1  0.88810000  0.46370000  0.88810000  1.0 -0.0922691417
C  C32  1  0.76010000  0.46370000  0.88810000  1.0 -0.0922691417
C  C33  1  0.88810000  0.46370000  0.76010000  1.0 -0.0922691417
C  C34  1  0.76010000  0.88810000  0.46370000  1.0 -0.0922691417
C  C35  1  0.88810000  0.88810000  0.46370000  1.0 -0.0922691417
C  C36  1  0.88810000  0.76010000  0.46370000  1.0 -0.0922691417
C  C37  1  0.88810000  0.76010000  0.88810000  1.0 -0.0922691417
C  C38  1  0.88810000  0.88810000  0.76010000  1.0 -0.0922691417
C  C39  1  0.76010000  0.88810000  0.88810000  1.0 -0.0922691417
C  C40  1  0.53630000  0.11190000  0.23990000  1.0 -0.0922691417
C  C41  1  0.53630000  0.23990000  0.11190000  1.0 -0.0922691417
C  C42  1  0.53630000  0.11190000  0.11190000  1.0 -0.0922691417
C  C43  1  0.11190000  0.53630000  0.11190000  1.0 -0.0922691417
C  C44  1  0.23990000  0.53630000  0.11190000  1.0 -0.0922691417
C  C45  1  0.11190000  0.53630000  0.23990000  1.0 -0.0955059327
C  C46  1  0.23990000  0.11190000  0.53630000  1.0 -0.0922691417
C  C47  1  0.11190000  0.11190000  0.53630000  1.0 -0.0922691417
C  C48  1  0.11190000  0.23990000  0.53630000  1.0 -0.0922691417
C  C49  1  0.06700000  0.19880000  0.19880000  1.0 0.1208299947
C  C50  1  0.19880000  0.06700000  0.19880000  1.0 0.1208299947
C  C51  1  0.19880000  0.19880000  0.06700000  1.0 0.1208299947
C  C52  1  0.46460000  0.80120000  0.80120000  1.0 0.1208299947
C  C53  1  0.46460000  0.80120000  0.93300000  1.0 0.1208299947
C  C54  1  0.46460000  0.93300000  0.80120000  1.0 0.1208299947
C  C55  1  0.80120000  0.46460000  0.93300000  1.0 0.1208299947
C  C56  1  0.80120000  0.46460000  0.80120000  1.0 0.1208299947
C  C57  1  0.93300000  0.46460000  0.80120000  1.0 0.1208299947
C  C58  1  0.80120000  0.93300000  0.46460000  1.0 0.1208299947
C  C59  1  0.93300000  0.80120000  0.46460000  1.0 0.1208299947
C  C60  1  0.80120000  0.80120000  0.46460000  1.0 0.1208299947
C  C61  1  0.93300000  0.80120000  0.80120000  1.0 0.1208299947
C  C62  1  0.80120000  0.93300000  0.80120000  1.0 0.1208299947
C  C63  1  0.80120000  0.80120000  0.93300000  1.0 0.1208299947
C  C64  1  0.53540000  0.19880000  0.19880000  1.0 0.1208299947
C  C65  1  0.53540000  0.19880000  0.06700000  1.0 0.1208299947
C  C66  1  0.53540000  0.06700000  0.19880000  1.0 0.1208299947
C  C67  1  0.19880000  0.53540000  0.06700000  1.0 0.1208299947
C  C68  1  0.19880000  0.53540000  0.19880000  1.0 0.1208299947
C  C69  1  0.06700000  0.53540000  0.19880000  1.0 0.1208299947
C  C70  1  0.19880000  0.06700000  0.53540000  1.0 0.1208299947
C  C71  1  0.06700000  0.19880000  0.53540000  1.0 0.1208299947
C  C72  1  0.19880000  0.19880000  0.53540000  1.0 0.1208299947
O  O1  1  0.99120000  0.37560000  0.11140000  1.0 -0.5400647196
O  O2  1  0.11140000  0.99120000  0.37560000  1.0 -0.5400647196
O  O3  1  0.37560000  0.11140000  0.99120000  1.0 -0.5400647196
O  O4  1  0.99120000  0.11140000  0.37560000  1.0 -0.5400647196
O  O5  1  0.37560000  0.99120000  0.11140000  1.0 -0.5400647196
O  O6  1  0.11140000  0.37560000  0.99120000  1.0 -0.5400647196
O  O7  1  0.47820000  0.88860000  0.62440000  1.0 -0.5400647196
O  O8  1  0.47820000  0.62440000  0.00880000  1.0 -0.5400647196
O  O9  1  0.47820000  0.00880000  0.88860000  1.0 -0.5400647196
O  O10  1  0.47820000  0.62440000  0.88860000  1.0 -0.5400647196
O  O11  1  0.47820000  0.88860000  0.00880000  1.0 -0.5400647196
O  O12  1  0.47820000  0.00880000  0.62440000  1.0 -0.5400647196
O  O13  1  0.88860000  0.47820000  0.00880000  1.0 -0.5400647196
O  O14  1  0.62440000  0.47820000  0.88860000  1.0 -0.5400647196
O  O15  1  0.00880000  0.47820000  0.62440000  1.0 -0.5400647196
O  O16  1  0.62440000  0.47820000  0.00880000  1.0 -0.5400647196
O  O17  1  0.88860000  0.47820000  0.62440000  1.0 -0.5400647196
O  O18  1  0.00880000  0.47820000  0.88860000  1.0 -0.5400647196
O  O19  1  0.62440000  0.00880000  0.47820000  1.0 -0.5400647196
O  O20  1  0.00880000  0.88860000  0.47820000  1.0 -0.5400647196
O  O21  1  0.88860000  0.62440000  0.47820000  1.0 -0.5400647196
O  O22  1  0.88860000  0.00880000  0.47820000  1.0 -0.5400647196
O  O23  1  0.00880000  0.62440000  0.47820000  1.0 -0.5400647196
O  O24  1  0.62440000  0.88860000  0.47820000  1.0 -0.5400647196
O  O25  1  0.00880000  0.62440000  0.88860000  1.0 -0.5400647196
O  O26  1  0.88860000  0.00880000  0.62440000  1.0 -0.5400647196
O  O27  1  0.62440000  0.88860000  0.00880000  1.0 -0.5400647196
O  O28  1  0.00880000  0.88860000  0.62440000  1.0 -0.5400647196
O  O29  1  0.62440000  0.00880000  0.88860000  1.0 -0.5400647196
O  O30  1  0.88860000  0.62440000  0.00880000  1.0 -0.5400647196
O  O31  1  0.52180000  0.11140000  0.37560000  1.0 -0.5400647196
O  O32  1  0.52180000  0.37560000  0.99120000  1.0 -0.5400647196
O  O33  1  0.52180000  0.99120000  0.11140000  1.0 -0.5400647196
O  O34  1  0.52180000  0.37560000  0.11140000  1.0 -0.5400647196
O  O35  1  0.52180000  0.11140000  0.99120000  1.0 -0.5400647196
O  O36  1  0.52180000  0.99120000  0.37560000  1.0 -0.5400647196
O  O37  1  0.11140000  0.52180000  0.99120000  1.0 -0.5400647196
O  O38  1  0.37560000  0.52180000  0.11140000  1.0 -0.5400647196
O  O39  1  0.99120000  0.52180000  0.37560000  1.0 -0.5400647196
O  O40  1  0.37560000  0.52180000  0.99120000  1.0 -0.5400647196
O  O41  1  0.11140000  0.52180000  0.37560000  1.0 -0.5400647196
O  O42  1  0.99120000  0.52180000  0.11140000  1.0 -0.5400647196
O  O43  1  0.37560000  0.99120000  0.52180000  1.0 -0.5400647196
O  O44  1  0.99120000  0.11140000  0.52180000  1.0 -0.5400647196
O  O45  1  0.11140000  0.37560000  0.52180000  1.0 -0.5400647196
O  O46  1  0.11140000  0.99120000  0.52180000  1.0 -0.5400647196
O  O47  1  0.99120000  0.37560000  0.52180000  1.0 -0.5400647196
O  O48  1  0.37560000  0.11140000  0.52180000  1.0 -0.5400647196
O  O49  1  0.81080000  0.50000000  0.18920000  1.0 0.0676350652
O  O50  1  0.18920000  0.81080000  0.50000000  1.0 0.0676350652
O  O51  1  0.50000000  0.18920000  0.81080000  1.0 0.0676350652
O  O52  1  0.81080000  0.18920000  0.50000000  1.0 0.0676350652
O  O53  1  0.50000000  0.81080000  0.18920000  1.0 0.0676350652
O  O54  1  0.18920000  0.50000000  0.81080000  1.0 0.0676350652
O  O55  1  0.50000000  0.81080000  0.50000000  1.0 0.0676350652
O  O56  1  0.50000000  0.50000000  0.18920000  1.0 0.0676350652
O  O57  1  0.50000000  0.50000000  0.81080000  1.0 0.0676350652
O  O58  1  0.50000000  0.18920000  0.50000000  1.0 0.0676350652
O  O59  1  0.18920000  0.50000000  0.50000000  1.0 0.0767476238
O  O60  1  0.81080000  0.50000000  0.50000000  1.0 0.0676350652
O  O61  1  0.00000000  0.28080000  0.00000000  1.0 -0.6160932587
O  O62  1  0.00000000  0.00000000  0.28080000  1.0 -0.6160932587
O  O63  1  0.28080000  0.00000000  0.00000000  1.0 -0.6160932587
O  O64  1  0.28080000  0.00000000  0.71920000  1.0 -0.6160932587
O  O65  1  0.28080000  0.71920000  0.00000000  1.0 -0.6160932587
O  O66  1  0.71920000  0.28080000  0.00000000  1.0 -0.6149193518
O  O67  1  0.00000000  0.28080000  0.71920000  1.0 -0.6149193518
O  O68  1  0.71920000  0.00000000  0.28080000  1.0 -0.6160932587
O  O69  1  0.00000000  0.71920000  0.28080000  1.0 -0.6149193518
O  O70  1  0.00000000  0.71920000  0.00000000  1.0 -0.6160932587
O  O71  1  0.00000000  0.00000000  0.71920000  1.0 -0.6160932587
O  O72  1  0.71920000  0.00000000  0.00000000  1.0 -0.6160932587
O  O73  1  0.98050000  0.12050000  0.12050000  1.0 -0.8642851584
O  O74  1  0.12050000  0.98050000  0.12050000  1.0 -0.8653487168
O  O75  1  0.12050000  0.12050000  0.98050000  1.0 -0.8653487168
O  O76  1  0.22150000  0.87950000  0.87950000  1.0 -0.8653487168
O  O77  1  0.22150000  0.87950000  0.01950000  1.0 -0.8653487168
O  O78  1  0.22150000  0.01950000  0.87950000  1.0 -0.8653487168
O  O79  1  0.87950000  0.22150000  0.01950000  1.0 -0.8653487168
O  O80  1  0.87950000  0.22150000  0.87950000  1.0 -0.8653487168
O  O81  1  0.01950000  0.22150000  0.87950000  1.0 -0.8642851584
O  O82  1  0.87950000  0.01950000  0.22150000  1.0 -0.8653487168
O  O83  1  0.01950000  0.87950000  0.22150000  1.0 -0.8653487168
O  O84  1  0.87950000  0.87950000  0.22150000  1.0 -0.8653487168
O  O85  1  0.01950000  0.87950000  0.87950000  1.0 -0.8653487168
O  O86  1  0.87950000  0.01950000  0.87950000  1.0 -0.8653487168
O  O87  1  0.87950000  0.87950000  0.01950000  1.0 -0.8653487168
O  O88  1  0.77850000  0.12050000  0.12050000  1.0 -0.8653487168
O  O89  1  0.77850000  0.12050000  0.98050000  1.0 -0.8653487168
O  O90  1  0.77850000  0.98050000  0.12050000  1.0 -0.8653487168
O  O91  1  0.12050000  0.77850000  0.98050000  1.0 -0.8653487168
O  O92  1  0.12050000  0.77850000  0.12050000  1.0 -0.8653487168
O  O93  1  0.98050000  0.77850000  0.12050000  1.0 -0.8642851584
O  O94  1  0.12050000  0.98050000  0.77850000  1.0 -0.8653487168
O  O95  1  0.98050000  0.12050000  0.77850000  1.0 -0.8642851584
O  O96  1  0.12050000  0.12050000  0.77850000  1.0 -0.8653487168
O  O97  1  0.03270000  0.03270000  0.03270000  1.0 -0.2818117202
O  O98  1  0.09810000  0.96730000  0.96730000  1.0 -0.2818117202
O  O99  1  0.96730000  0.09810000  0.96730000  1.0 -0.2818117202
O  O100  1  0.96730000  0.96730000  0.09810000  1.0 -0.2818117202
O  O101  1  0.96730000  0.96730000  0.96730000  1.0 -0.2818117202
O  O102  1  0.90190000  0.03270000  0.03270000  1.0 -0.2818117202
O  O103  1  0.03270000  0.90190000  0.03270000  1.0 -0.2818117202
O  O104  1  0.03270000  0.03270000  0.90190000  1.0 -0.2818117202
