# DDEC6 charges by PACMAN v1.1 (https://github.com/mtap-research/PACMAN-charge/)
data_IKEZED_FSR_pacman
_symmetry_space_group_name_H-M   'P 1'
_cell_length_a   10.31710000
_cell_length_b   10.31710000
_cell_length_c   7.52780000
_cell_angle_alpha   80.80340000
_cell_angle_beta   99.19660000
_cell_angle_gamma   60.57920000
_symmetry_Int_Tables_number   1
_chemical_formula_structural   NaZn2H3C10O9
_chemical_formula_sum   'Na2 Zn4 H6 C20 O18'
_cell_volume   661.97497193
_cell_formula_units_Z   2
loop_
 _symmetry_equiv_pos_site_id
 _symmetry_equiv_pos_as_xyz
  1  'x, y, z'
loop_
 _atom_site_type_symbol
 _atom_site_label
 _atom_site_symmetry_multiplicity
 _atom_site_fract_x
 _atom_site_fract_y
 _atom_site_fract_z
 _atom_site_occupancy
 _atom_site_charge
Na  Na1  1  0.24678000  0.24678000  0.50000000  1.0 0.8932420312
Na  Na2  1  0.75322000  0.75322000  0.50000000  1.0 0.8932420312
Zn  Zn1  1  0.11766000  0.43696000  0.84967000  1.0 0.9417597352
Zn  Zn2  1  0.56304000  0.88234000  0.84967000  1.0 0.9417597352
Zn  Zn3  1  0.88234000  0.56304000  0.15033000  1.0 0.9417597352
Zn  Zn4  1  0.43696000  0.11766000  0.15033000  1.0 0.9417597352
H  H1  1  0.18240000  0.18240000  0.00000000  1.0 0.3869825302
H  H2  1  0.81760000  0.81760000  0.00000000  1.0 0.3869825302
H  H3  1  0.33900000  0.66100000  0.06100000  1.0 0.1393895483
H  H4  1  0.66100000  0.33900000  0.93900000  1.0 0.1393895483
H  H5  1  0.28400000  0.71600000  0.64400000  1.0 0.1393895483
H  H6  1  0.71600000  0.28400000  0.35600000  1.0 0.1393895483
C  C1  1  0.32930000  0.67070000  0.17930000  1.0 -0.0873817729
C  C2  1  0.67070000  0.32930000  0.82070000  1.0 -0.0873817729
C  C3  1  0.25010000  0.61410000  0.26290000  1.0 -0.0701330678
C  C4  1  0.38590000  0.74990000  0.26290000  1.0 -0.0701330678
C  C5  1  0.74990000  0.38590000  0.73710000  1.0 -0.0701330678
C  C6  1  0.61410000  0.25010000  0.73710000  1.0 -0.0701330678
C  C7  1  0.23350000  0.63090000  0.43990000  1.0 0.0033570697
C  C8  1  0.36910000  0.76650000  0.43990000  1.0 0.0033570697
C  C9  1  0.76650000  0.36910000  0.56010000  1.0 0.0033570697
C  C10  1  0.63090000  0.23350000  0.56010000  1.0 0.0033570697
C  C11  1  0.29560000  0.70440000  0.52620000  1.0 -0.1405872108
C  C12  1  0.70440000  0.29560000  0.47380000  1.0 -0.1405872108
C  C13  1  0.17170000  0.55010000  0.15620000  1.0 0.5998475103
C  C14  1  0.44990000  0.82830000  0.15620000  1.0 0.5998475103
C  C15  1  0.82830000  0.44990000  0.84380000  1.0 0.5998475103
C  C16  1  0.55010000  0.17170000  0.84380000  1.0 0.5998475103
C  C17  1  0.14000000  0.58660000  0.54030000  1.0 0.5998475103
C  C18  1  0.41340000  0.86000000  0.54030000  1.0 0.5998475103
C  C19  1  0.86000000  0.41340000  0.45970000  1.0 0.5998475103
C  C20  1  0.58660000  0.14000000  0.45970000  1.0 0.5998475103
O  O1  1  0.17550000  0.55550000  0.98990000  1.0 -0.5160482826
O  O2  1  0.44450000  0.82450000  0.98990000  1.0 -0.5160482826
O  O3  1  0.82450000  0.44450000  0.01010000  1.0 -0.5160482826
O  O4  1  0.55550000  0.17550000  0.01010000  1.0 -0.5160482826
O  O5  1  0.10180000  0.49820000  0.23810000  1.0 -0.6096017064
O  O6  1  0.50180000  0.89820000  0.23810000  1.0 -0.6096017064
O  O7  1  0.89820000  0.50180000  0.76190000  1.0 -0.6096017064
O  O8  1  0.49820000  0.10180000  0.76190000  1.0 -0.6096017064
O  O9  1  0.00710000  0.68650000  0.52970000  1.0 -0.570535809
O  O10  1  0.31350000  0.99290000  0.52970000  1.0 -0.570535809
O  O11  1  0.99290000  0.31350000  0.47030000  1.0 -0.570535809
O  O12  1  0.68650000  0.00710000  0.47030000  1.0 -0.570535809
O  O13  1  0.21270000  0.44790000  0.64670000  1.0 -0.6159673037
O  O14  1  0.55210000  0.78730000  0.64670000  1.0 -0.6159673037
O  O15  1  0.78730000  0.55210000  0.35330000  1.0 -0.6159673037
O  O16  1  0.44790000  0.21270000  0.35330000  1.0 -0.6159673037
O  O17  1  0.22970000  0.22970000  0.00000000  1.0 -0.8560859861
O  O18  1  0.77030000  0.77030000  0.00000000  1.0 -0.8560859861
