# DDEC6 charges by PACMAN v1.1 (https://github.com/mtap-research/PACMAN-charge/)
data_IKOTEH_ASR_pacman
_symmetry_space_group_name_H-M   'P 1'
_cell_length_a   13.44950000
_cell_length_b   13.44950000
_cell_length_c   25.41300000
_cell_angle_alpha   90.00000000
_cell_angle_beta   90.00000000
_cell_angle_gamma   90.00000000
_symmetry_Int_Tables_number   1
_chemical_formula_structural   CoH24C31N4(ClO5)2
_chemical_formula_sum   'Co4 H96 C124 N16 Cl8 O40'
_cell_volume   4596.93343400
_cell_formula_units_Z   4
loop_
 _symmetry_equiv_pos_site_id
 _symmetry_equiv_pos_as_xyz
  1  'x, y, z'
loop_
 _atom_site_type_symbol
 _atom_site_label
 _atom_site_symmetry_multiplicity
 _atom_site_fract_x
 _atom_site_fract_y
 _atom_site_fract_z
 _atom_site_occupancy
 _atom_site_charge
Co  Co1  1  0.50000000  0.50000000  0.13610000  1.0 0.6244639212
Co  Co2  1  0.00000000  0.00000000  0.63610000  1.0 0.6244639212
Co  Co3  1  0.00000000  0.00000000  0.36390000  1.0 0.6244639212
Co  Co4  1  0.50000000  0.50000000  0.86390000  1.0 0.6244639212
H  H1  1  0.34820000  0.95470000  0.89370000  1.0 0.0703176035
H  H2  1  0.65180000  0.04530000  0.89370000  1.0 0.0703176035
H  H3  1  0.45470000  0.15180000  0.39370000  1.0 0.0703176035
H  H4  1  0.54530000  0.84820000  0.39370000  1.0 0.0703176035
H  H5  1  0.38870000  0.03960000  0.94150000  1.0 0.0703176035
H  H6  1  0.61130000  0.96040000  0.94150000  1.0 0.0703176035
H  H7  1  0.53960000  0.11130000  0.44150000  1.0 0.0703176035
H  H8  1  0.46040000  0.88870000  0.44150000  1.0 0.0703176035
H  H9  1  0.26530000  0.77140000  0.06160000  1.0 0.1075148664
H  H10  1  0.73470000  0.22860000  0.06160000  1.0 0.1075148664
H  H11  1  0.27140000  0.23470000  0.56160000  1.0 0.1075148664
H  H12  1  0.72860000  0.76530000  0.56160000  1.0 0.1075148664
H  H13  1  0.31560000  0.62790000  0.11330000  1.0 0.0900422012
H  H14  1  0.68440000  0.37210000  0.11330000  1.0 0.0900422012
H  H15  1  0.12790000  0.18440000  0.61330000  1.0 0.0900422012
H  H16  1  0.87210000  0.81560000  0.61330000  1.0 0.0900422012
H  H17  1  0.59140000  0.61850000  0.03900000  1.0 0.083127861
H  H18  1  0.40860000  0.38150000  0.03900000  1.0 0.083127861
H  H19  1  0.11850000  0.90860000  0.53900000  1.0 0.083127861
H  H20  1  0.88150000  0.09140000  0.53900000  1.0 0.083127861
H  H21  1  0.54860000  0.76050000  0.98390000  1.0 0.1075148664
H  H22  1  0.45140000  0.23950000  0.98390000  1.0 0.1075148664
H  H23  1  0.26050000  0.95140000  0.48390000  1.0 0.1075148664
H  H24  1  0.73950000  0.04860000  0.48390000  1.0 0.1075148664
H  H25  1  0.45850000  0.88620000  0.82940000  1.0 0.0900422012
H  H26  1  0.54150000  0.11380000  0.82940000  1.0 0.0900422012
H  H27  1  0.38620000  0.04150000  0.32940000  1.0 0.0900422012
H  H28  1  0.61380000  0.95850000  0.32940000  1.0 0.0900422012
H  H29  1  0.54630000  0.84750000  0.87590000  1.0 0.0900422012
H  H30  1  0.45370000  0.15250000  0.87590000  1.0 0.0900422012
H  H31  1  0.34750000  0.95370000  0.37590000  1.0 0.0900422012
H  H32  1  0.65250000  0.04630000  0.37590000  1.0 0.0900422012
H  H33  1  0.87690000  0.82060000  0.80610000  1.0 0.1207039559
H  H34  1  0.12310000  0.17940000  0.80610000  1.0 0.1207039559
H  H35  1  0.32060000  0.62310000  0.30610000  1.0 0.1207039559
H  H36  1  0.67940000  0.37690000  0.30610000  1.0 0.1207039559
H  H37  1  0.99100000  0.86450000  0.73550000  1.0 0.083127861
H  H38  1  0.00900000  0.13550000  0.73550000  1.0 0.083127861
H  H39  1  0.36450000  0.50900000  0.23550000  1.0 0.083127861
H  H40  1  0.63550000  0.49100000  0.23550000  1.0 0.083127861
H  H41  1  0.77770000  0.04460000  0.66540000  1.0 0.0900422012
H  H42  1  0.22230000  0.95540000  0.66540000  1.0 0.0900422012
H  H43  1  0.54460000  0.72230000  0.16540000  1.0 0.0900422012
H  H44  1  0.45540000  0.27770000  0.16540000  1.0 0.0900422012
H  H45  1  0.65650000  0.00190000  0.73240000  1.0 0.1207039559
H  H46  1  0.34350000  0.99810000  0.73240000  1.0 0.1207039559
H  H47  1  0.50190000  0.84350000  0.23240000  1.0 0.1207039559
H  H48  1  0.49810000  0.15650000  0.23240000  1.0 0.1207039559
H  H49  1  0.84820000  0.45470000  0.60630000  1.0 0.0703176035
H  H50  1  0.04530000  0.34820000  0.10630000  1.0 0.0703176035
H  H51  1  0.95470000  0.65180000  0.10630000  1.0 0.0703176035
H  H52  1  0.15180000  0.54530000  0.60630000  1.0 0.0703176035
H  H53  1  0.88870000  0.53960000  0.55850000  1.0 0.0703176035
H  H54  1  0.96040000  0.38870000  0.05850000  1.0 0.0703176035
H  H55  1  0.03960000  0.61130000  0.05850000  1.0 0.0703176035
H  H56  1  0.11130000  0.46040000  0.55850000  1.0 0.0703176035
H  H57  1  0.76530000  0.27140000  0.43840000  1.0 0.1075148664
H  H58  1  0.22860000  0.26530000  0.93840000  1.0 0.1075148664
H  H59  1  0.77140000  0.73470000  0.93840000  1.0 0.1075148664
H  H60  1  0.23470000  0.72860000  0.43840000  1.0 0.1075148664
H  H61  1  0.81560000  0.12790000  0.38670000  1.0 0.0900422012
H  H62  1  0.37210000  0.31560000  0.88670000  1.0 0.0952628309
H  H63  1  0.62790000  0.68440000  0.88670000  1.0 0.0900422012
H  H64  1  0.18440000  0.87210000  0.38670000  1.0 0.0900422012
H  H65  1  0.09140000  0.11850000  0.46100000  1.0 0.083127861
H  H66  1  0.38150000  0.59140000  0.96100000  1.0 0.083127861
H  H67  1  0.61850000  0.40860000  0.96100000  1.0 0.083127861
H  H68  1  0.90860000  0.88150000  0.46100000  1.0 0.083127861
H  H69  1  0.04860000  0.26050000  0.51610000  1.0 0.1075148664
H  H70  1  0.23950000  0.54860000  0.01610000  1.0 0.1075148664
H  H71  1  0.76050000  0.45140000  0.01610000  1.0 0.1075148664
H  H72  1  0.95140000  0.73950000  0.51610000  1.0 0.1075148664
H  H73  1  0.95850000  0.38620000  0.67060000  1.0 0.0900422012
H  H74  1  0.11380000  0.45850000  0.17060000  1.0 0.0900422012
H  H75  1  0.88620000  0.54150000  0.17060000  1.0 0.0900422012
H  H76  1  0.04150000  0.61380000  0.67060000  1.0 0.0900422012
H  H77  1  0.04630000  0.34750000  0.62410000  1.0 0.0900422012
H  H78  1  0.15250000  0.54630000  0.12410000  1.0 0.0900422012
H  H79  1  0.84750000  0.45370000  0.12410000  1.0 0.0900422012
H  H80  1  0.95370000  0.65250000  0.62410000  1.0 0.0900422012
H  H81  1  0.37690000  0.32060000  0.69390000  1.0 0.1207039559
H  H82  1  0.17940000  0.87690000  0.19390000  1.0 0.1207039559
H  H83  1  0.82060000  0.12310000  0.19390000  1.0 0.1207039559
H  H84  1  0.62310000  0.67940000  0.69390000  1.0 0.1207039559
H  H85  1  0.49100000  0.36450000  0.76450000  1.0 0.083127861
H  H86  1  0.13550000  0.99100000  0.26450000  1.0 0.083127861
H  H87  1  0.86450000  0.00900000  0.26450000  1.0 0.083127861
H  H88  1  0.50900000  0.63550000  0.76450000  1.0 0.083127861
H  H89  1  0.27770000  0.54460000  0.83460000  1.0 0.0900422012
H  H90  1  0.95540000  0.77770000  0.33460000  1.0 0.0900422012
H  H91  1  0.04460000  0.22230000  0.33460000  1.0 0.0900422012
H  H92  1  0.72230000  0.45540000  0.83460000  1.0 0.0900422012
H  H93  1  0.15650000  0.50190000  0.76760000  1.0 0.1207039559
H  H94  1  0.99810000  0.65650000  0.26760000  1.0 0.1207039559
H  H95  1  0.00190000  0.34350000  0.26760000  1.0 0.1207039559
H  H96  1  0.84350000  0.49810000  0.76760000  1.0 0.1207039559
C  C1  1  0.50000000  0.00000000  0.88490000  1.0 0.083127861
C  C2  1  0.50000000  0.00000000  0.38490000  1.0 0.083127861
C  C3  1  0.41010000  0.97570000  0.91840000  1.0 -0.1304970227
C  C4  1  0.58990000  0.02430000  0.91840000  1.0 -0.1304970227
C  C5  1  0.47570000  0.08990000  0.41840000  1.0 -0.1304970227
C  C6  1  0.52430000  0.91010000  0.41840000  1.0 -0.1304970227
C  C7  1  0.37710000  0.86100000  0.99240000  1.0 0.3357338326
C  C8  1  0.62290000  0.13900000  0.99240000  1.0 0.3357338326
C  C9  1  0.36100000  0.12290000  0.49240000  1.0 0.3357338326
C  C10  1  0.63900000  0.87710000  0.49240000  1.0 0.3357338326
C  C11  1  0.40340000  0.77800000  0.01850000  1.0 -0.0676468911
C  C12  1  0.59660000  0.22200000  0.01850000  1.0 -0.0676468911
C  C13  1  0.27800000  0.09660000  0.51850000  1.0 -0.0676468911
C  C14  1  0.72200000  0.90340000  0.51850000  1.0 -0.0676468911
C  C15  1  0.33780000  0.73860000  0.05580000  1.0 -0.1788646329
C  C16  1  0.66220000  0.26140000  0.05580000  1.0 -0.1788646329
C  C17  1  0.23860000  0.16220000  0.55580000  1.0 -0.1788646329
C  C18  1  0.76140000  0.83780000  0.55580000  1.0 -0.1788646329
C  C19  1  0.36690000  0.65770000  0.08470000  1.0 0.083127861
C  C20  1  0.63310000  0.34230000  0.08470000  1.0 0.083127861
C  C21  1  0.15770000  0.13310000  0.58470000  1.0 0.083127861
C  C22  1  0.84230000  0.86690000  0.58470000  1.0 0.083127861
C  C23  1  0.51910000  0.65230000  0.04350000  1.0 0.083127861
C  C24  1  0.48090000  0.34770000  0.04350000  1.0 0.083127861
C  C25  1  0.15230000  0.98090000  0.54350000  1.0 0.083127861
C  C26  1  0.84770000  0.01910000  0.54350000  1.0 0.083127861
C  C27  1  0.49600000  0.73280000  0.01250000  1.0 -0.1667294746
C  C28  1  0.50400000  0.26720000  0.01250000  1.0 -0.1667294746
C  C29  1  0.23280000  0.00400000  0.51250000  1.0 -0.1667294746
C  C30  1  0.76720000  0.99600000  0.51250000  1.0 -0.1667294746
C  C31  1  0.52410000  0.90860000  0.85090000  1.0 -0.0520280043
C  C32  1  0.47590000  0.09140000  0.85090000  1.0 -0.0520280043
C  C33  1  0.40860000  0.97590000  0.35090000  1.0 -0.0520280043
C  C34  1  0.59140000  0.02410000  0.35090000  1.0 -0.0520280043
C  C35  1  0.68750000  0.88230000  0.81840000  1.0 0.5034625659
C  C36  1  0.31250000  0.11770000  0.81840000  1.0 0.5034625659
C  C37  1  0.38230000  0.81250000  0.31840000  1.0 0.5034625659
C  C38  1  0.61770000  0.18750000  0.31840000  1.0 0.5034625659
C  C39  1  0.75740000  0.90840000  0.77490000  1.0 -0.0036680519
C  C40  1  0.24260000  0.09160000  0.77490000  1.0 -0.0036680519
C  C41  1  0.40840000  0.74260000  0.27490000  1.0 -0.0036680519
C  C42  1  0.59160000  0.25740000  0.27490000  1.0 -0.0036680519
C  C43  1  0.85310000  0.87020000  0.77510000  1.0 -0.1426351575
C  C44  1  0.14690000  0.12980000  0.77510000  1.0 -0.1426351575
C  C45  1  0.37020000  0.64690000  0.27510000  1.0 -0.1426351575
C  C46  1  0.62980000  0.35310000  0.27510000  1.0 -0.1426351575
C  C47  1  0.91720000  0.89620000  0.73550000  1.0 0.0900422012
C  C48  1  0.08280000  0.10380000  0.73550000  1.0 0.0900422012
C  C49  1  0.39620000  0.58280000  0.23550000  1.0 0.0900422012
C  C50  1  0.60380000  0.41720000  0.23550000  1.0 0.0900422012
C  C51  1  0.79920000  0.99480000  0.69680000  1.0 0.083127861
C  C52  1  0.20080000  0.00520000  0.69680000  1.0 0.083127861
C  C53  1  0.49480000  0.70080000  0.19680000  1.0 0.083127861
C  C54  1  0.50520000  0.29920000  0.19680000  1.0 0.083127861
C  C55  1  0.73070000  0.97150000  0.73430000  1.0 -0.1479645029
C  C56  1  0.26930000  0.02850000  0.73430000  1.0 -0.1479645029
C  C57  1  0.47150000  0.76930000  0.23430000  1.0 -0.1479645029
C  C58  1  0.52850000  0.23070000  0.23430000  1.0 -0.1479645029
C  C59  1  0.36100000  0.87100000  0.98130000  1.0 0.391854869
C  C60  1  0.63900000  0.12900000  0.98130000  1.0 0.391854869
C  C61  1  0.37100000  0.13900000  0.48130000  1.0 0.391854869
C  C62  1  0.62900000  0.86100000  0.48130000  1.0 0.391854869
C  C63  1  0.00000000  0.50000000  0.61510000  1.0 0.083127861
C  C64  1  0.00000000  0.50000000  0.11510000  1.0 0.083127861
C  C65  1  0.91010000  0.47570000  0.58160000  1.0 -0.1304970227
C  C66  1  0.02430000  0.41010000  0.08160000  1.0 -0.1304970227
C  C67  1  0.97570000  0.58990000  0.08160000  1.0 -0.1304970227
C  C68  1  0.08990000  0.52430000  0.58160000  1.0 -0.1304970227
C  C69  1  0.87710000  0.36100000  0.50760000  1.0 0.3357338326
C  C70  1  0.13900000  0.37710000  0.00760000  1.0 0.3357338326
C  C71  1  0.86100000  0.62290000  0.00760000  1.0 0.3357338326
C  C72  1  0.12290000  0.63900000  0.50760000  1.0 0.3357338326
C  C73  1  0.90340000  0.27800000  0.48150000  1.0 -0.0676468911
C  C74  1  0.22200000  0.40340000  0.98150000  1.0 -0.0676468911
C  C75  1  0.77800000  0.59660000  0.98150000  1.0 -0.0676468911
C  C76  1  0.09660000  0.72200000  0.48150000  1.0 -0.0676468911
C  C77  1  0.83780000  0.23860000  0.44420000  1.0 -0.1788646329
C  C78  1  0.26140000  0.33780000  0.94420000  1.0 -0.1788646329
C  C79  1  0.73860000  0.66220000  0.94420000  1.0 -0.1788646329
C  C80  1  0.16220000  0.76140000  0.44420000  1.0 -0.1788646329
C  C81  1  0.86690000  0.15770000  0.41530000  1.0 0.083127861
C  C82  1  0.34230000  0.36690000  0.91530000  1.0 0.083127861
C  C83  1  0.65770000  0.63310000  0.91530000  1.0 0.083127861
C  C84  1  0.13310000  0.84230000  0.41530000  1.0 0.083127861
C  C85  1  0.01910000  0.15230000  0.45650000  1.0 0.083127861
C  C86  1  0.34770000  0.51910000  0.95650000  1.0 0.083127861
C  C87  1  0.65230000  0.48090000  0.95650000  1.0 0.083127861
C  C88  1  0.98090000  0.84770000  0.45650000  1.0 0.083127861
C  C89  1  0.99600000  0.23280000  0.48750000  1.0 -0.1667294746
C  C90  1  0.26720000  0.49600000  0.98750000  1.0 -0.1667294746
C  C91  1  0.73280000  0.50400000  0.98750000  1.0 -0.1667294746
C  C92  1  0.00400000  0.76720000  0.48750000  1.0 -0.1667294746
C  C93  1  0.02410000  0.40860000  0.64910000  1.0 -0.0520280043
C  C94  1  0.09140000  0.52410000  0.14910000  1.0 -0.0520280043
C  C95  1  0.90860000  0.47590000  0.14910000  1.0 -0.0520280043
C  C96  1  0.97590000  0.59140000  0.64910000  1.0 -0.0520280043
C  C97  1  0.18750000  0.38230000  0.68160000  1.0 0.5034625659
C  C98  1  0.11770000  0.68750000  0.18160000  1.0 0.5034625659
C  C99  1  0.88230000  0.31250000  0.18160000  1.0 0.5034625659
C  C100  1  0.81250000  0.61770000  0.68160000  1.0 0.5034625659
C  C101  1  0.25740000  0.40840000  0.72510000  1.0 -0.0036680519
C  C102  1  0.09160000  0.75740000  0.22510000  1.0 -0.0036680519
C  C103  1  0.90840000  0.24260000  0.22510000  1.0 -0.0036680519
C  C104  1  0.74260000  0.59160000  0.72510000  1.0 -0.0036680519
C  C105  1  0.35310000  0.37020000  0.72490000  1.0 -0.1426351575
C  C106  1  0.12980000  0.85310000  0.22490000  1.0 -0.1426351575
C  C107  1  0.87020000  0.14690000  0.22490000  1.0 -0.1426351575
C  C108  1  0.64690000  0.62980000  0.72490000  1.0 -0.1426351575
C  C109  1  0.41720000  0.39620000  0.76450000  1.0 0.0900422012
C  C110  1  0.10380000  0.91720000  0.26450000  1.0 0.0900422012
C  C111  1  0.89620000  0.08280000  0.26450000  1.0 0.0900422012
C  C112  1  0.58280000  0.60380000  0.76450000  1.0 0.0900422012
C  C113  1  0.29920000  0.49480000  0.80320000  1.0 0.083127861
C  C114  1  0.00520000  0.79920000  0.30320000  1.0 0.083127861
C  C115  1  0.99480000  0.20080000  0.30320000  1.0 0.083127861
C  C116  1  0.70080000  0.50520000  0.80320000  1.0 0.083127861
C  C117  1  0.23070000  0.47150000  0.76570000  1.0 -0.1479645029
C  C118  1  0.02850000  0.73070000  0.26570000  1.0 -0.1479645029
C  C119  1  0.97150000  0.26930000  0.26570000  1.0 -0.1479645029
C  C120  1  0.76930000  0.52850000  0.76570000  1.0 -0.1479645029
C  C121  1  0.86100000  0.37100000  0.51870000  1.0 0.391854869
C  C122  1  0.12900000  0.36100000  0.01870000  1.0 0.391854869
C  C123  1  0.87100000  0.63900000  0.01870000  1.0 0.391854869
C  C124  1  0.13900000  0.62900000  0.51870000  1.0 0.391854869
N  N1  1  0.45630000  0.61340000  0.07922000  1.0 -0.2465068588
N  N2  1  0.54370000  0.38660000  0.07922000  1.0 -0.2465068588
N  N3  1  0.11340000  0.04370000  0.57922000  1.0 -0.2465068588
N  N4  1  0.88660000  0.95630000  0.57922000  1.0 -0.2465068588
N  N5  1  0.89270000  0.95850000  0.69700000  1.0 -0.2144276744
N  N6  1  0.10730000  0.04150000  0.69700000  1.0 -0.2144276744
N  N7  1  0.45850000  0.60730000  0.19700000  1.0 -0.2144276744
N  N8  1  0.54150000  0.39270000  0.19700000  1.0 -0.2144276744
N  N9  1  0.95630000  0.11340000  0.42078000  1.0 -0.2465068588
N  N10  1  0.38660000  0.45630000  0.92078000  1.0 -0.2465068588
N  N11  1  0.61340000  0.54370000  0.92078000  1.0 -0.2465068588
N  N12  1  0.04370000  0.88660000  0.42078000  1.0 -0.2465068588
N  N13  1  0.39270000  0.45850000  0.80300000  1.0 -0.2144276744
N  N14  1  0.04150000  0.89270000  0.30300000  1.0 -0.2144276744
N  N15  1  0.95850000  0.10730000  0.30300000  1.0 -0.2144276744
N  N16  1  0.60730000  0.54150000  0.80300000  1.0 -0.2144276744
Cl  Cl1  1  0.33274000  0.43162000  0.13537000  1.0 -0.6052621102
Cl  Cl2  1  0.66726000  0.56838000  0.13537000  1.0 -0.6052621102
Cl  Cl3  1  0.93162000  0.16726000  0.63537000  1.0 -0.6052621102
Cl  Cl4  1  0.06838000  0.83274000  0.63537000  1.0 -0.6052621102
Cl  Cl5  1  0.83274000  0.93162000  0.36463000  1.0 -0.6052621102
Cl  Cl6  1  0.56838000  0.33274000  0.86463000  1.0 -0.6052621102
Cl  Cl7  1  0.43162000  0.66726000  0.86463000  1.0 -0.6052621102
Cl  Cl8  1  0.16726000  0.06838000  0.36463000  1.0 -0.6052621102
O  O1  1  0.27780000  0.88610000  0.98050000  1.0 -0.0757533668
O  O2  1  0.72220000  0.11390000  0.98050000  1.0 -0.0757533668
O  O3  1  0.38610000  0.22220000  0.48050000  1.0 -0.0757533668
O  O4  1  0.61390000  0.77780000  0.48050000  1.0 -0.0757533668
O  O5  1  0.43770000  0.89390000  0.95260000  1.0 -0.1788646329
O  O6  1  0.56230000  0.10610000  0.95260000  1.0 -0.1788646329
O  O7  1  0.39390000  0.06230000  0.45260000  1.0 -0.1788646329
O  O8  1  0.60610000  0.93770000  0.45260000  1.0 -0.1788646329
O  O9  1  0.60280000  0.93170000  0.81464000  1.0 -0.2340203283
O  O10  1  0.39720000  0.06830000  0.81464000  1.0 -0.2340203283
O  O11  1  0.43170000  0.89720000  0.31464000  1.0 -0.2340203283
O  O12  1  0.56830000  0.10280000  0.31464000  1.0 -0.2340203283
O  O13  1  0.70710000  0.82520000  0.85341000  1.0 -0.4555896876
O  O14  1  0.29290000  0.17480000  0.85341000  1.0 -0.4555896876
O  O15  1  0.32520000  0.79290000  0.35341000  1.0 -0.4555896876
O  O16  1  0.67480000  0.20710000  0.35341000  1.0 -0.4555896876
O  O17  1  0.30790000  0.92310000  0.00390000  1.0 -0.1479645029
O  O18  1  0.69210000  0.07690000  0.00390000  1.0 -0.1479645029
O  O19  1  0.42310000  0.19210000  0.50390000  1.0 -0.1479645029
O  O20  1  0.57690000  0.80790000  0.50390000  1.0 -0.1479645029
O  O21  1  0.77780000  0.38610000  0.51950000  1.0 -0.0757533668
O  O22  1  0.11390000  0.27780000  0.01950000  1.0 -0.0757533668
O  O23  1  0.88610000  0.72220000  0.01950000  1.0 -0.0757533668
O  O24  1  0.22220000  0.61390000  0.51950000  1.0 -0.0757533668
O  O25  1  0.93770000  0.39390000  0.54740000  1.0 -0.1788646329
O  O26  1  0.10610000  0.43770000  0.04740000  1.0 -0.1788646329
O  O27  1  0.89390000  0.56230000  0.04740000  1.0 -0.1788646329
O  O28  1  0.06230000  0.60610000  0.54740000  1.0 -0.1788646329
O  O29  1  0.10280000  0.43170000  0.68536000  1.0 -0.2340203283
O  O30  1  0.06830000  0.60280000  0.18536000  1.0 -0.2340203283
O  O31  1  0.93170000  0.39720000  0.18536000  1.0 -0.2340203283
O  O32  1  0.89720000  0.56830000  0.68536000  1.0 -0.2340203283
O  O33  1  0.20710000  0.32520000  0.64659000  1.0 -0.4555896876
O  O34  1  0.17480000  0.70710000  0.14659000  1.0 -0.4555896876
O  O35  1  0.82520000  0.29290000  0.14659000  1.0 -0.4555896876
O  O36  1  0.79290000  0.67480000  0.64659000  1.0 -0.4555896876
O  O37  1  0.80790000  0.42310000  0.49610000  1.0 -0.1479645029
O  O38  1  0.07690000  0.30790000  0.99610000  1.0 -0.1479645029
O  O39  1  0.92310000  0.69210000  0.99610000  1.0 -0.1479645029
O  O40  1  0.19210000  0.57690000  0.49610000  1.0 -0.1479645029
