# DDEC6 charges by PACMAN v1.1 (https://github.com/mtap-research/PACMAN-charge/)
data_IKOVEL_ASR_pacman
_symmetry_space_group_name_H-M   'P 1'
_cell_length_a   28.36720000
_cell_length_b   28.36720000
_cell_length_c   28.36720000
_cell_angle_alpha   119.00000000
_cell_angle_beta   119.00000000
_cell_angle_gamma   119.00000000
_symmetry_Int_Tables_number   1
_chemical_formula_structural   KPrH6C14(SO5)2
_chemical_formula_sum   'K6 Pr6 H36 C84 S12 O60'
_cell_volume   5907.71448520
_cell_formula_units_Z   6
loop_
 _symmetry_equiv_pos_site_id
 _symmetry_equiv_pos_as_xyz
  1  'x, y, z'
loop_
 _atom_site_type_symbol
 _atom_site_label
 _atom_site_symmetry_multiplicity
 _atom_site_fract_x
 _atom_site_fract_y
 _atom_site_fract_z
 _atom_site_occupancy
 _atom_site_charge
K  K1  1  0.25436000  0.35119000  0.67145000  1.0 0.9157310535
K  K2  1  0.35119000  0.67145000  0.25436000  1.0 0.9157310535
K  K3  1  0.67145000  0.25436000  0.35119000  1.0 0.9157310535
K  K4  1  0.75436000  0.17145000  0.85119000  1.0 0.9157310535
K  K5  1  0.85119000  0.75436000  0.17145000  1.0 0.9157310535
K  K6  1  0.17145000  0.85119000  0.75436000  1.0 0.9157310535
Pr  Pr1  1  0.94573000  0.96573000  0.44139000  1.0 2.1831967641
Pr  Pr2  1  0.96573000  0.44139000  0.94573000  1.0 2.1831967641
Pr  Pr3  1  0.44139000  0.94573000  0.96573000  1.0 2.1831967641
Pr  Pr4  1  0.44573000  0.94139000  0.46573000  1.0 2.1831967641
Pr  Pr5  1  0.46573000  0.44573000  0.94139000  1.0 2.1831967641
Pr  Pr6  1  0.94139000  0.46573000  0.44573000  1.0 2.1831967641
H  H1  1  0.89470000  0.06570000  0.31910000  1.0 0.1104246499
H  H2  1  0.06570000  0.31910000  0.89470000  1.0 0.1104246499
H  H3  1  0.31910000  0.89470000  0.06570000  1.0 0.1104246499
H  H4  1  0.39470000  0.81910000  0.56570000  1.0 0.1104246499
H  H5  1  0.56570000  0.39470000  0.81910000  1.0 0.1104246499
H  H6  1  0.81910000  0.56570000  0.39470000  1.0 0.1104246499
H  H7  1  0.47410000  0.72360000  0.99640000  1.0 0.118939894
H  H8  1  0.72360000  0.99640000  0.47410000  1.0 0.118939894
H  H9  1  0.99640000  0.47410000  0.72360000  1.0 0.118939894
H  H10  1  0.97410000  0.49640000  0.22360000  1.0 0.118939894
H  H11  1  0.22360000  0.97410000  0.49640000  1.0 0.118939894
H  H12  1  0.49640000  0.22360000  0.97410000  1.0 0.118939894
H  H13  1  0.41870000  0.58660000  0.93320000  1.0 0.1297460179
H  H14  1  0.58660000  0.93320000  0.41870000  1.0 0.1297460179
H  H15  1  0.93320000  0.41870000  0.58660000  1.0 0.1297460179
H  H16  1  0.91870000  0.43320000  0.08660000  1.0 0.1297460179
H  H17  1  0.08660000  0.91870000  0.43320000  1.0 0.1297460179
H  H18  1  0.43320000  0.08660000  0.91870000  1.0 0.1297460179
H  H19  1  0.89220000  0.13580000  0.30700000  1.0 0.1104246499
H  H20  1  0.13580000  0.30700000  0.89220000  1.0 0.1104246499
H  H21  1  0.30700000  0.89220000  0.13580000  1.0 0.1104246499
H  H22  1  0.39220000  0.80700000  0.63580000  1.0 0.1104246499
H  H23  1  0.63580000  0.39220000  0.80700000  1.0 0.1104246499
H  H24  1  0.80700000  0.63580000  0.39220000  1.0 0.1104246499
H  H25  1  0.94780000  0.27480000  0.37730000  1.0 0.118939894
H  H26  1  0.27480000  0.37730000  0.94780000  1.0 0.118939894
H  H27  1  0.37730000  0.94780000  0.27480000  1.0 0.1297460179
H  H28  1  0.44780000  0.87730000  0.77480000  1.0 0.118939894
H  H29  1  0.77480000  0.44780000  0.87730000  1.0 0.118939894
H  H30  1  0.87730000  0.77480000  0.44780000  1.0 0.118939894
H  H31  1  0.57900000  0.90000000  0.13420000  1.0 0.118939894
H  H32  1  0.90000000  0.13420000  0.57900000  1.0 0.118939894
H  H33  1  0.13420000  0.57900000  0.90000000  1.0 0.118939894
H  H34  1  0.07900000  0.63420000  0.40000000  1.0 0.118939894
H  H35  1  0.40000000  0.07900000  0.63420000  1.0 0.118939894
H  H36  1  0.63420000  0.40000000  0.07900000  1.0 0.118939894
C  C1  1  0.62793000  0.74887000  0.09540000  1.0 -0.0493886753
C  C2  1  0.74887000  0.09540000  0.62793000  1.0 -0.0493886753
C  C3  1  0.09540000  0.62793000  0.74887000  1.0 -0.0493886753
C  C4  1  0.12793000  0.59540000  0.24887000  1.0 -0.0493886753
C  C5  1  0.24887000  0.12793000  0.59540000  1.0 -0.0493886753
C  C6  1  0.59540000  0.24887000  0.12793000  1.0 -0.0493886753
C  C7  1  0.76920000  0.89144000  0.20876000  1.0 -0.0895441695
C  C8  1  0.89144000  0.20876000  0.76920000  1.0 -0.0895441695
C  C9  1  0.20876000  0.76920000  0.89144000  1.0 -0.0895441695
C  C10  1  0.26920000  0.70876000  0.39144000  1.0 -0.0895441695
C  C11  1  0.39144000  0.26920000  0.70876000  1.0 -0.0895441695
C  C12  1  0.70876000  0.39144000  0.26920000  1.0 -0.0895441695
C  C13  1  0.80032000  0.97124000  0.24394000  1.0 -0.1291098008
C  C14  1  0.97124000  0.24394000  0.80032000  1.0 -0.1291098008
C  C15  1  0.24394000  0.80032000  0.97124000  1.0 -0.1291098008
C  C16  1  0.30032000  0.74394000  0.47124000  1.0 -0.1291098008
C  C17  1  0.47124000  0.30032000  0.74394000  1.0 -0.1291098008
C  C18  1  0.74394000  0.47124000  0.30032000  1.0 -0.1291098008
C  C19  1  0.69196000  0.91233000  0.16821000  1.0 0.0803156479
C  C20  1  0.91233000  0.16821000  0.69196000  1.0 0.0803156479
C  C21  1  0.16821000  0.69196000  0.91233000  1.0 0.0803156479
C  C22  1  0.19196000  0.66821000  0.41233000  1.0 0.0803156479
C  C23  1  0.41233000  0.19196000  0.66821000  1.0 0.0803156479
C  C24  1  0.66821000  0.41233000  0.19196000  1.0 0.0803156479
C  C25  1  0.54959000  0.76741000  0.05140000  1.0 -0.1291098008
C  C26  1  0.76741000  0.05140000  0.54959000  1.0 -0.1291098008
C  C27  1  0.05140000  0.54959000  0.76741000  1.0 -0.1291098008
C  C28  1  0.04959000  0.55140000  0.26741000  1.0 -0.1291098008
C  C29  1  0.26741000  0.04959000  0.55140000  1.0 -0.1291098008
C  C30  1  0.55140000  0.26741000  0.04959000  1.0 -0.1291098008
C  C31  1  0.51617000  0.68481000  0.01352000  1.0 -0.0989254331
C  C32  1  0.68481000  0.01352000  0.51617000  1.0 -0.0989254331
C  C33  1  0.01352000  0.51617000  0.68481000  1.0 -0.0989254331
C  C34  1  0.01617000  0.51352000  0.18481000  1.0 -0.0989254331
C  C35  1  0.18481000  0.01617000  0.51352000  1.0 -0.0989254331
C  C36  1  0.51352000  0.18481000  0.01617000  1.0 -0.0989254331
C  C37  1  0.58623000  0.65739000  0.05428000  1.0 0.6395013143
C  C38  1  0.65739000  0.05428000  0.58623000  1.0 0.6395013143
C  C39  1  0.05428000  0.58623000  0.65739000  1.0 0.6395013143
C  C40  1  0.08623000  0.55428000  0.15739000  1.0 0.6395013143
C  C41  1  0.15739000  0.08623000  0.55428000  1.0 0.6395013143
C  C42  1  0.55428000  0.15739000  0.08623000  1.0 0.6395013143
C  C43  1  0.72708000  0.00020000  0.21022000  1.0 0.0719331239
C  C44  1  0.00020000  0.21022000  0.72708000  1.0 0.0719331239
C  C45  1  0.21022000  0.72708000  0.00020000  1.0 0.0719331239
C  C46  1  0.22708000  0.71022000  0.50020000  1.0 0.0719331239
C  C47  1  0.50020000  0.22708000  0.71022000  1.0 0.0719331239
C  C48  1  0.71022000  0.50020000  0.22708000  1.0 0.0719331239
C  C49  1  0.83875000  0.11435000  0.28440000  1.0 -0.1291098008
C  C50  1  0.11435000  0.28440000  0.83875000  1.0 -0.1291098008
C  C51  1  0.28440000  0.83875000  0.11435000  1.0 -0.1291098008
C  C52  1  0.33875000  0.78440000  0.61435000  1.0 -0.1291098008
C  C53  1  0.61435000  0.33875000  0.78440000  1.0 -0.1291098008
C  C54  1  0.78440000  0.61435000  0.33875000  1.0 -0.1291098008
C  C55  1  0.87045000  0.19649000  0.32476000  1.0 -0.0895441695
C  C56  1  0.19649000  0.32476000  0.87045000  1.0 -0.0895441695
C  C57  1  0.32476000  0.87045000  0.19649000  1.0 -0.0895441695
C  C58  1  0.37045000  0.82476000  0.69649000  1.0 -0.0895441695
C  C59  1  0.69649000  0.37045000  0.82476000  1.0 -0.0895441695
C  C60  1  0.82476000  0.69649000  0.37045000  1.0 -0.0895441695
C  C61  1  0.79251000  0.16647000  0.29022000  1.0 -0.035898412
C  C62  1  0.16647000  0.29022000  0.79251000  1.0 -0.035898412
C  C63  1  0.29022000  0.79251000  0.16647000  1.0 -0.035898412
C  C64  1  0.29251000  0.79022000  0.66647000  1.0 -0.035898412
C  C65  1  0.66647000  0.29251000  0.79022000  1.0 -0.035898412
C  C66  1  0.79022000  0.66647000  0.29251000  1.0 -0.035898412
C  C67  1  0.67648000  0.04855000  0.21277000  1.0 -0.0895441695
C  C68  1  0.04855000  0.21277000  0.67648000  1.0 -0.0895441695
C  C69  1  0.21277000  0.67648000  0.04855000  1.0 -0.0895441695
C  C70  1  0.17648000  0.71277000  0.54855000  1.0 -0.0895441695
C  C71  1  0.54855000  0.17648000  0.71277000  1.0 -0.0895441695
C  C72  1  0.71277000  0.54855000  0.17648000  1.0 -0.0895441695
C  C73  1  0.65027000  0.97247000  0.17916000  1.0 -0.1353279393
C  C74  1  0.97247000  0.17916000  0.65027000  1.0 -0.1291098008
C  C75  1  0.17916000  0.65027000  0.97247000  1.0 -0.1353279393
C  C76  1  0.15027000  0.67916000  0.47247000  1.0 -0.1353279393
C  C77  1  0.47247000  0.15027000  0.67916000  1.0 -0.1353279393
C  C78  1  0.67916000  0.47247000  0.15027000  1.0 -0.1353279393
C  C79  1  0.83582000  0.26141000  0.33737000  1.0 0.619200002
C  C80  1  0.26141000  0.33737000  0.83582000  1.0 0.619200002
C  C81  1  0.33737000  0.83582000  0.26141000  1.0 0.619200002
C  C82  1  0.33582000  0.83737000  0.76141000  1.0 0.619200002
C  C83  1  0.76141000  0.33582000  0.83737000  1.0 0.619200002
C  C84  1  0.83737000  0.76141000  0.33582000  1.0 0.619200002
S  S1  1  0.90738000  0.96924000  0.30040000  1.0 1.2171465564
S  S2  1  0.96924000  0.30040000  0.90738000  1.0 1.2171465564
S  S3  1  0.30040000  0.90738000  0.96924000  1.0 1.2171465564
S  S4  1  0.40738000  0.80040000  0.46924000  1.0 1.2171465564
S  S5  1  0.46924000  0.40738000  0.80040000  1.0 1.2171465564
S  S6  1  0.80040000  0.46924000  0.40738000  1.0 1.2171465564
S  S7  1  0.56147000  0.99302000  0.15654000  1.0 1.2137486745
S  S8  1  0.99302000  0.15654000  0.56147000  1.0 1.2137486745
S  S9  1  0.15654000  0.56147000  0.99302000  1.0 1.2137486745
S  S10  1  0.06147000  0.65654000  0.49302000  1.0 1.2137486745
S  S11  1  0.49302000  0.06147000  0.65654000  1.0 1.2137486745
S  S12  1  0.65654000  0.49302000  0.06147000  1.0 1.2137486745
O  O1  1  0.68527000  0.72569000  0.16084000  1.0 -0.7225907684
O  O2  1  0.72569000  0.16084000  0.68527000  1.0 -0.7225907684
O  O3  1  0.16084000  0.68527000  0.72569000  1.0 -0.7225907684
O  O4  1  0.18527000  0.66084000  0.22569000  1.0 -0.7225907684
O  O5  1  0.22569000  0.18527000  0.66084000  1.0 -0.7225907684
O  O6  1  0.66084000  0.22569000  0.18527000  1.0 -0.7225907684
O  O7  1  0.44584000  0.50810000  0.90866000  1.0 -0.6519480934
O  O8  1  0.50810000  0.90866000  0.44584000  1.0 -0.6519480934
O  O9  1  0.90866000  0.44584000  0.50810000  1.0 -0.6519480934
O  O10  1  0.94584000  0.40866000  0.00810000  1.0 -0.6519480934
O  O11  1  0.00810000  0.94584000  0.40866000  1.0 -0.6519480934
O  O12  1  0.40866000  0.00810000  0.94584000  1.0 -0.6519480934
O  O13  1  0.99996000  0.04983000  0.42801000  1.0 -0.7564577054
O  O14  1  0.04983000  0.42801000  0.99996000  1.0 -0.7564577054
O  O15  1  0.42801000  0.99996000  0.04983000  1.0 -0.7564577054
O  O16  1  0.49996000  0.92801000  0.54983000  1.0 -0.7564577054
O  O17  1  0.54983000  0.49996000  0.92801000  1.0 -0.7564577054
O  O18  1  0.92801000  0.54983000  0.49996000  1.0 -0.7564577054
O  O19  1  0.01296000  0.08952000  0.37232000  1.0 -0.6519480934
O  O20  1  0.08952000  0.37232000  0.01296000  1.0 -0.6519480934
O  O21  1  0.37232000  0.01296000  0.08952000  1.0 -0.6519480934
O  O22  1  0.51296000  0.87232000  0.58952000  1.0 -0.6519480934
O  O23  1  0.58952000  0.51296000  0.87232000  1.0 -0.6519480934
O  O24  1  0.87232000  0.58952000  0.51296000  1.0 -0.6519480934
O  O25  1  0.81725000  0.83740000  0.18085000  1.0 -0.5881306321
O  O26  1  0.83740000  0.18085000  0.81725000  1.0 -0.5881306321
O  O27  1  0.18085000  0.81725000  0.83740000  1.0 -0.5881306321
O  O28  1  0.31725000  0.68085000  0.33740000  1.0 -0.5881306321
O  O29  1  0.33740000  0.31725000  0.68085000  1.0 -0.5881306321
O  O30  1  0.68085000  0.33740000  0.31725000  1.0 -0.5881306321
O  O31  1  0.97923000  0.40879000  0.47498000  1.0 -0.601240177
O  O32  1  0.40879000  0.47498000  0.97923000  1.0 -0.601240177
O  O33  1  0.47498000  0.97923000  0.40879000  1.0 -0.601240177
O  O34  1  0.47923000  0.97498000  0.90879000  1.0 -0.601240177
O  O35  1  0.90879000  0.47923000  0.97498000  1.0 -0.601240177
O  O36  1  0.97498000  0.90879000  0.47923000  1.0 -0.601240177
O  O37  1  0.72592000  0.19016000  0.23532000  1.0 -0.7857009163
O  O38  1  0.19016000  0.23532000  0.72592000  1.0 -0.7857009163
O  O39  1  0.23532000  0.72592000  0.19016000  1.0 -0.7857009163
O  O40  1  0.22592000  0.73532000  0.69016000  1.0 -0.7857009163
O  O41  1  0.69016000  0.22592000  0.73532000  1.0 -0.7857009163
O  O42  1  0.73532000  0.69016000  0.22592000  1.0 -0.7857009163
O  O43  1  0.67198000  0.14012000  0.29220000  1.0 -0.6283903908
O  O44  1  0.14012000  0.29220000  0.67198000  1.0 -0.6283903908
O  O45  1  0.29220000  0.67198000  0.14012000  1.0 -0.6283903908
O  O46  1  0.17198000  0.79220000  0.64012000  1.0 -0.6283903908
O  O47  1  0.64012000  0.17198000  0.79220000  1.0 -0.6283903908
O  O48  1  0.79220000  0.64012000  0.17198000  1.0 -0.6283903908
O  O49  1  0.44714000  0.89971000  0.01945000  1.0 -0.7225907684
O  O50  1  0.89971000  0.01945000  0.44714000  1.0 -0.7225907684
O  O51  1  0.01945000  0.44714000  0.89971000  1.0 -0.7225907684
O  O52  1  0.94714000  0.51945000  0.39971000  1.0 -0.7225907684
O  O53  1  0.39971000  0.94714000  0.51945000  1.0 -0.7225907684
O  O54  1  0.51945000  0.39971000  0.94714000  1.0 -0.7225907684
O  O55  1  0.48614000  0.89918000  0.11478000  1.0 -0.5665255975
O  O56  1  0.89918000  0.11478000  0.48614000  1.0 -0.5665255975
O  O57  1  0.11478000  0.48614000  0.89918000  1.0 -0.5665255975
O  O58  1  0.98614000  0.61478000  0.39918000  1.0 -0.5665255975
O  O59  1  0.39918000  0.98614000  0.61478000  1.0 -0.5665255975
O  O60  1  0.61478000  0.39918000  0.98614000  1.0 -0.5665255975
