# DDEC6 charges by PACMAN v1.1 (https://github.com/mtap-research/PACMAN-charge/)
data_IKOVAH_ASR_pacman
_symmetry_space_group_name_H-M   'P 1'
_cell_length_a   28.31520000
_cell_length_b   28.31520000
_cell_length_c   28.31520000
_cell_angle_alpha   119.02200000
_cell_angle_beta   119.02200000
_cell_angle_gamma   119.02200000
_symmetry_Int_Tables_number   1
_chemical_formula_structural   KEuH6C14(SO5)2
_chemical_formula_sum   'K6 Eu6 H36 C84 S12 O60'
_cell_volume   5811.29802251
_cell_formula_units_Z   6
loop_
 _symmetry_equiv_pos_site_id
 _symmetry_equiv_pos_as_xyz
  1  'x, y, z'
loop_
 _atom_site_type_symbol
 _atom_site_label
 _atom_site_symmetry_multiplicity
 _atom_site_fract_x
 _atom_site_fract_y
 _atom_site_fract_z
 _atom_site_occupancy
 _atom_site_charge
K  K1  1  0.67897000  0.25864000  0.35713000  1.0 0.9074358118
K  K2  1  0.25864000  0.35713000  0.67897000  1.0 0.9074358118
K  K3  1  0.35713000  0.67897000  0.25864000  1.0 0.9074358118
K  K4  1  0.17897000  0.85713000  0.75864000  1.0 0.9074358118
K  K5  1  0.75864000  0.17897000  0.85713000  1.0 0.9074358118
K  K6  1  0.85713000  0.75864000  0.17897000  1.0 0.9074358118
Eu  Eu1  1  0.44342000  0.94574000  0.96511000  1.0 2.1512584758
Eu  Eu2  1  0.94574000  0.96511000  0.44342000  1.0 2.1512584758
Eu  Eu3  1  0.96511000  0.44342000  0.94574000  1.0 2.1512584758
Eu  Eu4  1  0.94342000  0.46511000  0.44574000  1.0 2.1512584758
Eu  Eu5  1  0.44574000  0.94342000  0.46511000  1.0 2.1512584758
Eu  Eu6  1  0.46511000  0.44574000  0.94342000  1.0 2.1512584758
H  H1  1  0.32080000  0.89510000  0.06550000  1.0 0.1125974203
H  H2  1  0.89510000  0.06550000  0.32080000  1.0 0.1125974203
H  H3  1  0.06550000  0.32080000  0.89510000  1.0 0.1125974203
H  H4  1  0.82080000  0.56550000  0.39510000  1.0 0.1125974203
H  H5  1  0.39510000  0.82080000  0.56550000  1.0 0.1125974203
H  H6  1  0.56550000  0.39510000  0.82080000  1.0 0.1125974203
H  H7  1  0.99650000  0.47450000  0.72230000  1.0 0.1193508955
H  H8  1  0.47450000  0.72230000  0.99650000  1.0 0.1125974203
H  H9  1  0.72230000  0.99650000  0.47450000  1.0 0.1193508955
H  H10  1  0.49650000  0.22230000  0.97450000  1.0 0.1125974203
H  H11  1  0.97450000  0.49650000  0.22230000  1.0 0.1193508955
H  H12  1  0.22230000  0.97450000  0.49650000  1.0 0.1193508955
H  H13  1  0.94210000  0.42230000  0.59010000  1.0 0.1312557505
H  H14  1  0.42230000  0.59010000  0.94210000  1.0 0.1312557505
H  H15  1  0.59010000  0.94210000  0.42230000  1.0 0.1312557505
H  H16  1  0.44210000  0.09010000  0.92230000  1.0 0.1312557505
H  H17  1  0.92230000  0.44210000  0.09010000  1.0 0.1312557505
H  H18  1  0.09010000  0.92230000  0.44210000  1.0 0.1312557505
H  H19  1  0.30010000  0.88720000  0.12890000  1.0 0.1125974203
H  H20  1  0.88720000  0.12890000  0.30010000  1.0 0.1125974203
H  H21  1  0.12890000  0.30010000  0.88720000  1.0 0.1125974203
H  H22  1  0.80010000  0.62890000  0.38720000  1.0 0.1125974203
H  H23  1  0.38720000  0.80010000  0.62890000  1.0 0.1125974203
H  H24  1  0.62890000  0.38720000  0.80010000  1.0 0.1125974203
H  H25  1  0.38160000  0.95320000  0.27690000  1.0 0.1193508955
H  H26  1  0.95320000  0.27690000  0.38160000  1.0 0.1193508955
H  H27  1  0.27690000  0.38160000  0.95320000  1.0 0.1193508955
H  H28  1  0.88160000  0.77690000  0.45320000  1.0 0.1193508955
H  H29  1  0.45320000  0.88160000  0.77690000  1.0 0.1193508955
H  H30  1  0.77690000  0.45320000  0.88160000  1.0 0.1193508955
H  H31  1  0.13420000  0.57900000  0.89950000  1.0 0.1125974203
H  H32  1  0.57900000  0.89950000  0.13420000  1.0 0.1125974203
H  H33  1  0.89950000  0.13420000  0.57900000  1.0 0.1125974203
H  H34  1  0.63420000  0.39950000  0.07900000  1.0 0.1125974203
H  H35  1  0.07900000  0.63420000  0.39950000  1.0 0.1125974203
H  H36  1  0.39950000  0.07900000  0.63420000  1.0 0.1125974203
C  C1  1  0.10043000  0.62991000  0.74976000  1.0 -0.0536517796
C  C2  1  0.62991000  0.74976000  0.10043000  1.0 -0.0536517796
C  C3  1  0.74976000  0.10043000  0.62991000  1.0 -0.0536517796
C  C4  1  0.60043000  0.24976000  0.12991000  1.0 -0.0536517796
C  C5  1  0.12991000  0.60043000  0.24976000  1.0 -0.0536517796
C  C6  1  0.24976000  0.12991000  0.60043000  1.0 -0.0536517796
C  C7  1  0.21063000  0.76943000  0.89064000  1.0 -0.0833751637
C  C8  1  0.76943000  0.89064000  0.21063000  1.0 -0.0833751637
C  C9  1  0.89064000  0.21063000  0.76943000  1.0 -0.0833751637
C  C10  1  0.71063000  0.39064000  0.26943000  1.0 -0.0833751637
C  C11  1  0.26943000  0.71063000  0.39064000  1.0 -0.0833751637
C  C12  1  0.39064000  0.26943000  0.71063000  1.0 -0.0833751637
C  C13  1  0.24523000  0.80007000  0.97030000  1.0 -0.1369757544
C  C14  1  0.80007000  0.97030000  0.24523000  1.0 -0.1369757544
C  C15  1  0.97030000  0.24523000  0.80007000  1.0 -0.1369757544
C  C16  1  0.74523000  0.47030000  0.30007000  1.0 -0.1369757544
C  C17  1  0.30007000  0.74523000  0.47030000  1.0 -0.1369757544
C  C18  1  0.47030000  0.30007000  0.74523000  1.0 -0.1369757544
C  C19  1  0.17039000  0.69328000  0.91163000  1.0 0.079819841
C  C20  1  0.69328000  0.91163000  0.17039000  1.0 0.079819841
C  C21  1  0.91163000  0.17039000  0.69328000  1.0 0.079819841
C  C22  1  0.67039000  0.41163000  0.19328000  1.0 0.079819841
C  C23  1  0.19328000  0.67039000  0.41163000  1.0 0.079819841
C  C24  1  0.41163000  0.19328000  0.67039000  1.0 0.079819841
C  C25  1  0.05446000  0.55177000  0.76797000  1.0 -0.129562829
C  C26  1  0.55177000  0.76797000  0.05446000  1.0 -0.129562829
C  C27  1  0.76797000  0.05446000  0.55177000  1.0 -0.129562829
C  C28  1  0.55446000  0.26797000  0.05177000  1.0 -0.129562829
C  C29  1  0.05177000  0.55446000  0.26797000  1.0 -0.129562829
C  C30  1  0.26797000  0.05177000  0.55446000  1.0 -0.129562829
C  C31  1  0.01953000  0.51878000  0.68649000  1.0 -0.1015498467
C  C32  1  0.51878000  0.68649000  0.01953000  1.0 -0.1015498467
C  C33  1  0.68649000  0.01953000  0.51878000  1.0 -0.1015498467
C  C34  1  0.51953000  0.18649000  0.01878000  1.0 -0.1015498467
C  C35  1  0.01878000  0.51953000  0.18649000  1.0 -0.1015498467
C  C36  1  0.18649000  0.01878000  0.51953000  1.0 -0.1015498467
C  C37  1  0.05558000  0.58429000  0.65453000  1.0 0.6389017872
C  C38  1  0.58429000  0.65453000  0.05558000  1.0 0.6389017872
C  C39  1  0.65453000  0.05558000  0.58429000  1.0 0.6389017872
C  C40  1  0.55558000  0.15453000  0.08429000  1.0 0.6389017872
C  C41  1  0.08429000  0.55558000  0.15453000  1.0 0.6389017872
C  C42  1  0.15453000  0.08429000  0.55558000  1.0 0.6389017872
C  C43  1  0.21248000  0.72882000  0.99990000  1.0 0.079819841
C  C44  1  0.72882000  0.99990000  0.21248000  1.0 0.079819841
C  C45  1  0.99990000  0.21248000  0.72882000  1.0 0.079819841
C  C46  1  0.71248000  0.49990000  0.22882000  1.0 0.079819841
C  C47  1  0.22882000  0.71248000  0.49990000  1.0 0.079819841
C  C48  1  0.49990000  0.22882000  0.71248000  1.0 0.079819841
C  C49  1  0.28243000  0.83784000  0.11163000  1.0 -0.1369757544
C  C50  1  0.83784000  0.11163000  0.28243000  1.0 -0.1369757544
C  C51  1  0.11163000  0.28243000  0.83784000  1.0 -0.1369757544
C  C52  1  0.78243000  0.61163000  0.33784000  1.0 -0.1369757544
C  C53  1  0.33784000  0.78243000  0.61163000  1.0 -0.1369757544
C  C54  1  0.61163000  0.33784000  0.78243000  1.0 -0.1369757544
C  C55  1  0.32500000  0.87226000  0.19544000  1.0 -0.0893330919
C  C56  1  0.87226000  0.19544000  0.32500000  1.0 -0.0893330919
C  C57  1  0.19544000  0.32500000  0.87226000  1.0 -0.0893330919
C  C58  1  0.82500000  0.69544000  0.37226000  1.0 -0.0893330919
C  C59  1  0.37226000  0.82500000  0.69544000  1.0 -0.0893330919
C  C60  1  0.69544000  0.37226000  0.82500000  1.0 -0.0893330919
C  C61  1  0.28592000  0.78949000  0.16189000  1.0 -0.0304563039
C  C62  1  0.78949000  0.16189000  0.28592000  1.0 -0.0304563039
C  C63  1  0.16189000  0.28592000  0.78949000  1.0 -0.0304563039
C  C64  1  0.78592000  0.66189000  0.28949000  1.0 -0.0304563039
C  C65  1  0.28949000  0.78592000  0.66189000  1.0 -0.0304563039
C  C66  1  0.66189000  0.28949000  0.78592000  1.0 -0.0304563039
C  C67  1  0.21148000  0.67772000  0.04930000  1.0 -0.0893330919
C  C68  1  0.67772000  0.04930000  0.21148000  1.0 -0.0893330919
C  C69  1  0.04930000  0.21148000  0.67772000  1.0 -0.0893330919
C  C70  1  0.71148000  0.54930000  0.17772000  1.0 -0.0893330919
C  C71  1  0.17772000  0.71148000  0.54930000  1.0 -0.0893330919
C  C72  1  0.54930000  0.17772000  0.71148000  1.0 -0.0893330919
C  C73  1  0.17909000  0.65096000  0.97165000  1.0 -0.1477988936
C  C74  1  0.65096000  0.97165000  0.17909000  1.0 -0.1477988936
C  C75  1  0.97165000  0.17909000  0.65096000  1.0 -0.1477988936
C  C76  1  0.67909000  0.47165000  0.15096000  1.0 -0.1477988936
C  C77  1  0.15096000  0.67909000  0.47165000  1.0 -0.1477988936
C  C78  1  0.47165000  0.15096000  0.67909000  1.0 -0.1477988936
C  C79  1  0.33144000  0.83184000  0.25672000  1.0 0.6245885165
C  C80  1  0.83184000  0.25672000  0.33144000  1.0 0.6245885165
C  C81  1  0.25672000  0.33144000  0.83184000  1.0 0.6245885165
C  C82  1  0.83144000  0.75672000  0.33184000  1.0 0.6245885165
C  C83  1  0.33184000  0.83144000  0.75672000  1.0 0.6245885165
C  C84  1  0.75672000  0.33184000  0.83144000  1.0 0.6245885165
S  S1  1  0.30804000  0.91210000  0.97240000  1.0 1.2187655947
S  S2  1  0.91210000  0.97240000  0.30804000  1.0 1.2187655947
S  S3  1  0.97240000  0.30804000  0.91210000  1.0 1.2145648869
S  S4  1  0.80804000  0.47240000  0.41210000  1.0 1.2187655947
S  S5  1  0.41210000  0.80804000  0.47240000  1.0 1.2187655947
S  S6  1  0.47240000  0.41210000  0.80804000  1.0 1.2187655947
S  S7  1  0.15021000  0.55771000  0.98848000  1.0 1.2187655947
S  S8  1  0.55771000  0.98848000  0.15021000  1.0 1.2187655947
S  S9  1  0.98848000  0.15021000  0.55771000  1.0 1.2187655947
S  S10  1  0.65021000  0.48848000  0.05771000  1.0 1.2187655947
S  S11  1  0.05771000  0.65021000  0.48848000  1.0 1.2187655947
S  S12  1  0.48848000  0.05771000  0.65021000  1.0 1.2187655947
O  O1  1  0.16552000  0.68688000  0.72640000  1.0 -0.7332921552
O  O2  1  0.68688000  0.72640000  0.16552000  1.0 -0.7332921552
O  O3  1  0.72640000  0.16552000  0.68688000  1.0 -0.7332921552
O  O4  1  0.66552000  0.22640000  0.18688000  1.0 -0.7332921552
O  O5  1  0.18688000  0.66552000  0.22640000  1.0 -0.7332921552
O  O6  1  0.22640000  0.18688000  0.66552000  1.0 -0.7332921552
O  O7  1  0.91238000  0.44566000  0.50736000  1.0 -0.6104575051
O  O8  1  0.44566000  0.50736000  0.91238000  1.0 -0.6151074497
O  O9  1  0.50736000  0.91238000  0.44566000  1.0 -0.6151074497
O  O10  1  0.41238000  0.00736000  0.94566000  1.0 -0.6151074497
O  O11  1  0.94566000  0.41238000  0.00736000  1.0 -0.6104575051
O  O12  1  0.00736000  0.94566000  0.41238000  1.0 -0.6151074497
O  O13  1  0.43453000  0.00306000  0.05141000  1.0 -0.7493469553
O  O14  1  0.00306000  0.05141000  0.43453000  1.0 -0.7554084388
O  O15  1  0.05141000  0.43453000  0.00306000  1.0 -0.7493469553
O  O16  1  0.93453000  0.55141000  0.50306000  1.0 -0.7493469553
O  O17  1  0.50306000  0.93453000  0.55141000  1.0 -0.7493469553
O  O18  1  0.55141000  0.50306000  0.93453000  1.0 -0.7493469553
O  O19  1  0.38182000  0.01880000  0.09348000  1.0 -0.6381038952
O  O20  1  0.01880000  0.09348000  0.38182000  1.0 -0.6381038952
O  O21  1  0.09348000  0.38182000  0.01880000  1.0 -0.6381038952
O  O22  1  0.88182000  0.59348000  0.51880000  1.0 -0.6381038952
O  O23  1  0.51880000  0.88182000  0.59348000  1.0 -0.6381038952
O  O24  1  0.59348000  0.51880000  0.88182000  1.0 -0.6381038952
O  O25  1  0.18732000  0.82148000  0.84000000  1.0 -0.585268463
O  O26  1  0.82148000  0.84000000  0.18732000  1.0 -0.5843316642
O  O27  1  0.84000000  0.18732000  0.82148000  1.0 -0.585268463
O  O28  1  0.68732000  0.34000000  0.32148000  1.0 -0.585268463
O  O29  1  0.32148000  0.68732000  0.34000000  1.0 -0.585268463
O  O30  1  0.34000000  0.32148000  0.68732000  1.0 -0.5843316642
O  O31  1  0.47175000  0.97902000  0.40723000  1.0 -0.6104575051
O  O32  1  0.97902000  0.40723000  0.47175000  1.0 -0.6104575051
O  O33  1  0.40723000  0.47175000  0.97902000  1.0 -0.6104575051
O  O34  1  0.97175000  0.90723000  0.47902000  1.0 -0.6104575051
O  O35  1  0.47902000  0.97175000  0.90723000  1.0 -0.6104575051
O  O36  1  0.90723000  0.47902000  0.97175000  1.0 -0.6104575051
O  O37  1  0.23235000  0.72503000  0.18782000  1.0 -0.7493469553
O  O38  1  0.72503000  0.18782000  0.23235000  1.0 -0.7493469553
O  O39  1  0.18782000  0.23235000  0.72503000  1.0 -0.7493469553
O  O40  1  0.73235000  0.68782000  0.22503000  1.0 -0.7493469553
O  O41  1  0.22503000  0.73235000  0.68782000  1.0 -0.7493469553
O  O42  1  0.68782000  0.22503000  0.73235000  1.0 -0.7493469553
O  O43  1  0.28736000  0.66956000  0.13668000  1.0 -0.6268217492
O  O44  1  0.66956000  0.13668000  0.28736000  1.0 -0.6268217492
O  O45  1  0.13668000  0.28736000  0.66956000  1.0 -0.6268217492
O  O46  1  0.78736000  0.63668000  0.16956000  1.0 -0.6268217492
O  O47  1  0.16956000  0.78736000  0.63668000  1.0 -0.6268217492
O  O48  1  0.63668000  0.16956000  0.78736000  1.0 -0.6268217492
O  O49  1  0.01267000  0.44413000  0.89580000  1.0 -0.7332921552
O  O50  1  0.44413000  0.89580000  0.01267000  1.0 -0.7332921552
O  O51  1  0.89580000  0.01267000  0.44413000  1.0 -0.7332921552
O  O52  1  0.51267000  0.39580000  0.94413000  1.0 -0.7332921552
O  O53  1  0.94413000  0.51267000  0.39580000  1.0 -0.7332921552
O  O54  1  0.39580000  0.94413000  0.51267000  1.0 -0.7332921552
O  O55  1  0.10193000  0.47609000  0.88768000  1.0 -0.585268463
O  O56  1  0.47609000  0.88768000  0.10193000  1.0 -0.5843316642
O  O57  1  0.88768000  0.10193000  0.47609000  1.0 -0.585268463
O  O58  1  0.60193000  0.38768000  0.97609000  1.0 -0.585268463
O  O59  1  0.97609000  0.60193000  0.38768000  1.0 -0.5843316642
O  O60  1  0.38768000  0.97609000  0.60193000  1.0 -0.585268463
