# DDEC6 charges by PACMAN v1.1 (https://github.com/mtap-research/PACMAN-charge/)
data_IKUMEJ_ASR_pacman
_symmetry_space_group_name_H-M   'P 1'
_cell_length_a   17.93830000
_cell_length_b   17.93830000
_cell_length_c   8.45480000
_cell_angle_alpha   90.00000000
_cell_angle_beta   90.00000000
_cell_angle_gamma   120.00000000
_symmetry_Int_Tables_number   1
_chemical_formula_structural   FeH6C8N9
_chemical_formula_sum   'Fe6 H36 C48 N54'
_cell_volume   2356.11528211
_cell_formula_units_Z   6
loop_
 _symmetry_equiv_pos_site_id
 _symmetry_equiv_pos_as_xyz
  1  'x, y, z'
loop_
 _atom_site_type_symbol
 _atom_site_label
 _atom_site_symmetry_multiplicity
 _atom_site_fract_x
 _atom_site_fract_y
 _atom_site_fract_z
 _atom_site_occupancy
 _atom_site_charge
Fe  Fe1  1  0.61529000  0.13307000  0.48596000  1.0 0.5628477045
Fe  Fe2  1  0.51778000  0.38471000  0.81929000  1.0 0.5628477045
Fe  Fe3  1  0.86693000  0.48222000  0.15263000  1.0 0.5628477045
Fe  Fe4  1  0.38471000  0.86693000  0.98596000  1.0 0.5628477045
Fe  Fe5  1  0.48222000  0.61529000  0.31929000  1.0 0.5628477045
Fe  Fe6  1  0.13307000  0.51778000  0.65263000  1.0 0.5628477045
H  H1  1  0.46979000  0.02880000  0.74408000  1.0 0.0902600719
H  H2  1  0.50635000  0.83073000  0.71599000  1.0 0.1197603117
H  H3  1  0.81166000  0.12982000  0.26653000  1.0 0.137727511
H  H4  1  0.88817000  0.30520000  0.16892000  1.0 0.1197603117
H  H5  1  0.70892000  0.34433000  0.35842000  1.0 0.1007678617
H  H6  1  0.62809000  0.88947000  0.50084000  1.0 0.2002620432
H  H7  1  0.55901000  0.53021000  0.07741000  1.0 0.0902600719
H  H8  1  0.32438000  0.49365000  0.04932000  1.0 0.1197603117
H  H9  1  0.31816000  0.18834000  0.59986000  1.0 0.137727511
H  H10  1  0.41703000  0.11183000  0.50225000  1.0 0.1197603117
H  H11  1  0.63541000  0.29108000  0.69175000  1.0 0.1007678617
H  H12  1  0.26138000  0.37191000  0.83417000  1.0 0.2002620432
H  H13  1  0.97120000  0.44099000  0.41075000  1.0 0.0902600719
H  H14  1  0.16927000  0.67562000  0.38266000  1.0 0.1197603117
H  H15  1  0.87018000  0.68184000  0.93320000  1.0 0.137727511
H  H16  1  0.69480000  0.58297000  0.83559000  1.0 0.1197603117
H  H17  1  0.65567000  0.36459000  0.02509000  1.0 0.1007678617
H  H18  1  0.11053000  0.73862000  0.16751000  1.0 0.2002620432
H  H19  1  0.53021000  0.97120000  0.24408000  1.0 0.0902600719
H  H20  1  0.49365000  0.16927000  0.21599000  1.0 0.1197603117
H  H21  1  0.18834000  0.87018000  0.76653000  1.0 0.137727511
H  H22  1  0.11183000  0.69480000  0.66892000  1.0 0.1197603117
H  H23  1  0.29108000  0.65567000  0.85842000  1.0 0.1007678617
H  H24  1  0.37191000  0.11053000  0.00084000  1.0 0.2002620432
H  H25  1  0.44099000  0.46979000  0.57741000  1.0 0.0902600719
H  H26  1  0.67562000  0.50635000  0.54932000  1.0 0.1197603117
H  H27  1  0.68184000  0.81166000  0.09986000  1.0 0.137727511
H  H28  1  0.58297000  0.88817000  0.00225000  1.0 0.1197603117
H  H29  1  0.36459000  0.70892000  0.19175000  1.0 0.1007678617
H  H30  1  0.73862000  0.62809000  0.33417000  1.0 0.2002620432
H  H31  1  0.02880000  0.55901000  0.91075000  1.0 0.0902600719
H  H32  1  0.83073000  0.32438000  0.88266000  1.0 0.1197603117
H  H33  1  0.12982000  0.31816000  0.43320000  1.0 0.137727511
H  H34  1  0.30520000  0.41703000  0.33559000  1.0 0.1197603117
H  H35  1  0.34433000  0.63541000  0.52509000  1.0 0.1007678617
H  H36  1  0.88947000  0.26138000  0.66751000  1.0 0.2002620432
C  C1  1  0.49190000  0.99260000  0.71340000  1.0 0.1622571755
C  C2  1  0.51110000  0.88540000  0.69970000  1.0 -0.0852103871
C  C3  1  0.56620000  0.94670000  0.59540000  1.0 0.0902600719
C  C4  1  0.77050000  0.14210000  0.31170000  1.0 -0.0819425866
C  C5  1  0.77610000  0.22150000  0.29820000  1.0 0.1495982814
C  C6  1  0.83820000  0.29700000  0.22300000  1.0 -0.0819425866
C  C7  1  0.74000000  0.31680000  0.32650000  1.0 0.137727511
C  C8  1  0.63030000  0.94350000  0.50160000  1.0 0.0129954634
C  C9  1  0.50070000  0.50810000  0.04673000  1.0 0.1622571755
C  C10  1  0.37430000  0.48890000  0.03303000  1.0 -0.0852103871
C  C11  1  0.38050000  0.43380000  0.92873000  1.0 0.0902600719
C  C12  1  0.37160000  0.22950000  0.64503000  1.0 -0.0819425866
C  C13  1  0.44540000  0.22390000  0.63153000  1.0 0.1495982814
C  C14  1  0.45880000  0.16180000  0.55633000  1.0 -0.0819425866
C  C15  1  0.57680000  0.26000000  0.65983000  1.0 0.137727511
C  C16  1  0.31320000  0.36970000  0.83493000  1.0 0.0129954634
C  C17  1  0.00740000  0.49930000  0.38007000  1.0 0.1622571755
C  C18  1  0.11460000  0.62570000  0.36637000  1.0 -0.0852103871
C  C19  1  0.05330000  0.61950000  0.26207000  1.0 0.0902600719
C  C20  1  0.85790000  0.62840000  0.97837000  1.0 -0.0852103871
C  C21  1  0.77850000  0.55460000  0.96487000  1.0 0.1495982814
C  C22  1  0.70300000  0.54120000  0.88967000  1.0 -0.0819425866
C  C23  1  0.68320000  0.42320000  0.99317000  1.0 0.137727511
C  C24  1  0.05650000  0.68680000  0.16827000  1.0 0.0129954634
C  C25  1  0.50810000  0.00740000  0.21340000  1.0 0.1622571755
C  C26  1  0.48890000  0.11460000  0.19970000  1.0 -0.0819425866
C  C27  1  0.43380000  0.05330000  0.09540000  1.0 0.0902600719
C  C28  1  0.22950000  0.85790000  0.81170000  1.0 -0.0852103871
C  C29  1  0.22390000  0.77850000  0.79820000  1.0 0.1495982814
C  C30  1  0.16180000  0.70300000  0.72300000  1.0 -0.0819425866
C  C31  1  0.26000000  0.68320000  0.82650000  1.0 0.137727511
C  C32  1  0.36970000  0.05650000  0.00160000  1.0 0.0129954634
C  C33  1  0.49930000  0.49190000  0.54673000  1.0 0.1622571755
C  C34  1  0.62570000  0.51110000  0.53303000  1.0 -0.0819425866
C  C35  1  0.61950000  0.56620000  0.42873000  1.0 0.0902600719
C  C36  1  0.62840000  0.77050000  0.14503000  1.0 -0.0819425866
C  C37  1  0.55460000  0.77610000  0.13153000  1.0 0.1495982814
C  C38  1  0.54120000  0.83820000  0.05633000  1.0 -0.0819425866
C  C39  1  0.42320000  0.74000000  0.15983000  1.0 0.137727511
C  C40  1  0.68680000  0.63030000  0.33493000  1.0 0.0129954634
C  C41  1  0.99260000  0.50070000  0.88007000  1.0 0.1622571755
C  C42  1  0.88540000  0.37430000  0.86637000  1.0 -0.0819425866
C  C43  1  0.94670000  0.38050000  0.76207000  1.0 0.0902600719
C  C44  1  0.14210000  0.37160000  0.47837000  1.0 -0.0852103871
C  C45  1  0.22150000  0.44540000  0.46487000  1.0 0.1495982814
C  C46  1  0.29700000  0.45880000  0.38967000  1.0 -0.0819425866
C  C47  1  0.31680000  0.57680000  0.49317000  1.0 0.137727511
C  C48  1  0.94350000  0.31320000  0.66827000  1.0 0.0129954634
N  N1  1  0.46400000  0.91480000  0.77640000  1.0 -0.2723569514
N  N2  1  0.55220000  0.01530000  0.60610000  1.0 -0.3138638329
N  N3  1  0.64520000  0.87510000  0.48950000  1.0 -0.2973495316
N  N4  1  0.71600000  0.90030000  0.40080000  1.0 -0.0464361103
N  N5  1  0.74690000  0.97950000  0.34890000  1.0 -0.155370925
N  N6  1  0.69290000  0.00460000  0.41470000  1.0 0.191711968
N  N7  1  0.69850000  0.08080000  0.39810000  1.0 -0.155370925
N  N8  1  0.71540000  0.23480000  0.36100000  1.0 -0.3138638329
N  N9  1  0.81270000  0.35600000  0.24290000  1.0 -0.2723569514
N  N10  1  0.45080000  0.53600000  0.10973000  1.0 -0.2723569514
N  N11  1  0.46310000  0.44780000  0.93943000  1.0 -0.3138638329
N  N12  1  0.22990000  0.35480000  0.82283000  1.0 -0.2973495316
N  N13  1  0.18430000  0.28400000  0.73413000  1.0 -0.0464361103
N  N14  1  0.23260000  0.25310000  0.68223000  1.0 -0.155370925
N  N15  1  0.31170000  0.30710000  0.74803000  1.0 0.191711968
N  N16  1  0.38230000  0.30150000  0.73143000  1.0 -0.155370925
N  N17  1  0.51940000  0.28460000  0.69433000  1.0 -0.3138638329
N  N18  1  0.54330000  0.18730000  0.57623000  1.0 -0.2723569514
N  N19  1  0.08520000  0.54920000  0.44307000  1.0 -0.2723569514
N  N20  1  0.98470000  0.53690000  0.27277000  1.0 -0.3138638329
N  N21  1  0.12490000  0.77010000  0.15617000  1.0 -0.2973495316
N  N22  1  0.09970000  0.81570000  0.06747000  1.0 -0.0464361103
N  N23  1  0.02050000  0.76740000  0.01557000  1.0 -0.1546009224
N  N24  1  0.99540000  0.68830000  0.08137000  1.0 0.191711968
N  N25  1  0.91920000  0.61770000  0.06477000  1.0 -0.155370925
N  N26  1  0.76520000  0.48060000  0.02767000  1.0 -0.3138638329
N  N27  1  0.64400000  0.45670000  0.90957000  1.0 -0.2723569514
N  N28  1  0.53600000  0.08520000  0.27640000  1.0 -0.2723569514
N  N29  1  0.44780000  0.98470000  0.10610000  1.0 -0.3138638329
N  N30  1  0.35480000  0.12490000  0.98950000  1.0 -0.2973495316
N  N31  1  0.28400000  0.09970000  0.90080000  1.0 -0.0464361103
N  N32  1  0.25310000  0.02050000  0.84890000  1.0 -0.155370925
N  N33  1  0.30710000  0.99540000  0.91470000  1.0 0.191711968
N  N34  1  0.30150000  0.91920000  0.89810000  1.0 -0.155370925
N  N35  1  0.28460000  0.76520000  0.86100000  1.0 -0.3138638329
N  N36  1  0.18730000  0.64400000  0.74290000  1.0 -0.2723569514
N  N37  1  0.54920000  0.46400000  0.60973000  1.0 -0.2723569514
N  N38  1  0.53690000  0.55220000  0.43943000  1.0 -0.3138638329
N  N39  1  0.77010000  0.64520000  0.32283000  1.0 -0.2973495316
N  N40  1  0.81570000  0.71600000  0.23413000  1.0 -0.0464361103
N  N41  1  0.76740000  0.74690000  0.18223000  1.0 -0.155370925
N  N42  1  0.68830000  0.69290000  0.24803000  1.0 0.191711968
N  N43  1  0.61770000  0.69850000  0.23143000  1.0 -0.155370925
N  N44  1  0.48060000  0.71540000  0.19433000  1.0 -0.3138638329
N  N45  1  0.45670000  0.81270000  0.07623000  1.0 -0.2723569514
N  N46  1  0.91480000  0.45080000  0.94307000  1.0 -0.2723569514
N  N47  1  0.01530000  0.46310000  0.77277000  1.0 -0.3138638329
N  N48  1  0.87510000  0.22990000  0.65617000  1.0 -0.2973495316
N  N49  1  0.90030000  0.18430000  0.56747000  1.0 -0.0464361103
N  N50  1  0.97950000  0.23260000  0.51557000  1.0 -0.155370925
N  N51  1  0.00460000  0.31170000  0.58137000  1.0 0.191711968
N  N52  1  0.08080000  0.38230000  0.56477000  1.0 -0.155370925
N  N53  1  0.23480000  0.51940000  0.52767000  1.0 -0.3138638329
N  N54  1  0.35600000  0.54330000  0.40957000  1.0 -0.2723569514
