# DDEC6 charges by PACMAN v1.1 (https://github.com/mtap-research/PACMAN-charge/)
data_ILENOC_ion_pacman
_symmetry_space_group_name_H-M   'P 1'
_cell_length_a   10.92130000
_cell_length_b   10.92130000
_cell_length_c   14.92700000
_cell_angle_alpha   64.17730000
_cell_angle_beta   115.82300000
_cell_angle_gamma   127.25000000
_symmetry_Int_Tables_number   1
_chemical_formula_structural   In7P8H40C8N6(O17F4)2
_chemical_formula_sum   'In7 P8 H40 C8 N6 O34 F8'
_cell_volume   1238.42812466
_cell_formula_units_Z   1
loop_
 _symmetry_equiv_pos_site_id
 _symmetry_equiv_pos_as_xyz
  1  'x, y, z'
loop_
 _atom_site_type_symbol
 _atom_site_label
 _atom_site_symmetry_multiplicity
 _atom_site_fract_x
 _atom_site_fract_y
 _atom_site_fract_z
 _atom_site_occupancy
 _atom_site_charge
In  In1  1  0.71794000  0.28206000  0.98608000  1.0 1.6782263531
In  In2  1  0.28206000  0.71794000  0.01392000  1.0 1.6782263531
In  In3  1  0.98776000  0.01224000  0.23927000  1.0 1.7089028372
In  In4  1  0.01224000  0.98776000  0.76073000  1.0 1.7089028372
In  In5  1  0.00000000  0.00000000  0.00000000  1.0 1.7037341012
In  In6  1  0.00000000  0.00000000  0.50000000  1.0 1.6335946931
In  In7  1  0.50000000  0.50000000  0.50000000  1.0 1.608357252
P  P1  1  0.31739000  0.16243000  0.42570000  1.0 1.5094606294
P  P2  1  0.83757000  0.68261000  0.42570000  1.0 1.5094606294
P  P3  1  0.68261000  0.83757000  0.57430000  1.0 1.5094606294
P  P4  1  0.16243000  0.31739000  0.57430000  1.0 1.5094606294
P  P5  1  0.67307000  0.92615000  0.03632000  1.0 1.5835961713
P  P6  1  0.07385000  0.32693000  0.03632000  1.0 1.5835961713
P  P7  1  0.32693000  0.07385000  0.96368000  1.0 1.5835961713
P  P8  1  0.92615000  0.67307000  0.96368000  1.0 1.5835961713
H  H1  1  0.44100000  0.06180000  0.46900000  1.0 0.3888690485
H  H2  1  0.93820000  0.55900000  0.46900000  1.0 0.3888690485
H  H3  1  0.55900000  0.93820000  0.53100000  1.0 0.3888690485
H  H4  1  0.06180000  0.44100000  0.53100000  1.0 0.3888690485
H  H5  1  0.59600000  0.32020000  0.57270000  1.0 0.2757756723
H  H6  1  0.67980000  0.40400000  0.57270000  1.0 0.2757756723
H  H7  1  0.40400000  0.67980000  0.42730000  1.0 0.2757756723
H  H8  1  0.32020000  0.59600000  0.42730000  1.0 0.2757756723
H  H9  1  0.33100000  0.98320000  0.76530000  1.0 0.2928191139
H  H10  1  0.01680000  0.66900000  0.76530000  1.0 0.2928191139
H  H11  1  0.38840000  0.10080000  0.67500000  1.0 0.298075116
H  H12  1  0.89920000  0.61160000  0.67500000  1.0 0.298075116
H  H13  1  0.47940000  0.13240000  0.77600000  1.0 0.2928191139
H  H14  1  0.86760000  0.52060000  0.77600000  1.0 0.2928191139
H  H15  1  0.53080000  0.93720000  0.82320000  1.0 0.1401599361
H  H16  1  0.06280000  0.46920000  0.82320000  1.0 0.1401599361
H  H17  1  0.43290000  0.90330000  0.71450000  1.0 0.1313547058
H  H18  1  0.09670000  0.56710000  0.71450000  1.0 0.1313547058
H  H19  1  0.62240000  0.14880000  0.64260000  1.0 0.116561742
H  H20  1  0.85120000  0.37760000  0.64260000  1.0 0.116561742
H  H21  1  0.68860000  0.03640000  0.71610000  1.0 0.1532574161
H  H22  1  0.96360000  0.31140000  0.71610000  1.0 0.1532574161
H  H23  1  0.73780000  0.26220000  0.78380000  1.0 0.2928191139
H  H24  1  0.82280000  0.17720000  0.83280000  1.0 0.298075116
H  H25  1  0.66900000  0.01680000  0.23470000  1.0 0.2928191139
H  H26  1  0.98320000  0.33100000  0.23470000  1.0 0.2928191139
H  H27  1  0.61160000  0.89920000  0.32500000  1.0 0.298075116
H  H28  1  0.10080000  0.38840000  0.32500000  1.0 0.298075116
H  H29  1  0.52060000  0.86760000  0.22400000  1.0 0.2928191139
H  H30  1  0.13240000  0.47940000  0.22400000  1.0 0.2928191139
H  H31  1  0.46920000  0.06280000  0.17680000  1.0 0.1401599361
H  H32  1  0.93720000  0.53080000  0.17680000  1.0 0.1401599361
H  H33  1  0.56710000  0.09670000  0.28550000  1.0 0.1313547058
H  H34  1  0.90330000  0.43290000  0.28550000  1.0 0.1313547058
H  H35  1  0.37760000  0.85120000  0.35740000  1.0 0.116561742
H  H36  1  0.14880000  0.62240000  0.35740000  1.0 0.116561742
H  H37  1  0.31140000  0.96360000  0.28390000  1.0 0.1532574161
H  H38  1  0.03640000  0.68860000  0.28390000  1.0 0.1532574161
H  H39  1  0.26220000  0.73780000  0.21620000  1.0 0.2928191139
H  H40  1  0.17720000  0.82280000  0.16720000  1.0 0.298075116
C  C1  1  0.50350000  0.98650000  0.75130000  1.0 -0.0431453795
C  C2  1  0.01350000  0.49650000  0.75130000  1.0 -0.0431453795
C  C3  1  0.64900000  0.09700000  0.71380000  1.0 -0.1335061402
C  C4  1  0.90300000  0.35100000  0.71380000  1.0 -0.1335061402
C  C5  1  0.49650000  0.01350000  0.24870000  1.0 -0.0431453795
C  C6  1  0.98650000  0.50350000  0.24870000  1.0 -0.0431453795
C  C7  1  0.35100000  0.90300000  0.28620000  1.0 -0.1335061402
C  C8  1  0.09700000  0.64900000  0.28620000  1.0 -0.1335061402
N  N1  1  0.41700000  0.05780000  0.74090000  1.0 -0.3780444773
N  N2  1  0.94220000  0.58300000  0.74090000  1.0 -0.3780444773
N  N3  1  0.77870000  0.22130000  0.77190000  1.0 -0.1695130007
N  N4  1  0.58300000  0.94220000  0.25910000  1.0 -0.3780444773
N  N5  1  0.05780000  0.41700000  0.25910000  1.0 -0.3780444773
N  N6  1  0.22130000  0.77870000  0.22810000  1.0 -0.1695130007
O  O1  1  0.64240000  0.06180000  0.97220000  1.0 -0.8389923559
O  O2  1  0.93820000  0.35760000  0.97220000  1.0 -0.8389923559
O  O3  1  0.35760000  0.93820000  0.02780000  1.0 -0.8389923559
O  O4  1  0.06180000  0.64240000  0.02780000  1.0 -0.8389923559
O  O5  1  0.51270000  0.76930000  0.03370000  1.0 -0.7645689385
O  O6  1  0.23070000  0.48730000  0.03370000  1.0 -0.7645689385
O  O7  1  0.48730000  0.23070000  0.96630000  1.0 -0.7645689385
O  O8  1  0.76930000  0.51270000  0.96630000  1.0 -0.7645689385
O  O9  1  0.75680000  0.93600000  0.14730000  1.0 -0.8282010939
O  O10  1  0.06400000  0.24320000  0.14730000  1.0 -0.8282010939
O  O11  1  0.24320000  0.06400000  0.85270000  1.0 -0.8282010939
O  O12  1  0.93600000  0.75680000  0.85270000  1.0 -0.8282010939
O  O13  1  0.22390000  0.09790000  0.33170000  1.0 -0.8243930922
O  O14  1  0.90210000  0.77610000  0.33170000  1.0 -0.8243930922
O  O15  1  0.77610000  0.90210000  0.66830000  1.0 -0.8243930922
O  O16  1  0.09790000  0.22390000  0.66830000  1.0 -0.8243930922
O  O17  1  0.76610000  0.92330000  0.98570000  1.0 -0.8282010939
O  O18  1  0.07670000  0.23390000  0.98570000  1.0 -0.8282010939
O  O19  1  0.23390000  0.07670000  0.01430000  1.0 -0.8282010939
O  O20  1  0.92330000  0.76610000  0.01430000  1.0 -0.8282010939
O  O21  1  0.23190000  0.06750000  0.51060000  1.0 -0.8282010939
O  O22  1  0.93250000  0.76810000  0.51060000  1.0 -0.8282010939
O  O23  1  0.76810000  0.93250000  0.48940000  1.0 -0.8282010939
O  O24  1  0.06750000  0.23190000  0.48940000  1.0 -0.8282010939
O  O25  1  0.38490000  0.61510000  0.40190000  1.0 -0.6233294593
O  O26  1  0.61510000  0.38490000  0.59810000  1.0 -0.6233294593
O  O27  1  0.37080000  0.33520000  0.40220000  1.0 -0.776698737
O  O28  1  0.66480000  0.62920000  0.40220000  1.0 -0.776698737
O  O29  1  0.62920000  0.66480000  0.59780000  1.0 -0.776698737
O  O30  1  0.33520000  0.37080000  0.59780000  1.0 -0.776698737
O  O31  1  0.46600000  0.15000000  0.46790000  1.0 -0.6514006244
O  O32  1  0.85000000  0.53400000  0.46790000  1.0 -0.6514006244
O  O33  1  0.53400000  0.85000000  0.53210000  1.0 -0.6514006244
O  O34  1  0.15000000  0.46600000  0.53210000  1.0 -0.6514006244
F  F1  1  0.76570000  0.23430000  0.14330000  1.0 -0.5690669106
F  F2  1  0.23430000  0.76570000  0.85670000  1.0 -0.5690669106
F  F3  1  0.66330000  0.33670000  0.82050000  1.0 -0.5473407195
F  F4  1  0.33670000  0.66330000  0.17950000  1.0 -0.5473407195
F  F5  1  0.05320000  0.94680000  0.16190000  1.0 -0.5690669106
F  F6  1  0.94680000  0.05320000  0.83810000  1.0 -0.5690669106
F  F7  1  0.93810000  0.06190000  0.33790000  1.0 -0.5473407195
F  F8  1  0.06190000  0.93810000  0.66210000  1.0 -0.5473407195
