# DDEC6 charges by PACMAN v1.1 (https://github.com/mtap-research/PACMAN-charge/)
data_ILEPEW_ASR_pacman
_symmetry_space_group_name_H-M   'P 1'
_cell_length_a   18.17520000
_cell_length_b   18.17520000
_cell_length_c   17.98600000
_cell_angle_alpha   86.75890000
_cell_angle_beta   93.24110000
_cell_angle_gamma   34.25290000
_symmetry_Int_Tables_number   1
_chemical_formula_structural   Ba6LaH63C109O35
_chemical_formula_sum   'Ba6 La1 H63 C109 O35'
_cell_volume   3281.91838459
_cell_formula_units_Z   1
loop_
 _symmetry_equiv_pos_site_id
 _symmetry_equiv_pos_as_xyz
  1  'x, y, z'
loop_
 _atom_site_type_symbol
 _atom_site_label
 _atom_site_symmetry_multiplicity
 _atom_site_fract_x
 _atom_site_fract_y
 _atom_site_fract_z
 _atom_site_occupancy
 _atom_site_charge
Ba  Ba1  1  0.73681000  0.80459000  0.84867000  1.0 1.4312061905
Ba  Ba2  1  0.80459000  0.73681000  0.15133000  1.0 1.4312061905
Ba  Ba3  1  0.01486000  0.42742000  0.00794000  1.0 1.4738060672
Ba  Ba4  1  0.42742000  0.01486000  0.99206000  1.0 1.4738060672
Ba  Ba5  1  0.49988000  0.96536000  0.62889000  1.0 1.3714773296
Ba  Ba6  1  0.96536000  0.49988000  0.37111000  1.0 1.3714773296
La  La1  1  0.68244000  0.68244000  0.50000000  1.0 1.4738060672
H  H1  1  0.88790000  0.74010000  0.00260000  1.0 0.3960804878
H  H2  1  0.74010000  0.88790000  0.99740000  1.0 0.3960804878
H  H3  1  0.84860000  0.93040000  0.60560000  1.0 0.1004923316
H  H4  1  0.93040000  0.84860000  0.39440000  1.0 0.1004923316
H  H5  1  0.78200000  0.86320000  0.60480000  1.0 0.1004923316
H  H6  1  0.86320000  0.78200000  0.39520000  1.0 0.1004923316
H  H7  1  0.38590000  0.03110000  0.78590000  1.0 0.4181421636
H  H8  1  0.03110000  0.38590000  0.21410000  1.0 0.4181421636
H  H9  1  0.72380000  0.51860000  0.68750000  1.0 0.1174402684
H  H10  1  0.51860000  0.72380000  0.31250000  1.0 0.1174402684
H  H11  1  0.07110000  0.16450000  0.81790000  1.0 0.1174402684
H  H12  1  0.16450000  0.07110000  0.18210000  1.0 0.1174402684
H  H13  1  0.96220000  0.46940000  0.80580000  1.0 0.1302966385
H  H14  1  0.46940000  0.96220000  0.19420000  1.0 0.1302966385
H  H15  1  0.72820000  0.40680000  0.63850000  1.0 0.1302966385
H  H16  1  0.40680000  0.72820000  0.36150000  1.0 0.1302966385
H  H17  1  0.66000000  0.34160000  0.62420000  1.0 0.1111211405
H  H18  1  0.34160000  0.66000000  0.37580000  1.0 0.1111211405
H  H19  1  0.89640000  0.08480000  0.82330000  1.0 0.1174402684
H  H20  1  0.08480000  0.89640000  0.17670000  1.0 0.1174402684
H  H21  1  0.96160000  0.15240000  0.83860000  1.0 0.1174402684
H  H22  1  0.15240000  0.96160000  0.16140000  1.0 0.1174402684
H  H23  1  0.54940000  0.33660000  0.64250000  1.0 0.1111211405
H  H24  1  0.33660000  0.54940000  0.35750000  1.0 0.1111211405
H  H25  1  0.47410000  0.27910000  0.62820000  1.0 0.1174402684
H  H26  1  0.27910000  0.47410000  0.37180000  1.0 0.1174402684
H  H27  1  0.80460000  0.92940000  0.76860000  1.0 0.1302966385
H  H28  1  0.92940000  0.80460000  0.23140000  1.0 0.1302966385
H  H29  1  0.87950000  0.98770000  0.78280000  1.0 0.1174402684
H  H30  1  0.98770000  0.87950000  0.21720000  1.0 0.1174402684
H  H31  1  0.79470000  0.47270000  0.89900000  1.0 0.1111211405
H  H32  1  0.47270000  0.79470000  0.10100000  1.0 0.1111211405
H  H33  1  0.71780000  0.41720000  0.88640000  1.0 0.1111211405
H  H34  1  0.41720000  0.71780000  0.11360000  1.0 0.1111211405
H  H35  1  0.34110000  0.80050000  0.87710000  1.0 0.1111211405
H  H36  1  0.80050000  0.34110000  0.12290000  1.0 0.1111211405
H  H37  1  0.41640000  0.85800000  0.88780000  1.0 0.1302966385
H  H38  1  0.85800000  0.41640000  0.11220000  1.0 0.1302966385
H  H39  1  0.60680000  0.41780000  0.81670000  1.0 0.1111211405
H  H40  1  0.41780000  0.60680000  0.18330000  1.0 0.1111211405
H  H41  1  0.54660000  0.34460000  0.82000000  1.0 0.1111211405
H  H42  1  0.34460000  0.54660000  0.18000000  1.0 0.1111211405
H  H43  1  0.27230000  0.61770000  0.94600000  1.0 0.1174402684
H  H44  1  0.61770000  0.27230000  0.05400000  1.0 0.1174402684
H  H45  1  0.33300000  0.69060000  0.94290000  1.0 0.1111211405
H  H46  1  0.69060000  0.33300000  0.05710000  1.0 0.1111211405
H  H47  1  0.54760000  0.23040000  0.89040000  1.0 0.1174402684
H  H48  1  0.23040000  0.54760000  0.10960000  1.0 0.1174402684
H  H49  1  0.16490000  0.60970000  0.87700000  1.0 0.1174402684
H  H50  1  0.60970000  0.16490000  0.12300000  1.0 0.1174402684
H  H51  1  0.26370000  0.31170000  0.89960000  1.0 0.1302966385
H  H52  1  0.31170000  0.26370000  0.10040000  1.0 0.1302966385
H  H53  1  0.17100000  0.17100000  0.50000000  1.0 0.1174402684
H  H54  1  0.25500000  0.88620000  0.48780000  1.0 0.1174402684
H  H55  1  0.88620000  0.25500000  0.51220000  1.0 0.1174402684
H  H56  1  0.89670000  0.12970000  0.57630000  1.0 0.1111211405
H  H57  1  0.12970000  0.89670000  0.42370000  1.0 0.1111211405
H  H58  1  0.83100000  0.06220000  0.57590000  1.0 0.1004923316
H  H59  1  0.06220000  0.83100000  0.42410000  1.0 0.1004923316
H  H60  1  0.73540000  0.04360000  0.54880000  1.0 0.1004923316
H  H61  1  0.04360000  0.73540000  0.45120000  1.0 0.1004923316
H  H62  1  0.66880000  0.97640000  0.54870000  1.0 0.0890451311
H  H63  1  0.97640000  0.66880000  0.45130000  1.0 0.0890451311
C  C1  1  0.85180000  0.90020000  0.56250000  1.0 -0.0621766267
C  C2  1  0.90020000  0.85180000  0.43750000  1.0 -0.0621766267
C  C3  1  0.81220000  0.86020000  0.56190000  1.0 -0.0413215361
C  C4  1  0.86020000  0.81220000  0.43810000  1.0 -0.0413215361
C  C5  1  0.81609000  0.81609000  0.50000000  1.0 -0.0766162039
C  C6  1  0.77240000  0.77240000  0.50000000  1.0 0.4066747366
C  C7  1  0.73249000  0.65449000  0.70510000  1.0 0.5983639596
C  C8  1  0.65449000  0.73249000  0.29490000  1.0 0.5983639596
C  C9  1  0.83073000  0.51393000  0.73890000  1.0 -0.019228142
C  C10  1  0.51393000  0.83073000  0.26110000  1.0 -0.019228142
C  C11  1  0.80320000  0.46340000  0.72170000  1.0 -0.1508583023
C  C12  1  0.46340000  0.80320000  0.27830000  1.0 -0.1508583023
C  C13  1  0.88725000  0.33625000  0.75280000  1.0 0.0685406532
C  C14  1  0.33625000  0.88725000  0.24720000  1.0 0.0685406532
C  C15  1  0.00785000  0.25465000  0.79880000  1.0 -0.1568053053
C  C16  1  0.25465000  0.00785000  0.20120000  1.0 -0.1568053053
C  C17  1  0.03627000  0.30347000  0.81670000  1.0 -0.019228142
C  C18  1  0.30347000  0.03627000  0.18330000  1.0 -0.019228142
C  C19  1  0.94585000  0.43425000  0.78980000  1.0 -0.1188233407
C  C20  1  0.43425000  0.94585000  0.21020000  1.0 -0.1188233407
C  C21  1  0.16651000  0.21151000  0.86790000  1.0 0.5804164448
C  C22  1  0.21151000  0.16651000  0.13210000  1.0 0.5804164448
C  C23  1  0.85055000  0.28915000  0.74050000  1.0 0.0685406532
C  C24  1  0.28915000  0.85055000  0.25950000  1.0 0.0685406532
C  C25  1  0.76207000  0.34207000  0.67690000  1.0 -0.1348056556
C  C26  1  0.34207000  0.76207000  0.32310000  1.0 -0.1348056556
C  C27  1  0.72161000  0.30241000  0.66810000  1.0 -0.1508583023
C  C28  1  0.30241000  0.72161000  0.33190000  1.0 -0.1508583023
C  C29  1  0.77000000  0.20700000  0.72240000  1.0 0.0608507398
C  C30  1  0.20700000  0.77000000  0.27760000  1.0 0.0608507398
C  C31  1  0.86074000  0.15134000  0.78570000  1.0 -0.1508583023
C  C32  1  0.15134000  0.86074000  0.21430000  1.0 -0.1508583023
C  C33  1  0.89995000  0.19175000  0.79470000  1.0 -0.1508583023
C  C34  1  0.19175000  0.89995000  0.20530000  1.0 -0.1508583023
C  C35  1  0.72342000  0.16862000  0.71380000  1.0 0.0608507398
C  C36  1  0.16862000  0.72342000  0.28620000  1.0 0.0608507398
C  C37  1  0.60282000  0.25282000  0.66830000  1.0 -0.165523334
C  C38  1  0.25282000  0.60282000  0.33170000  1.0 -0.165523334
C  C39  1  0.55760000  0.21880000  0.65930000  1.0 -0.0973008001
C  C40  1  0.21880000  0.55760000  0.34070000  1.0 -0.0973008001
C  C41  1  0.63458000  0.09678000  0.69550000  1.0 -0.0413215361
C  C42  1  0.09678000  0.63458000  0.30450000  1.0 -0.0413215361
C  C43  1  0.75280000  0.01220000  0.74210000  1.0 -0.0929774554
C  C44  1  0.01220000  0.75280000  0.25790000  1.0 -0.0929774554
C  C45  1  0.79680000  0.04780000  0.75070000  1.0 -0.1508583023
C  C46  1  0.04780000  0.79680000  0.24930000  1.0 -0.1508583023
C  C47  1  0.58714000  0.05894000  0.68140000  1.0 0.5722539065
C  C48  1  0.05894000  0.58714000  0.31860000  1.0 0.5722539065
C  C49  1  0.66178000  0.70878000  0.90600000  1.0 0.5983639596
C  C50  1  0.70878000  0.66178000  0.09400000  1.0 0.5983639596
C  C51  1  0.61204000  0.67204000  0.89560000  1.0 -0.019228142
C  C52  1  0.67204000  0.61204000  0.10440000  1.0 -0.019228142
C  C53  1  0.70247000  0.53927000  0.89490000  1.0 -0.0973008001
C  C54  1  0.53927000  0.70247000  0.10510000  1.0 -0.0973008001
C  C55  1  0.65655000  0.50675000  0.88810000  1.0 -0.1398711721
C  C56  1  0.50675000  0.65655000  0.11190000  1.0 -0.1398711721
C  C57  1  0.52284000  0.60124000  0.88370000  1.0 0.0754831372
C  C58  1  0.60124000  0.52284000  0.11630000  1.0 0.0754831372
C  C59  1  0.43355000  0.73355000  0.88240000  1.0 -0.1398711721
C  C60  1  0.73355000  0.43355000  0.11760000  1.0 -0.1398711721
C  C61  1  0.47818000  0.76778000  0.88850000  1.0 -0.0929774554
C  C62  1  0.76778000  0.47818000  0.11150000  1.0 -0.0929774554
C  C63  1  0.47784000  0.56124000  0.88090000  1.0 0.0608507398
C  C64  1  0.56124000  0.47784000  0.11910000  1.0 0.0608507398
C  C65  1  0.53889000  0.45869000  0.84360000  1.0 -0.1398711721
C  C66  1  0.45869000  0.53889000  0.15640000  1.0 -0.1398711721
C  C67  1  0.50254000  0.41534000  0.84510000  1.0 -0.1398711721
C  C68  1  0.41534000  0.50254000  0.15490000  1.0 -0.1398711721
C  C69  1  0.40321000  0.47361000  0.88270000  1.0 0.0754831372
C  C70  1  0.47361000  0.40321000  0.11730000  1.0 0.0754831372
C  C71  1  0.34064000  0.57664000  0.91960000  1.0 -0.1398711721
C  C72  1  0.57664000  0.34064000  0.08040000  1.0 -0.1398711721
C  C73  1  0.37755000  0.61955000  0.91800000  1.0 -0.1398711721
C  C74  1  0.61955000  0.37755000  0.08200000  1.0 -0.1398711721
C  C75  1  0.52640000  0.10460000  0.89940000  1.0 0.5722539065
C  C76  1  0.10460000  0.52640000  0.10060000  1.0 0.5722539065
C  C77  1  0.42100000  0.24960000  0.89500000  1.0 -0.0120812539
C  C78  1  0.24960000  0.42100000  0.10500000  1.0 -0.0120812539
C  C79  1  0.45740000  0.29300000  0.89060000  1.0 -0.1508583023
C  C80  1  0.29300000  0.45740000  0.10940000  1.0 -0.1508583023
C  C81  1  0.36283000  0.42803000  0.88660000  1.0 0.0685406532
C  C82  1  0.42803000  0.36283000  0.11340000  1.0 0.0685406532
C  C83  1  0.23084000  0.51744000  0.88350000  1.0 -0.1508583023
C  C84  1  0.51744000  0.23084000  0.11650000  1.0 -0.1508583023
C  C85  1  0.19194000  0.47694000  0.88960000  1.0 -0.0120812539
C  C86  1  0.47694000  0.19194000  0.11040000  1.0 -0.0120812539
C  C87  1  0.04664000  0.58024000  0.88480000  1.0 0.5804164448
C  C88  1  0.58024000  0.04664000  0.11520000  1.0 0.5804164448
C  C89  1  0.28869000  0.34129000  0.89540000  1.0 -0.1188233407
C  C90  1  0.34129000  0.28869000  0.10460000  1.0 -0.1188233407
C  C91  1  0.14364000  0.14364000  0.50000000  1.0 -0.1188233407
C  C92  1  0.23446000  0.01226000  0.49500000  1.0 -0.025314543
C  C93  1  0.01226000  0.23446000  0.50500000  1.0 -0.025314543
C  C94  1  0.37695000  0.91215000  0.49320000  1.0 0.5804164448
C  C95  1  0.91215000  0.37695000  0.50680000  1.0 0.5804164448
C  C96  1  0.19329000  0.97469000  0.49350000  1.0 -0.1398711721
C  C97  1  0.97469000  0.19329000  0.50650000  1.0 -0.1398711721
C  C98  1  0.06240000  0.06240000  0.50000000  1.0 0.0608507398
C  C99  1  0.02075000  0.02075000  0.50000000  1.0 0.0685406532
C  C100  1  0.93118000  0.06858000  0.54500000  1.0 -0.1398711721
C  C101  1  0.06858000  0.93118000  0.45500000  1.0 -0.1398711721
C  C102  1  0.89195000  0.02815000  0.54470000  1.0 -0.1508583023
C  C103  1  0.02815000  0.89195000  0.45530000  1.0 -0.1508583023
C  C104  1  0.93930000  0.93930000  0.50000000  1.0 0.041449347
C  C105  1  0.89657000  0.89657000  0.50000000  1.0 0.0342557779
C  C106  1  0.78520000  0.96680000  0.52880000  1.0 -0.0621766267
C  C107  1  0.96680000  0.78520000  0.47120000  1.0 -0.0621766267
C  C108  1  0.74560000  0.92680000  0.52870000  1.0 -0.0482083806
C  C109  1  0.92680000  0.74560000  0.47130000  1.0 -0.0482083806
O  O1  1  0.65703000  0.70503000  0.64349000  1.0 -0.6395329
O  O2  1  0.70503000  0.65703000  0.35651000  1.0 -0.6395329
O  O3  1  0.72965000  0.71565000  0.73830000  1.0 -0.6234008135
O  O4  1  0.71565000  0.72965000  0.26170000  1.0 -0.6234008135
O  O5  1  0.16936000  0.26156000  0.91024000  1.0 -0.657746798
O  O6  1  0.26156000  0.16936000  0.08976000  1.0 -0.657746798
O  O7  1  0.26535000  0.09135000  0.86490000  1.0 -0.5626696707
O  O8  1  0.09135000  0.26535000  0.13510000  1.0 -0.5626696707
O  O9  1  0.48792000  0.13072000  0.63080000  1.0 -0.5717239739
O  O10  1  0.13072000  0.48792000  0.36920000  1.0 -0.5717239739
O  O11  1  0.65141000  0.95181000  0.71850000  1.0 -0.6338500143
O  O12  1  0.95181000  0.65141000  0.28150000  1.0 -0.6338500143
O  O13  1  0.78501000  0.61781000  0.91409000  1.0 -0.657746798
O  O14  1  0.61781000  0.78501000  0.08591000  1.0 -0.657746798
O  O15  1  0.57785000  0.82825000  0.90506000  1.0 -0.6072814079
O  O16  1  0.82825000  0.57785000  0.09494000  1.0 -0.6072814079
O  O17  1  0.64561000  0.02441000  0.90780000  1.0 -0.5798519017
O  O18  1  0.02441000  0.64561000  0.09220000  1.0 -0.5798519017
O  O19  1  0.49008000  0.06808000  0.89390000  1.0 -0.6072814079
O  O20  1  0.06808000  0.49008000  0.10610000  1.0 -0.6072814079
O  O21  1  0.01512000  0.54452000  0.90982000  1.0 -0.657746798
O  O22  1  0.54452000  0.01512000  0.09018000  1.0 -0.657746798
O  O23  1  0.96480000  0.69580000  0.85410000  1.0 -0.5798519017
O  O24  1  0.69580000  0.96480000  0.14590000  1.0 -0.5798519017
O  O25  1  0.79651000  0.79651000  0.00000000  1.0 -0.8382510306
O  O26  1  0.78540000  0.72560000  0.44170000  1.0 -0.1508583023
O  O27  1  0.72560000  0.78540000  0.55830000  1.0 -0.1398711721
O  O28  1  0.41854000  0.94254000  0.50590000  1.0 -0.6685485603
O  O29  1  0.94254000  0.41854000  0.49410000  1.0 -0.6685485603
O  O30  1  0.45074000  0.79914000  0.47920000  1.0 -0.5916929604
O  O31  1  0.79914000  0.45074000  0.52080000  1.0 -0.5916929604
O  O32  1  0.42808000  0.04068000  0.76670000  1.0 -0.9093564512
O  O33  1  0.04068000  0.42808000  0.23330000  1.0 -0.9093564512
O  O34  1  0.83820000  0.67340000  0.47000000  1.0 -0.1568053053
O  O35  1  0.67340000  0.83820000  0.53000000  1.0 -0.1568053053
