# DDEC6 charges by PACMAN v1.1 (https://github.com/mtap-research/PACMAN-charge/)
data_ILITON_ASR_pacman
_symmetry_space_group_name_H-M   'P 1'
_cell_length_a   16.68860000
_cell_length_b   16.68860000
_cell_length_c   28.05150000
_cell_angle_alpha   90.00000000
_cell_angle_beta   90.00000000
_cell_angle_gamma   90.01940000
_symmetry_Int_Tables_number   1
_chemical_formula_structural   Zn2H24C35N3O4
_chemical_formula_sum   'Zn8 H96 C140 N12 O16'
_cell_volume   7812.60514359
_cell_formula_units_Z   4
loop_
 _symmetry_equiv_pos_site_id
 _symmetry_equiv_pos_as_xyz
  1  'x, y, z'
loop_
 _atom_site_type_symbol
 _atom_site_label
 _atom_site_symmetry_multiplicity
 _atom_site_fract_x
 _atom_site_fract_y
 _atom_site_fract_z
 _atom_site_occupancy
 _atom_site_charge
Zn  Zn1  1  0.53525000  0.46475000  0.23716000  1.0 0.3479284091
Zn  Zn2  1  0.46475000  0.53525000  0.73716000  1.0 0.3479284091
Zn  Zn3  1  0.46475000  0.53525000  0.76284000  1.0 0.3479284091
Zn  Zn4  1  0.53525000  0.46475000  0.26284000  1.0 0.3479284091
Zn  Zn5  1  0.03586000  0.96414000  0.30335000  1.0 0.807516445
Zn  Zn6  1  0.96414000  0.03586000  0.80335000  1.0 0.807516445
Zn  Zn7  1  0.96414000  0.03586000  0.69665000  1.0 0.807516445
Zn  Zn8  1  0.03586000  0.96414000  0.19665000  1.0 0.807516445
H  H1  1  0.60830000  0.16630000  0.25000000  1.0 0.1232294349
H  H2  1  0.39170000  0.83370000  0.75000000  1.0 0.1232294349
H  H3  1  0.16630000  0.60830000  0.75000000  1.0 0.1232294349
H  H4  1  0.83370000  0.39170000  0.25000000  1.0 0.1232294349
H  H5  1  0.46220000  0.16640000  0.25000000  1.0 0.1295640646
H  H6  1  0.53780000  0.83360000  0.75000000  1.0 0.1295640646
H  H7  1  0.16640000  0.46220000  0.75000000  1.0 0.1295640646
H  H8  1  0.83360000  0.53780000  0.25000000  1.0 0.1295640646
H  H9  1  0.23640000  0.39140000  0.25000000  1.0 0.1232294349
H  H10  1  0.76360000  0.60860000  0.75000000  1.0 0.1232294349
H  H11  1  0.39140000  0.23640000  0.75000000  1.0 0.1295640646
H  H12  1  0.60860000  0.76360000  0.25000000  1.0 0.1232294349
H  H13  1  0.23770000  0.53850000  0.25000000  1.0 0.1295640646
H  H14  1  0.76230000  0.46150000  0.75000000  1.0 0.1295640646
H  H15  1  0.53850000  0.23770000  0.75000000  1.0 0.1295640646
H  H16  1  0.46150000  0.76230000  0.25000000  1.0 0.1295640646
H  H17  1  0.75490000  0.24510000  0.32030000  1.0 0.1232294349
H  H18  1  0.24510000  0.75490000  0.82030000  1.0 0.1232294349
H  H19  1  0.24510000  0.75490000  0.67970000  1.0 0.1232294349
H  H20  1  0.75490000  0.24510000  0.17970000  1.0 0.1232294349
H  H21  1  0.85270000  0.14730000  0.32090000  1.0 0.1232294349
H  H22  1  0.14730000  0.85270000  0.82090000  1.0 0.1232294349
H  H23  1  0.14730000  0.85270000  0.67910000  1.0 0.1232294349
H  H24  1  0.85270000  0.14730000  0.17910000  1.0 0.1232294349
H  H25  1  0.31440000  0.24600000  0.17990000  1.0 0.1295640646
H  H26  1  0.68560000  0.75400000  0.67990000  1.0 0.1232294349
H  H27  1  0.24600000  0.31440000  0.82010000  1.0 0.1232294349
H  H28  1  0.75400000  0.68560000  0.32010000  1.0 0.1232294349
H  H29  1  0.68560000  0.75400000  0.82010000  1.0 0.1232294349
H  H30  1  0.31440000  0.24600000  0.32010000  1.0 0.1232294349
H  H31  1  0.75400000  0.68560000  0.17990000  1.0 0.1232294349
H  H32  1  0.24600000  0.31440000  0.67990000  1.0 0.1232294349
H  H33  1  0.21770000  0.14890000  0.17930000  1.0 0.1295640646
H  H34  1  0.78230000  0.85110000  0.67930000  1.0 0.1295640646
H  H35  1  0.14890000  0.21770000  0.82070000  1.0 0.1295640646
H  H36  1  0.85110000  0.78230000  0.32070000  1.0 0.1295640646
H  H37  1  0.78230000  0.85110000  0.82070000  1.0 0.1295640646
H  H38  1  0.21770000  0.14890000  0.32070000  1.0 0.1295640646
H  H39  1  0.85110000  0.78230000  0.17930000  1.0 0.1295640646
H  H40  1  0.14890000  0.21770000  0.67930000  1.0 0.1295640646
H  H41  1  0.31580000  0.68420000  0.31990000  1.0 0.1295640646
H  H42  1  0.68420000  0.31580000  0.81990000  1.0 0.1295640646
H  H43  1  0.68420000  0.31580000  0.68010000  1.0 0.1295640646
H  H44  1  0.31580000  0.68420000  0.18010000  1.0 0.1295640646
H  H45  1  0.21850000  0.78150000  0.32090000  1.0 0.1295640646
H  H46  1  0.78150000  0.21850000  0.82090000  1.0 0.1295640646
H  H47  1  0.78150000  0.21850000  0.67910000  1.0 0.1295640646
H  H48  1  0.21850000  0.78150000  0.17910000  1.0 0.1295640646
H  H49  1  0.12480000  0.99060000  0.47650000  1.0 0.1068884475
H  H50  1  0.87520000  0.00940000  0.97650000  1.0 0.1068884475
H  H51  1  0.99060000  0.12480000  0.52350000  1.0 0.1068884475
H  H52  1  0.00940000  0.87520000  0.02350000  1.0 0.1068884475
H  H53  1  0.87520000  0.00940000  0.52350000  1.0 0.1068884475
H  H54  1  0.12480000  0.99060000  0.02350000  1.0 0.1068884475
H  H55  1  0.00940000  0.87520000  0.47650000  1.0 0.1068884475
H  H56  1  0.99060000  0.12480000  0.97650000  1.0 0.1068884475
H  H57  1  0.89250000  0.00210000  0.45290000  1.0 0.1020122772
H  H58  1  0.10750000  0.99790000  0.95290000  1.0 0.1020122772
H  H59  1  0.00210000  0.89250000  0.54710000  1.0 0.1020122772
H  H60  1  0.99790000  0.10750000  0.04710000  1.0 0.1020122772
H  H61  1  0.10750000  0.99790000  0.54710000  1.0 0.1020122772
H  H62  1  0.89250000  0.00210000  0.04710000  1.0 0.1020122772
H  H63  1  0.99790000  0.10750000  0.45290000  1.0 0.1020122772
H  H64  1  0.00210000  0.89250000  0.95290000  1.0 0.1020122772
H  H65  1  0.91620000  0.98200000  0.37350000  1.0 0.1232294349
H  H66  1  0.08380000  0.01800000  0.87350000  1.0 0.1232294349
H  H67  1  0.98200000  0.91620000  0.62650000  1.0 0.1232294349
H  H68  1  0.01800000  0.08380000  0.12650000  1.0 0.1232294349
H  H69  1  0.08380000  0.01800000  0.62650000  1.0 0.1232294349
H  H70  1  0.91620000  0.98200000  0.12650000  1.0 0.1232294349
H  H71  1  0.01800000  0.08380000  0.37350000  1.0 0.1232294349
H  H72  1  0.98200000  0.91620000  0.87350000  1.0 0.1232294349
H  H73  1  0.17810000  0.95770000  0.35250000  1.0 0.1295640646
H  H74  1  0.82190000  0.04230000  0.85250000  1.0 0.1295640646
H  H75  1  0.95770000  0.17810000  0.64750000  1.0 0.1295640646
H  H76  1  0.04230000  0.82190000  0.14750000  1.0 0.1295640646
H  H77  1  0.82190000  0.04230000  0.64750000  1.0 0.1295640646
H  H78  1  0.17810000  0.95770000  0.14750000  1.0 0.1295640646
H  H79  1  0.04230000  0.82190000  0.35250000  1.0 0.1295640646
H  H80  1  0.95770000  0.17810000  0.85250000  1.0 0.1295640646
H  H81  1  0.20340000  0.91880000  0.40110000  1.0 0.1396276306
H  H82  1  0.79660000  0.08120000  0.90110000  1.0 0.1396276306
H  H83  1  0.91880000  0.20340000  0.59890000  1.0 0.1396276306
H  H84  1  0.08120000  0.79660000  0.09890000  1.0 0.1396276306
H  H85  1  0.79660000  0.08120000  0.59890000  1.0 0.1396276306
H  H86  1  0.20340000  0.91880000  0.09890000  1.0 0.1396276306
H  H87  1  0.08120000  0.79660000  0.40110000  1.0 0.1396276306
H  H88  1  0.91880000  0.20340000  0.90110000  1.0 0.1396276306
H  H89  1  0.21190000  0.01150000  0.39370000  1.0 0.1295640646
H  H90  1  0.78810000  0.98850000  0.89370000  1.0 0.1295640646
H  H91  1  0.01150000  0.21190000  0.60630000  1.0 0.1295640646
H  H92  1  0.98850000  0.78810000  0.10630000  1.0 0.1295640646
H  H93  1  0.78810000  0.98850000  0.60630000  1.0 0.1295640646
H  H94  1  0.21190000  0.01150000  0.10630000  1.0 0.1295640646
H  H95  1  0.98850000  0.78810000  0.39370000  1.0 0.1295640646
H  H96  1  0.01150000  0.21190000  0.89370000  1.0 0.1295640646
C  C1  1  0.60160000  0.29316000  0.25000000  1.0 0.1396276306
C  C2  1  0.39840000  0.70684000  0.75000000  1.0 0.1396276306
C  C3  1  0.29316000  0.60160000  0.75000000  1.0 0.1396276306
C  C4  1  0.70684000  0.39840000  0.25000000  1.0 0.1396276306
C  C5  1  0.57541000  0.21127000  0.25000000  1.0 -0.1844846713
C  C6  1  0.42459000  0.78873000  0.75000000  1.0 -0.1884764895
C  C7  1  0.21127000  0.57541000  0.75000000  1.0 -0.1884764895
C  C8  1  0.78873000  0.42459000  0.25000000  1.0 -0.1844846713
C  C9  1  0.49529000  0.21127000  0.25000000  1.0 -0.1884764895
C  C10  1  0.50471000  0.78873000  0.75000000  1.0 -0.1884764895
C  C11  1  0.21127000  0.49529000  0.75000000  1.0 -0.1884764895
C  C12  1  0.78873000  0.50471000  0.25000000  1.0 -0.1884764895
C  C13  1  0.46983000  0.29377000  0.25000000  1.0 0.1509798455
C  C14  1  0.53017000  0.70623000  0.75000000  1.0 0.1509798455
C  C15  1  0.29377000  0.46983000  0.75000000  1.0 0.1509798455
C  C16  1  0.70623000  0.53017000  0.25000000  1.0 0.1509798455
C  C17  1  0.38971000  0.31905000  0.25000000  1.0 -0.0781454227
C  C18  1  0.61029000  0.68095000  0.75000000  1.0 -0.0781454227
C  C19  1  0.31905000  0.38971000  0.75000000  1.0 -0.0781454227
C  C20  1  0.68095000  0.61029000  0.25000000  1.0 -0.0781454227
C  C21  1  0.36413000  0.39845000  0.25000000  1.0 0.1509798455
C  C22  1  0.63587000  0.60155000  0.75000000  1.0 0.1396276306
C  C23  1  0.39845000  0.36413000  0.75000000  1.0 0.1509798455
C  C24  1  0.60155000  0.63587000  0.25000000  1.0 0.1509798455
C  C25  1  0.28151000  0.42421000  0.25000000  1.0 -0.1884764895
C  C26  1  0.71849000  0.57579000  0.75000000  1.0 -0.1844846713
C  C27  1  0.42421000  0.28151000  0.75000000  1.0 -0.1884764895
C  C28  1  0.57579000  0.71849000  0.25000000  1.0 -0.1884764895
C  C29  1  0.28227000  0.50511000  0.25000000  1.0 -0.1884764895
C  C30  1  0.71773000  0.49489000  0.75000000  1.0 -0.1884764895
C  C31  1  0.50511000  0.28227000  0.75000000  1.0 -0.1884764895
C  C32  1  0.49489000  0.71773000  0.25000000  1.0 -0.1884764895
C  C33  1  0.36468000  0.53016000  0.25000000  1.0 0.1509798455
C  C34  1  0.63532000  0.46984000  0.75000000  1.0 0.1509798455
C  C35  1  0.53016000  0.36468000  0.75000000  1.0 0.1509798455
C  C36  1  0.46984000  0.63532000  0.25000000  1.0 0.1509798455
C  C37  1  0.68058000  0.31942000  0.25000000  1.0 -0.0781454227
C  C38  1  0.31942000  0.68058000  0.75000000  1.0 -0.0781454227
C  C39  1  0.74491000  0.25509000  0.25000000  1.0 0.0776992831
C  C40  1  0.25509000  0.74491000  0.75000000  1.0 0.0776992831
C  C41  1  0.77446000  0.22554000  0.29155000  1.0 -0.145995485
C  C42  1  0.22554000  0.77446000  0.79155000  1.0 -0.145995485
C  C43  1  0.22554000  0.77446000  0.70845000  1.0 -0.145995485
C  C44  1  0.77446000  0.22554000  0.20845000  1.0 -0.145995485
C  C45  1  0.83337000  0.16663000  0.29195000  1.0 -0.1030286607
C  C46  1  0.16663000  0.83337000  0.79195000  1.0 -0.1030286607
C  C47  1  0.16663000  0.83337000  0.70805000  1.0 -0.1030286607
C  C48  1  0.83337000  0.16663000  0.20805000  1.0 -0.1030286607
C  C49  1  0.86329000  0.13671000  0.25000000  1.0 -0.042070921
C  C50  1  0.13671000  0.86329000  0.75000000  1.0 -0.042070921
C  C51  1  0.92681000  0.07319000  0.25000000  1.0 0.5703824503
C  C52  1  0.07319000  0.92681000  0.75000000  1.0 0.5703824503
C  C53  1  0.32607000  0.25561000  0.25000000  1.0 0.0776992831
C  C54  1  0.67393000  0.74439000  0.75000000  1.0 0.0776992831
C  C55  1  0.25561000  0.32607000  0.75000000  1.0 0.0776992831
C  C56  1  0.74439000  0.67393000  0.25000000  1.0 0.0776992831
C  C57  1  0.29546000  0.22612000  0.20877000  1.0 -0.145995485
C  C58  1  0.70454000  0.77388000  0.70877000  1.0 -0.145995485
C  C59  1  0.22612000  0.29546000  0.79123000  1.0 -0.145995485
C  C60  1  0.77388000  0.70454000  0.29123000  1.0 -0.1449769842
C  C61  1  0.70454000  0.77388000  0.79123000  1.0 -0.145995485
C  C62  1  0.29546000  0.22612000  0.29123000  1.0 -0.145995485
C  C63  1  0.77388000  0.70454000  0.20877000  1.0 -0.1449769842
C  C64  1  0.22612000  0.29546000  0.70877000  1.0 -0.145995485
C  C65  1  0.23711000  0.16769000  0.20832000  1.0 -0.1030286607
C  C66  1  0.76289000  0.83231000  0.70832000  1.0 -0.1030286607
C  C67  1  0.16769000  0.23711000  0.79168000  1.0 -0.1030286607
C  C68  1  0.83231000  0.76289000  0.29168000  1.0 -0.1030286607
C  C69  1  0.76289000  0.83231000  0.79168000  1.0 -0.1030286607
C  C70  1  0.23711000  0.16769000  0.29168000  1.0 -0.1030286607
C  C71  1  0.83231000  0.76289000  0.20832000  1.0 -0.1030286607
C  C72  1  0.16769000  0.23711000  0.70832000  1.0 -0.1030286607
C  C73  1  0.20747000  0.13697000  0.25000000  1.0 -0.042070921
C  C74  1  0.79253000  0.86303000  0.75000000  1.0 -0.042070921
C  C75  1  0.13697000  0.20747000  0.75000000  1.0 -0.042070921
C  C76  1  0.86303000  0.79253000  0.25000000  1.0 -0.042070921
C  C77  1  0.14373000  0.07361000  0.25000000  1.0 0.5703824503
C  C78  1  0.85627000  0.92639000  0.75000000  1.0 0.5703824503
C  C79  1  0.07361000  0.14373000  0.75000000  1.0 0.5703824503
C  C80  1  0.92639000  0.85627000  0.25000000  1.0 0.5703824503
C  C81  1  0.38919000  0.61081000  0.25000000  1.0 -0.0691128914
C  C82  1  0.61081000  0.38919000  0.75000000  1.0 -0.0691128914
C  C83  1  0.32651000  0.67349000  0.25000000  1.0 0.0699113017
C  C84  1  0.67349000  0.32651000  0.75000000  1.0 0.0699113017
C  C85  1  0.29630000  0.70370000  0.29108000  1.0 -0.145995485
C  C86  1  0.70370000  0.29630000  0.79108000  1.0 -0.145995485
C  C87  1  0.70370000  0.29630000  0.70892000  1.0 -0.145995485
C  C88  1  0.29630000  0.70370000  0.20892000  1.0 -0.145995485
C  C89  1  0.23772000  0.76228000  0.29197000  1.0 -0.1030286607
C  C90  1  0.76228000  0.23772000  0.79197000  1.0 -0.1030286607
C  C91  1  0.76228000  0.23772000  0.70803000  1.0 -0.1030286607
C  C92  1  0.23772000  0.76228000  0.20803000  1.0 -0.1030286607
C  C93  1  0.20814000  0.79186000  0.25000000  1.0 -0.042070921
C  C94  1  0.79186000  0.20814000  0.75000000  1.0 -0.042070921
C  C95  1  0.14438000  0.85562000  0.25000000  1.0 0.5703824503
C  C96  1  0.85562000  0.14438000  0.75000000  1.0 0.5703824503
C  C97  1  0.09299000  0.97761000  0.40602000  1.0 0.1232294349
C  C98  1  0.90701000  0.02239000  0.90602000  1.0 0.1232294349
C  C99  1  0.97761000  0.09299000  0.59398000  1.0 0.1232294349
C  C100  1  0.02239000  0.90701000  0.09398000  1.0 0.1232294349
C  C101  1  0.90701000  0.02239000  0.59398000  1.0 0.1232294349
C  C102  1  0.09299000  0.97761000  0.09398000  1.0 0.1232294349
C  C103  1  0.02239000  0.90701000  0.40602000  1.0 0.1232294349
C  C104  1  0.97761000  0.09299000  0.90602000  1.0 0.1232294349
C  C105  1  0.08095000  0.98805000  0.45610000  1.0 -0.1270090783
C  C106  1  0.91905000  0.01195000  0.95610000  1.0 -0.1270090783
C  C107  1  0.98805000  0.08095000  0.54390000  1.0 -0.1270090783
C  C108  1  0.01195000  0.91905000  0.04390000  1.0 -0.1270090783
C  C109  1  0.91905000  0.01195000  0.54390000  1.0 -0.1270090783
C  C110  1  0.08095000  0.98805000  0.04390000  1.0 -0.1270090783
C  C111  1  0.01195000  0.91905000  0.45610000  1.0 -0.1270090783
C  C112  1  0.98805000  0.08095000  0.95610000  1.0 -0.1270090783
C  C113  1  0.00589000  0.99411000  0.47399000  1.0 0.0389835188
C  C114  1  0.99411000  0.00589000  0.97399000  1.0 0.0389835188
C  C115  1  0.99411000  0.00589000  0.52601000  1.0 0.0389835188
C  C116  1  0.00589000  0.99411000  0.02601000  1.0 0.0389835188
C  C117  1  0.94460000  0.99400000  0.44235000  1.0 -0.1030286607
C  C118  1  0.05540000  0.00600000  0.94235000  1.0 -0.1030286607
C  C119  1  0.99400000  0.94460000  0.55765000  1.0 -0.1030286607
C  C120  1  0.00600000  0.05540000  0.05765000  1.0 -0.1030286607
C  C121  1  0.05540000  0.00600000  0.55765000  1.0 -0.1030286607
C  C122  1  0.94460000  0.99400000  0.05765000  1.0 -0.1030286607
C  C123  1  0.00600000  0.05540000  0.44235000  1.0 -0.1030286607
C  C124  1  0.99400000  0.94460000  0.94235000  1.0 -0.1030286607
C  C125  1  0.95974000  0.98194000  0.39412000  1.0 -0.0125652513
C  C126  1  0.04026000  0.01806000  0.89412000  1.0 -0.0125652513
C  C127  1  0.98194000  0.95974000  0.60588000  1.0 -0.0125652513
C  C128  1  0.01806000  0.04026000  0.10588000  1.0 -0.0125652513
C  C129  1  0.04026000  0.01806000  0.60588000  1.0 -0.0125652513
C  C130  1  0.95974000  0.98194000  0.10588000  1.0 -0.0125652513
C  C131  1  0.01806000  0.04026000  0.39412000  1.0 -0.0125652513
C  C132  1  0.98194000  0.95974000  0.89412000  1.0 -0.0125652513
C  C133  1  0.18000000  0.96520000  0.38643000  1.0 -0.5286725866
C  C134  1  0.82000000  0.03480000  0.88643000  1.0 -0.5286725866
C  C135  1  0.96520000  0.18000000  0.61357000  1.0 -0.5286725866
C  C136  1  0.03480000  0.82000000  0.11357000  1.0 -0.5286725866
C  C137  1  0.82000000  0.03480000  0.61357000  1.0 -0.5286725866
C  C138  1  0.18000000  0.96520000  0.11357000  1.0 -0.5286725866
C  C139  1  0.03480000  0.82000000  0.38643000  1.0 -0.5286725866
C  C140  1  0.96520000  0.18000000  0.88643000  1.0 -0.5286725866
N  N1  1  0.53515000  0.34251000  0.25000000  1.0 -0.2995802345
N  N2  1  0.46485000  0.65749000  0.75000000  1.0 -0.2995802345
N  N3  1  0.34251000  0.53515000  0.75000000  1.0 -0.2995802345
N  N4  1  0.65749000  0.46485000  0.25000000  1.0 -0.2995802345
N  N5  1  0.41331000  0.46451000  0.25000000  1.0 -0.2995802345
N  N6  1  0.58669000  0.53549000  0.75000000  1.0 -0.2995802345
N  N7  1  0.46451000  0.41331000  0.75000000  1.0 -0.2995802345
N  N8  1  0.53549000  0.58669000  0.25000000  1.0 -0.2995802345
N  N9  1  0.02928000  0.97072000  0.37609000  1.0 -0.0638232015
N  N10  1  0.97072000  0.02928000  0.87609000  1.0 -0.0638232015
N  N11  1  0.97072000  0.02928000  0.62391000  1.0 -0.0691128914
N  N12  1  0.02928000  0.97072000  0.12391000  1.0 -0.0638232015
O  O1  1  0.95081000  0.04919000  0.28937000  1.0 -0.547505449
O  O2  1  0.04919000  0.95081000  0.78937000  1.0 -0.547505449
O  O3  1  0.04919000  0.95081000  0.71063000  1.0 -0.547505449
O  O4  1  0.95081000  0.04919000  0.21063000  1.0 -0.547505449
O  O5  1  0.11982000  0.04922000  0.21067000  1.0 -0.5286725866
O  O6  1  0.88018000  0.95078000  0.71067000  1.0 -0.5286725866
O  O7  1  0.04922000  0.11982000  0.78933000  1.0 -0.5286725866
O  O8  1  0.95078000  0.88018000  0.28933000  1.0 -0.5286725866
O  O9  1  0.88018000  0.95078000  0.78933000  1.0 -0.5286725866
O  O10  1  0.11982000  0.04922000  0.28933000  1.0 -0.5286725866
O  O11  1  0.95078000  0.88018000  0.21067000  1.0 -0.5286725866
O  O12  1  0.04922000  0.11982000  0.71067000  1.0 -0.5286725866
O  O13  1  0.12001000  0.87999000  0.28913000  1.0 -0.5104622649
O  O14  1  0.87999000  0.12001000  0.78913000  1.0 -0.5104622649
O  O15  1  0.87999000  0.12001000  0.71087000  1.0 -0.5104622649
O  O16  1  0.12001000  0.87999000  0.21087000  1.0 -0.5104622649
