# DDEC6 charges by PACMAN v1.1 (https://github.com/mtap-research/PACMAN-charge/)
data_ILOSOU_ASR_pacman
_symmetry_space_group_name_H-M   'P 1'
_cell_length_a   17.86780000
_cell_length_b   17.86780000
_cell_length_c   12.80840000
_cell_angle_alpha   90.00000000
_cell_angle_beta   90.00000000
_cell_angle_gamma   120.00000000
_symmetry_Int_Tables_number   1
_chemical_formula_structural   SrCu6H36Pd6C31S6(N2O7)3
_chemical_formula_sum   'Sr2 Cu12 H72 Pd12 C62 S12 N12 O42'
_cell_volume   3541.34044037
_cell_formula_units_Z   2
loop_
 _symmetry_equiv_pos_site_id
 _symmetry_equiv_pos_as_xyz
  1  'x, y, z'
loop_
 _atom_site_type_symbol
 _atom_site_label
 _atom_site_symmetry_multiplicity
 _atom_site_fract_x
 _atom_site_fract_y
 _atom_site_fract_z
 _atom_site_occupancy
 _atom_site_charge
Sr  Sr1  1  0.66666667  0.33333333  0.81680000  1.0 1.435476332
Sr  Sr2  1  0.33333333  0.66666667  0.31680000  1.0 1.435476332
Cu  Cu1  1  0.41880000  0.55463000  0.44736000  1.0 0.7706026327
Cu  Cu2  1  0.58188000  0.44561000  0.68512000  1.0 0.7937245062
Cu  Cu3  1  0.13583000  0.58120000  0.44736000  1.0 0.7706026327
Cu  Cu4  1  0.86373000  0.41812000  0.68512000  1.0 0.7937245062
Cu  Cu5  1  0.44537000  0.86417000  0.44736000  1.0 0.7706026327
Cu  Cu6  1  0.55439000  0.13627000  0.68512000  1.0 0.7937245062
Cu  Cu7  1  0.58120000  0.44537000  0.94736000  1.0 0.7706026327
Cu  Cu8  1  0.41812000  0.55439000  0.18512000  1.0 0.7937245062
Cu  Cu9  1  0.86417000  0.41880000  0.94736000  1.0 0.7706026327
Cu  Cu10  1  0.13627000  0.58188000  0.18512000  1.0 0.7937245062
Cu  Cu11  1  0.55463000  0.13583000  0.94736000  1.0 0.7706026327
Cu  Cu12  1  0.44561000  0.86373000  0.18512000  1.0 0.7937245062
H  H1  1  0.49339000  0.66915000  0.66748000  1.0 0.1065884062
H  H2  1  0.41331000  0.28689000  0.54457000  1.0 0.1193751692
H  H3  1  0.63162000  0.70776000  0.68262000  1.0 0.1368755987
H  H4  1  0.61851000  0.78947000  0.66491000  1.0 0.1368755987
H  H5  1  0.73859000  0.91208000  0.44602000  1.0 0.1607021333
H  H6  1  0.64620000  0.88034000  0.49841000  1.0 0.1607021333
H  H7  1  0.73010000  0.91311000  0.57032000  1.0 0.1607021333
H  H8  1  0.45574000  0.32967000  0.38276000  1.0 0.1368755987
H  H9  1  0.46142000  0.24567000  0.41042000  1.0 0.1193751692
H  H10  1  0.25542000  0.42673000  0.24687000  1.0 0.1065884062
H  H11  1  0.30676000  0.39800000  0.32437000  1.0 0.1193751692
H  H12  1  0.24417000  0.42988000  0.37047000  1.0 0.1004074356
H  H13  1  0.17576000  0.50661000  0.66748000  1.0 0.1065884062
H  H14  1  0.87358000  0.58669000  0.54457000  1.0 0.1193751692
H  H15  1  0.07614000  0.36838000  0.68262000  1.0 0.1368755987
H  H16  1  0.17096000  0.38149000  0.66491000  1.0 0.1368755987
H  H17  1  0.17349000  0.26141000  0.44602000  1.0 0.1607021333
H  H18  1  0.23414000  0.35380000  0.49841000  1.0 0.1607021333
H  H19  1  0.18301000  0.26990000  0.57032000  1.0 0.1607021333
H  H20  1  0.87393000  0.54426000  0.38276000  1.0 0.1368755987
H  H21  1  0.78425000  0.53858000  0.41042000  1.0 0.1193751692
H  H22  1  0.17131000  0.74458000  0.24687000  1.0 0.1065884062
H  H23  1  0.09124000  0.69324000  0.32437000  1.0 0.1193751692
H  H24  1  0.18571000  0.75583000  0.37047000  1.0 0.1004074356
H  H25  1  0.33085000  0.82424000  0.66748000  1.0 0.1065884062
H  H26  1  0.71311000  0.12642000  0.54457000  1.0 0.1193751692
H  H27  1  0.29224000  0.92386000  0.68262000  1.0 0.1368755987
H  H28  1  0.21053000  0.82904000  0.66491000  1.0 0.1368755987
H  H29  1  0.08792000  0.82651000  0.44602000  1.0 0.1607021333
H  H30  1  0.11966000  0.76586000  0.49841000  1.0 0.1607021333
H  H31  1  0.08689000  0.81699000  0.57032000  1.0 0.1607021333
H  H32  1  0.67033000  0.12607000  0.38276000  1.0 0.1368755987
H  H33  1  0.75433000  0.21575000  0.41042000  1.0 0.1193751692
H  H34  1  0.57327000  0.82869000  0.24687000  1.0 0.1065884062
H  H35  1  0.60200000  0.90876000  0.32437000  1.0 0.1193751692
H  H36  1  0.57012000  0.81429000  0.37047000  1.0 0.1004074356
H  H37  1  0.50661000  0.33085000  0.16748000  1.0 0.1065884062
H  H38  1  0.58669000  0.71311000  0.04457000  1.0 0.1193751692
H  H39  1  0.36838000  0.29224000  0.18262000  1.0 0.1368755987
H  H40  1  0.38149000  0.21053000  0.16491000  1.0 0.1368755987
H  H41  1  0.26141000  0.08792000  0.94602000  1.0 0.1607021333
H  H42  1  0.35380000  0.11966000  0.99841000  1.0 0.1607021333
H  H43  1  0.26990000  0.08689000  0.07032000  1.0 0.1607021333
H  H44  1  0.54426000  0.67033000  0.88276000  1.0 0.1368755987
H  H45  1  0.53858000  0.75433000  0.91042000  1.0 0.1193751692
H  H46  1  0.74458000  0.57327000  0.74687000  1.0 0.1065884062
H  H47  1  0.69324000  0.60200000  0.82437000  1.0 0.1193751692
H  H48  1  0.75583000  0.57012000  0.87047000  1.0 0.1004074356
H  H49  1  0.82424000  0.49339000  0.16748000  1.0 0.1065884062
H  H50  1  0.12642000  0.41331000  0.04457000  1.0 0.1193751692
H  H51  1  0.92386000  0.63162000  0.18262000  1.0 0.1368755987
H  H52  1  0.82904000  0.61851000  0.16491000  1.0 0.1368755987
H  H53  1  0.82651000  0.73859000  0.94602000  1.0 0.1607021333
H  H54  1  0.76586000  0.64620000  0.99841000  1.0 0.1607021333
H  H55  1  0.81699000  0.73010000  0.07032000  1.0 0.1607021333
H  H56  1  0.12607000  0.45574000  0.88276000  1.0 0.1368755987
H  H57  1  0.21575000  0.46142000  0.91042000  1.0 0.1193751692
H  H58  1  0.82869000  0.25542000  0.74687000  1.0 0.1065884062
H  H59  1  0.90876000  0.30676000  0.82437000  1.0 0.1193751692
H  H60  1  0.81429000  0.24417000  0.87047000  1.0 0.1004074356
H  H61  1  0.66915000  0.17576000  0.16748000  1.0 0.1065884062
H  H62  1  0.28689000  0.87358000  0.04457000  1.0 0.1193751692
H  H63  1  0.70776000  0.07614000  0.18262000  1.0 0.1368755987
H  H64  1  0.78947000  0.17096000  0.16491000  1.0 0.1368755987
H  H65  1  0.91208000  0.17349000  0.94602000  1.0 0.1607021333
H  H66  1  0.88034000  0.23414000  0.99841000  1.0 0.1607021333
H  H67  1  0.91311000  0.18301000  0.07032000  1.0 0.1607021333
H  H68  1  0.32967000  0.87393000  0.88276000  1.0 0.1368755987
H  H69  1  0.24567000  0.78425000  0.91042000  1.0 0.1193751692
H  H70  1  0.42673000  0.17131000  0.74687000  1.0 0.1065884062
H  H71  1  0.39800000  0.09124000  0.82437000  1.0 0.1193751692
H  H72  1  0.42988000  0.18571000  0.87047000  1.0 0.1004074356
Pd  Pd1  1  0.70800000  0.67300000  0.51100000  1.0 0.0467584029
Pd  Pd2  1  0.62110000  0.48010000  0.30100000  1.0 0.2478912365
Pd  Pd3  1  0.96500000  0.29200000  0.51100000  1.0 0.0718571144
Pd  Pd4  1  0.85900000  0.37890000  0.30100000  1.0 0.2478912365
Pd  Pd5  1  0.32700000  0.03500000  0.51100000  1.0 0.0718571144
Pd  Pd6  1  0.51990000  0.14100000  0.30100000  1.0 0.2478912365
Pd  Pd7  1  0.29200000  0.32700000  0.01100000  1.0 0.0718571144
Pd  Pd8  1  0.37890000  0.51990000  0.80100000  1.0 0.2478912365
Pd  Pd9  1  0.03500000  0.70800000  0.01100000  1.0 0.0755995503
Pd  Pd10  1  0.14100000  0.62110000  0.80100000  1.0 0.2478912365
Pd  Pd11  1  0.67300000  0.96500000  0.01100000  1.0 0.0718571144
Pd  Pd12  1  0.48010000  0.85900000  0.80100000  1.0 0.2478912365
C  C1  1  0.47800000  0.45920000  0.53690000  1.0 0.3372382562
C  C2  1  0.52010000  0.54440000  0.59800000  1.0 0.3372382562
C  C3  1  0.48600000  0.72090000  0.52890000  1.0 0.5729149671
C  C4  1  0.52670000  0.68100000  0.60090000  1.0 -0.0067154569
C  C5  1  0.47710000  0.32010000  0.53240000  1.0 -0.0031981973
C  C6  1  0.51410000  0.27900000  0.60260000  1.0 0.5729149671
C  C7  1  0.61320000  0.73700000  0.63160000  1.0 -0.2598100388
C  C8  1  0.70200000  0.88300000  0.50600000  1.0 -0.4699199788
C  C9  1  0.48830000  0.30840000  0.42390000  1.0 -0.2598100388
C  C10  1  0.28490000  0.43800000  0.31440000  1.0 -0.2657144376
C  C11  1  0.98120000  0.52200000  0.53690000  1.0 0.3372382562
C  C12  1  0.02430000  0.47990000  0.59800000  1.0 0.3372382562
C  C13  1  0.23490000  0.51400000  0.52890000  1.0 0.5729149671
C  C14  1  0.15430000  0.47330000  0.60090000  1.0 -0.0067154569
C  C15  1  0.84300000  0.52290000  0.53240000  1.0 -0.0031981973
C  C16  1  0.76490000  0.48590000  0.60260000  1.0 0.5729149671
C  C17  1  0.12380000  0.38680000  0.63160000  1.0 -0.2598100388
C  C18  1  0.18100000  0.29800000  0.50600000  1.0 -0.4699199788
C  C19  1  0.82010000  0.51170000  0.42390000  1.0 -0.2598100388
C  C20  1  0.15310000  0.71510000  0.31440000  1.0 -0.2657144376
C  C21  1  0.54080000  0.01880000  0.53690000  1.0 0.3372382562
C  C22  1  0.45560000  0.97570000  0.59800000  1.0 0.3372382562
C  C23  1  0.27910000  0.76510000  0.52890000  1.0 0.5729149671
C  C24  1  0.31900000  0.84570000  0.60090000  1.0 -0.0067154569
C  C25  1  0.67990000  0.15700000  0.53240000  1.0 -0.0031981973
C  C26  1  0.72100000  0.23510000  0.60260000  1.0 0.5729149671
C  C27  1  0.26300000  0.87620000  0.63160000  1.0 -0.2598100388
C  C28  1  0.11700000  0.81900000  0.50600000  1.0 -0.4699199788
C  C29  1  0.69160000  0.17990000  0.42390000  1.0 -0.2598100388
C  C30  1  0.56200000  0.84690000  0.31440000  1.0 -0.2657144376
C  C31  1  0.52200000  0.54080000  0.03690000  1.0 0.3372382562
C  C32  1  0.47990000  0.45560000  0.09800000  1.0 0.3372382562
C  C33  1  0.51400000  0.27910000  0.02890000  1.0 0.5729149671
C  C34  1  0.47330000  0.31900000  0.10090000  1.0 -0.0067154569
C  C35  1  0.52290000  0.67990000  0.03240000  1.0 -0.0031981973
C  C36  1  0.48590000  0.72100000  0.10260000  1.0 0.5729149671
C  C37  1  0.38680000  0.26300000  0.13160000  1.0 -0.2598100388
C  C38  1  0.29800000  0.11700000  0.00600000  1.0 -0.4699199788
C  C39  1  0.51170000  0.69160000  0.92390000  1.0 -0.2598100388
C  C40  1  0.71510000  0.56200000  0.81440000  1.0 -0.2657144376
C  C41  1  0.01880000  0.47800000  0.03690000  1.0 0.3372382562
C  C42  1  0.97570000  0.52010000  0.09800000  1.0 0.3372382562
C  C43  1  0.76510000  0.48600000  0.02890000  1.0 0.5729149671
C  C44  1  0.84570000  0.52670000  0.10090000  1.0 -0.0067154569
C  C45  1  0.15700000  0.47710000  0.03240000  1.0 -0.0031981973
C  C46  1  0.23510000  0.51410000  0.10260000  1.0 0.5729149671
C  C47  1  0.87620000  0.61320000  0.13160000  1.0 -0.2598100388
C  C48  1  0.81900000  0.70200000  0.00600000  1.0 -0.4699199788
C  C49  1  0.17990000  0.48830000  0.92390000  1.0 -0.2598100388
C  C50  1  0.84690000  0.28490000  0.81440000  1.0 -0.2657144376
C  C51  1  0.45920000  0.98120000  0.03690000  1.0 0.3372382562
C  C52  1  0.54440000  0.02430000  0.09800000  1.0 0.3372382562
C  C53  1  0.72090000  0.23490000  0.02890000  1.0 0.5729149671
C  C54  1  0.68100000  0.15430000  0.10090000  1.0 -0.0067154569
C  C55  1  0.32010000  0.84300000  0.03240000  1.0 -0.0031981973
C  C56  1  0.27900000  0.76490000  0.10260000  1.0 0.5729149671
C  C57  1  0.73700000  0.12380000  0.13160000  1.0 -0.2598100388
C  C58  1  0.88300000  0.18100000  0.00600000  1.0 -0.4699199788
C  C59  1  0.30840000  0.82010000  0.92390000  1.0 -0.2598100388
C  C60  1  0.43800000  0.15310000  0.81440000  1.0 -0.2657144376
C  C61  1  0.66666667  0.33333333  0.45100000  1.0 -0.1883688429
C  C62  1  0.33333333  0.66666667  0.95100000  1.0 -0.1883688429
S  S1  1  0.68230000  0.76700000  0.51290000  1.0 0.186659596
S  S2  1  0.59910000  0.36110000  0.37380000  1.0 0.0467584029
S  S3  1  0.08470000  0.31770000  0.51290000  1.0 0.186659596
S  S4  1  0.76200000  0.40090000  0.37380000  1.0 0.0467584029
S  S5  1  0.23300000  0.91530000  0.51290000  1.0 0.1834024629
S  S6  1  0.63890000  0.23800000  0.37380000  1.0 0.0467584029
S  S7  1  0.31770000  0.23300000  0.01290000  1.0 0.186659596
S  S8  1  0.40090000  0.63890000  0.87380000  1.0 0.0467584029
S  S9  1  0.91530000  0.68230000  0.01290000  1.0 0.1834024629
S  S10  1  0.23800000  0.59910000  0.87380000  1.0 0.0467584029
S  S11  1  0.76700000  0.08470000  0.01290000  1.0 0.186659596
S  S12  1  0.36110000  0.76200000  0.87380000  1.0 0.0467584029
N  N1  1  0.50060000  0.59630000  0.56070000  1.0 -0.4473585495
N  N2  1  0.50500000  0.40560000  0.56980000  1.0 -0.4699199788
N  N3  1  0.09570000  0.49940000  0.56070000  1.0 -0.4473585495
N  N4  1  0.90060000  0.49500000  0.56980000  1.0 -0.4699199788
N  N5  1  0.40370000  0.90430000  0.56070000  1.0 -0.4473585495
N  N6  1  0.59440000  0.09940000  0.56980000  1.0 -0.4699199788
N  N7  1  0.49940000  0.40370000  0.06070000  1.0 -0.4473585495
N  N8  1  0.49500000  0.59440000  0.06980000  1.0 -0.4699199788
N  N9  1  0.90430000  0.50060000  0.06070000  1.0 -0.4473585495
N  N10  1  0.09940000  0.50500000  0.06980000  1.0 -0.4699199788
N  N11  1  0.59630000  0.09570000  0.06070000  1.0 -0.4473585495
N  N12  1  0.40560000  0.90060000  0.06980000  1.0 -0.4699199788
O  O1  1  0.35816000  0.52823000  0.31670000  1.0 -0.5793423165
O  O2  1  0.42810000  0.44800000  0.46060000  1.0 -0.4400717874
O  O3  1  0.56950000  0.55140000  0.67310000  1.0 -0.4699199788
O  O4  1  0.44060000  0.67600000  0.45320000  1.0 -0.5793423165
O  O5  1  0.50230000  0.79590000  0.54870000  1.0 -0.5271202533
O  O6  1  0.50000000  0.20500000  0.58450000  1.0 -0.5271202533
O  O7  1  0.56020000  0.32630000  0.68080000  1.0 -0.607936711
O  O8  1  0.17007000  0.64184000  0.31670000  1.0 -0.5793423165
O  O9  1  0.01990000  0.57190000  0.46060000  1.0 -0.4400717874
O  O10  1  0.98190000  0.43050000  0.67310000  1.0 -0.4699199788
O  O11  1  0.23540000  0.55940000  0.45320000  1.0 -0.5793423165
O  O12  1  0.29360000  0.49770000  0.54870000  1.0 -0.5271202533
O  O13  1  0.70500000  0.50000000  0.58450000  1.0 -0.5271202533
O  O14  1  0.76610000  0.43980000  0.68080000  1.0 -0.607936711
O  O15  1  0.47177000  0.82993000  0.31670000  1.0 -0.5793423165
O  O16  1  0.55200000  0.98010000  0.46060000  1.0 -0.4400717874
O  O17  1  0.44860000  0.01810000  0.67310000  1.0 -0.4699199788
O  O18  1  0.32400000  0.76460000  0.45320000  1.0 -0.5793423165
O  O19  1  0.20410000  0.70640000  0.54870000  1.0 -0.5271202533
O  O20  1  0.79500000  0.29500000  0.58450000  1.0 -0.5271202533
O  O21  1  0.67370000  0.23390000  0.68080000  1.0 -0.607936711
O  O22  1  0.64184000  0.47177000  0.81670000  1.0 -0.5793423165
O  O23  1  0.57190000  0.55200000  0.96060000  1.0 -0.4400717874
O  O24  1  0.43050000  0.44860000  0.17310000  1.0 -0.4699199788
O  O25  1  0.55940000  0.32400000  0.95320000  1.0 -0.5793423165
O  O26  1  0.49770000  0.20410000  0.04870000  1.0 -0.5271202533
O  O27  1  0.50000000  0.79500000  0.08450000  1.0 -0.5271202533
O  O28  1  0.43980000  0.67370000  0.18080000  1.0 -0.607936711
O  O29  1  0.82993000  0.35816000  0.81670000  1.0 -0.5793423165
O  O30  1  0.98010000  0.42810000  0.96060000  1.0 -0.4400717874
O  O31  1  0.01810000  0.56950000  0.17310000  1.0 -0.4699199788
O  O32  1  0.76460000  0.44060000  0.95320000  1.0 -0.5793423165
O  O33  1  0.70640000  0.50230000  0.04870000  1.0 -0.5271202533
O  O34  1  0.29500000  0.50000000  0.08450000  1.0 -0.5271202533
O  O35  1  0.23390000  0.56020000  0.18080000  1.0 -0.607936711
O  O36  1  0.52823000  0.17007000  0.81670000  1.0 -0.5793423165
O  O37  1  0.44800000  0.01990000  0.96060000  1.0 -0.4400717874
O  O38  1  0.55140000  0.98190000  0.17310000  1.0 -0.4699199788
O  O39  1  0.67600000  0.23540000  0.95320000  1.0 -0.5793423165
O  O40  1  0.79590000  0.29360000  0.04870000  1.0 -0.5271202533
O  O41  1  0.20500000  0.70500000  0.08450000  1.0 -0.5271202533
O  O42  1  0.32630000  0.76610000  0.18080000  1.0 -0.607936711
