# DDEC6 charges by PACMAN v1.1 (https://github.com/mtap-research/PACMAN-charge/)
data_ILOSUA_ASR_pacman
_symmetry_space_group_name_H-M   'P 1'
_cell_length_a   17.82060000
_cell_length_b   17.82060000
_cell_length_c   12.78210000
_cell_angle_alpha   90.00000000
_cell_angle_beta   90.00000000
_cell_angle_gamma   120.00000000
_symmetry_Int_Tables_number   1
_chemical_formula_structural   SrCu6H36Pd6C31S6(N2O7)3
_chemical_formula_sum   'Sr2 Cu12 H72 Pd12 C62 S12 N12 O42'
_cell_volume   3515.42216718
_cell_formula_units_Z   2
loop_
 _symmetry_equiv_pos_site_id
 _symmetry_equiv_pos_as_xyz
  1  'x, y, z'
loop_
 _atom_site_type_symbol
 _atom_site_label
 _atom_site_symmetry_multiplicity
 _atom_site_fract_x
 _atom_site_fract_y
 _atom_site_fract_z
 _atom_site_occupancy
 _atom_site_charge
Sr  Sr1  1  0.33333333  0.66666667  0.32650000  1.0 1.4229470111
Sr  Sr2  1  0.66666667  0.33333333  0.82650000  1.0 1.4229470111
Cu  Cu1  1  0.58083000  0.44473000  0.69505000  1.0 0.7928074217
Cu  Cu2  1  0.41864000  0.55450000  0.45687000  1.0 0.7473330812
Cu  Cu3  1  0.86390000  0.41917000  0.69505000  1.0 0.7928074217
Cu  Cu4  1  0.13586000  0.58136000  0.45687000  1.0 0.7473330812
Cu  Cu5  1  0.55527000  0.13610000  0.69505000  1.0 0.7928074217
Cu  Cu6  1  0.44550000  0.86414000  0.45687000  1.0 0.7473330812
Cu  Cu7  1  0.41917000  0.55527000  0.19505000  1.0 0.7928074217
Cu  Cu8  1  0.58136000  0.44550000  0.95687000  1.0 0.7473330812
Cu  Cu9  1  0.13610000  0.58083000  0.19505000  1.0 0.7928074217
Cu  Cu10  1  0.86414000  0.41864000  0.95687000  1.0 0.7473330812
Cu  Cu11  1  0.44473000  0.86390000  0.19505000  1.0 0.7928074217
Cu  Cu12  1  0.55450000  0.13586000  0.95687000  1.0 0.7473330812
H  H1  1  0.25461000  0.42637000  0.38682000  1.0 0.108299627
H  H2  1  0.24708000  0.43499000  0.26315000  1.0 0.1000338822
H  H3  1  0.30788000  0.40031000  0.30846000  1.0 0.108299627
H  H4  1  0.49718000  0.66970000  0.68070000  1.0 0.1000338822
H  H5  1  0.41118000  0.28351000  0.58097000  1.0 0.1205340151
H  H6  1  0.63114000  0.70614000  0.68807000  1.0 0.1205340151
H  H7  1  0.61758000  0.78735000  0.66899000  1.0 0.1444627411
H  H8  1  0.66130000  0.73219000  0.33333333  1.0 0.1686126954
H  H9  1  0.59093000  0.65072000  0.39886000  1.0 0.1311303108
H  H10  1  0.57839000  0.73264000  0.38067000  1.0 0.1523593581
H  H11  1  0.43048000  0.31983000  0.40179000  1.0 0.1311303108
H  H12  1  0.43248000  0.23175000  0.42394000  1.0 0.1205340151
H  H13  1  0.17176000  0.74539000  0.38682000  1.0 0.108299627
H  H14  1  0.18791000  0.75292000  0.26315000  1.0 0.1000338822
H  H15  1  0.09243000  0.69212000  0.30846000  1.0 0.108299627
H  H16  1  0.17252000  0.50282000  0.68070000  1.0 0.1000338822
H  H17  1  0.87233000  0.58882000  0.58097000  1.0 0.1205340151
H  H18  1  0.07500000  0.36886000  0.68807000  1.0 0.1205340151
H  H19  1  0.16977000  0.38242000  0.66899000  1.0 0.1444627411
H  H20  1  0.07089000  0.33870000  0.33333333  1.0 0.1686126954
H  H21  1  0.05979000  0.40907000  0.39886000  1.0 0.1311303108
H  H22  1  0.15425000  0.42161000  0.38067000  1.0 0.1523593581
H  H23  1  0.88935000  0.56952000  0.40179000  1.0 0.1311303108
H  H24  1  0.79927000  0.56752000  0.42394000  1.0 0.1205340151
H  H25  1  0.57363000  0.82824000  0.38682000  1.0 0.108299627
H  H26  1  0.56501000  0.81209000  0.26315000  1.0 0.1000338822
H  H27  1  0.59969000  0.90757000  0.30846000  1.0 0.108299627
H  H28  1  0.33030000  0.82748000  0.68070000  1.0 0.1000338822
H  H29  1  0.71649000  0.12767000  0.58097000  1.0 0.1205340151
H  H30  1  0.29386000  0.92500000  0.68807000  1.0 0.1205340151
H  H31  1  0.21265000  0.83023000  0.66899000  1.0 0.1444627411
H  H32  1  0.26781000  0.92911000  0.33333333  1.0 0.1686126954
H  H33  1  0.34928000  0.94021000  0.39886000  1.0 0.1311303108
H  H34  1  0.26736000  0.84575000  0.38067000  1.0 0.1523593581
H  H35  1  0.68017000  0.11065000  0.40179000  1.0 0.1311303108
H  H36  1  0.76825000  0.20073000  0.42394000  1.0 0.1205340151
H  H37  1  0.74539000  0.57363000  0.88682000  1.0 0.108299627
H  H38  1  0.75292000  0.56501000  0.76315000  1.0 0.1000338822
H  H39  1  0.69212000  0.59969000  0.80846000  1.0 0.108299627
H  H40  1  0.50282000  0.33030000  0.18070000  1.0 0.1000338822
H  H41  1  0.58882000  0.71649000  0.08097000  1.0 0.1205340151
H  H42  1  0.36886000  0.29386000  0.18807000  1.0 0.1205340151
H  H43  1  0.38242000  0.21265000  0.16899000  1.0 0.1444627411
H  H44  1  0.33870000  0.26781000  0.83333000  1.0 0.1686126954
H  H45  1  0.40907000  0.34928000  0.89886000  1.0 0.1311303108
H  H46  1  0.42161000  0.26736000  0.88067000  1.0 0.1523593581
H  H47  1  0.56952000  0.68017000  0.90179000  1.0 0.1311303108
H  H48  1  0.56752000  0.76825000  0.92394000  1.0 0.1205340151
H  H49  1  0.82824000  0.25461000  0.88682000  1.0 0.108299627
H  H50  1  0.81209000  0.24708000  0.76315000  1.0 0.1000338822
H  H51  1  0.90757000  0.30788000  0.80846000  1.0 0.108299627
H  H52  1  0.82748000  0.49718000  0.18070000  1.0 0.1000338822
H  H53  1  0.12767000  0.41118000  0.08097000  1.0 0.1205340151
H  H54  1  0.92500000  0.63114000  0.18807000  1.0 0.1205340151
H  H55  1  0.83023000  0.61758000  0.16899000  1.0 0.1444627411
H  H56  1  0.92911000  0.66130000  0.83333000  1.0 0.1686126954
H  H57  1  0.94021000  0.59093000  0.89886000  1.0 0.1311303108
H  H58  1  0.84575000  0.57839000  0.88067000  1.0 0.1523593581
H  H59  1  0.11065000  0.43048000  0.90179000  1.0 0.1311303108
H  H60  1  0.20073000  0.43248000  0.92394000  1.0 0.1205340151
H  H61  1  0.42637000  0.17176000  0.88682000  1.0 0.108299627
H  H62  1  0.43499000  0.18791000  0.76315000  1.0 0.1000338822
H  H63  1  0.40031000  0.09243000  0.80846000  1.0 0.108299627
H  H64  1  0.66970000  0.17252000  0.18070000  1.0 0.1000338822
H  H65  1  0.28351000  0.87233000  0.08097000  1.0 0.1205340151
H  H66  1  0.70614000  0.07500000  0.18807000  1.0 0.1205340151
H  H67  1  0.78735000  0.16977000  0.16899000  1.0 0.1444627411
H  H68  1  0.73219000  0.07089000  0.83333000  1.0 0.1686126954
H  H69  1  0.65072000  0.05979000  0.89886000  1.0 0.1311303108
H  H70  1  0.73264000  0.15425000  0.88067000  1.0 0.1523593581
H  H71  1  0.31983000  0.88935000  0.90179000  1.0 0.1311303108
H  H72  1  0.23175000  0.79927000  0.92394000  1.0 0.1205340151
Pd  Pd1  1  0.71300000  0.66480000  0.55100000  1.0 0.227604063
Pd  Pd2  1  0.60600000  0.46000000  0.29200000  1.0 0.227604063
Pd  Pd3  1  0.95180000  0.28700000  0.55100000  1.0 0.2194191999
Pd  Pd4  1  0.85400000  0.39400000  0.29200000  1.0 0.227604063
Pd  Pd5  1  0.33520000  0.04820000  0.55100000  1.0 0.2194191999
Pd  Pd6  1  0.54000000  0.14600000  0.29200000  1.0 0.2390822424
Pd  Pd7  1  0.28700000  0.33520000  0.05100000  1.0 0.2194191999
Pd  Pd8  1  0.39400000  0.54000000  0.79200000  1.0 0.2390822424
Pd  Pd9  1  0.04820000  0.71300000  0.05100000  1.0 0.2194191999
Pd  Pd10  1  0.14600000  0.60600000  0.79200000  1.0 0.2390822424
Pd  Pd11  1  0.66480000  0.95180000  0.05100000  1.0 0.2194191999
Pd  Pd12  1  0.46000000  0.85400000  0.79200000  1.0 0.2390822424
C  C1  1  0.28610000  0.44040000  0.32030000  1.0 -0.2691461254
C  C2  1  0.47410000  0.45900000  0.54350000  1.0 0.3122591552
C  C3  1  0.51660000  0.54360000  0.60600000  1.0 0.3122591552
C  C4  1  0.48990000  0.72610000  0.53950000  1.0 0.55786733
C  C5  1  0.52890000  0.68070000  0.61280000  1.0 -0.00200218
C  C6  1  0.51890000  0.28490000  0.61450000  1.0 0.5355918264
C  C7  1  0.47160000  0.31440000  0.55270000  1.0 -0.025408483
C  C8  1  0.61180000  0.73430000  0.63640000  1.0 -0.2691461254
C  C9  1  0.62100000  0.71400000  0.39200000  1.0 -0.5395654026
C  C10  1  0.46260000  0.29500000  0.43700000  1.0 -0.2624801778
C  C11  1  0.15430000  0.71390000  0.32030000  1.0 -0.2691461254
C  C12  1  0.98490000  0.52590000  0.54350000  1.0 0.3122591552
C  C13  1  0.02700000  0.48340000  0.60600000  1.0 0.3122591552
C  C14  1  0.23620000  0.51010000  0.53950000  1.0 0.55786733
C  C15  1  0.15180000  0.47110000  0.61280000  1.0 -0.00200218
C  C16  1  0.76600000  0.48110000  0.61450000  1.0 0.5355918264
C  C17  1  0.84280000  0.52840000  0.55270000  1.0 -0.025408483
C  C18  1  0.12250000  0.38820000  0.63640000  1.0 -0.2691461254
C  C19  1  0.09300000  0.37900000  0.39200000  1.0 -0.5395654026
C  C20  1  0.83240000  0.53740000  0.43700000  1.0 -0.2624801778
C  C21  1  0.55960000  0.84570000  0.32030000  1.0 -0.2691461254
C  C22  1  0.54100000  0.01510000  0.54350000  1.0 0.3122591552
C  C23  1  0.45640000  0.97300000  0.60600000  1.0 0.3122591552
C  C24  1  0.27390000  0.76380000  0.53950000  1.0 0.55786733
C  C25  1  0.31930000  0.84820000  0.61280000  1.0 -0.00200218
C  C26  1  0.71510000  0.23400000  0.61450000  1.0 0.5347881532
C  C27  1  0.68560000  0.15720000  0.55270000  1.0 -0.0249478397
C  C28  1  0.26570000  0.87750000  0.63640000  1.0 -0.2691461254
C  C29  1  0.28600000  0.90700000  0.39200000  1.0 -0.5395654026
C  C30  1  0.70500000  0.16760000  0.43700000  1.0 -0.2624801778
C  C31  1  0.71390000  0.55960000  0.82030000  1.0 -0.2691461254
C  C32  1  0.52590000  0.54100000  0.04350000  1.0 0.3122591552
C  C33  1  0.48340000  0.45640000  0.10600000  1.0 0.3122591552
C  C34  1  0.51010000  0.27390000  0.03950000  1.0 0.55786733
C  C35  1  0.47110000  0.31930000  0.11280000  1.0 -0.00200218
C  C36  1  0.48110000  0.71510000  0.11450000  1.0 0.5355918264
C  C37  1  0.52840000  0.68560000  0.05270000  1.0 -0.025408483
C  C38  1  0.38820000  0.26570000  0.13640000  1.0 -0.2691461254
C  C39  1  0.37900000  0.28600000  0.89200000  1.0 -0.5395654026
C  C40  1  0.53740000  0.70500000  0.93700000  1.0 -0.2624801778
C  C41  1  0.84570000  0.28610000  0.82030000  1.0 -0.2691461254
C  C42  1  0.01510000  0.47410000  0.04350000  1.0 0.3122591552
C  C43  1  0.97300000  0.51660000  0.10600000  1.0 0.3122591552
C  C44  1  0.76380000  0.48990000  0.03950000  1.0 0.55786733
C  C45  1  0.84820000  0.52890000  0.11280000  1.0 -0.00200218
C  C46  1  0.23400000  0.51890000  0.11450000  1.0 0.5355918264
C  C47  1  0.15720000  0.47160000  0.05270000  1.0 -0.025408483
C  C48  1  0.87750000  0.61180000  0.13640000  1.0 -0.2691461254
C  C49  1  0.90700000  0.62100000  0.89200000  1.0 -0.5395654026
C  C50  1  0.16760000  0.46260000  0.93700000  1.0 -0.2624801778
C  C51  1  0.44040000  0.15430000  0.82030000  1.0 -0.2691461254
C  C52  1  0.45900000  0.98490000  0.04350000  1.0 0.3122591552
C  C53  1  0.54360000  0.02700000  0.10600000  1.0 0.3122591552
C  C54  1  0.72610000  0.23620000  0.03950000  1.0 0.55786733
C  C55  1  0.68070000  0.15180000  0.11280000  1.0 -0.00200218
C  C56  1  0.28490000  0.76600000  0.11450000  1.0 0.5355918264
C  C57  1  0.31440000  0.84280000  0.05270000  1.0 -0.025408483
C  C58  1  0.73430000  0.12250000  0.13640000  1.0 -0.2691461254
C  C59  1  0.71400000  0.09300000  0.89200000  1.0 -0.5395654026
C  C60  1  0.29500000  0.83240000  0.93700000  1.0 -0.2624801778
C  C61  1  0.66666667  0.33333333  0.45500000  1.0 -0.1547749573
C  C62  1  0.33333333  0.66666667  0.95500000  1.0 -0.1565689677
S  S1  1  0.68370000  0.76540000  0.51810000  1.0 0.3021572249
S  S2  1  0.58310000  0.35110000  0.38900000  1.0 0.0106885397
S  S3  1  0.08170000  0.31630000  0.51810000  1.0 0.3122591552
S  S4  1  0.76800000  0.41690000  0.38900000  1.0 0.0106885397
S  S5  1  0.23460000  0.91830000  0.51810000  1.0 0.3021572249
S  S6  1  0.64890000  0.23200000  0.38900000  1.0 0.0106885397
S  S7  1  0.31630000  0.23460000  0.01810000  1.0 0.3122591552
S  S8  1  0.41690000  0.64890000  0.88900000  1.0 0.0106885397
S  S9  1  0.91830000  0.68370000  0.01810000  1.0 0.3021572249
S  S10  1  0.23200000  0.58310000  0.88900000  1.0 0.0106885397
S  S11  1  0.76540000  0.08170000  0.01810000  1.0 0.3122591552
S  S12  1  0.35110000  0.76800000  0.88900000  1.0 0.0106885397
N  N1  1  0.50860000  0.40710000  0.58480000  1.0 -0.5119447791
N  N2  1  0.50390000  0.59900000  0.57300000  1.0 -0.3843211019
N  N3  1  0.89850000  0.49140000  0.58480000  1.0 -0.5119447791
N  N4  1  0.09510000  0.49610000  0.57300000  1.0 -0.3843211019
N  N5  1  0.59290000  0.10150000  0.58480000  1.0 -0.5119447791
N  N6  1  0.40100000  0.90490000  0.57300000  1.0 -0.3843211019
N  N7  1  0.49140000  0.59290000  0.08480000  1.0 -0.5119447791
N  N8  1  0.49610000  0.40100000  0.07300000  1.0 -0.3843211019
N  N9  1  0.10150000  0.50860000  0.08480000  1.0 -0.5119447791
N  N10  1  0.90490000  0.50390000  0.07300000  1.0 -0.3843211019
N  N11  1  0.40710000  0.89850000  0.08480000  1.0 -0.5119447791
N  N12  1  0.59900000  0.09510000  0.07300000  1.0 -0.3843211019
O  O1  1  0.35920000  0.52950000  0.32410000  1.0 -0.5901719911
O  O2  1  0.42530000  0.44680000  0.46750000  1.0 -0.4099387014
O  O3  1  0.56990000  0.55230000  0.67880000  1.0 -0.4807029077
O  O4  1  0.56210000  0.32710000  0.69310000  1.0 -0.5639537835
O  O5  1  0.49650000  0.20430000  0.59340000  1.0 -0.5805230919
O  O6  1  0.50260000  0.79710000  0.55370000  1.0 -0.4807029077
O  O7  1  0.44150000  0.67750000  0.46560000  1.0 -0.5901719911
O  O8  1  0.17030000  0.64080000  0.32410000  1.0 -0.5901719911
O  O9  1  0.02150000  0.57470000  0.46750000  1.0 -0.4099387014
O  O10  1  0.98240000  0.43010000  0.67880000  1.0 -0.4807029077
O  O11  1  0.76500000  0.43790000  0.69310000  1.0 -0.5639537835
O  O12  1  0.70780000  0.50350000  0.59340000  1.0 -0.5805230919
O  O13  1  0.29450000  0.49740000  0.55370000  1.0 -0.4807029077
O  O14  1  0.23600000  0.55850000  0.46560000  1.0 -0.5901719911
O  O15  1  0.47050000  0.82970000  0.32410000  1.0 -0.5901719911
O  O16  1  0.55320000  0.97850000  0.46750000  1.0 -0.4099387014
O  O17  1  0.44770000  0.01760000  0.67880000  1.0 -0.4807029077
O  O18  1  0.67290000  0.23500000  0.69310000  1.0 -0.5639537835
O  O19  1  0.79570000  0.29220000  0.59340000  1.0 -0.5805230919
O  O20  1  0.20290000  0.70550000  0.55370000  1.0 -0.4807029077
O  O21  1  0.32250000  0.76400000  0.46560000  1.0 -0.5901719911
O  O22  1  0.64080000  0.47050000  0.82410000  1.0 -0.5901719911
O  O23  1  0.57470000  0.55320000  0.96750000  1.0 -0.4099387014
O  O24  1  0.43010000  0.44770000  0.17880000  1.0 -0.4807029077
O  O25  1  0.43790000  0.67290000  0.19310000  1.0 -0.5651945853
O  O26  1  0.50350000  0.79570000  0.09340000  1.0 -0.5805230919
O  O27  1  0.49740000  0.20290000  0.05370000  1.0 -0.4807029077
O  O28  1  0.55850000  0.32250000  0.96560000  1.0 -0.5901719911
O  O29  1  0.82970000  0.35920000  0.82410000  1.0 -0.5901719911
O  O30  1  0.97850000  0.42530000  0.96750000  1.0 -0.4099387014
O  O31  1  0.01760000  0.56990000  0.17880000  1.0 -0.4807029077
O  O32  1  0.23500000  0.56210000  0.19310000  1.0 -0.5639537835
O  O33  1  0.29220000  0.49650000  0.09340000  1.0 -0.5805230919
O  O34  1  0.70550000  0.50260000  0.05370000  1.0 -0.4807029077
O  O35  1  0.76400000  0.44150000  0.96560000  1.0 -0.5901719911
O  O36  1  0.52950000  0.17030000  0.82410000  1.0 -0.5901719911
O  O37  1  0.44680000  0.02150000  0.96750000  1.0 -0.4099387014
O  O38  1  0.55230000  0.98240000  0.17880000  1.0 -0.4807029077
O  O39  1  0.32710000  0.76500000  0.19310000  1.0 -0.5639537835
O  O40  1  0.20430000  0.70780000  0.09340000  1.0 -0.5805230919
O  O41  1  0.79710000  0.29450000  0.05370000  1.0 -0.4807029077
O  O42  1  0.67750000  0.23600000  0.96560000  1.0 -0.5901719911
