# DDEC6 charges by PACMAN v1.1 (https://github.com/mtap-research/PACMAN-charge/)
data_ILOWAI_ASR_pacman
_symmetry_space_group_name_H-M   'P 1'
_cell_length_a   13.55100000
_cell_length_b   13.55100000
_cell_length_c   8.65700000
_cell_angle_alpha   83.36710000
_cell_angle_beta   96.63290000
_cell_angle_gamma   86.11850000
_symmetry_Int_Tables_number   1
_chemical_formula_structural   NiH24(C13N4)2
_chemical_formula_sum   'Ni2 H48 C52 N16'
_cell_volume   1563.17293219
_cell_formula_units_Z   2
loop_
 _symmetry_equiv_pos_site_id
 _symmetry_equiv_pos_as_xyz
  1  'x, y, z'
loop_
 _atom_site_type_symbol
 _atom_site_label
 _atom_site_symmetry_multiplicity
 _atom_site_fract_x
 _atom_site_fract_y
 _atom_site_fract_z
 _atom_site_occupancy
 _atom_site_charge
Ni  Ni1  1  0.17885000  0.17885000  0.75000000  1.0 0.6106685076
Ni  Ni2  1  0.82115000  0.82115000  0.25000000  1.0 0.6106685076
H  H1  1  0.67100000  0.27380000  0.62960000  1.0 0.1117513405
H  H2  1  0.27380000  0.67100000  0.87040000  1.0 0.1117513405
H  H3  1  0.67320000  0.16400000  0.58940000  1.0 0.1117513405
H  H4  1  0.16400000  0.67320000  0.91060000  1.0 0.1117513405
H  H5  1  0.36600000  0.10600000  0.98740000  1.0 0.0995570445
H  H6  1  0.10600000  0.36600000  0.51260000  1.0 0.0995570445
H  H7  1  0.67790000  0.21930000  0.88290000  1.0 0.1185890894
H  H8  1  0.21930000  0.67790000  0.61710000  1.0 0.1185890894
H  H9  1  0.68410000  0.10910000  0.84610000  1.0 0.127719978
H  H10  1  0.10910000  0.68410000  0.65390000  1.0 0.127719978
H  H11  1  0.50780000  0.25600000  0.58020000  1.0 0.127719978
H  H12  1  0.25600000  0.50780000  0.91980000  1.0 0.127719978
H  H13  1  0.00060000  0.30740000  0.82400000  1.0 0.0919072956
H  H14  1  0.30740000  0.00060000  0.67600000  1.0 0.0919072956
H  H15  1  0.83310000  0.07670000  0.58140000  1.0 0.1185890894
H  H16  1  0.07670000  0.83310000  0.91860000  1.0 0.1185890894
H  H17  1  0.33840000  0.25240000  0.57020000  1.0 0.0995570445
H  H18  1  0.25240000  0.33840000  0.92980000  1.0 0.0995570445
H  H19  1  0.00220000  0.07420000  0.60130000  1.0 0.0995570445
H  H20  1  0.07420000  0.00220000  0.89870000  1.0 0.0995570445
H  H21  1  0.53670000  0.10330000  0.00580000  1.0 0.127719978
H  H22  1  0.10330000  0.53670000  0.49420000  1.0 0.127719978
H  H23  1  0.82800000  0.32240000  0.79230000  1.0 0.127719978
H  H24  1  0.32240000  0.82800000  0.70770000  1.0 0.127719978
H  H25  1  0.32900000  0.72620000  0.37040000  1.0 0.1117513405
H  H26  1  0.72620000  0.32900000  0.12960000  1.0 0.1117513405
H  H27  1  0.32680000  0.83600000  0.41060000  1.0 0.1117513405
H  H28  1  0.83600000  0.32680000  0.08940000  1.0 0.1117513405
H  H29  1  0.63400000  0.89400000  0.01260000  1.0 0.0995570445
H  H30  1  0.89400000  0.63400000  0.48740000  1.0 0.0995570445
H  H31  1  0.32210000  0.78070000  0.11710000  1.0 0.1185890894
H  H32  1  0.78070000  0.32210000  0.38290000  1.0 0.1185890894
H  H33  1  0.31590000  0.89090000  0.15390000  1.0 0.127719978
H  H34  1  0.89090000  0.31590000  0.34610000  1.0 0.127719978
H  H35  1  0.49220000  0.74400000  0.41980000  1.0 0.127719978
H  H36  1  0.74400000  0.49220000  0.08020000  1.0 0.127719978
H  H37  1  0.99940000  0.69260000  0.17600000  1.0 0.0919072956
H  H38  1  0.69260000  0.99940000  0.32400000  1.0 0.0919072956
H  H39  1  0.16690000  0.92330000  0.41860000  1.0 0.1185890894
H  H40  1  0.92330000  0.16690000  0.08140000  1.0 0.1185890894
H  H41  1  0.66160000  0.74760000  0.42980000  1.0 0.0995570445
H  H42  1  0.74760000  0.66160000  0.07020000  1.0 0.0995570445
H  H43  1  0.99780000  0.92580000  0.39870000  1.0 0.0995570445
H  H44  1  0.92580000  0.99780000  0.10130000  1.0 0.0995570445
H  H45  1  0.46330000  0.89670000  0.99420000  1.0 0.127719978
H  H46  1  0.89670000  0.46330000  0.50580000  1.0 0.127719978
H  H47  1  0.17200000  0.67760000  0.20770000  1.0 0.127719978
H  H48  1  0.67760000  0.17200000  0.29230000  1.0 0.127719978
C  C1  1  0.69620000  0.20560000  0.66790000  1.0 -0.2415638853
C  C2  1  0.20560000  0.69620000  0.83210000  1.0 -0.2415638853
C  C3  1  0.81030000  0.19910000  0.68660000  1.0 0.1466229979
C  C4  1  0.19910000  0.81030000  0.81340000  1.0 0.1466229979
C  C5  1  0.54250000  0.17710000  0.79450000  1.0 0.1584568445
C  C6  1  0.17710000  0.54250000  0.70550000  1.0 0.1584568445
C  C7  1  0.39470000  0.13550000  0.90300000  1.0 0.0699532043
C  C8  1  0.13550000  0.39470000  0.59700000  1.0 0.0699532043
C  C9  1  0.65600000  0.17620000  0.80610000  1.0 -0.2415638853
C  C10  1  0.17620000  0.65600000  0.69390000  1.0 -0.2415638853
C  C11  1  0.48070000  0.22370000  0.66410000  1.0 -0.2111998636
C  C12  1  0.22370000  0.48070000  0.83590000  1.0 -0.2111998636
C  C13  1  0.96630000  0.26110000  0.77220000  1.0 0.0699532043
C  C14  1  0.26110000  0.96630000  0.72780000  1.0 0.0699532043
C  C15  1  0.86520000  0.12560000  0.62980000  1.0 -0.2111998636
C  C16  1  0.12560000  0.86520000  0.87020000  1.0 -0.2111998636
C  C17  1  0.37870000  0.22150000  0.65930000  1.0 0.080018026
C  C18  1  0.22150000  0.37870000  0.84070000  1.0 0.080018026
C  C19  1  0.96720000  0.12360000  0.64390000  1.0 0.04800763
C  C20  1  0.12360000  0.96720000  0.85610000  1.0 0.04800763
C  C21  1  0.49790000  0.13390000  0.91510000  1.0 -0.2209387317
C  C22  1  0.13390000  0.49790000  0.58490000  1.0 -0.2209387317
C  C23  1  0.15710000  0.15750000  0.38300000  1.0 0.2931887481
C  C24  1  0.15750000  0.15710000  0.11700000  1.0 0.2931887481
C  C25  1  0.86200000  0.26960000  0.75610000  1.0 -0.2209387317
C  C26  1  0.26960000  0.86200000  0.74390000  1.0 -0.2209387317
C  C27  1  0.30380000  0.79440000  0.33210000  1.0 -0.2415638853
C  C28  1  0.79440000  0.30380000  0.16790000  1.0 -0.2415638853
C  C29  1  0.18970000  0.80090000  0.31340000  1.0 0.1466229979
C  C30  1  0.80090000  0.18970000  0.18660000  1.0 0.1466229979
C  C31  1  0.45750000  0.82290000  0.20550000  1.0 0.1584568445
C  C32  1  0.82290000  0.45750000  0.29450000  1.0 0.1584568445
C  C33  1  0.60530000  0.86450000  0.09700000  1.0 0.0699532043
C  C34  1  0.86450000  0.60530000  0.40300000  1.0 0.0699532043
C  C35  1  0.34400000  0.82380000  0.19390000  1.0 -0.2415638853
C  C36  1  0.82380000  0.34400000  0.30610000  1.0 -0.2415638853
C  C37  1  0.51930000  0.77630000  0.33590000  1.0 -0.2111998636
C  C38  1  0.77630000  0.51930000  0.16410000  1.0 -0.2111998636
C  C39  1  0.03370000  0.73890000  0.22780000  1.0 0.0699532043
C  C40  1  0.73890000  0.03370000  0.27220000  1.0 0.0699532043
C  C41  1  0.13480000  0.87440000  0.37020000  1.0 -0.2111998636
C  C42  1  0.87440000  0.13480000  0.12980000  1.0 -0.2111998636
C  C43  1  0.62130000  0.77850000  0.34070000  1.0 0.080018026
C  C44  1  0.77850000  0.62130000  0.15930000  1.0 0.080018026
C  C45  1  0.03280000  0.87640000  0.35610000  1.0 0.04800763
C  C46  1  0.87640000  0.03280000  0.14390000  1.0 0.04800763
C  C47  1  0.50210000  0.86610000  0.08490000  1.0 -0.2209387317
C  C48  1  0.86610000  0.50210000  0.41510000  1.0 -0.2209387317
C  C49  1  0.84290000  0.84250000  0.61700000  1.0 0.2931887481
C  C50  1  0.84250000  0.84290000  0.88300000  1.0 0.2931887481
C  C51  1  0.13800000  0.73040000  0.24390000  1.0 -0.2209387317
C  C52  1  0.73040000  0.13800000  0.25610000  1.0 -0.2209387317
N  N1  1  0.33505000  0.17735000  0.77580000  1.0 -0.2111998636
N  N2  1  0.17735000  0.33505000  0.72420000  1.0 -0.2111998636
N  N3  1  0.01820000  0.18940000  0.71600000  1.0 -0.2335266572
N  N4  1  0.18940000  0.01820000  0.78400000  1.0 -0.2335266572
N  N5  1  0.17237000  0.17203000  0.51040000  1.0 -0.5785330113
N  N6  1  0.17203000  0.17237000  0.98960000  1.0 -0.5785330113
N  N7  1  0.15410000  0.11190000  0.26230000  1.0 -0.1620175865
N  N8  1  0.11190000  0.15410000  0.23770000  1.0 -0.1620175865
N  N9  1  0.66495000  0.82265000  0.22420000  1.0 -0.2111998636
N  N10  1  0.82265000  0.66495000  0.27580000  1.0 -0.2111998636
N  N11  1  0.98180000  0.81060000  0.28400000  1.0 -0.2335266572
N  N12  1  0.81060000  0.98180000  0.21600000  1.0 -0.2335266572
N  N13  1  0.82763000  0.82797000  0.48960000  1.0 -0.5785330113
N  N14  1  0.82797000  0.82763000  0.01040000  1.0 -0.5785330113
N  N15  1  0.84590000  0.88810000  0.73770000  1.0 -0.1659857061
N  N16  1  0.88810000  0.84590000  0.76230000  1.0 -0.1620175865
