# DDEC6 charges by PACMAN v1.1 (https://github.com/mtap-research/PACMAN-charge/)
data_ILUFOL_ASR_pacman
_symmetry_space_group_name_H-M   'P 1'
_cell_length_a   15.21960000
_cell_length_b   15.21960000
_cell_length_c   15.47370000
_cell_angle_alpha   90.00000000
_cell_angle_beta   90.00000000
_cell_angle_gamma   120.00000000
_symmetry_Int_Tables_number   1
_chemical_formula_structural   Dy2Co3H18C42(NO4)6
_chemical_formula_sum   'Dy4 Co6 H36 C84 N12 O48'
_cell_volume   3104.06839059
_cell_formula_units_Z   2
loop_
 _symmetry_equiv_pos_site_id
 _symmetry_equiv_pos_as_xyz
  1  'x, y, z'
loop_
 _atom_site_type_symbol
 _atom_site_label
 _atom_site_symmetry_multiplicity
 _atom_site_fract_x
 _atom_site_fract_y
 _atom_site_fract_z
 _atom_site_occupancy
 _atom_site_charge
Dy  Dy1  1  0.33333333  0.66666667  0.25000000  1.0 1.8187292758
Dy  Dy2  1  0.66666667  0.33333333  0.25000000  1.0 1.8187292758
Dy  Dy3  1  0.66666667  0.33333333  0.75000000  1.0 1.8187292758
Dy  Dy4  1  0.33333333  0.66666667  0.75000000  1.0 1.8187292758
Co  Co1  1  0.50000000  0.50000000  0.50000000  1.0 1.0687114937
Co  Co2  1  0.50000000  0.00000000  0.50000000  1.0 1.0687114937
Co  Co3  1  0.00000000  0.50000000  0.50000000  1.0 1.0687114937
Co  Co4  1  0.50000000  0.50000000  0.00000000  1.0 1.0687114937
Co  Co5  1  0.00000000  0.50000000  0.00000000  1.0 1.0687114937
Co  Co6  1  0.50000000  0.00000000  0.00000000  1.0 1.0687114937
H  H1  1  0.23390000  0.28840000  0.34490000  1.0 0.1355655435
H  H2  1  0.71160000  0.94550000  0.34490000  1.0 0.1355655435
H  H3  1  0.05450000  0.76610000  0.34490000  1.0 0.1355655435
H  H4  1  0.76610000  0.71160000  0.34490000  1.0 0.1355655435
H  H5  1  0.28840000  0.05450000  0.34490000  1.0 0.1355655435
H  H6  1  0.94550000  0.23390000  0.34490000  1.0 0.1355655435
H  H7  1  0.28840000  0.23390000  0.15510000  1.0 0.1355655435
H  H8  1  0.94550000  0.71160000  0.15510000  1.0 0.1355655435
H  H9  1  0.76610000  0.05450000  0.15510000  1.0 0.1355655435
H  H10  1  0.71160000  0.76610000  0.15510000  1.0 0.1355655435
H  H11  1  0.05450000  0.28840000  0.15510000  1.0 0.1355655435
H  H12  1  0.23390000  0.94550000  0.15510000  1.0 0.1355655435
H  H13  1  0.76610000  0.71160000  0.65510000  1.0 0.1355655435
H  H14  1  0.28840000  0.05450000  0.65510000  1.0 0.1355655435
H  H15  1  0.94550000  0.23390000  0.65510000  1.0 0.1355655435
H  H16  1  0.23390000  0.28840000  0.65510000  1.0 0.1355655435
H  H17  1  0.71160000  0.94550000  0.65510000  1.0 0.1355655435
H  H18  1  0.05450000  0.76610000  0.65510000  1.0 0.1355655435
H  H19  1  0.71160000  0.76610000  0.84490000  1.0 0.1355655435
H  H20  1  0.05450000  0.28840000  0.84490000  1.0 0.1355655435
H  H21  1  0.23390000  0.94550000  0.84490000  1.0 0.1355655435
H  H22  1  0.28840000  0.23390000  0.84490000  1.0 0.1355655435
H  H23  1  0.94550000  0.71160000  0.84490000  1.0 0.1355655435
H  H24  1  0.76610000  0.05450000  0.84490000  1.0 0.1355655435
H  H25  1  0.09950000  0.19900000  0.25000000  1.0 0.1047890204
H  H26  1  0.80100000  0.90050000  0.25000000  1.0 0.1047890204
H  H27  1  0.09950000  0.90050000  0.25000000  1.0 0.1047890204
H  H28  1  0.90050000  0.80100000  0.25000000  1.0 0.1047890204
H  H29  1  0.19900000  0.09950000  0.25000000  1.0 0.1053570676
H  H30  1  0.90050000  0.09950000  0.25000000  1.0 0.1047890204
H  H31  1  0.90050000  0.80100000  0.75000000  1.0 0.1047890204
H  H32  1  0.19900000  0.09950000  0.75000000  1.0 0.1053570676
H  H33  1  0.90050000  0.09950000  0.75000000  1.0 0.1047890204
H  H34  1  0.09950000  0.19900000  0.75000000  1.0 0.1047890204
H  H35  1  0.80100000  0.90050000  0.75000000  1.0 0.1047890204
H  H36  1  0.09950000  0.90050000  0.75000000  1.0 0.1047890204
C  C1  1  0.35470000  0.49270000  0.36080000  1.0 0.5761703742
C  C2  1  0.50730000  0.86200000  0.36080000  1.0 0.5761703742
C  C3  1  0.13800000  0.64530000  0.36080000  1.0 0.5761703742
C  C4  1  0.64530000  0.50730000  0.36080000  1.0 0.5761703742
C  C5  1  0.49270000  0.13800000  0.36080000  1.0 0.5761703742
C  C6  1  0.86200000  0.35470000  0.36080000  1.0 0.5761703742
C  C7  1  0.49270000  0.35470000  0.13920000  1.0 0.5761703742
C  C8  1  0.86200000  0.50730000  0.13920000  1.0 0.5761703742
C  C9  1  0.64530000  0.13800000  0.13920000  1.0 0.5761703742
C  C10  1  0.50730000  0.64530000  0.13920000  1.0 0.5761703742
C  C11  1  0.13800000  0.49270000  0.13920000  1.0 0.5761703742
C  C12  1  0.35470000  0.86200000  0.13920000  1.0 0.5761703742
C  C13  1  0.64530000  0.50730000  0.63920000  1.0 0.5761703742
C  C14  1  0.49270000  0.13800000  0.63920000  1.0 0.5761703742
C  C15  1  0.86200000  0.35470000  0.63920000  1.0 0.5761703742
C  C16  1  0.35470000  0.49270000  0.63920000  1.0 0.5761703742
C  C17  1  0.50730000  0.86200000  0.63920000  1.0 0.5761703742
C  C18  1  0.13800000  0.64530000  0.63920000  1.0 0.5761703742
C  C19  1  0.50730000  0.64530000  0.86080000  1.0 0.5761703742
C  C20  1  0.13800000  0.49270000  0.86080000  1.0 0.5761703742
C  C21  1  0.35470000  0.86200000  0.86080000  1.0 0.5761703742
C  C22  1  0.49270000  0.35470000  0.86080000  1.0 0.5761703742
C  C23  1  0.86200000  0.50730000  0.86080000  1.0 0.5761703742
C  C24  1  0.64530000  0.13800000  0.86080000  1.0 0.5761703742
C  C25  1  0.26610000  0.42740000  0.30360000  1.0 0.1295179458
C  C26  1  0.57260000  0.83870000  0.30360000  1.0 0.1295179458
C  C27  1  0.16130000  0.73390000  0.30360000  1.0 0.1295179458
C  C28  1  0.73390000  0.57260000  0.30360000  1.0 0.1295179458
C  C29  1  0.42740000  0.16130000  0.30360000  1.0 0.1295179458
C  C30  1  0.83870000  0.26610000  0.30360000  1.0 0.1295179458
C  C31  1  0.42740000  0.26610000  0.19640000  1.0 0.1295179458
C  C32  1  0.83870000  0.57260000  0.19640000  1.0 0.1295179458
C  C33  1  0.73390000  0.16130000  0.19640000  1.0 0.1295179458
C  C34  1  0.57260000  0.73390000  0.19640000  1.0 0.1295179458
C  C35  1  0.16130000  0.42740000  0.19640000  1.0 0.1295179458
C  C36  1  0.26610000  0.83870000  0.19640000  1.0 0.1295179458
C  C37  1  0.73390000  0.57260000  0.69640000  1.0 0.1295179458
C  C38  1  0.42740000  0.16130000  0.69640000  1.0 0.1295179458
C  C39  1  0.83870000  0.26610000  0.69640000  1.0 0.1295179458
C  C40  1  0.26610000  0.42740000  0.69640000  1.0 0.1295179458
C  C41  1  0.57260000  0.83870000  0.69640000  1.0 0.1295179458
C  C42  1  0.16130000  0.73390000  0.69640000  1.0 0.1295179458
C  C43  1  0.57260000  0.73390000  0.80360000  1.0 0.1295179458
C  C44  1  0.16130000  0.42740000  0.80360000  1.0 0.1295179458
C  C45  1  0.26610000  0.83870000  0.80360000  1.0 0.1295179458
C  C46  1  0.42740000  0.26610000  0.80360000  1.0 0.1295179458
C  C47  1  0.83870000  0.57260000  0.80360000  1.0 0.1295179458
C  C48  1  0.73390000  0.16130000  0.80360000  1.0 0.1295179458
C  C49  1  0.21480000  0.32260000  0.30620000  1.0 -0.1330405903
C  C50  1  0.67740000  0.89220000  0.30620000  1.0 -0.1330405903
C  C51  1  0.10780000  0.78520000  0.30620000  1.0 -0.1330405903
C  C52  1  0.78520000  0.67740000  0.30620000  1.0 -0.1330405903
C  C53  1  0.32260000  0.10780000  0.30620000  1.0 -0.1330405903
C  C54  1  0.89220000  0.21480000  0.30620000  1.0 -0.1330405903
C  C55  1  0.32260000  0.21480000  0.19380000  1.0 -0.1330405903
C  C56  1  0.89220000  0.67740000  0.19380000  1.0 -0.1330405903
C  C57  1  0.78520000  0.10780000  0.19380000  1.0 -0.1330405903
C  C58  1  0.67740000  0.78520000  0.19380000  1.0 -0.1330405903
C  C59  1  0.10780000  0.32260000  0.19380000  1.0 -0.1330405903
C  C60  1  0.21480000  0.89220000  0.19380000  1.0 -0.1330405903
C  C61  1  0.78520000  0.67740000  0.69380000  1.0 -0.1330405903
C  C62  1  0.32260000  0.10780000  0.69380000  1.0 -0.1330405903
C  C63  1  0.89220000  0.21480000  0.69380000  1.0 -0.1330405903
C  C64  1  0.21480000  0.32260000  0.69380000  1.0 -0.1330405903
C  C65  1  0.67740000  0.89220000  0.69380000  1.0 -0.1330405903
C  C66  1  0.10780000  0.78520000  0.69380000  1.0 -0.1330405903
C  C67  1  0.67740000  0.78520000  0.80620000  1.0 -0.1330405903
C  C68  1  0.10780000  0.32260000  0.80620000  1.0 -0.1330405903
C  C69  1  0.21480000  0.89220000  0.80620000  1.0 -0.1330405903
C  C70  1  0.32260000  0.21480000  0.80620000  1.0 -0.1330405903
C  C71  1  0.89220000  0.67740000  0.80620000  1.0 -0.1330405903
C  C72  1  0.78520000  0.10780000  0.80620000  1.0 -0.1330405903
C  C73  1  0.13475000  0.26950000  0.25000000  1.0 -0.0601104182
C  C74  1  0.73050000  0.86525000  0.25000000  1.0 -0.0601104182
C  C75  1  0.13475000  0.86525000  0.25000000  1.0 -0.0601104182
C  C76  1  0.86525000  0.73050000  0.25000000  1.0 -0.0601104182
C  C77  1  0.26950000  0.13475000  0.25000000  1.0 -0.0601104182
C  C78  1  0.86525000  0.13475000  0.25000000  1.0 -0.0601104182
C  C79  1  0.86525000  0.73050000  0.75000000  1.0 -0.0601104182
C  C80  1  0.26950000  0.13475000  0.75000000  1.0 -0.0601104182
C  C81  1  0.86525000  0.13475000  0.75000000  1.0 -0.0601104182
C  C82  1  0.13475000  0.26950000  0.75000000  1.0 -0.0601104182
C  C83  1  0.73050000  0.86525000  0.75000000  1.0 -0.0601104182
C  C84  1  0.13475000  0.86525000  0.75000000  1.0 -0.0601104182
N  N1  1  0.23940000  0.47880000  0.25000000  1.0 -0.3196809547
N  N2  1  0.52120000  0.76060000  0.25000000  1.0 -0.3196809547
N  N3  1  0.23940000  0.76060000  0.25000000  1.0 -0.3196809547
N  N4  1  0.76060000  0.52120000  0.25000000  1.0 -0.3196809547
N  N5  1  0.47880000  0.23940000  0.25000000  1.0 -0.3196809547
N  N6  1  0.76060000  0.23940000  0.25000000  1.0 -0.3196809547
N  N7  1  0.76060000  0.52120000  0.75000000  1.0 -0.3196809547
N  N8  1  0.47880000  0.23940000  0.75000000  1.0 -0.3196809547
N  N9  1  0.76060000  0.23940000  0.75000000  1.0 -0.3196809547
N  N10  1  0.23940000  0.47880000  0.75000000  1.0 -0.3196809547
N  N11  1  0.52120000  0.76060000  0.75000000  1.0 -0.3196809547
N  N12  1  0.23940000  0.76060000  0.75000000  1.0 -0.3196809547
O  O1  1  0.38710000  0.44870000  0.40750000  1.0 -0.5537772831
O  O2  1  0.55130000  0.93840000  0.40750000  1.0 -0.5537772831
O  O3  1  0.06160000  0.61290000  0.40750000  1.0 -0.5537772831
O  O4  1  0.61290000  0.55130000  0.40750000  1.0 -0.5537772831
O  O5  1  0.44870000  0.06160000  0.40750000  1.0 -0.5537772831
O  O6  1  0.93840000  0.38710000  0.40750000  1.0 -0.5537772831
O  O7  1  0.44870000  0.38710000  0.09250000  1.0 -0.5537772831
O  O8  1  0.93840000  0.55130000  0.09250000  1.0 -0.5537772831
O  O9  1  0.61290000  0.06160000  0.09250000  1.0 -0.5537772831
O  O10  1  0.55130000  0.61290000  0.09250000  1.0 -0.5537772831
O  O11  1  0.06160000  0.44870000  0.09250000  1.0 -0.5537772831
O  O12  1  0.38710000  0.93840000  0.09250000  1.0 -0.5537772831
O  O13  1  0.61290000  0.55130000  0.59250000  1.0 -0.5537772831
O  O14  1  0.44870000  0.06160000  0.59250000  1.0 -0.5537772831
O  O15  1  0.93840000  0.38710000  0.59250000  1.0 -0.5537772831
O  O16  1  0.38710000  0.44870000  0.59250000  1.0 -0.5537772831
O  O17  1  0.55130000  0.93840000  0.59250000  1.0 -0.5537772831
O  O18  1  0.06160000  0.61290000  0.59250000  1.0 -0.5537772831
O  O19  1  0.55130000  0.61290000  0.90750000  1.0 -0.5537772831
O  O20  1  0.06160000  0.44870000  0.90750000  1.0 -0.5537772831
O  O21  1  0.38710000  0.93840000  0.90750000  1.0 -0.5537772831
O  O22  1  0.44870000  0.38710000  0.90750000  1.0 -0.5537772831
O  O23  1  0.93840000  0.55130000  0.90750000  1.0 -0.5537772831
O  O24  1  0.61290000  0.06160000  0.90750000  1.0 -0.5537772831
O  O25  1  0.38880000  0.58780000  0.35662000  1.0 -0.5872815705
O  O26  1  0.41220000  0.80100000  0.35662000  1.0 -0.5872815705
O  O27  1  0.19900000  0.61120000  0.35662000  1.0 -0.5872815705
O  O28  1  0.61120000  0.41220000  0.35662000  1.0 -0.5872815705
O  O29  1  0.58780000  0.19900000  0.35662000  1.0 -0.5872815705
O  O30  1  0.80100000  0.38880000  0.35662000  1.0 -0.5872815705
O  O31  1  0.58780000  0.38880000  0.14338000  1.0 -0.5872815705
O  O32  1  0.80100000  0.41220000  0.14338000  1.0 -0.5872815705
O  O33  1  0.61120000  0.19900000  0.14338000  1.0 -0.5872815705
O  O34  1  0.41220000  0.61120000  0.14338000  1.0 -0.5872815705
O  O35  1  0.19900000  0.58780000  0.14338000  1.0 -0.5872815705
O  O36  1  0.38880000  0.80100000  0.14338000  1.0 -0.5872815705
O  O37  1  0.61120000  0.41220000  0.64338000  1.0 -0.5872815705
O  O38  1  0.58780000  0.19900000  0.64338000  1.0 -0.5872815705
O  O39  1  0.80100000  0.38880000  0.64338000  1.0 -0.5872815705
O  O40  1  0.38880000  0.58780000  0.64338000  1.0 -0.5872815705
O  O41  1  0.41220000  0.80100000  0.64338000  1.0 -0.5872815705
O  O42  1  0.19900000  0.61120000  0.64338000  1.0 -0.5872815705
O  O43  1  0.41220000  0.61120000  0.85662000  1.0 -0.5872815705
O  O44  1  0.19900000  0.58780000  0.85662000  1.0 -0.5872815705
O  O45  1  0.38880000  0.80100000  0.85662000  1.0 -0.5872815705
O  O46  1  0.58780000  0.38880000  0.85662000  1.0 -0.5872815705
O  O47  1  0.80100000  0.41220000  0.85662000  1.0 -0.5872815705
O  O48  1  0.61120000  0.19900000  0.85662000  1.0 -0.5872815705
