# DDEC6 charges by PACMAN v1.1 (https://github.com/mtap-research/PACMAN-charge/)
data_ILUFIF_ASR_pacman
_symmetry_space_group_name_H-M   'P 1'
_cell_length_a   15.28060000
_cell_length_b   15.28060000
_cell_length_c   15.39300000
_cell_angle_alpha   90.00000000
_cell_angle_beta   90.00000000
_cell_angle_gamma   120.00000000
_symmetry_Int_Tables_number   1
_chemical_formula_structural   Eu2Co3H18C42(NO4)6
_chemical_formula_sum   'Eu4 Co6 H36 C84 N12 O48'
_cell_volume   3112.68172425
_cell_formula_units_Z   2
loop_
 _symmetry_equiv_pos_site_id
 _symmetry_equiv_pos_as_xyz
  1  'x, y, z'
loop_
 _atom_site_type_symbol
 _atom_site_label
 _atom_site_symmetry_multiplicity
 _atom_site_fract_x
 _atom_site_fract_y
 _atom_site_fract_z
 _atom_site_occupancy
 _atom_site_charge
Eu  Eu1  1  0.33333333  0.66666667  0.25000000  1.0 1.8597733941
Eu  Eu2  1  0.66666667  0.33333333  0.25000000  1.0 1.8597733941
Eu  Eu3  1  0.66666667  0.33333333  0.75000000  1.0 1.8597733941
Eu  Eu4  1  0.33333333  0.66666667  0.75000000  1.0 1.8597733941
Co  Co1  1  0.50000000  0.00000000  0.00000000  1.0 1.0581288701
Co  Co2  1  0.00000000  0.50000000  0.00000000  1.0 1.0581288701
Co  Co3  1  0.50000000  0.50000000  0.00000000  1.0 1.0581288701
Co  Co4  1  0.00000000  0.50000000  0.50000000  1.0 1.0581288701
Co  Co5  1  0.50000000  0.00000000  0.50000000  1.0 1.0581288701
Co  Co6  1  0.50000000  0.50000000  0.50000000  1.0 1.0581288701
H  H1  1  0.23380000  0.94610000  0.15460000  1.0 0.1360516291
H  H2  1  0.05390000  0.28770000  0.15460000  1.0 0.1360516291
H  H3  1  0.71230000  0.76620000  0.15460000  1.0 0.1360516291
H  H4  1  0.76620000  0.05390000  0.15460000  1.0 0.1360516291
H  H5  1  0.94610000  0.71230000  0.15460000  1.0 0.1360516291
H  H6  1  0.28770000  0.23380000  0.15460000  1.0 0.1360516291
H  H7  1  0.94610000  0.23380000  0.34540000  1.0 0.1360516291
H  H8  1  0.28770000  0.05390000  0.34540000  1.0 0.1360516291
H  H9  1  0.76620000  0.71230000  0.34540000  1.0 0.1360516291
H  H10  1  0.05390000  0.76620000  0.34540000  1.0 0.1360516291
H  H11  1  0.71230000  0.94610000  0.34540000  1.0 0.1360516291
H  H12  1  0.23380000  0.28770000  0.34540000  1.0 0.1360516291
H  H13  1  0.76620000  0.05390000  0.84540000  1.0 0.1360516291
H  H14  1  0.94610000  0.71230000  0.84540000  1.0 0.1360516291
H  H15  1  0.28770000  0.23380000  0.84540000  1.0 0.1360516291
H  H16  1  0.23380000  0.94610000  0.84540000  1.0 0.1360516291
H  H17  1  0.05390000  0.28770000  0.84540000  1.0 0.1360516291
H  H18  1  0.71230000  0.76620000  0.84540000  1.0 0.1360516291
H  H19  1  0.05390000  0.76620000  0.65460000  1.0 0.1360516291
H  H20  1  0.71230000  0.94610000  0.65460000  1.0 0.1360516291
H  H21  1  0.23380000  0.28770000  0.65460000  1.0 0.1360516291
H  H22  1  0.94610000  0.23380000  0.65460000  1.0 0.1360516291
H  H23  1  0.28770000  0.05390000  0.65460000  1.0 0.1360516291
H  H24  1  0.76620000  0.71230000  0.65460000  1.0 0.1360516291
H  H25  1  0.09960000  0.90040000  0.25000000  1.0 0.106406581
H  H26  1  0.09960000  0.19920000  0.25000000  1.0 0.106406581
H  H27  1  0.80080000  0.90040000  0.25000000  1.0 0.106406581
H  H28  1  0.90040000  0.09960000  0.25000000  1.0 0.106406581
H  H29  1  0.90040000  0.80080000  0.25000000  1.0 0.106406581
H  H30  1  0.19920000  0.09960000  0.25000000  1.0 0.106406581
H  H31  1  0.90040000  0.09960000  0.75000000  1.0 0.106406581
H  H32  1  0.90040000  0.80080000  0.75000000  1.0 0.106406581
H  H33  1  0.19920000  0.09960000  0.75000000  1.0 0.106406581
H  H34  1  0.09960000  0.90040000  0.75000000  1.0 0.106406581
H  H35  1  0.09960000  0.19920000  0.75000000  1.0 0.106406581
H  H36  1  0.80080000  0.90040000  0.75000000  1.0 0.106406581
C  C1  1  0.35390000  0.86350000  0.13850000  1.0 0.5778728094
C  C2  1  0.13650000  0.49040000  0.13850000  1.0 0.5778728094
C  C3  1  0.50960000  0.64610000  0.13850000  1.0 0.5778728094
C  C4  1  0.64610000  0.13650000  0.13850000  1.0 0.5778728094
C  C5  1  0.86350000  0.50960000  0.13850000  1.0 0.5778728094
C  C6  1  0.49040000  0.35390000  0.13850000  1.0 0.5778728094
C  C7  1  0.86350000  0.35390000  0.36150000  1.0 0.5778728094
C  C8  1  0.49040000  0.13650000  0.36150000  1.0 0.5778728094
C  C9  1  0.64610000  0.50960000  0.36150000  1.0 0.5778728094
C  C10  1  0.13650000  0.64610000  0.36150000  1.0 0.5778728094
C  C11  1  0.50960000  0.86350000  0.36150000  1.0 0.5778728094
C  C12  1  0.35390000  0.49040000  0.36150000  1.0 0.5778728094
C  C13  1  0.64610000  0.13650000  0.86150000  1.0 0.5778728094
C  C14  1  0.86350000  0.50960000  0.86150000  1.0 0.5778728094
C  C15  1  0.49040000  0.35390000  0.86150000  1.0 0.5778728094
C  C16  1  0.35390000  0.86350000  0.86150000  1.0 0.5778728094
C  C17  1  0.13650000  0.49040000  0.86150000  1.0 0.5778728094
C  C18  1  0.50960000  0.64610000  0.86150000  1.0 0.5778728094
C  C19  1  0.13650000  0.64610000  0.63850000  1.0 0.5778728094
C  C20  1  0.50960000  0.86350000  0.63850000  1.0 0.5778728094
C  C21  1  0.35390000  0.49040000  0.63850000  1.0 0.5778728094
C  C22  1  0.86350000  0.35390000  0.63850000  1.0 0.5778728094
C  C23  1  0.49040000  0.13650000  0.63850000  1.0 0.5778728094
C  C24  1  0.64610000  0.50960000  0.63850000  1.0 0.5778728094
C  C25  1  0.26490000  0.83960000  0.19600000  1.0 0.128373106
C  C26  1  0.16040000  0.42530000  0.19600000  1.0 0.128373106
C  C27  1  0.57470000  0.73510000  0.19600000  1.0 0.128373106
C  C28  1  0.73510000  0.16040000  0.19600000  1.0 0.128373106
C  C29  1  0.83960000  0.57470000  0.19600000  1.0 0.128373106
C  C30  1  0.42530000  0.26490000  0.19600000  1.0 0.128373106
C  C31  1  0.83960000  0.26490000  0.30400000  1.0 0.128373106
C  C32  1  0.42530000  0.16040000  0.30400000  1.0 0.128373106
C  C33  1  0.73510000  0.57470000  0.30400000  1.0 0.128373106
C  C34  1  0.16040000  0.73510000  0.30400000  1.0 0.128373106
C  C35  1  0.57470000  0.83960000  0.30400000  1.0 0.128373106
C  C36  1  0.26490000  0.42530000  0.30400000  1.0 0.128373106
C  C37  1  0.73510000  0.16040000  0.80400000  1.0 0.128373106
C  C38  1  0.83960000  0.57470000  0.80400000  1.0 0.128373106
C  C39  1  0.42530000  0.26490000  0.80400000  1.0 0.128373106
C  C40  1  0.26490000  0.83960000  0.80400000  1.0 0.128373106
C  C41  1  0.16040000  0.42530000  0.80400000  1.0 0.128373106
C  C42  1  0.57470000  0.73510000  0.80400000  1.0 0.128373106
C  C43  1  0.16040000  0.73510000  0.69600000  1.0 0.128373106
C  C44  1  0.57470000  0.83960000  0.69600000  1.0 0.128373106
C  C45  1  0.26490000  0.42530000  0.69600000  1.0 0.128373106
C  C46  1  0.83960000  0.26490000  0.69600000  1.0 0.128373106
C  C47  1  0.42530000  0.16040000  0.69600000  1.0 0.128373106
C  C48  1  0.73510000  0.57470000  0.69600000  1.0 0.128373106
C  C49  1  0.21470000  0.89290000  0.19340000  1.0 -0.1329343017
C  C50  1  0.10710000  0.32180000  0.19340000  1.0 -0.1329343017
C  C51  1  0.67820000  0.78530000  0.19340000  1.0 -0.1329343017
C  C52  1  0.78530000  0.10710000  0.19340000  1.0 -0.1329343017
C  C53  1  0.89290000  0.67820000  0.19340000  1.0 -0.1329343017
C  C54  1  0.32180000  0.21470000  0.19340000  1.0 -0.1329343017
C  C55  1  0.89290000  0.21470000  0.30660000  1.0 -0.1329343017
C  C56  1  0.32180000  0.10710000  0.30660000  1.0 -0.1329343017
C  C57  1  0.78530000  0.67820000  0.30660000  1.0 -0.1329343017
C  C58  1  0.10710000  0.78530000  0.30660000  1.0 -0.1329343017
C  C59  1  0.67820000  0.89290000  0.30660000  1.0 -0.1329343017
C  C60  1  0.21470000  0.32180000  0.30660000  1.0 -0.1329343017
C  C61  1  0.78530000  0.10710000  0.80660000  1.0 -0.1329343017
C  C62  1  0.89290000  0.67820000  0.80660000  1.0 -0.1329343017
C  C63  1  0.32180000  0.21470000  0.80660000  1.0 -0.1329343017
C  C64  1  0.21470000  0.89290000  0.80660000  1.0 -0.1329343017
C  C65  1  0.10710000  0.32180000  0.80660000  1.0 -0.1329343017
C  C66  1  0.67820000  0.78530000  0.80660000  1.0 -0.1329343017
C  C67  1  0.10710000  0.78530000  0.69340000  1.0 -0.1329343017
C  C68  1  0.67820000  0.89290000  0.69340000  1.0 -0.1329343017
C  C69  1  0.21470000  0.32180000  0.69340000  1.0 -0.1329343017
C  C70  1  0.89290000  0.21470000  0.69340000  1.0 -0.1329343017
C  C71  1  0.32180000  0.10710000  0.69340000  1.0 -0.1329343017
C  C72  1  0.78530000  0.67820000  0.69340000  1.0 -0.1329343017
C  C73  1  0.13480000  0.86520000  0.25000000  1.0 -0.0579558571
C  C74  1  0.13480000  0.26960000  0.25000000  1.0 -0.0579558571
C  C75  1  0.73040000  0.86520000  0.25000000  1.0 -0.0579558571
C  C76  1  0.86520000  0.13480000  0.25000000  1.0 -0.0579558571
C  C77  1  0.86520000  0.73040000  0.25000000  1.0 -0.0579558571
C  C78  1  0.26960000  0.13480000  0.25000000  1.0 -0.0579558571
C  C79  1  0.86520000  0.13480000  0.75000000  1.0 -0.0579558571
C  C80  1  0.86520000  0.73040000  0.75000000  1.0 -0.0579558571
C  C81  1  0.26960000  0.13480000  0.75000000  1.0 -0.0579558571
C  C82  1  0.13480000  0.86520000  0.75000000  1.0 -0.0579558571
C  C83  1  0.13480000  0.26960000  0.75000000  1.0 -0.0579558571
C  C84  1  0.73040000  0.86520000  0.75000000  1.0 -0.0579558571
N  N1  1  0.23832000  0.76168000  0.25000000  1.0 -0.321843332
N  N2  1  0.23832000  0.47664000  0.25000000  1.0 -0.321843332
N  N3  1  0.52336000  0.76168000  0.25000000  1.0 -0.321843332
N  N4  1  0.76168000  0.23832000  0.25000000  1.0 -0.321843332
N  N5  1  0.76168000  0.52336000  0.25000000  1.0 -0.321843332
N  N6  1  0.47664000  0.23832000  0.25000000  1.0 -0.321843332
N  N7  1  0.76168000  0.23832000  0.75000000  1.0 -0.321843332
N  N8  1  0.76168000  0.52336000  0.75000000  1.0 -0.321843332
N  N9  1  0.47664000  0.23832000  0.75000000  1.0 -0.321843332
N  N10  1  0.23832000  0.76168000  0.75000000  1.0 -0.321843332
N  N11  1  0.23832000  0.47664000  0.75000000  1.0 -0.321843332
N  N12  1  0.52336000  0.76168000  0.75000000  1.0 -0.321843332
O  O1  1  0.38820000  0.80240000  0.14265000  1.0 -0.602277024
O  O2  1  0.19760000  0.58580000  0.14265000  1.0 -0.602277024
O  O3  1  0.41420000  0.61180000  0.14265000  1.0 -0.602277024
O  O4  1  0.61180000  0.19760000  0.14265000  1.0 -0.602277024
O  O5  1  0.80240000  0.41420000  0.14265000  1.0 -0.602277024
O  O6  1  0.58580000  0.38820000  0.14265000  1.0 -0.602277024
O  O7  1  0.80240000  0.38820000  0.35735000  1.0 -0.602277024
O  O8  1  0.58580000  0.19760000  0.35735000  1.0 -0.602277024
O  O9  1  0.61180000  0.41420000  0.35735000  1.0 -0.602277024
O  O10  1  0.19760000  0.61180000  0.35735000  1.0 -0.602277024
O  O11  1  0.41420000  0.80240000  0.35735000  1.0 -0.602277024
O  O12  1  0.38820000  0.58580000  0.35735000  1.0 -0.602277024
O  O13  1  0.61180000  0.19760000  0.85735000  1.0 -0.602277024
O  O14  1  0.80240000  0.41420000  0.85735000  1.0 -0.602277024
O  O15  1  0.58580000  0.38820000  0.85735000  1.0 -0.602277024
O  O16  1  0.38820000  0.80240000  0.85735000  1.0 -0.602277024
O  O17  1  0.19760000  0.58580000  0.85735000  1.0 -0.602277024
O  O18  1  0.41420000  0.61180000  0.85735000  1.0 -0.602277024
O  O19  1  0.19760000  0.61180000  0.64265000  1.0 -0.602277024
O  O20  1  0.41420000  0.80240000  0.64265000  1.0 -0.602277024
O  O21  1  0.38820000  0.58580000  0.64265000  1.0 -0.602277024
O  O22  1  0.80240000  0.38820000  0.64265000  1.0 -0.602277024
O  O23  1  0.58580000  0.19760000  0.64265000  1.0 -0.602277024
O  O24  1  0.61180000  0.41420000  0.64265000  1.0 -0.602277024
O  O25  1  0.38670000  0.94000000  0.09280000  1.0 -0.5452458296
O  O26  1  0.06000000  0.44670000  0.09280000  1.0 -0.5452458296
O  O27  1  0.55330000  0.61330000  0.09280000  1.0 -0.5452458296
O  O28  1  0.61330000  0.06000000  0.09280000  1.0 -0.5446674857
O  O29  1  0.94000000  0.55330000  0.09280000  1.0 -0.5446674857
O  O30  1  0.44670000  0.38670000  0.09280000  1.0 -0.5446674857
O  O31  1  0.94000000  0.38670000  0.40720000  1.0 -0.5446674857
O  O32  1  0.44670000  0.06000000  0.40720000  1.0 -0.5446674857
O  O33  1  0.61330000  0.55330000  0.40720000  1.0 -0.5446674857
O  O34  1  0.06000000  0.61330000  0.40720000  1.0 -0.5452458296
O  O35  1  0.55330000  0.94000000  0.40720000  1.0 -0.5452458296
O  O36  1  0.38670000  0.44670000  0.40720000  1.0 -0.5446674857
O  O37  1  0.61330000  0.06000000  0.90720000  1.0 -0.5446674857
O  O38  1  0.94000000  0.55330000  0.90720000  1.0 -0.5446674857
O  O39  1  0.44670000  0.38670000  0.90720000  1.0 -0.5446674857
O  O40  1  0.38670000  0.94000000  0.90720000  1.0 -0.5452458296
O  O41  1  0.06000000  0.44670000  0.90720000  1.0 -0.5446674857
O  O42  1  0.55330000  0.61330000  0.90720000  1.0 -0.5452458296
O  O43  1  0.06000000  0.61330000  0.59280000  1.0 -0.5452458296
O  O44  1  0.55330000  0.94000000  0.59280000  1.0 -0.5452458296
O  O45  1  0.38670000  0.44670000  0.59280000  1.0 -0.5446674857
O  O46  1  0.94000000  0.38670000  0.59280000  1.0 -0.5446674857
O  O47  1  0.44670000  0.06000000  0.59280000  1.0 -0.5446674857
O  O48  1  0.61330000  0.55330000  0.59280000  1.0 -0.5446674857
