# DDEC6 charges by PACMAN v1.1 (https://github.com/mtap-research/PACMAN-charge/)
data_ILUHIH_ASR_pacman
_symmetry_space_group_name_H-M   'P 1'
_cell_length_a   15.18700000
_cell_length_b   15.18700000
_cell_length_c   15.61600000
_cell_angle_alpha   90.00000000
_cell_angle_beta   90.00000000
_cell_angle_gamma   120.00000000
_symmetry_Int_Tables_number   1
_chemical_formula_structural   Ho2Fe3H18C42(NO4)6
_chemical_formula_sum   'Ho4 Fe6 H36 C84 N12 O48'
_cell_volume   3119.20858802
_cell_formula_units_Z   2
loop_
 _symmetry_equiv_pos_site_id
 _symmetry_equiv_pos_as_xyz
  1  'x, y, z'
loop_
 _atom_site_type_symbol
 _atom_site_label
 _atom_site_symmetry_multiplicity
 _atom_site_fract_x
 _atom_site_fract_y
 _atom_site_fract_z
 _atom_site_occupancy
 _atom_site_charge
Ho  Ho1  1  0.33333333  0.66666667  0.75000000  1.0 1.8197165522
Ho  Ho2  1  0.66666667  0.33333333  0.75000000  1.0 1.8197165522
Ho  Ho3  1  0.66666667  0.33333333  0.25000000  1.0 1.8197165522
Ho  Ho4  1  0.33333333  0.66666667  0.25000000  1.0 1.8197165522
Fe  Fe1  1  0.50000000  0.00000000  0.50000000  1.0 1.0866472317
Fe  Fe2  1  0.00000000  0.50000000  0.50000000  1.0 1.0866472317
Fe  Fe3  1  0.50000000  0.50000000  0.50000000  1.0 1.0866472317
Fe  Fe4  1  0.00000000  0.50000000  0.00000000  1.0 1.0866472317
Fe  Fe5  1  0.50000000  0.00000000  0.00000000  1.0 1.0866472317
Fe  Fe6  1  0.50000000  0.50000000  0.00000000  1.0 1.0866472317
H  H1  1  0.71070000  0.94440000  0.65530000  1.0 0.1374762896
H  H2  1  0.05560000  0.76630000  0.65530000  1.0 0.1374762896
H  H3  1  0.23370000  0.28930000  0.65530000  1.0 0.1374762896
H  H4  1  0.28930000  0.05560000  0.65530000  1.0 0.1374762896
H  H5  1  0.94440000  0.23370000  0.65530000  1.0 0.1374762896
H  H6  1  0.76630000  0.71070000  0.65530000  1.0 0.1374762896
H  H7  1  0.94440000  0.71070000  0.84470000  1.0 0.1374762896
H  H8  1  0.76630000  0.05560000  0.84470000  1.0 0.1374762896
H  H9  1  0.28930000  0.23370000  0.84470000  1.0 0.1374762896
H  H10  1  0.05560000  0.28930000  0.84470000  1.0 0.1374762896
H  H11  1  0.23370000  0.94440000  0.84470000  1.0 0.1374762896
H  H12  1  0.71070000  0.76630000  0.84470000  1.0 0.1374762896
H  H13  1  0.28930000  0.05560000  0.34470000  1.0 0.1374762896
H  H14  1  0.94440000  0.23370000  0.34470000  1.0 0.1374762896
H  H15  1  0.76630000  0.71070000  0.34470000  1.0 0.1374762896
H  H16  1  0.71070000  0.94440000  0.34470000  1.0 0.1374762896
H  H17  1  0.05560000  0.76630000  0.34470000  1.0 0.1374762896
H  H18  1  0.23370000  0.28930000  0.34470000  1.0 0.1374762896
H  H19  1  0.05560000  0.28930000  0.15530000  1.0 0.1374762896
H  H20  1  0.23370000  0.94440000  0.15530000  1.0 0.1374762896
H  H21  1  0.71070000  0.76630000  0.15530000  1.0 0.1374762896
H  H22  1  0.94440000  0.71070000  0.15530000  1.0 0.1374762896
H  H23  1  0.76630000  0.05560000  0.15530000  1.0 0.1374762896
H  H24  1  0.28930000  0.23370000  0.15530000  1.0 0.1374762896
H  H25  1  0.80080000  0.90040000  0.75000000  1.0 0.1056412489
H  H26  1  0.09960000  0.90040000  0.75000000  1.0 0.1056412489
H  H27  1  0.09960000  0.19920000  0.75000000  1.0 0.1056412489
H  H28  1  0.19920000  0.09960000  0.75000000  1.0 0.1056412489
H  H29  1  0.90040000  0.09960000  0.75000000  1.0 0.1056412489
H  H30  1  0.90040000  0.80080000  0.75000000  1.0 0.1056412489
H  H31  1  0.19920000  0.09960000  0.25000000  1.0 0.1056412489
H  H32  1  0.90040000  0.09960000  0.25000000  1.0 0.1056412489
H  H33  1  0.90040000  0.80080000  0.25000000  1.0 0.1056412489
H  H34  1  0.80080000  0.90040000  0.25000000  1.0 0.1056412489
H  H35  1  0.09960000  0.90040000  0.25000000  1.0 0.1056412489
H  H36  1  0.09960000  0.19920000  0.25000000  1.0 0.1056412489
C  C1  1  0.50630000  0.86040000  0.63900000  1.0 0.5773984585
C  C2  1  0.13960000  0.64590000  0.63900000  1.0 0.5773984585
C  C3  1  0.35410000  0.49370000  0.63900000  1.0 0.5773984585
C  C4  1  0.49370000  0.13960000  0.63900000  1.0 0.5773984585
C  C5  1  0.86040000  0.35410000  0.63900000  1.0 0.5773984585
C  C6  1  0.64590000  0.50630000  0.63900000  1.0 0.5773984585
C  C7  1  0.86040000  0.50630000  0.86100000  1.0 0.5773984585
C  C8  1  0.64590000  0.13960000  0.86100000  1.0 0.5773984585
C  C9  1  0.49370000  0.35410000  0.86100000  1.0 0.5773984585
C  C10  1  0.13960000  0.49370000  0.86100000  1.0 0.5773984585
C  C11  1  0.35410000  0.86040000  0.86100000  1.0 0.5773984585
C  C12  1  0.50630000  0.64590000  0.86100000  1.0 0.5773984585
C  C13  1  0.49370000  0.13960000  0.36100000  1.0 0.5773984585
C  C14  1  0.86040000  0.35410000  0.36100000  1.0 0.5773984585
C  C15  1  0.64590000  0.50630000  0.36100000  1.0 0.5773984585
C  C16  1  0.50630000  0.86040000  0.36100000  1.0 0.5773984585
C  C17  1  0.13960000  0.64590000  0.36100000  1.0 0.5773984585
C  C18  1  0.35410000  0.49370000  0.36100000  1.0 0.5773984585
C  C19  1  0.13960000  0.49370000  0.13900000  1.0 0.5773984585
C  C20  1  0.35410000  0.86040000  0.13900000  1.0 0.5773984585
C  C21  1  0.50630000  0.64590000  0.13900000  1.0 0.5773984585
C  C22  1  0.86040000  0.50630000  0.13900000  1.0 0.5773984585
C  C23  1  0.64590000  0.13960000  0.13900000  1.0 0.5773984585
C  C24  1  0.49370000  0.35410000  0.13900000  1.0 0.5773984585
C  C25  1  0.57230000  0.83850000  0.69610000  1.0 0.1250508819
C  C26  1  0.16150000  0.73380000  0.69610000  1.0 0.1250508819
C  C27  1  0.26620000  0.42770000  0.69610000  1.0 0.1250508819
C  C28  1  0.42770000  0.16150000  0.69610000  1.0 0.1250508819
C  C29  1  0.83850000  0.26620000  0.69610000  1.0 0.1250508819
C  C30  1  0.73380000  0.57230000  0.69610000  1.0 0.1250508819
C  C31  1  0.83850000  0.57230000  0.80390000  1.0 0.1250508819
C  C32  1  0.73380000  0.16150000  0.80390000  1.0 0.1250508819
C  C33  1  0.42770000  0.26620000  0.80390000  1.0 0.1250508819
C  C34  1  0.16150000  0.42770000  0.80390000  1.0 0.1250508819
C  C35  1  0.26620000  0.83850000  0.80390000  1.0 0.1250508819
C  C36  1  0.57230000  0.73380000  0.80390000  1.0 0.1250508819
C  C37  1  0.42770000  0.16150000  0.30390000  1.0 0.1250508819
C  C38  1  0.83850000  0.26620000  0.30390000  1.0 0.1250508819
C  C39  1  0.73380000  0.57230000  0.30390000  1.0 0.1250508819
C  C40  1  0.57230000  0.83850000  0.30390000  1.0 0.1250508819
C  C41  1  0.16150000  0.73380000  0.30390000  1.0 0.1250508819
C  C42  1  0.26620000  0.42770000  0.30390000  1.0 0.1250508819
C  C43  1  0.16150000  0.42770000  0.19610000  1.0 0.1250508819
C  C44  1  0.26620000  0.83850000  0.19610000  1.0 0.1250508819
C  C45  1  0.57230000  0.73380000  0.19610000  1.0 0.1250508819
C  C46  1  0.83850000  0.57230000  0.19610000  1.0 0.1250508819
C  C47  1  0.73380000  0.16150000  0.19610000  1.0 0.1250508819
C  C48  1  0.42770000  0.26620000  0.19610000  1.0 0.1250508819
C  C49  1  0.67640000  0.89140000  0.69390000  1.0 -0.1336648707
C  C50  1  0.10860000  0.78500000  0.69390000  1.0 -0.1336648707
C  C51  1  0.21500000  0.32360000  0.69390000  1.0 -0.1336648707
C  C52  1  0.32360000  0.10860000  0.69390000  1.0 -0.1336648707
C  C53  1  0.89140000  0.21500000  0.69390000  1.0 -0.1336648707
C  C54  1  0.78500000  0.67640000  0.69390000  1.0 -0.1336648707
C  C55  1  0.89140000  0.67640000  0.80610000  1.0 -0.1336648707
C  C56  1  0.78500000  0.10860000  0.80610000  1.0 -0.1336648707
C  C57  1  0.32360000  0.21500000  0.80610000  1.0 -0.1336648707
C  C58  1  0.10860000  0.32360000  0.80610000  1.0 -0.1336648707
C  C59  1  0.21500000  0.89140000  0.80610000  1.0 -0.1336648707
C  C60  1  0.67640000  0.78500000  0.80610000  1.0 -0.1336648707
C  C61  1  0.32360000  0.10860000  0.30610000  1.0 -0.1336648707
C  C62  1  0.89140000  0.21500000  0.30610000  1.0 -0.1336648707
C  C63  1  0.78500000  0.67640000  0.30610000  1.0 -0.1336648707
C  C64  1  0.67640000  0.89140000  0.30610000  1.0 -0.1336648707
C  C65  1  0.10860000  0.78500000  0.30610000  1.0 -0.1336648707
C  C66  1  0.21500000  0.32360000  0.30610000  1.0 -0.1336648707
C  C67  1  0.10860000  0.32360000  0.19390000  1.0 -0.1336648707
C  C68  1  0.21500000  0.89140000  0.19390000  1.0 -0.1336648707
C  C69  1  0.67640000  0.78500000  0.19390000  1.0 -0.1336648707
C  C70  1  0.89140000  0.67640000  0.19390000  1.0 -0.1336648707
C  C71  1  0.78500000  0.10860000  0.19390000  1.0 -0.1336648707
C  C72  1  0.32360000  0.21500000  0.19390000  1.0 -0.1336648707
C  C73  1  0.73020000  0.86510000  0.75000000  1.0 -0.0562110394
C  C74  1  0.13490000  0.86510000  0.75000000  1.0 -0.0562110394
C  C75  1  0.13490000  0.26980000  0.75000000  1.0 -0.0562110394
C  C76  1  0.26980000  0.13490000  0.75000000  1.0 -0.0562110394
C  C77  1  0.86510000  0.13490000  0.75000000  1.0 -0.0562110394
C  C78  1  0.86510000  0.73020000  0.75000000  1.0 -0.0562110394
C  C79  1  0.26980000  0.13490000  0.25000000  1.0 -0.0562110394
C  C80  1  0.86510000  0.13490000  0.25000000  1.0 -0.0562110394
C  C81  1  0.86510000  0.73020000  0.25000000  1.0 -0.0562110394
C  C82  1  0.73020000  0.86510000  0.25000000  1.0 -0.0562110394
C  C83  1  0.13490000  0.86510000  0.25000000  1.0 -0.0562110394
C  C84  1  0.13490000  0.26980000  0.25000000  1.0 -0.0562110394
N  N1  1  0.52062000  0.76031000  0.75000000  1.0 -0.3311903831
N  N2  1  0.23969000  0.76031000  0.75000000  1.0 -0.3311903831
N  N3  1  0.23969000  0.47938000  0.75000000  1.0 -0.3311903831
N  N4  1  0.47938000  0.23969000  0.75000000  1.0 -0.3311903831
N  N5  1  0.76031000  0.23969000  0.75000000  1.0 -0.3311903831
N  N6  1  0.76031000  0.52062000  0.75000000  1.0 -0.3311903831
N  N7  1  0.47938000  0.23969000  0.25000000  1.0 -0.3311903831
N  N8  1  0.76031000  0.23969000  0.25000000  1.0 -0.3311903831
N  N9  1  0.76031000  0.52062000  0.25000000  1.0 -0.3311903831
N  N10  1  0.52062000  0.76031000  0.25000000  1.0 -0.3311903831
N  N11  1  0.23969000  0.76031000  0.25000000  1.0 -0.3311903831
N  N12  1  0.23969000  0.47938000  0.25000000  1.0 -0.3311903831
O  O1  1  0.41190000  0.80020000  0.64427000  1.0 -0.5858182169
O  O2  1  0.19980000  0.61170000  0.64427000  1.0 -0.5858182169
O  O3  1  0.38830000  0.58810000  0.64427000  1.0 -0.5858182169
O  O4  1  0.58810000  0.19980000  0.64427000  1.0 -0.5858182169
O  O5  1  0.80020000  0.38830000  0.64427000  1.0 -0.5858182169
O  O6  1  0.61170000  0.41190000  0.64427000  1.0 -0.5858182169
O  O7  1  0.80020000  0.41190000  0.85573000  1.0 -0.5858182169
O  O8  1  0.61170000  0.19980000  0.85573000  1.0 -0.5858182169
O  O9  1  0.58810000  0.38830000  0.85573000  1.0 -0.5858182169
O  O10  1  0.19980000  0.58810000  0.85573000  1.0 -0.5858182169
O  O11  1  0.38830000  0.80020000  0.85573000  1.0 -0.5858182169
O  O12  1  0.41190000  0.61170000  0.85573000  1.0 -0.5858182169
O  O13  1  0.58810000  0.19980000  0.35573000  1.0 -0.5858182169
O  O14  1  0.80020000  0.38830000  0.35573000  1.0 -0.5858182169
O  O15  1  0.61170000  0.41190000  0.35573000  1.0 -0.5858182169
O  O16  1  0.41190000  0.80020000  0.35573000  1.0 -0.5858182169
O  O17  1  0.19980000  0.61170000  0.35573000  1.0 -0.5858182169
O  O18  1  0.38830000  0.58810000  0.35573000  1.0 -0.5858182169
O  O19  1  0.19980000  0.58810000  0.14427000  1.0 -0.5858182169
O  O20  1  0.38830000  0.80020000  0.14427000  1.0 -0.5858182169
O  O21  1  0.41190000  0.61170000  0.14427000  1.0 -0.5858182169
O  O22  1  0.80020000  0.41190000  0.14427000  1.0 -0.5858182169
O  O23  1  0.61170000  0.19980000  0.14427000  1.0 -0.5858182169
O  O24  1  0.58810000  0.38830000  0.14427000  1.0 -0.5858182169
O  O25  1  0.55050000  0.93560000  0.59160000  1.0 -0.5545103557
O  O26  1  0.06440000  0.61490000  0.59160000  1.0 -0.5545103557
O  O27  1  0.38510000  0.44950000  0.59160000  1.0 -0.5545103557
O  O28  1  0.44950000  0.06440000  0.59160000  1.0 -0.5545103557
O  O29  1  0.93560000  0.38510000  0.59160000  1.0 -0.5545103557
O  O30  1  0.61490000  0.55050000  0.59160000  1.0 -0.5545103557
O  O31  1  0.93560000  0.55050000  0.90840000  1.0 -0.5545103557
O  O32  1  0.61490000  0.06440000  0.90840000  1.0 -0.5545103557
O  O33  1  0.44950000  0.38510000  0.90840000  1.0 -0.5545103557
O  O34  1  0.06440000  0.44950000  0.90840000  1.0 -0.5545103557
O  O35  1  0.38510000  0.93560000  0.90840000  1.0 -0.5545103557
O  O36  1  0.55050000  0.61490000  0.90840000  1.0 -0.5545103557
O  O37  1  0.44950000  0.06440000  0.40840000  1.0 -0.5545103557
O  O38  1  0.93560000  0.38510000  0.40840000  1.0 -0.5545103557
O  O39  1  0.61490000  0.55050000  0.40840000  1.0 -0.5545103557
O  O40  1  0.55050000  0.93560000  0.40840000  1.0 -0.5545103557
O  O41  1  0.06440000  0.61490000  0.40840000  1.0 -0.5545103557
O  O42  1  0.38510000  0.44950000  0.40840000  1.0 -0.5545103557
O  O43  1  0.06440000  0.44950000  0.09160000  1.0 -0.5545103557
O  O44  1  0.38510000  0.93560000  0.09160000  1.0 -0.5545103557
O  O45  1  0.55050000  0.61490000  0.09160000  1.0 -0.5545103557
O  O46  1  0.93560000  0.55050000  0.09160000  1.0 -0.5545103557
O  O47  1  0.61490000  0.06440000  0.09160000  1.0 -0.5545103557
O  O48  1  0.44950000  0.38510000  0.09160000  1.0 -0.5545103557
