# DDEC6 charges by PACMAN v1.1 (https://github.com/mtap-research/PACMAN-charge/)
data_ILUHUT_FSR_pacman
_symmetry_space_group_name_H-M   'P 1'
_cell_length_a   15.49970000
_cell_length_b   15.49970000
_cell_length_c   15.23480000
_cell_angle_alpha   90.00000000
_cell_angle_beta   90.00000000
_cell_angle_gamma   120.00000000
_symmetry_Int_Tables_number   1
_chemical_formula_structural   Pr2Co3H42C42(NO5)6
_chemical_formula_sum   'Pr4 Co6 H84 C84 N12 O60'
_cell_volume   3169.66944769
_cell_formula_units_Z   2
loop_
 _symmetry_equiv_pos_site_id
 _symmetry_equiv_pos_as_xyz
  1  'x, y, z'
loop_
 _atom_site_type_symbol
 _atom_site_label
 _atom_site_symmetry_multiplicity
 _atom_site_fract_x
 _atom_site_fract_y
 _atom_site_fract_z
 _atom_site_occupancy
 _atom_site_charge
Pr  Pr1  1  0.66666667  0.33333333  0.75000000  1.0 1.8744811069
Pr  Pr2  1  0.33333333  0.66666667  0.75000000  1.0 1.8744811069
Pr  Pr3  1  0.33333333  0.66666667  0.25000000  1.0 1.8744811069
Pr  Pr4  1  0.66666667  0.33333333  0.25000000  1.0 1.8744811069
Co  Co1  1  0.00000000  0.50000000  0.50000000  1.0 1.024716283
Co  Co2  1  0.50000000  0.50000000  0.50000000  1.0 1.024716283
Co  Co3  1  0.50000000  0.00000000  0.50000000  1.0 1.024716283
Co  Co4  1  0.50000000  0.00000000  0.00000000  1.0 1.024716283
Co  Co5  1  0.50000000  0.50000000  0.00000000  1.0 1.024716283
Co  Co6  1  0.00000000  0.50000000  0.00000000  1.0 1.024716283
H  H1  1  0.94650000  0.71300000  0.65570000  1.0 0.1409615676
H  H2  1  0.28700000  0.23350000  0.65570000  1.0 0.1409615676
H  H3  1  0.76650000  0.05350000  0.65570000  1.0 0.1409615676
H  H4  1  0.05350000  0.28700000  0.65570000  1.0 0.1409615676
H  H5  1  0.71300000  0.76650000  0.65570000  1.0 0.1409615676
H  H6  1  0.23350000  0.94650000  0.65570000  1.0 0.1409615676
H  H7  1  0.71300000  0.94650000  0.84430000  1.0 0.1409615676
H  H8  1  0.23350000  0.28700000  0.84430000  1.0 0.1409615676
H  H9  1  0.05350000  0.76650000  0.84430000  1.0 0.1409615676
H  H10  1  0.28700000  0.05350000  0.84430000  1.0 0.1409615676
H  H11  1  0.76650000  0.71300000  0.84430000  1.0 0.1409615676
H  H12  1  0.94650000  0.23350000  0.84430000  1.0 0.1409615676
H  H13  1  0.05350000  0.28700000  0.34430000  1.0 0.1409615676
H  H14  1  0.71300000  0.76650000  0.34430000  1.0 0.1409615676
H  H15  1  0.23350000  0.94650000  0.34430000  1.0 0.1409615676
H  H16  1  0.94650000  0.71300000  0.34430000  1.0 0.1409615676
H  H17  1  0.28700000  0.23350000  0.34430000  1.0 0.1409615676
H  H18  1  0.76650000  0.05350000  0.34430000  1.0 0.1409615676
H  H19  1  0.28700000  0.05350000  0.15570000  1.0 0.1409615676
H  H20  1  0.76650000  0.71300000  0.15570000  1.0 0.1409615676
H  H21  1  0.94650000  0.23350000  0.15570000  1.0 0.1409615676
H  H22  1  0.71300000  0.94650000  0.15570000  1.0 0.1409615676
H  H23  1  0.23350000  0.28700000  0.15570000  1.0 0.1409615676
H  H24  1  0.05350000  0.76650000  0.15570000  1.0 0.1409615676
H  H25  1  0.89960000  0.79920000  0.75000000  1.0 0.1098897408
H  H26  1  0.20080000  0.10040000  0.75000000  1.0 0.1098897408
H  H27  1  0.89960000  0.10040000  0.75000000  1.0 0.1098897408
H  H28  1  0.10040000  0.20080000  0.75000000  1.0 0.1098897408
H  H29  1  0.79920000  0.89960000  0.75000000  1.0 0.1098897408
H  H30  1  0.10040000  0.89960000  0.75000000  1.0 0.1098897408
H  H31  1  0.10040000  0.20080000  0.25000000  1.0 0.1098897408
H  H32  1  0.79920000  0.89960000  0.25000000  1.0 0.1098897408
H  H33  1  0.10040000  0.89960000  0.25000000  1.0 0.1098897408
H  H34  1  0.89960000  0.79920000  0.25000000  1.0 0.1098897408
H  H35  1  0.20080000  0.10040000  0.25000000  1.0 0.1098897408
H  H36  1  0.89960000  0.10040000  0.25000000  1.0 0.1098897408
H  H37  1  0.18130000  0.65460000  0.46670000  1.0 0.1657252002
H  H38  1  0.34540000  0.52670000  0.46670000  1.0 0.1657252002
H  H39  1  0.47330000  0.81870000  0.46670000  1.0 0.1657252002
H  H40  1  0.81870000  0.34540000  0.46670000  1.0 0.1657252002
H  H41  1  0.65460000  0.47330000  0.46670000  1.0 0.1657252002
H  H42  1  0.52670000  0.18130000  0.46670000  1.0 0.1657252002
H  H43  1  0.65460000  0.18130000  0.03330000  1.0 0.1657252002
H  H44  1  0.52670000  0.34540000  0.03330000  1.0 0.1657252002
H  H45  1  0.81870000  0.47330000  0.03330000  1.0 0.1657252002
H  H46  1  0.34540000  0.81870000  0.03330000  1.0 0.1657252002
H  H47  1  0.47330000  0.65460000  0.03330000  1.0 0.1657252002
H  H48  1  0.18130000  0.52670000  0.03330000  1.0 0.1657252002
H  H49  1  0.81870000  0.34540000  0.53330000  1.0 0.1657252002
H  H50  1  0.65460000  0.47330000  0.53330000  1.0 0.1657252002
H  H51  1  0.52670000  0.18130000  0.53330000  1.0 0.1657252002
H  H52  1  0.18130000  0.65460000  0.53330000  1.0 0.1657252002
H  H53  1  0.34540000  0.52670000  0.53330000  1.0 0.1657252002
H  H54  1  0.47330000  0.81870000  0.53330000  1.0 0.1657252002
H  H55  1  0.34540000  0.81870000  0.96670000  1.0 0.1657252002
H  H56  1  0.47330000  0.65460000  0.96670000  1.0 0.1657252002
H  H57  1  0.18130000  0.52670000  0.96670000  1.0 0.1657252002
H  H58  1  0.65460000  0.18130000  0.96670000  1.0 0.1657252002
H  H59  1  0.52670000  0.34540000  0.96670000  1.0 0.1657252002
H  H60  1  0.81870000  0.47330000  0.96670000  1.0 0.1657252002
H  H61  1  0.13710000  0.68960000  0.53330000  1.0 0.1330232783
H  H62  1  0.31040000  0.44750000  0.53330000  1.0 0.1330232783
H  H63  1  0.55250000  0.86290000  0.53330000  1.0 0.1330232783
H  H64  1  0.86290000  0.31040000  0.53330000  1.0 0.1330232783
H  H65  1  0.68960000  0.55250000  0.53330000  1.0 0.1330232783
H  H66  1  0.44750000  0.13710000  0.53330000  1.0 0.1330232783
H  H67  1  0.68960000  0.13710000  0.96670000  1.0 0.1330232783
H  H68  1  0.44750000  0.31040000  0.96670000  1.0 0.1330232783
H  H69  1  0.86290000  0.55250000  0.96670000  1.0 0.1330232783
H  H70  1  0.31040000  0.86290000  0.96670000  1.0 0.1330232783
H  H71  1  0.55250000  0.68960000  0.96670000  1.0 0.1330232783
H  H72  1  0.13710000  0.44750000  0.96670000  1.0 0.1330232783
H  H73  1  0.86290000  0.31040000  0.46670000  1.0 0.1330232783
H  H74  1  0.68960000  0.55250000  0.46670000  1.0 0.1330232783
H  H75  1  0.44750000  0.13710000  0.46670000  1.0 0.1330232783
H  H76  1  0.13710000  0.68960000  0.46670000  1.0 0.1330232783
H  H77  1  0.31040000  0.44750000  0.46670000  1.0 0.1330232783
H  H78  1  0.55250000  0.86290000  0.46670000  1.0 0.1330232783
H  H79  1  0.31040000  0.86290000  0.03330000  1.0 0.1330232783
H  H80  1  0.55250000  0.68960000  0.03330000  1.0 0.1330232783
H  H81  1  0.13710000  0.44750000  0.03330000  1.0 0.1330232783
H  H82  1  0.68960000  0.13710000  0.03330000  1.0 0.1330232783
H  H83  1  0.44750000  0.31040000  0.03330000  1.0 0.1330232783
H  H84  1  0.86290000  0.55250000  0.03330000  1.0 0.1330232783
C  C1  1  0.86550000  0.51230000  0.63880000  1.0 0.5542060386
C  C2  1  0.48770000  0.35320000  0.63880000  1.0 0.5542060386
C  C3  1  0.64680000  0.13450000  0.63880000  1.0 0.5542060386
C  C4  1  0.13450000  0.48770000  0.63880000  1.0 0.5542060386
C  C5  1  0.51230000  0.64680000  0.63880000  1.0 0.5542060386
C  C6  1  0.35320000  0.86550000  0.63880000  1.0 0.5542060386
C  C7  1  0.51230000  0.86550000  0.86120000  1.0 0.5542060386
C  C8  1  0.35320000  0.48770000  0.86120000  1.0 0.5542060386
C  C9  1  0.13450000  0.64680000  0.86120000  1.0 0.5542060386
C  C10  1  0.48770000  0.13450000  0.86120000  1.0 0.5542060386
C  C11  1  0.64680000  0.51230000  0.86120000  1.0 0.5542060386
C  C12  1  0.86550000  0.35320000  0.86120000  1.0 0.5542060386
C  C13  1  0.13450000  0.48770000  0.36120000  1.0 0.5542060386
C  C14  1  0.51230000  0.64680000  0.36120000  1.0 0.5542060386
C  C15  1  0.35320000  0.86550000  0.36120000  1.0 0.5542060386
C  C16  1  0.86550000  0.51230000  0.36120000  1.0 0.5542060386
C  C17  1  0.48770000  0.35320000  0.36120000  1.0 0.5542060386
C  C18  1  0.64680000  0.13450000  0.36120000  1.0 0.5542060386
C  C19  1  0.48770000  0.13450000  0.13880000  1.0 0.5542060386
C  C20  1  0.64680000  0.51230000  0.13880000  1.0 0.5542060386
C  C21  1  0.86550000  0.35320000  0.13880000  1.0 0.5542060386
C  C22  1  0.51230000  0.86550000  0.13880000  1.0 0.5542060386
C  C23  1  0.35320000  0.48770000  0.13880000  1.0 0.5542060386
C  C24  1  0.13450000  0.64680000  0.13880000  1.0 0.5542060386
C  C25  1  0.84080000  0.57640000  0.69630000  1.0 0.1240142013
C  C26  1  0.42360000  0.26440000  0.69630000  1.0 0.1240142013
C  C27  1  0.73560000  0.15920000  0.69630000  1.0 0.1240142013
C  C28  1  0.15920000  0.42360000  0.69630000  1.0 0.1240142013
C  C29  1  0.57640000  0.73560000  0.69630000  1.0 0.1240142013
C  C30  1  0.26440000  0.84080000  0.69630000  1.0 0.1240142013
C  C31  1  0.57640000  0.84080000  0.80370000  1.0 0.1240142013
C  C32  1  0.26440000  0.42360000  0.80370000  1.0 0.1240142013
C  C33  1  0.15920000  0.73560000  0.80370000  1.0 0.1240142013
C  C34  1  0.42360000  0.15920000  0.80370000  1.0 0.1240142013
C  C35  1  0.73560000  0.57640000  0.80370000  1.0 0.1240142013
C  C36  1  0.84080000  0.26440000  0.80370000  1.0 0.1240142013
C  C37  1  0.15920000  0.42360000  0.30370000  1.0 0.1240142013
C  C38  1  0.57640000  0.73560000  0.30370000  1.0 0.1240142013
C  C39  1  0.26440000  0.84080000  0.30370000  1.0 0.1240142013
C  C40  1  0.84080000  0.57640000  0.30370000  1.0 0.1240142013
C  C41  1  0.42360000  0.26440000  0.30370000  1.0 0.1240142013
C  C42  1  0.73560000  0.15920000  0.30370000  1.0 0.1240142013
C  C43  1  0.42360000  0.15920000  0.19630000  1.0 0.1240142013
C  C44  1  0.73560000  0.57640000  0.19630000  1.0 0.1240142013
C  C45  1  0.84080000  0.26440000  0.19630000  1.0 0.1240142013
C  C46  1  0.57640000  0.84080000  0.19630000  1.0 0.1240142013
C  C47  1  0.26440000  0.42360000  0.19630000  1.0 0.1240142013
C  C48  1  0.15920000  0.73560000  0.19630000  1.0 0.1240142013
C  C49  1  0.89330000  0.67900000  0.69410000  1.0 -0.1440182973
C  C50  1  0.32100000  0.21430000  0.69410000  1.0 -0.1440182973
C  C51  1  0.78570000  0.10670000  0.69410000  1.0 -0.1440182973
C  C52  1  0.10670000  0.32100000  0.69410000  1.0 -0.1440182973
C  C53  1  0.67900000  0.78570000  0.69410000  1.0 -0.1440182973
C  C54  1  0.21430000  0.89330000  0.69410000  1.0 -0.1440182973
C  C55  1  0.67900000  0.89330000  0.80590000  1.0 -0.1440182973
C  C56  1  0.21430000  0.32100000  0.80590000  1.0 -0.1440182973
C  C57  1  0.10670000  0.78570000  0.80590000  1.0 -0.1440182973
C  C58  1  0.32100000  0.10670000  0.80590000  1.0 -0.1440182973
C  C59  1  0.78570000  0.67900000  0.80590000  1.0 -0.1440182973
C  C60  1  0.89330000  0.21430000  0.80590000  1.0 -0.1440182973
C  C61  1  0.10670000  0.32100000  0.30590000  1.0 -0.1440182973
C  C62  1  0.67900000  0.78570000  0.30590000  1.0 -0.1440182973
C  C63  1  0.21430000  0.89330000  0.30590000  1.0 -0.1440182973
C  C64  1  0.89330000  0.67900000  0.30590000  1.0 -0.1440182973
C  C65  1  0.32100000  0.21430000  0.30590000  1.0 -0.1440182973
C  C66  1  0.78570000  0.10670000  0.30590000  1.0 -0.1440182973
C  C67  1  0.32100000  0.10670000  0.19410000  1.0 -0.1440182973
C  C68  1  0.78570000  0.67900000  0.19410000  1.0 -0.1440182973
C  C69  1  0.89330000  0.21430000  0.19410000  1.0 -0.1440182973
C  C70  1  0.67900000  0.89330000  0.19410000  1.0 -0.1440182973
C  C71  1  0.21430000  0.32100000  0.19410000  1.0 -0.1440182973
C  C72  1  0.10670000  0.78570000  0.19410000  1.0 -0.1440182973
C  C73  1  0.86495000  0.72990000  0.75000000  1.0 -0.0602603604
C  C74  1  0.27010000  0.13505000  0.75000000  1.0 -0.0602603604
C  C75  1  0.86495000  0.13505000  0.75000000  1.0 -0.0602603604
C  C76  1  0.13505000  0.27010000  0.75000000  1.0 -0.0602603604
C  C77  1  0.72990000  0.86495000  0.75000000  1.0 -0.0602603604
C  C78  1  0.13505000  0.86495000  0.75000000  1.0 -0.0602603604
C  C79  1  0.13505000  0.27010000  0.25000000  1.0 -0.0602603604
C  C80  1  0.72990000  0.86495000  0.25000000  1.0 -0.0602603604
C  C81  1  0.13505000  0.86495000  0.25000000  1.0 -0.0602603604
C  C82  1  0.86495000  0.72990000  0.25000000  1.0 -0.0602603604
C  C83  1  0.27010000  0.13505000  0.25000000  1.0 -0.0602603604
C  C84  1  0.86495000  0.13505000  0.25000000  1.0 -0.0602603604
N  N1  1  0.76290000  0.52580000  0.75000000  1.0 -0.3605197593
N  N2  1  0.47420000  0.23710000  0.75000000  1.0 -0.3605197593
N  N3  1  0.76290000  0.23710000  0.75000000  1.0 -0.3605197593
N  N4  1  0.23710000  0.47420000  0.75000000  1.0 -0.3605197593
N  N5  1  0.52580000  0.76290000  0.75000000  1.0 -0.3605197593
N  N6  1  0.23710000  0.76290000  0.75000000  1.0 -0.3605197593
N  N7  1  0.23710000  0.47420000  0.25000000  1.0 -0.3605197593
N  N8  1  0.52580000  0.76290000  0.25000000  1.0 -0.3605197593
N  N9  1  0.23710000  0.76290000  0.25000000  1.0 -0.3605197593
N  N10  1  0.76290000  0.52580000  0.25000000  1.0 -0.3605197593
N  N11  1  0.47420000  0.23710000  0.25000000  1.0 -0.3605197593
N  N12  1  0.76290000  0.23710000  0.25000000  1.0 -0.3605197593
O  O1  1  0.80470000  0.41871000  0.64083000  1.0 -0.6085445334
O  O2  1  0.58129000  0.38599000  0.64083000  1.0 -0.6085445334
O  O3  1  0.61401000  0.19530000  0.64083000  1.0 -0.6085445334
O  O4  1  0.19530000  0.58129000  0.64083000  1.0 -0.6085445334
O  O5  1  0.41871000  0.61401000  0.64083000  1.0 -0.6085445334
O  O6  1  0.38599000  0.80470000  0.64083000  1.0 -0.6085445334
O  O7  1  0.41871000  0.80470000  0.85917000  1.0 -0.6085445334
O  O8  1  0.38599000  0.58129000  0.85917000  1.0 -0.6085445334
O  O9  1  0.19530000  0.61401000  0.85917000  1.0 -0.6085445334
O  O10  1  0.58129000  0.19530000  0.85917000  1.0 -0.6085445334
O  O11  1  0.61401000  0.41871000  0.85917000  1.0 -0.6085445334
O  O12  1  0.80470000  0.38599000  0.85917000  1.0 -0.6085445334
O  O13  1  0.19530000  0.58129000  0.35917000  1.0 -0.6085445334
O  O14  1  0.41871000  0.61401000  0.35917000  1.0 -0.6085445334
O  O15  1  0.38599000  0.80470000  0.35917000  1.0 -0.6085445334
O  O16  1  0.80470000  0.41871000  0.35917000  1.0 -0.6085445334
O  O17  1  0.58129000  0.38599000  0.35917000  1.0 -0.6085445334
O  O18  1  0.61401000  0.19530000  0.35917000  1.0 -0.6085445334
O  O19  1  0.58129000  0.19530000  0.14083000  1.0 -0.6085445334
O  O20  1  0.61401000  0.41871000  0.14083000  1.0 -0.6085445334
O  O21  1  0.80470000  0.38599000  0.14083000  1.0 -0.6085445334
O  O22  1  0.41871000  0.80470000  0.14083000  1.0 -0.6085445334
O  O23  1  0.38599000  0.58129000  0.14083000  1.0 -0.6085445334
O  O24  1  0.19530000  0.61401000  0.14083000  1.0 -0.6085445334
O  O25  1  0.94240000  0.55500000  0.59420000  1.0 -0.5323741783
O  O26  1  0.44500000  0.38740000  0.59420000  1.0 -0.5323741783
O  O27  1  0.61260000  0.05760000  0.59420000  1.0 -0.5323741783
O  O28  1  0.05760000  0.44500000  0.59420000  1.0 -0.5323741783
O  O29  1  0.55500000  0.61260000  0.59420000  1.0 -0.5323741783
O  O30  1  0.38740000  0.94240000  0.59420000  1.0 -0.5323741783
O  O31  1  0.55500000  0.94240000  0.90580000  1.0 -0.5323741783
O  O32  1  0.38740000  0.44500000  0.90580000  1.0 -0.5323741783
O  O33  1  0.05760000  0.61260000  0.90580000  1.0 -0.5323741783
O  O34  1  0.44500000  0.05760000  0.90580000  1.0 -0.5323741783
O  O35  1  0.61260000  0.55500000  0.90580000  1.0 -0.5323741783
O  O36  1  0.94240000  0.38740000  0.90580000  1.0 -0.5323741783
O  O37  1  0.05760000  0.44500000  0.40580000  1.0 -0.5323741783
O  O38  1  0.55500000  0.61260000  0.40580000  1.0 -0.5323741783
O  O39  1  0.38740000  0.94240000  0.40580000  1.0 -0.5323741783
O  O40  1  0.94240000  0.55500000  0.40580000  1.0 -0.5323741783
O  O41  1  0.44500000  0.38740000  0.40580000  1.0 -0.5323741783
O  O42  1  0.61260000  0.05760000  0.40580000  1.0 -0.5323741783
O  O43  1  0.44500000  0.05760000  0.09420000  1.0 -0.5323741783
O  O44  1  0.61260000  0.55500000  0.09420000  1.0 -0.5323741783
O  O45  1  0.94240000  0.38740000  0.09420000  1.0 -0.5323741783
O  O46  1  0.55500000  0.94240000  0.09420000  1.0 -0.5323741783
O  O47  1  0.38740000  0.44500000  0.09420000  1.0 -0.5323741783
O  O48  1  0.05760000  0.61260000  0.09420000  1.0 -0.5323741783
O  O49  1  0.13290000  0.64370000  0.50000000  1.0 -0.4922813524
O  O50  1  0.35630000  0.48920000  0.50000000  1.0 -0.4922813524
O  O51  1  0.51080000  0.86710000  0.50000000  1.0 -0.4922813524
O  O52  1  0.86710000  0.35630000  0.50000000  1.0 -0.4922813524
O  O53  1  0.64370000  0.51080000  0.50000000  1.0 -0.4922813524
O  O54  1  0.48920000  0.13290000  0.50000000  1.0 -0.4922813524
O  O55  1  0.64370000  0.13290000  0.00000000  1.0 -0.4922813524
O  O56  1  0.48920000  0.35630000  0.00000000  1.0 -0.4922813524
O  O57  1  0.86710000  0.51080000  0.00000000  1.0 -0.4922813524
O  O58  1  0.35630000  0.86710000  0.00000000  1.0 -0.4922813524
O  O59  1  0.51080000  0.64370000  0.00000000  1.0 -0.4922813524
O  O60  1  0.13290000  0.48920000  0.00000000  1.0 -0.4922813524
