# DDEC6 charges by PACMAN v1.1 (https://github.com/mtap-research/PACMAN-charge/)
data_ILUJAB_FSR_pacman
_symmetry_space_group_name_H-M   'P 1'
_cell_length_a   15.51400000
_cell_length_b   15.51400000
_cell_length_c   15.35400000
_cell_angle_alpha   90.00000000
_cell_angle_beta   90.00000000
_cell_angle_gamma   120.00000000
_symmetry_Int_Tables_number   1
_chemical_formula_structural   Pr2Fe3H18C42(NO5)6
_chemical_formula_sum   'Pr4 Fe6 H36 C84 N12 O60'
_cell_volume   3200.36669470
_cell_formula_units_Z   2
loop_
 _symmetry_equiv_pos_site_id
 _symmetry_equiv_pos_as_xyz
  1  'x, y, z'
loop_
 _atom_site_type_symbol
 _atom_site_label
 _atom_site_symmetry_multiplicity
 _atom_site_fract_x
 _atom_site_fract_y
 _atom_site_fract_z
 _atom_site_occupancy
 _atom_site_charge
Pr  Pr1  1  0.33333333  0.66666667  0.25000000  1.0 1.8171240661
Pr  Pr2  1  0.66666667  0.33333333  0.25000000  1.0 1.8171240661
Pr  Pr3  1  0.66666667  0.33333333  0.75000000  1.0 1.8171240661
Pr  Pr4  1  0.33333333  0.66666667  0.75000000  1.0 1.8171240661
Fe  Fe1  1  0.50000000  0.00000000  0.00000000  1.0 1.1388328645
Fe  Fe2  1  0.00000000  0.50000000  0.00000000  1.0 1.1335447404
Fe  Fe3  1  0.50000000  0.50000000  0.00000000  1.0 1.1335447404
Fe  Fe4  1  0.00000000  0.50000000  0.50000000  1.0 1.1335447404
Fe  Fe5  1  0.50000000  0.00000000  0.50000000  1.0 1.1388328645
Fe  Fe6  1  0.50000000  0.50000000  0.50000000  1.0 1.1335447404
H  H1  1  0.23370000  0.94650000  0.15560000  1.0 0.1335550222
H  H2  1  0.05350000  0.28720000  0.15560000  1.0 0.1335550222
H  H3  1  0.71280000  0.76630000  0.15560000  1.0 0.1335550222
H  H4  1  0.76630000  0.05350000  0.15560000  1.0 0.1335550222
H  H5  1  0.94650000  0.71280000  0.15560000  1.0 0.1335550222
H  H6  1  0.28720000  0.23370000  0.15560000  1.0 0.1335550222
H  H7  1  0.94650000  0.23370000  0.34440000  1.0 0.1335550222
H  H8  1  0.28720000  0.05350000  0.34440000  1.0 0.1335550222
H  H9  1  0.76630000  0.71280000  0.34440000  1.0 0.1335550222
H  H10  1  0.05350000  0.76630000  0.34440000  1.0 0.1335550222
H  H11  1  0.71280000  0.94650000  0.34440000  1.0 0.1335550222
H  H12  1  0.23370000  0.28720000  0.34440000  1.0 0.1335550222
H  H13  1  0.76630000  0.05350000  0.84440000  1.0 0.1335550222
H  H14  1  0.94650000  0.71280000  0.84440000  1.0 0.1335550222
H  H15  1  0.28720000  0.23370000  0.84440000  1.0 0.1335550222
H  H16  1  0.23370000  0.94650000  0.84440000  1.0 0.1335550222
H  H17  1  0.05350000  0.28720000  0.84440000  1.0 0.1335550222
H  H18  1  0.71280000  0.76630000  0.84440000  1.0 0.1335550222
H  H19  1  0.05350000  0.76630000  0.65560000  1.0 0.1335550222
H  H20  1  0.71280000  0.94650000  0.65560000  1.0 0.1335550222
H  H21  1  0.23370000  0.28720000  0.65560000  1.0 0.1335550222
H  H22  1  0.94650000  0.23370000  0.65560000  1.0 0.1335550222
H  H23  1  0.28720000  0.05350000  0.65560000  1.0 0.1335550222
H  H24  1  0.76630000  0.71280000  0.65560000  1.0 0.1335550222
H  H25  1  0.10010000  0.89990000  0.25000000  1.0 0.1061938923
H  H26  1  0.10010000  0.20020000  0.25000000  1.0 0.1061938923
H  H27  1  0.79980000  0.89990000  0.25000000  1.0 0.1061938923
H  H28  1  0.89990000  0.10010000  0.25000000  1.0 0.1010741734
H  H29  1  0.89990000  0.79980000  0.25000000  1.0 0.1061938923
H  H30  1  0.20020000  0.10010000  0.25000000  1.0 0.1061938923
H  H31  1  0.89990000  0.10010000  0.75000000  1.0 0.1010741734
H  H32  1  0.89990000  0.79980000  0.75000000  1.0 0.1061938923
H  H33  1  0.20020000  0.10010000  0.75000000  1.0 0.1061938923
H  H34  1  0.10010000  0.89990000  0.75000000  1.0 0.1061938923
H  H35  1  0.10010000  0.20020000  0.75000000  1.0 0.1061938923
H  H36  1  0.79980000  0.89990000  0.75000000  1.0 0.1061938923
C  C1  1  0.26430000  0.84080000  0.19640000  1.0 0.1162566321
C  C2  1  0.15920000  0.42350000  0.19640000  1.0 0.1162566321
C  C3  1  0.57650000  0.73570000  0.19640000  1.0 0.1162566321
C  C4  1  0.73570000  0.15920000  0.19640000  1.0 0.1162566321
C  C5  1  0.84080000  0.57650000  0.19640000  1.0 0.1162566321
C  C6  1  0.42350000  0.26430000  0.19640000  1.0 0.1162566321
C  C7  1  0.84080000  0.26430000  0.30360000  1.0 0.1162566321
C  C8  1  0.42350000  0.15920000  0.30360000  1.0 0.1162566321
C  C9  1  0.73570000  0.57650000  0.30360000  1.0 0.1162566321
C  C10  1  0.15920000  0.73570000  0.30360000  1.0 0.1162566321
C  C11  1  0.57650000  0.84080000  0.30360000  1.0 0.1162566321
C  C12  1  0.26430000  0.42350000  0.30360000  1.0 0.1162566321
C  C13  1  0.73570000  0.15920000  0.80360000  1.0 0.1162566321
C  C14  1  0.84080000  0.57650000  0.80360000  1.0 0.1162566321
C  C15  1  0.42350000  0.26430000  0.80360000  1.0 0.1162566321
C  C16  1  0.26430000  0.84080000  0.80360000  1.0 0.1162566321
C  C17  1  0.15920000  0.42350000  0.80360000  1.0 0.1162566321
C  C18  1  0.57650000  0.73570000  0.80360000  1.0 0.1162566321
C  C19  1  0.15920000  0.73570000  0.69640000  1.0 0.1162566321
C  C20  1  0.57650000  0.84080000  0.69640000  1.0 0.1162566321
C  C21  1  0.26430000  0.42350000  0.69640000  1.0 0.1162566321
C  C22  1  0.84080000  0.26430000  0.69640000  1.0 0.1162566321
C  C23  1  0.42350000  0.15920000  0.69640000  1.0 0.1162566321
C  C24  1  0.73570000  0.57650000  0.69640000  1.0 0.1162566321
C  C25  1  0.21440000  0.89350000  0.19390000  1.0 -0.1504492656
C  C26  1  0.10650000  0.32090000  0.19390000  1.0 -0.1504492656
C  C27  1  0.67910000  0.78560000  0.19390000  1.0 -0.1504492656
C  C28  1  0.78560000  0.10650000  0.19390000  1.0 -0.1504492656
C  C29  1  0.89350000  0.67910000  0.19390000  1.0 -0.1504492656
C  C30  1  0.32090000  0.21440000  0.19390000  1.0 -0.1504492656
C  C31  1  0.89350000  0.21440000  0.30610000  1.0 -0.1504492656
C  C32  1  0.32090000  0.10650000  0.30610000  1.0 -0.1504492656
C  C33  1  0.78560000  0.67910000  0.30610000  1.0 -0.1504492656
C  C34  1  0.10650000  0.78560000  0.30610000  1.0 -0.1504492656
C  C35  1  0.67910000  0.89350000  0.30610000  1.0 -0.1504492656
C  C36  1  0.21440000  0.32090000  0.30610000  1.0 -0.1504492656
C  C37  1  0.78560000  0.10650000  0.80610000  1.0 -0.1504492656
C  C38  1  0.89350000  0.67910000  0.80610000  1.0 -0.1504492656
C  C39  1  0.32090000  0.21440000  0.80610000  1.0 -0.1504492656
C  C40  1  0.21440000  0.89350000  0.80610000  1.0 -0.1504492656
C  C41  1  0.10650000  0.32090000  0.80610000  1.0 -0.1504492656
C  C42  1  0.67910000  0.78560000  0.80610000  1.0 -0.1504492656
C  C43  1  0.10650000  0.78560000  0.69390000  1.0 -0.1504492656
C  C44  1  0.67910000  0.89350000  0.69390000  1.0 -0.1504492656
C  C45  1  0.21440000  0.32090000  0.69390000  1.0 -0.1504492656
C  C46  1  0.89350000  0.21440000  0.69390000  1.0 -0.1504492656
C  C47  1  0.32090000  0.10650000  0.69390000  1.0 -0.1504492656
C  C48  1  0.78560000  0.67910000  0.69390000  1.0 -0.1504492656
C  C49  1  0.13470000  0.86530000  0.25000000  1.0 -0.063626835
C  C50  1  0.13470000  0.26940000  0.25000000  1.0 -0.063626835
C  C51  1  0.73060000  0.86530000  0.25000000  1.0 -0.063626835
C  C52  1  0.86530000  0.13470000  0.25000000  1.0 -0.063626835
C  C53  1  0.86530000  0.73060000  0.25000000  1.0 -0.063626835
C  C54  1  0.26940000  0.13470000  0.25000000  1.0 -0.063626835
C  C55  1  0.86530000  0.13470000  0.75000000  1.0 -0.063626835
C  C56  1  0.86530000  0.73060000  0.75000000  1.0 -0.063626835
C  C57  1  0.26940000  0.13470000  0.75000000  1.0 -0.063626835
C  C58  1  0.13470000  0.86530000  0.75000000  1.0 -0.063626835
C  C59  1  0.13470000  0.26940000  0.75000000  1.0 -0.063626835
C  C60  1  0.73060000  0.86530000  0.75000000  1.0 -0.063626835
C  C61  1  0.35300000  0.86540000  0.13900000  1.0 0.5409654054
C  C62  1  0.13460000  0.48760000  0.13900000  1.0 0.5409654054
C  C63  1  0.51240000  0.64700000  0.13900000  1.0 0.5409654054
C  C64  1  0.64700000  0.13460000  0.13900000  1.0 0.5409654054
C  C65  1  0.86540000  0.51240000  0.13900000  1.0 0.5409654054
C  C66  1  0.48760000  0.35300000  0.13900000  1.0 0.5409654054
C  C67  1  0.86540000  0.35300000  0.36100000  1.0 0.5409654054
C  C68  1  0.48760000  0.13460000  0.36100000  1.0 0.5409654054
C  C69  1  0.64700000  0.51240000  0.36100000  1.0 0.5409654054
C  C70  1  0.13460000  0.64700000  0.36100000  1.0 0.5409654054
C  C71  1  0.51240000  0.86540000  0.36100000  1.0 0.5409654054
C  C72  1  0.35300000  0.48760000  0.36100000  1.0 0.5409654054
C  C73  1  0.64700000  0.13460000  0.86100000  1.0 0.5409654054
C  C74  1  0.86540000  0.51240000  0.86100000  1.0 0.5409654054
C  C75  1  0.48760000  0.35300000  0.86100000  1.0 0.5409654054
C  C76  1  0.35300000  0.86540000  0.86100000  1.0 0.5409654054
C  C77  1  0.13460000  0.48760000  0.86100000  1.0 0.5409654054
C  C78  1  0.51240000  0.64700000  0.86100000  1.0 0.5409654054
C  C79  1  0.13460000  0.64700000  0.63900000  1.0 0.5409654054
C  C80  1  0.51240000  0.86540000  0.63900000  1.0 0.5409654054
C  C81  1  0.35300000  0.48760000  0.63900000  1.0 0.5409654054
C  C82  1  0.86540000  0.35300000  0.63900000  1.0 0.5409654054
C  C83  1  0.48760000  0.13460000  0.63900000  1.0 0.5409654054
C  C84  1  0.64700000  0.51240000  0.63900000  1.0 0.5409654054
N  N1  1  0.23709000  0.76291000  0.25000000  1.0 -0.3405901518
N  N2  1  0.23709000  0.47418000  0.25000000  1.0 -0.3405901518
N  N3  1  0.52582000  0.76291000  0.25000000  1.0 -0.3405901518
N  N4  1  0.76291000  0.23709000  0.25000000  1.0 -0.3405901518
N  N5  1  0.76291000  0.52582000  0.25000000  1.0 -0.3405901518
N  N6  1  0.47418000  0.23709000  0.25000000  1.0 -0.3405901518
N  N7  1  0.76291000  0.23709000  0.75000000  1.0 -0.3405901518
N  N8  1  0.76291000  0.52582000  0.75000000  1.0 -0.3405901518
N  N9  1  0.47418000  0.23709000  0.75000000  1.0 -0.3405901518
N  N10  1  0.23709000  0.76291000  0.75000000  1.0 -0.3405901518
N  N11  1  0.23709000  0.47418000  0.75000000  1.0 -0.3405901518
N  N12  1  0.52582000  0.76291000  0.75000000  1.0 -0.3405901518
O  O1  1  0.38600000  0.80460000  0.14102000  1.0 -0.5764240866
O  O2  1  0.19540000  0.58140000  0.14102000  1.0 -0.5764240866
O  O3  1  0.41860000  0.61400000  0.14102000  1.0 -0.5764240866
O  O4  1  0.61400000  0.19540000  0.14102000  1.0 -0.5764240866
O  O5  1  0.80460000  0.41860000  0.14102000  1.0 -0.5764240866
O  O6  1  0.58140000  0.38600000  0.14102000  1.0 -0.5749111798
O  O7  1  0.80460000  0.38600000  0.35898000  1.0 -0.5764240866
O  O8  1  0.58140000  0.19540000  0.35898000  1.0 -0.5764240866
O  O9  1  0.61400000  0.41860000  0.35898000  1.0 -0.5764240866
O  O10  1  0.19540000  0.61400000  0.35898000  1.0 -0.5764240866
O  O11  1  0.41860000  0.80460000  0.35898000  1.0 -0.5764240866
O  O12  1  0.38600000  0.58140000  0.35898000  1.0 -0.5764240866
O  O13  1  0.61400000  0.19540000  0.85898000  1.0 -0.5764240866
O  O14  1  0.80460000  0.41860000  0.85898000  1.0 -0.5764240866
O  O15  1  0.58140000  0.38600000  0.85898000  1.0 -0.5749111798
O  O16  1  0.38600000  0.80460000  0.85898000  1.0 -0.5764240866
O  O17  1  0.19540000  0.58140000  0.85898000  1.0 -0.5764240866
O  O18  1  0.41860000  0.61400000  0.85898000  1.0 -0.5764240866
O  O19  1  0.19540000  0.61400000  0.64102000  1.0 -0.5764240866
O  O20  1  0.41860000  0.80460000  0.64102000  1.0 -0.5764240866
O  O21  1  0.38600000  0.58140000  0.64102000  1.0 -0.5764240866
O  O22  1  0.80460000  0.38600000  0.64102000  1.0 -0.5764240866
O  O23  1  0.58140000  0.19540000  0.64102000  1.0 -0.5764240866
O  O24  1  0.61400000  0.41860000  0.64102000  1.0 -0.5764240866
O  O25  1  0.38740000  0.94240000  0.09430000  1.0 -0.5524495171
O  O26  1  0.05760000  0.44500000  0.09430000  1.0 -0.5524495171
O  O27  1  0.55500000  0.61260000  0.09430000  1.0 -0.5524495171
O  O28  1  0.61260000  0.05760000  0.09430000  1.0 -0.5524495171
O  O29  1  0.94240000  0.55500000  0.09430000  1.0 -0.5524495171
O  O30  1  0.44500000  0.38740000  0.09430000  1.0 -0.5524495171
O  O31  1  0.94240000  0.38740000  0.40570000  1.0 -0.5524495171
O  O32  1  0.44500000  0.05760000  0.40570000  1.0 -0.5524495171
O  O33  1  0.61260000  0.55500000  0.40570000  1.0 -0.5524495171
O  O34  1  0.05760000  0.61260000  0.40570000  1.0 -0.5524495171
O  O35  1  0.55500000  0.94240000  0.40570000  1.0 -0.5524495171
O  O36  1  0.38740000  0.44500000  0.40570000  1.0 -0.5524495171
O  O37  1  0.61260000  0.05760000  0.90570000  1.0 -0.5524495171
O  O38  1  0.94240000  0.55500000  0.90570000  1.0 -0.5524495171
O  O39  1  0.44500000  0.38740000  0.90570000  1.0 -0.5524495171
O  O40  1  0.38740000  0.94240000  0.90570000  1.0 -0.5524495171
O  O41  1  0.05760000  0.44500000  0.90570000  1.0 -0.5524495171
O  O42  1  0.55500000  0.61260000  0.90570000  1.0 -0.5524495171
O  O43  1  0.05760000  0.61260000  0.59430000  1.0 -0.5524495171
O  O44  1  0.55500000  0.94240000  0.59430000  1.0 -0.5524495171
O  O45  1  0.38740000  0.44500000  0.59430000  1.0 -0.5524495171
O  O46  1  0.94240000  0.38740000  0.59430000  1.0 -0.5524495171
O  O47  1  0.44500000  0.05760000  0.59430000  1.0 -0.5524495171
O  O48  1  0.61260000  0.55500000  0.59430000  1.0 -0.5524495171
O  O49  1  0.48920000  0.13390000  0.00000000  1.0 0.1010741734
O  O50  1  0.86610000  0.35530000  0.00000000  1.0 0.1061938923
O  O51  1  0.64470000  0.51080000  0.00000000  1.0 0.1010741734
O  O52  1  0.51080000  0.86610000  0.00000000  1.0 0.1010741734
O  O53  1  0.13390000  0.64470000  0.00000000  1.0 0.1010741734
O  O54  1  0.35530000  0.48920000  0.00000000  1.0 0.1010741734
O  O55  1  0.13390000  0.48920000  0.50000000  1.0 0.1010741734
O  O56  1  0.35530000  0.86610000  0.50000000  1.0 0.1010741734
O  O57  1  0.51080000  0.64470000  0.50000000  1.0 0.1010741734
O  O58  1  0.86610000  0.51080000  0.50000000  1.0 0.1010741734
O  O59  1  0.64470000  0.13390000  0.50000000  1.0 0.1061938923
O  O60  1  0.48920000  0.35530000  0.50000000  1.0 0.1061938923
