# DDEC6 charges by PACMAN v1.1 (https://github.com/mtap-research/PACMAN-charge/)
data_IMULEH_ASR_pacman
_symmetry_space_group_name_H-M   'P 1'
_cell_length_a   13.77620000
_cell_length_b   13.77620000
_cell_length_c   27.34610000
_cell_angle_alpha   76.97800000
_cell_angle_beta   103.02200000
_cell_angle_gamma   90.55020000
_symmetry_Int_Tables_number   1
_chemical_formula_structural   CoH24C28(SN2)3
_chemical_formula_sum   'Co4 H96 C112 S12 N24'
_cell_volume   4921.71240371
_cell_formula_units_Z   4
loop_
 _symmetry_equiv_pos_site_id
 _symmetry_equiv_pos_as_xyz
  1  'x, y, z'
loop_
 _atom_site_type_symbol
 _atom_site_label
 _atom_site_symmetry_multiplicity
 _atom_site_fract_x
 _atom_site_fract_y
 _atom_site_fract_z
 _atom_site_occupancy
 _atom_site_charge
Co  Co1  1  0.17192000  0.86820000  0.91779000  1.0 0.6578296198
Co  Co2  1  0.13180000  0.82808000  0.41779000  1.0 0.6578296198
Co  Co3  1  0.82808000  0.13180000  0.08221000  1.0 0.6578296198
Co  Co4  1  0.86820000  0.17192000  0.58221000  1.0 0.6578296198
H  H1  1  0.02570000  0.69390000  0.93260000  1.0 0.1010003241
H  H2  1  0.30610000  0.97430000  0.43260000  1.0 0.1061770956
H  H3  1  0.00640000  0.53040000  0.93960000  1.0 0.1304640839
H  H4  1  0.46960000  0.99360000  0.43960000  1.0 0.1304640839
H  H5  1  0.28370000  0.51330000  0.91980000  1.0 0.1304640839
H  H6  1  0.48670000  0.71630000  0.41980000  1.0 0.1304640839
H  H7  1  0.29100000  0.67980000  0.91340000  1.0 0.1010003241
H  H8  1  0.32020000  0.70900000  0.41340000  1.0 0.1010003241
H  H9  1  0.06830000  0.26950000  0.97120000  1.0 0.1304640839
H  H10  1  0.73050000  0.93170000  0.47120000  1.0 0.1304640839
H  H11  1  0.11520000  0.33640000  0.00900000  1.0 0.1397690474
H  H12  1  0.66360000  0.88480000  0.50900000  1.0 0.1397690474
H  H13  1  0.01570000  0.37210000  0.96780000  1.0 0.1217365093
H  H14  1  0.62790000  0.98430000  0.46780000  1.0 0.1217365093
H  H15  1  0.10350000  0.07350000  0.84440000  1.0 0.1010003241
H  H16  1  0.92650000  0.89650000  0.34440000  1.0 0.1010003241
H  H17  1  0.10170000  0.24150000  0.83930000  1.0 0.1304640839
H  H18  1  0.75850000  0.89830000  0.33930000  1.0 0.1304640839
H  H19  1  0.26120000  0.18320000  0.98440000  1.0 0.1304640839
H  H20  1  0.81680000  0.73880000  0.48440000  1.0 0.1304640839
H  H21  1  0.25770000  0.02010000  0.98610000  1.0 0.1061770956
H  H22  1  0.97990000  0.74230000  0.48610000  1.0 0.1061770956
H  H23  1  0.20950000  0.38190000  0.88530000  1.0 0.1217365093
H  H24  1  0.61810000  0.79050000  0.38530000  1.0 0.1217365093
H  H25  1  0.05680000  0.94520000  0.98850000  1.0 0.0889034401
H  H26  1  0.05480000  0.94320000  0.48850000  1.0 0.0889034401
H  H27  1  0.04480000  0.91860000  0.07270000  1.0 0.1304640839
H  H28  1  0.08140000  0.95520000  0.57270000  1.0 0.1304640839
H  H29  1  0.24200000  0.69640000  0.10860000  1.0 0.1304640839
H  H30  1  0.30360000  0.75800000  0.60860000  1.0 0.1304640839
H  H31  1  0.24880000  0.72300000  0.02430000  1.0 0.1010003241
H  H32  1  0.27700000  0.75120000  0.52430000  1.0 0.1010003241
H  H33  1  0.08670000  0.64390000  0.20910000  1.0 0.0889034401
H  H34  1  0.35610000  0.91330000  0.70910000  1.0 0.0802250749
H  H35  1  0.07940000  0.61600000  0.15590000  1.0 0.1217365093
H  H36  1  0.38400000  0.92060000  0.65590000  1.0 0.1217365093
H  H37  1  0.18360000  0.61520000  0.19370000  1.0 0.1217365093
H  H38  1  0.38480000  0.81640000  0.69370000  1.0 0.1217365093
H  H39  1  0.13440000  0.95640000  0.30790000  1.0 0.1010003241
H  H40  1  0.04360000  0.86560000  0.80790000  1.0 0.1010003241
H  H41  1  0.13780000  0.94100000  0.22670000  1.0 0.1304640839
H  H42  1  0.05900000  0.86220000  0.72670000  1.0 0.1304640839
H  H43  1  0.09360000  0.67500000  0.34810000  1.0 0.0889034401
H  H44  1  0.32500000  0.90640000  0.84810000  1.0 0.0889034401
H  H45  1  0.09190000  0.66030000  0.26550000  1.0 0.1397690474
H  H46  1  0.33970000  0.90810000  0.76550000  1.0 0.1397690474
H  H47  1  0.12480000  0.86620000  0.16620000  1.0 0.1061770956
H  H48  1  0.13380000  0.87520000  0.66620000  1.0 0.1061770956
H  H49  1  0.97430000  0.30610000  0.06740000  1.0 0.1010003241
H  H50  1  0.69390000  0.02570000  0.56740000  1.0 0.1010003241
H  H51  1  0.99360000  0.46960000  0.06040000  1.0 0.1304640839
H  H52  1  0.53040000  0.00640000  0.56040000  1.0 0.1304640839
H  H53  1  0.71630000  0.48670000  0.08020000  1.0 0.1304640839
H  H54  1  0.51330000  0.28370000  0.58020000  1.0 0.1304640839
H  H55  1  0.70900000  0.32020000  0.08660000  1.0 0.1010003241
H  H56  1  0.67980000  0.29100000  0.58660000  1.0 0.1010003241
H  H57  1  0.93170000  0.73050000  0.02880000  1.0 0.1304640839
H  H58  1  0.26950000  0.06830000  0.52880000  1.0 0.1304640839
H  H59  1  0.88480000  0.66360000  0.99100000  1.0 0.1397690474
H  H60  1  0.33640000  0.11520000  0.49100000  1.0 0.1397690474
H  H61  1  0.98430000  0.62790000  0.03220000  1.0 0.1217365093
H  H62  1  0.37210000  0.01570000  0.53220000  1.0 0.1217365093
H  H63  1  0.89650000  0.92650000  0.15560000  1.0 0.1010003241
H  H64  1  0.07350000  0.10350000  0.65560000  1.0 0.1010003241
H  H65  1  0.89830000  0.75850000  0.16070000  1.0 0.1304640839
H  H66  1  0.24150000  0.10170000  0.66070000  1.0 0.1304640839
H  H67  1  0.73880000  0.81680000  0.01560000  1.0 0.1304640839
H  H68  1  0.18320000  0.26120000  0.51560000  1.0 0.1304640839
H  H69  1  0.74230000  0.97990000  0.01390000  1.0 0.1061770956
H  H70  1  0.02010000  0.25770000  0.51390000  1.0 0.1061770956
H  H71  1  0.79050000  0.61810000  0.11470000  1.0 0.1217365093
H  H72  1  0.38190000  0.20950000  0.61470000  1.0 0.1217365093
H  H73  1  0.94320000  0.05480000  0.01150000  1.0 0.0889034401
H  H74  1  0.94520000  0.05680000  0.51150000  1.0 0.0889034401
H  H75  1  0.95520000  0.08140000  0.92730000  1.0 0.1304640839
H  H76  1  0.91860000  0.04480000  0.42730000  1.0 0.1304640839
H  H77  1  0.75800000  0.30360000  0.89140000  1.0 0.1304640839
H  H78  1  0.69640000  0.24200000  0.39140000  1.0 0.1304640839
H  H79  1  0.75120000  0.27700000  0.97570000  1.0 0.1010003241
H  H80  1  0.72300000  0.24880000  0.47570000  1.0 0.1010003241
H  H81  1  0.91330000  0.35610000  0.79090000  1.0 0.0889034401
H  H82  1  0.64390000  0.08670000  0.29090000  1.0 0.0889034401
H  H83  1  0.92060000  0.38400000  0.84410000  1.0 0.1217365093
H  H84  1  0.61600000  0.07940000  0.34410000  1.0 0.1217365093
H  H85  1  0.81640000  0.38480000  0.80630000  1.0 0.1217365093
H  H86  1  0.61520000  0.18360000  0.30630000  1.0 0.1217365093
H  H87  1  0.86560000  0.04360000  0.69210000  1.0 0.1010003241
H  H88  1  0.95640000  0.13440000  0.19210000  1.0 0.1010003241
H  H89  1  0.86220000  0.05900000  0.77330000  1.0 0.1304640839
H  H90  1  0.94100000  0.13780000  0.27330000  1.0 0.1304640839
H  H91  1  0.90640000  0.32500000  0.65190000  1.0 0.0889034401
H  H92  1  0.67500000  0.09360000  0.15190000  1.0 0.0889034401
H  H93  1  0.90810000  0.33970000  0.73450000  1.0 0.1397690474
H  H94  1  0.66030000  0.09190000  0.23450000  1.0 0.1397690474
H  H95  1  0.87520000  0.13380000  0.83380000  1.0 0.1061770956
H  H96  1  0.86620000  0.12480000  0.33380000  1.0 0.1061770956
C  C1  1  0.07900000  0.65660000  0.92950000  1.0 0.0599859701
C  C2  1  0.34340000  0.92100000  0.42950000  1.0 0.0599859701
C  C3  1  0.06580000  0.55800000  0.93380000  1.0 -0.1991451365
C  C4  1  0.44200000  0.93420000  0.43380000  1.0 -0.1991451365
C  C5  1  0.14280000  0.49900000  0.92940000  1.0 0.1010003241
C  C6  1  0.50100000  0.85720000  0.42940000  1.0 0.1061770956
C  C7  1  0.22850000  0.54870000  0.92220000  1.0 -0.1991451365
C  C8  1  0.45130000  0.77150000  0.42220000  1.0 -0.1991451365
C  C9  1  0.23240000  0.64940000  0.91840000  1.0 0.0688625052
C  C10  1  0.35060000  0.76760000  0.41840000  1.0 0.0688625052
C  C11  1  0.13680000  0.38740000  0.93730000  1.0 0.1304640839
C  C12  1  0.61260000  0.86320000  0.43730000  1.0 0.1304640839
C  C13  1  0.07890000  0.33690000  0.97460000  1.0 -0.4584107177
C  C14  1  0.66310000  0.92110000  0.47460000  1.0 -0.4584107177
C  C15  1  0.13740000  0.09640000  0.87280000  1.0 0.0802250749
C  C16  1  0.90360000  0.86260000  0.37280000  1.0 0.0802250749
C  C17  1  0.13470000  0.19770000  0.86950000  1.0 -0.2128972516
C  C18  1  0.80230000  0.86530000  0.36950000  1.0 -0.2128972516
C  C19  1  0.18230000  0.23310000  0.91210000  1.0 0.1639897655
C  C20  1  0.76690000  0.81770000  0.41210000  1.0 0.1639897655
C  C21  1  0.22860000  0.16260000  0.95500000  1.0 -0.1767220573
C  C22  1  0.83740000  0.77140000  0.45500000  1.0 -0.1767220573
C  C23  1  0.22780000  0.06520000  0.95570000  1.0 0.0599859701
C  C24  1  0.93480000  0.77220000  0.45570000  1.0 0.0599859701
C  C25  1  0.17910000  0.34190000  0.90920000  1.0 -0.2389578597
C  C26  1  0.65810000  0.82090000  0.40920000  1.0 -0.2389578597
C  C27  1  0.09530000  0.89350000  0.01270000  1.0 0.0802250749
C  C28  1  0.10650000  0.90470000  0.51270000  1.0 0.0802250749
C  C29  1  0.08710000  0.87690000  0.06370000  1.0 -0.2190203245
C  C30  1  0.12310000  0.91290000  0.56370000  1.0 -0.2190203245
C  C31  1  0.13990000  0.80050000  0.10070000  1.0 0.0889034401
C  C32  1  0.19950000  0.86010000  0.60070000  1.0 0.0889034401
C  C33  1  0.20150000  0.74710000  0.08470000  1.0 -0.18677447
C  C34  1  0.25290000  0.79850000  0.58470000  1.0 -0.18677447
C  C35  1  0.20720000  0.76460000  0.03380000  1.0 0.0688625052
C  C36  1  0.23540000  0.79280000  0.53380000  1.0 0.0688625052
C  C37  1  0.12960000  0.76400000  0.15460000  1.0 0.0889034401
C  C38  1  0.23600000  0.87040000  0.65460000  1.0 0.1010003241
C  C39  1  0.11870000  0.64790000  0.18100000  1.0 -0.407434173
C  C40  1  0.35210000  0.88130000  0.68100000  1.0 -0.407434173
C  C41  1  0.12680000  0.89380000  0.30040000  1.0 0.0802250749
C  C42  1  0.10620000  0.87320000  0.80040000  1.0 0.0802250749
C  C43  1  0.12880000  0.88400000  0.25070000  1.0 -0.2190203245
C  C44  1  0.11600000  0.87120000  0.75070000  1.0 -0.2190203245
C  C45  1  0.11870000  0.79970000  0.23590000  1.0 0.1217365093
C  C46  1  0.20030000  0.88130000  0.73590000  1.0 0.1217365093
C  C47  1  0.10260000  0.73140000  0.32370000  1.0 0.0802250749
C  C48  1  0.26860000  0.89740000  0.82370000  1.0 0.0889034401
C  C49  1  0.10290000  0.72230000  0.27340000  1.0 -0.2190203245
C  C50  1  0.27770000  0.89710000  0.77340000  1.0 -0.2190203245
C  C51  1  0.12520000  0.79900000  0.18220000  1.0 -0.16065925
C  C52  1  0.20100000  0.87480000  0.68220000  1.0 -0.16065925
C  C53  1  0.93820000  0.88420000  0.88370000  1.0 0.2445467039
C  C54  1  0.11580000  0.06180000  0.38370000  1.0 0.2445467039
C  C55  1  0.41060000  0.84860000  0.94190000  1.0 0.1639897655
C  C56  1  0.15140000  0.58940000  0.44190000  1.0 0.1639897655
C  C57  1  0.92100000  0.34340000  0.07050000  1.0 0.0599859701
C  C58  1  0.65660000  0.07900000  0.57050000  1.0 0.0599859701
C  C59  1  0.93420000  0.44200000  0.06620000  1.0 -0.1991451365
C  C60  1  0.55800000  0.06580000  0.56620000  1.0 -0.1991451365
C  C61  1  0.85720000  0.50100000  0.07060000  1.0 0.1010003241
C  C62  1  0.49900000  0.14280000  0.57060000  1.0 0.1061770956
C  C63  1  0.77150000  0.45130000  0.07780000  1.0 -0.1991451365
C  C64  1  0.54870000  0.22850000  0.57780000  1.0 -0.1991451365
C  C65  1  0.76760000  0.35060000  0.08160000  1.0 0.0688625052
C  C66  1  0.64940000  0.23240000  0.58160000  1.0 0.0688625052
C  C67  1  0.86320000  0.61260000  0.06270000  1.0 0.1304640839
C  C68  1  0.38740000  0.13680000  0.56270000  1.0 0.1304640839
C  C69  1  0.92110000  0.66310000  0.02540000  1.0 -0.4584107177
C  C70  1  0.33690000  0.07890000  0.52540000  1.0 -0.4584107177
C  C71  1  0.86260000  0.90360000  0.12720000  1.0 0.0802250749
C  C72  1  0.09640000  0.13740000  0.62720000  1.0 0.0802250749
C  C73  1  0.86530000  0.80230000  0.13050000  1.0 -0.2128972516
C  C74  1  0.19770000  0.13470000  0.63050000  1.0 -0.2128972516
C  C75  1  0.81770000  0.76690000  0.08790000  1.0 0.1639897655
C  C76  1  0.23310000  0.18230000  0.58790000  1.0 0.1639897655
C  C77  1  0.77140000  0.83740000  0.04500000  1.0 -0.1767220573
C  C78  1  0.16260000  0.22860000  0.54500000  1.0 -0.1767220573
C  C79  1  0.77220000  0.93480000  0.04430000  1.0 0.0599859701
C  C80  1  0.06520000  0.22780000  0.54430000  1.0 0.0599859701
C  C81  1  0.82090000  0.65810000  0.09080000  1.0 -0.2389578597
C  C82  1  0.34190000  0.17910000  0.59080000  1.0 -0.2389578597
C  C83  1  0.90470000  0.10650000  0.98730000  1.0 0.0802250749
C  C84  1  0.89350000  0.09530000  0.48730000  1.0 0.0802250749
C  C85  1  0.91290000  0.12310000  0.93630000  1.0 -0.2190203245
C  C86  1  0.87690000  0.08710000  0.43630000  1.0 -0.2190203245
C  C87  1  0.86010000  0.19950000  0.89930000  1.0 0.0889034401
C  C88  1  0.80050000  0.13990000  0.39930000  1.0 0.0889034401
C  C89  1  0.79850000  0.25290000  0.91530000  1.0 -0.18677447
C  C90  1  0.74710000  0.20150000  0.41530000  1.0 -0.18677447
C  C91  1  0.79280000  0.23540000  0.96620000  1.0 0.0688625052
C  C92  1  0.76460000  0.20720000  0.46620000  1.0 0.0688625052
C  C93  1  0.87040000  0.23600000  0.84540000  1.0 0.1010003241
C  C94  1  0.76400000  0.12960000  0.34540000  1.0 0.0889034401
C  C95  1  0.88130000  0.35210000  0.81900000  1.0 -0.407434173
C  C96  1  0.64790000  0.11870000  0.31900000  1.0 -0.407434173
C  C97  1  0.87320000  0.10620000  0.69960000  1.0 0.0802250749
C  C98  1  0.89380000  0.12680000  0.19960000  1.0 0.0802250749
C  C99  1  0.87120000  0.11600000  0.74930000  1.0 -0.2190203245
C  C100  1  0.88400000  0.12880000  0.24930000  1.0 -0.2190203245
C  C101  1  0.88130000  0.20030000  0.76410000  1.0 0.1217365093
C  C102  1  0.79970000  0.11870000  0.26410000  1.0 0.1217365093
C  C103  1  0.89740000  0.26860000  0.67630000  1.0 0.0889034401
C  C104  1  0.73140000  0.10260000  0.17630000  1.0 0.0889034401
C  C105  1  0.89710000  0.27770000  0.72660000  1.0 -0.2190203245
C  C106  1  0.72230000  0.10290000  0.22660000  1.0 -0.2190203245
C  C107  1  0.87480000  0.20100000  0.81780000  1.0 -0.16065925
C  C108  1  0.79900000  0.12520000  0.31780000  1.0 -0.16065925
C  C109  1  0.06180000  0.11580000  0.11630000  1.0 0.2445467039
C  C110  1  0.88420000  0.93820000  0.61630000  1.0 0.2445467039
C  C111  1  0.58940000  0.15140000  0.05810000  1.0 0.1639897655
C  C112  1  0.84860000  0.41060000  0.55810000  1.0 0.1639897655
S  S1  1  0.82000000  0.87260000  0.86670000  1.0 -0.3557905133
S  S2  1  0.12740000  0.18000000  0.36670000  1.0 -0.3548289911
S  S3  1  0.52030000  0.80550000  0.93370000  1.0 -0.0394171011
S  S4  1  0.19450000  0.47970000  0.43370000  1.0 -0.0394171011
S  S5  1  0.51190000  0.93330000  0.93850000  1.0 -0.0296517183
S  S6  1  0.06670000  0.48810000  0.43850000  1.0 -0.0296517183
S  S7  1  0.18000000  0.12740000  0.13330000  1.0 -0.3557905133
S  S8  1  0.87260000  0.82000000  0.63330000  1.0 -0.3557905133
S  S9  1  0.47970000  0.19450000  0.06630000  1.0 -0.0394171011
S  S10  1  0.80550000  0.52030000  0.56630000  1.0 -0.0394171011
S  S11  1  0.48810000  0.06670000  0.06150000  1.0 -0.0296517183
S  S12  1  0.93330000  0.51190000  0.56150000  1.0 -0.0296517183
N  N1  1  0.15790000  0.70610000  0.92148000  1.0 -0.2190203245
N  N2  1  0.29390000  0.84210000  0.42148000  1.0 -0.2190203245
N  N3  1  0.18530000  0.02930000  0.91402000  1.0 -0.2291791552
N  N4  1  0.97070000  0.81470000  0.41402000  1.0 -0.2291791552
N  N5  1  0.11470000  0.81690000  0.33679000  1.0 -0.2190203245
N  N6  1  0.18310000  0.88530000  0.83679000  1.0 -0.2190203245
N  N7  1  0.15480000  0.83980000  0.99734000  1.0 -0.2128972516
N  N8  1  0.16020000  0.84520000  0.49734000  1.0 -0.2128972516
N  N9  1  0.02190000  0.89230000  0.89460000  1.0 -0.4912018255
N  N10  1  0.10770000  0.97810000  0.39460000  1.0 -0.4912018255
N  N11  1  0.32490000  0.85010000  0.94270000  1.0 -0.4584107177
N  N12  1  0.14990000  0.67510000  0.44270000  1.0 -0.4584107177
N  N13  1  0.84210000  0.29390000  0.07852000  1.0 -0.2190203245
N  N14  1  0.70610000  0.15790000  0.57852000  1.0 -0.2190203245
N  N15  1  0.81470000  0.97070000  0.08598000  1.0 -0.2291791552
N  N16  1  0.02930000  0.18530000  0.58598000  1.0 -0.2291791552
N  N17  1  0.88530000  0.18310000  0.66321000  1.0 -0.2128972516
N  N18  1  0.81690000  0.11470000  0.16321000  1.0 -0.2128972516
N  N19  1  0.84520000  0.16020000  0.00266000  1.0 -0.2128972516
N  N20  1  0.83980000  0.15480000  0.50266000  1.0 -0.2128972516
N  N21  1  0.97810000  0.10770000  0.10540000  1.0 -0.4912018255
N  N22  1  0.89230000  0.02190000  0.60540000  1.0 -0.4912018255
N  N23  1  0.67510000  0.14990000  0.05730000  1.0 -0.4584107177
N  N24  1  0.85010000  0.32490000  0.55730000  1.0 -0.4584107177
