# DDEC6 charges by PACMAN v1.1 (https://github.com/mtap-research/PACMAN-charge/)
data_IMUVES_FSR_pacman
_symmetry_space_group_name_H-M   'P 1'
_cell_length_a   22.34920000
_cell_length_b   22.34920000
_cell_length_c   22.34920000
_cell_angle_alpha   109.47100000
_cell_angle_beta   109.47100000
_cell_angle_gamma   109.47100000
_symmetry_Int_Tables_number   1
_chemical_formula_structural   In3C9O7
_chemical_formula_sum   'In48 C144 O112'
_cell_volume   8593.45095676
_cell_formula_units_Z   16
loop_
 _symmetry_equiv_pos_site_id
 _symmetry_equiv_pos_as_xyz
  1  'x, y, z'
loop_
 _atom_site_type_symbol
 _atom_site_label
 _atom_site_symmetry_multiplicity
 _atom_site_fract_x
 _atom_site_fract_y
 _atom_site_fract_z
 _atom_site_occupancy
 _atom_site_charge
In  In1  1  0.20689000  0.31075000  0.29654000  1.0 0.7896380148
In  In2  1  0.01421000  0.91035000  0.70346000  1.0 0.7896380148
In  In3  1  0.98579000  0.68925000  0.89614000  1.0 0.7896380148
In  In4  1  0.79311000  0.08965000  0.10386000  1.0 0.7896380148
In  In5  1  0.29654000  0.20689000  0.31075000  1.0 0.7896380148
In  In6  1  0.70346000  0.01421000  0.91035000  1.0 0.7896380148
In  In7  1  0.89614000  0.98579000  0.68925000  1.0 0.7896380148
In  In8  1  0.10386000  0.79311000  0.08965000  1.0 0.7896380148
In  In9  1  0.31075000  0.29654000  0.20689000  1.0 0.7896380148
In  In10  1  0.91035000  0.70346000  0.01421000  1.0 0.7896380148
In  In11  1  0.68925000  0.89614000  0.98579000  1.0 0.7896380148
In  In12  1  0.08965000  0.10386000  0.79311000  1.0 0.7896380148
In  In13  1  0.31075000  0.20689000  0.29654000  1.0 0.7896380148
In  In14  1  0.91035000  0.01421000  0.70346000  1.0 0.7896380148
In  In15  1  0.68925000  0.98579000  0.89614000  1.0 0.7896380148
In  In16  1  0.08965000  0.79311000  0.10386000  1.0 0.7896380148
In  In17  1  0.20689000  0.29654000  0.31075000  1.0 0.7896380148
In  In18  1  0.01421000  0.70346000  0.91035000  1.0 0.7896380148
In  In19  1  0.98579000  0.89614000  0.68925000  1.0 0.7896380148
In  In20  1  0.79311000  0.10386000  0.08965000  1.0 0.775576271
In  In21  1  0.29654000  0.31075000  0.20689000  1.0 0.7896380148
In  In22  1  0.70346000  0.91035000  0.01421000  1.0 0.7896380148
In  In23  1  0.89614000  0.68925000  0.98579000  1.0 0.7896380148
In  In24  1  0.10386000  0.08965000  0.79311000  1.0 0.7896380148
In  In25  1  0.50000000  0.75950000  0.25950000  1.0 -0.1496476656
In  In26  1  0.50000000  0.24050000  0.74050000  1.0 -0.1496476656
In  In27  1  0.25950000  0.50000000  0.75950000  1.0 -0.1496476656
In  In28  1  0.74050000  0.50000000  0.24050000  1.0 -0.1496476656
In  In29  1  0.75950000  0.25950000  0.50000000  1.0 -0.1496476656
In  In30  1  0.24050000  0.74050000  0.50000000  1.0 -0.1496476656
In  In31  1  0.75950000  0.50000000  0.25950000  1.0 -0.1496476656
In  In32  1  0.24050000  0.50000000  0.74050000  1.0 -0.1496476656
In  In33  1  0.50000000  0.25950000  0.75950000  1.0 -0.1496476656
In  In34  1  0.50000000  0.74050000  0.24050000  1.0 -0.1496476656
In  In35  1  0.25950000  0.75950000  0.50000000  1.0 -0.1496476656
In  In36  1  0.74050000  0.24050000  0.50000000  1.0 -0.1496476656
In  In37  1  0.50000000  0.71100000  0.21100000  1.0 0.0810127716
In  In38  1  0.50000000  0.28900000  0.78900000  1.0 0.0810127716
In  In39  1  0.21100000  0.50000000  0.71100000  1.0 0.0810127716
In  In40  1  0.78900000  0.50000000  0.28900000  1.0 0.0810127716
In  In41  1  0.71100000  0.21100000  0.50000000  1.0 0.0810127716
In  In42  1  0.28900000  0.78900000  0.50000000  1.0 0.0810127716
In  In43  1  0.71100000  0.50000000  0.21100000  1.0 0.0810127716
In  In44  1  0.28900000  0.50000000  0.78900000  1.0 0.0810127716
In  In45  1  0.50000000  0.21100000  0.71100000  1.0 0.0810127716
In  In46  1  0.50000000  0.78900000  0.28900000  1.0 0.0810127716
In  In47  1  0.21100000  0.71100000  0.50000000  1.0 0.0810127716
In  In48  1  0.78900000  0.28900000  0.50000000  1.0 0.0810127716
C  C1  1  0.06680000  0.06680000  0.21740000  1.0 -0.2190203172
C  C2  1  0.84940000  0.84940000  0.78260000  1.0 -0.2190203172
C  C3  1  0.15060000  0.93320000  0.00000000  1.0 -0.2190203172
C  C4  1  0.93320000  0.15060000  0.00000000  1.0 -0.2190203172
C  C5  1  0.21740000  0.06680000  0.06680000  1.0 -0.2190203172
C  C6  1  0.78260000  0.84940000  0.84940000  1.0 -0.2190203172
C  C7  1  0.00000000  0.15060000  0.93320000  1.0 -0.2190203172
C  C8  1  0.00000000  0.93320000  0.15060000  1.0 -0.2190203172
C  C9  1  0.06680000  0.21740000  0.06680000  1.0 -0.2190203172
C  C10  1  0.84940000  0.78260000  0.84940000  1.0 -0.2190203172
C  C11  1  0.93320000  0.00000000  0.15060000  1.0 -0.2190203172
C  C12  1  0.15060000  0.00000000  0.93320000  1.0 -0.2190203172
C  C13  1  0.13730000  0.13730000  0.26120000  1.0 0.5639395489
C  C14  1  0.87610000  0.87610000  0.73880000  1.0 0.5639395489
C  C15  1  0.12390000  0.86270000  0.00000000  1.0 0.5639395489
C  C16  1  0.86270000  0.12390000  0.00000000  1.0 0.5639395489
C  C17  1  0.26120000  0.13730000  0.13730000  1.0 0.5704743571
C  C18  1  0.73880000  0.87610000  0.87610000  1.0 0.5704743571
C  C19  1  0.00000000  0.12390000  0.86270000  1.0 0.5639395489
C  C20  1  0.00000000  0.86270000  0.12390000  1.0 0.5639395489
C  C21  1  0.13730000  0.26120000  0.13730000  1.0 0.5639395489
C  C22  1  0.87610000  0.73880000  0.87610000  1.0 0.5704743571
C  C23  1  0.86270000  0.00000000  0.12390000  1.0 0.5639395489
C  C24  1  0.12390000  0.00000000  0.86270000  1.0 0.5639395489
C  C25  1  0.06840000  0.00000000  0.19500000  1.0 0.1859958767
C  C26  1  0.80500000  0.87340000  0.80500000  1.0 0.1859958767
C  C27  1  0.19500000  0.00000000  0.06840000  1.0 0.1859958767
C  C28  1  0.93160000  0.12660000  0.93160000  1.0 0.1859958767
C  C29  1  0.19500000  0.06840000  0.00000000  1.0 0.1859958767
C  C30  1  0.80500000  0.80500000  0.87340000  1.0 0.1859958767
C  C31  1  0.06840000  0.19500000  0.00000000  1.0 0.1845296992
C  C32  1  0.93160000  0.93160000  0.12660000  1.0 0.1859958767
C  C33  1  0.00000000  0.19500000  0.06840000  1.0 0.1859958767
C  C34  1  0.87340000  0.80500000  0.80500000  1.0 0.1859958767
C  C35  1  0.00000000  0.06840000  0.19500000  1.0 0.1859958767
C  C36  1  0.12660000  0.93160000  0.93160000  1.0 0.1845296992
C  C37  1  0.30550000  0.44420000  0.30550000  1.0 0.5971880479
C  C38  1  0.13870000  0.00000000  0.69450000  1.0 0.5971880479
C  C39  1  0.86130000  0.55580000  0.86130000  1.0 0.5971880479
C  C40  1  0.69450000  0.00000000  0.13870000  1.0 0.5971880479
C  C41  1  0.30550000  0.30550000  0.44420000  1.0 0.5971880479
C  C42  1  0.69450000  0.13870000  0.00000000  1.0 0.5971880479
C  C43  1  0.86130000  0.86130000  0.55580000  1.0 0.5971880479
C  C44  1  0.13870000  0.69450000  0.00000000  1.0 0.5971880479
C  C45  1  0.44420000  0.30550000  0.30550000  1.0 0.5971880479
C  C46  1  0.00000000  0.69450000  0.13870000  1.0 0.5971880479
C  C47  1  0.55580000  0.86130000  0.86130000  1.0 0.5971880479
C  C48  1  0.00000000  0.13870000  0.69450000  1.0 0.5971880479
C  C49  1  0.37380000  0.56160000  0.30280000  1.0 0.2840498759
C  C50  1  0.25880000  0.07100000  0.69720000  1.0 0.2840498759
C  C51  1  0.74120000  0.43840000  0.81220000  1.0 0.2840498759
C  C52  1  0.62620000  0.92900000  0.18780000  1.0 0.2852788939
C  C53  1  0.30280000  0.37380000  0.56160000  1.0 0.2840498759
C  C54  1  0.69720000  0.25880000  0.07100000  1.0 0.2852788939
C  C55  1  0.81220000  0.74120000  0.43840000  1.0 0.2840498759
C  C56  1  0.18780000  0.62620000  0.92900000  1.0 0.2840498759
C  C57  1  0.56160000  0.30280000  0.37380000  1.0 0.2840498759
C  C58  1  0.07100000  0.69720000  0.25880000  1.0 0.2840498759
C  C59  1  0.43840000  0.81220000  0.74120000  1.0 0.2840498759
C  C60  1  0.92900000  0.18780000  0.62620000  1.0 0.2840498759
C  C61  1  0.56160000  0.37380000  0.30280000  1.0 0.2840498759
C  C62  1  0.07100000  0.25880000  0.69720000  1.0 0.2840498759
C  C63  1  0.43840000  0.74120000  0.81220000  1.0 0.2840498759
C  C64  1  0.92900000  0.62620000  0.18780000  1.0 0.2840498759
C  C65  1  0.37380000  0.30280000  0.56160000  1.0 0.2840498759
C  C66  1  0.25880000  0.69720000  0.07100000  1.0 0.2840498759
C  C67  1  0.74120000  0.81220000  0.43840000  1.0 0.2840498759
C  C68  1  0.62620000  0.18780000  0.92900000  1.0 0.2840498759
C  C69  1  0.30280000  0.56160000  0.37380000  1.0 0.2840498759
C  C70  1  0.69720000  0.07100000  0.25880000  1.0 0.2852788939
C  C71  1  0.81220000  0.43840000  0.74120000  1.0 0.2840498759
C  C72  1  0.18780000  0.92900000  0.62620000  1.0 0.2840498759
C  C73  1  0.39020000  0.63630000  0.32870000  1.0 -0.3295647161
C  C74  1  0.30760000  0.06150000  0.67130000  1.0 -0.3295647161
C  C75  1  0.69240000  0.36370000  0.75390000  1.0 -0.3295647161
C  C76  1  0.60980000  0.93850000  0.24610000  1.0 -0.3295647161
C  C77  1  0.32870000  0.39020000  0.63630000  1.0 -0.3295647161
C  C78  1  0.67130000  0.30760000  0.06150000  1.0 -0.3295647161
C  C79  1  0.75390000  0.69240000  0.36370000  1.0 -0.3295647161
C  C80  1  0.24610000  0.60980000  0.93850000  1.0 -0.3295647161
C  C81  1  0.63630000  0.32870000  0.39020000  1.0 -0.3295647161
C  C82  1  0.06150000  0.67130000  0.30760000  1.0 -0.3295647161
C  C83  1  0.36370000  0.75390000  0.69240000  1.0 -0.3295647161
C  C84  1  0.93850000  0.24610000  0.60980000  1.0 -0.3295647161
C  C85  1  0.63630000  0.39020000  0.32870000  1.0 -0.3295647161
C  C86  1  0.06150000  0.30760000  0.67130000  1.0 -0.3295647161
C  C87  1  0.36370000  0.69240000  0.75390000  1.0 -0.3295647161
C  C88  1  0.93850000  0.60980000  0.24610000  1.0 -0.3295647161
C  C89  1  0.39020000  0.32870000  0.63630000  1.0 -0.3295647161
C  C90  1  0.30760000  0.67130000  0.06150000  1.0 -0.3295647161
C  C91  1  0.69240000  0.75390000  0.36370000  1.0 -0.3295647161
C  C92  1  0.60980000  0.24610000  0.93850000  1.0 -0.3295647161
C  C93  1  0.32870000  0.63630000  0.39020000  1.0 -0.3295647161
C  C94  1  0.67130000  0.06150000  0.30760000  1.0 -0.3295647161
C  C95  1  0.75390000  0.36370000  0.69240000  1.0 -0.3295647161
C  C96  1  0.24610000  0.93850000  0.60980000  1.0 -0.3295647161
C  C97  1  0.33300000  0.52540000  0.33300000  1.0 -0.3295647161
C  C98  1  0.19240000  0.00000000  0.66700000  1.0 -0.3366153913
C  C99  1  0.80760000  0.47460000  0.80760000  1.0 -0.3295647161
C  C100  1  0.66700000  0.00000000  0.19240000  1.0 -0.3295647161
C  C101  1  0.33300000  0.33300000  0.52540000  1.0 -0.3366153913
C  C102  1  0.66700000  0.19240000  0.00000000  1.0 -0.3366153913
C  C103  1  0.80760000  0.80760000  0.47460000  1.0 -0.3295647161
C  C104  1  0.19240000  0.66700000  0.00000000  1.0 -0.3366153913
C  C105  1  0.52540000  0.33300000  0.33300000  1.0 -0.3295647161
C  C106  1  0.00000000  0.66700000  0.19240000  1.0 -0.3366153913
C  C107  1  0.47460000  0.80760000  0.80760000  1.0 -0.3295647161
C  C108  1  0.00000000  0.19240000  0.66700000  1.0 -0.3366153913
C  C109  1  0.36980000  0.66120000  0.36980000  1.0 0.1480598672
C  C110  1  0.29140000  0.00000000  0.63020000  1.0 0.1480598672
C  C111  1  0.70860000  0.33880000  0.70860000  1.0 0.1480598672
C  C112  1  0.63020000  0.00000000  0.29140000  1.0 0.1480598672
C  C113  1  0.36980000  0.36980000  0.66120000  1.0 0.1480598672
C  C114  1  0.63020000  0.29140000  0.00000000  1.0 0.1480598672
C  C115  1  0.70860000  0.70860000  0.33880000  1.0 0.1480598672
C  C116  1  0.29140000  0.63020000  0.00000000  1.0 0.1480598672
C  C117  1  0.66120000  0.36980000  0.36980000  1.0 0.1480598672
C  C118  1  0.00000000  0.63020000  0.29140000  1.0 0.1480598672
C  C119  1  0.33880000  0.70860000  0.70860000  1.0 0.1480598672
C  C120  1  0.00000000  0.29140000  0.63020000  1.0 0.1480598672
C  C121  1  0.43340000  0.67230000  0.30230000  1.0 0.5704743571
C  C122  1  0.37000000  0.13110000  0.69770000  1.0 0.5704743571
C  C123  1  0.63000000  0.32770000  0.76110000  1.0 0.5704743571
C  C124  1  0.56660000  0.86890000  0.23890000  1.0 0.5704743571
C  C125  1  0.30230000  0.43340000  0.67230000  1.0 0.5704743571
C  C126  1  0.69770000  0.37000000  0.13110000  1.0 0.5704743571
C  C127  1  0.76110000  0.63000000  0.32770000  1.0 0.5704743571
C  C128  1  0.23890000  0.56660000  0.86890000  1.0 0.5704743571
C  C129  1  0.67230000  0.30230000  0.43340000  1.0 0.5704743571
C  C130  1  0.13110000  0.69770000  0.37000000  1.0 0.5704743571
C  C131  1  0.32770000  0.76110000  0.63000000  1.0 0.5704743571
C  C132  1  0.86890000  0.23890000  0.56660000  1.0 0.5704743571
C  C133  1  0.67230000  0.43340000  0.30230000  1.0 0.5704743571
C  C134  1  0.13110000  0.37000000  0.69770000  1.0 0.5704743571
C  C135  1  0.32770000  0.63000000  0.76110000  1.0 0.5704743571
C  C136  1  0.86890000  0.56660000  0.23890000  1.0 0.5704743571
C  C137  1  0.43340000  0.30230000  0.67230000  1.0 0.5704743571
C  C138  1  0.37000000  0.69770000  0.13110000  1.0 0.5704743571
C  C139  1  0.63000000  0.76110000  0.32770000  1.0 0.5704743571
C  C140  1  0.56660000  0.23890000  0.86890000  1.0 0.5704743571
C  C141  1  0.30230000  0.67230000  0.43340000  1.0 0.5704743571
C  C142  1  0.69770000  0.13110000  0.37000000  1.0 0.5704743571
C  C143  1  0.76110000  0.32770000  0.63000000  1.0 0.5704743571
C  C144  1  0.23890000  0.86890000  0.56660000  1.0 0.5704743571
O  O1  1  0.26730000  0.41360000  0.32830000  1.0 -0.456651242
O  O2  1  0.08530000  0.93900000  0.67170000  1.0 -0.456651242
O  O3  1  0.91470000  0.58640000  0.85370000  1.0 -0.456651242
O  O4  1  0.73270000  0.06100000  0.14630000  1.0 -0.456651242
O  O5  1  0.32830000  0.26730000  0.41360000  1.0 -0.456651242
O  O6  1  0.67170000  0.08530000  0.93900000  1.0 -0.456651242
O  O7  1  0.85370000  0.91470000  0.58640000  1.0 -0.456651242
O  O8  1  0.14630000  0.73270000  0.06100000  1.0 -0.456651242
O  O9  1  0.41360000  0.32830000  0.26730000  1.0 -0.456651242
O  O10  1  0.93900000  0.67170000  0.08530000  1.0 -0.456651242
O  O11  1  0.58640000  0.85370000  0.91470000  1.0 -0.456651242
O  O12  1  0.06100000  0.14630000  0.73270000  1.0 -0.456651242
O  O13  1  0.41360000  0.26730000  0.32830000  1.0 -0.456651242
O  O14  1  0.93900000  0.08530000  0.67170000  1.0 -0.456651242
O  O15  1  0.58640000  0.91470000  0.85370000  1.0 -0.456651242
O  O16  1  0.06100000  0.73270000  0.14630000  1.0 -0.456651242
O  O17  1  0.26730000  0.32830000  0.41360000  1.0 -0.456651242
O  O18  1  0.08530000  0.67170000  0.93900000  1.0 -0.456651242
O  O19  1  0.91470000  0.85370000  0.58640000  1.0 -0.456651242
O  O20  1  0.73270000  0.14630000  0.06100000  1.0 -0.456651242
O  O21  1  0.32830000  0.41360000  0.26730000  1.0 -0.456651242
O  O22  1  0.67170000  0.93900000  0.08530000  1.0 -0.456651242
O  O23  1  0.85370000  0.58640000  0.91470000  1.0 -0.456651242
O  O24  1  0.14630000  0.06100000  0.73270000  1.0 -0.456651242
O  O25  1  0.14040000  0.33490000  0.33490000  1.0 -0.5372367991
O  O26  1  0.00000000  0.80550000  0.66510000  1.0 -0.5372367991
O  O27  1  0.00000000  0.66510000  0.80550000  1.0 -0.5372367991
O  O28  1  0.85960000  0.19450000  0.19450000  1.0 -0.5312634931
O  O29  1  0.33490000  0.14040000  0.33490000  1.0 -0.5372367991
O  O30  1  0.66510000  0.00000000  0.80550000  1.0 -0.5312634931
O  O31  1  0.80550000  0.00000000  0.66510000  1.0 -0.5372367991
O  O32  1  0.19450000  0.85960000  0.19450000  1.0 -0.5372367991
O  O33  1  0.33490000  0.33490000  0.14040000  1.0 -0.5372367991
O  O34  1  0.80550000  0.66510000  0.00000000  1.0 -0.5372367991
O  O35  1  0.66510000  0.80550000  0.00000000  1.0 -0.5312634931
O  O36  1  0.19450000  0.19450000  0.85960000  1.0 -0.5372367991
O  O37  1  0.44310000  0.64570000  0.25480000  1.0 -0.2424949776
O  O38  1  0.39090000  0.18830000  0.74520000  1.0 -0.2298653249
O  O39  1  0.60910000  0.35430000  0.79740000  1.0 -0.2298653249
O  O40  1  0.55690000  0.81170000  0.20260000  1.0 -0.2298653249
O  O41  1  0.25480000  0.44310000  0.64570000  1.0 -0.2298653249
O  O42  1  0.74520000  0.39090000  0.18830000  1.0 -0.2298653249
O  O43  1  0.79740000  0.60910000  0.35430000  1.0 -0.2298653249
O  O44  1  0.20260000  0.55690000  0.81170000  1.0 -0.2298653249
O  O45  1  0.64570000  0.25480000  0.44310000  1.0 -0.2298653249
O  O46  1  0.18830000  0.74520000  0.39090000  1.0 -0.2298653249
O  O47  1  0.35430000  0.79740000  0.60910000  1.0 -0.2298653249
O  O48  1  0.81170000  0.20260000  0.55690000  1.0 -0.2298653249
O  O49  1  0.64570000  0.44310000  0.25480000  1.0 -0.2424949776
O  O50  1  0.18830000  0.39090000  0.74520000  1.0 -0.2298653249
O  O51  1  0.35430000  0.60910000  0.79740000  1.0 -0.2298653249
O  O52  1  0.81170000  0.55690000  0.20260000  1.0 -0.2298653249
O  O53  1  0.44310000  0.25480000  0.64570000  1.0 -0.2298653249
O  O54  1  0.39090000  0.74520000  0.18830000  1.0 -0.2298653249
O  O55  1  0.60910000  0.79740000  0.35430000  1.0 -0.2298653249
O  O56  1  0.55690000  0.20260000  0.81170000  1.0 -0.2298653249
O  O57  1  0.25480000  0.64570000  0.44310000  1.0 -0.2298653249
O  O58  1  0.74520000  0.18830000  0.39090000  1.0 -0.2298653249
O  O59  1  0.79740000  0.35430000  0.60910000  1.0 -0.2298653249
O  O60  1  0.20260000  0.81170000  0.55690000  1.0 -0.2298653249
O  O61  1  0.13250000  0.19330000  0.27300000  1.0 -0.4210233466
O  O62  1  0.92030000  0.85950000  0.72700000  1.0 -0.4210233466
O  O63  1  0.07970000  0.80670000  0.93920000  1.0 -0.4210233466
O  O64  1  0.86750000  0.14050000  0.06080000  1.0 -0.4210233466
O  O65  1  0.27300000  0.13250000  0.19330000  1.0 -0.4210233466
O  O66  1  0.72700000  0.92030000  0.85950000  1.0 -0.4210233466
O  O67  1  0.93920000  0.07970000  0.80670000  1.0 -0.4210233466
O  O68  1  0.06080000  0.86750000  0.14050000  1.0 -0.4210233466
O  O69  1  0.19330000  0.27300000  0.13250000  1.0 -0.4210233466
O  O70  1  0.85950000  0.72700000  0.92030000  1.0 -0.4210233466
O  O71  1  0.80670000  0.93920000  0.07970000  1.0 -0.4210233466
O  O72  1  0.14050000  0.06080000  0.86750000  1.0 -0.4210233466
O  O73  1  0.19330000  0.13250000  0.27300000  1.0 -0.4210233466
O  O74  1  0.85950000  0.92030000  0.72700000  1.0 -0.4210233466
O  O75  1  0.80670000  0.07970000  0.93920000  1.0 -0.4210233466
O  O76  1  0.14050000  0.86750000  0.06080000  1.0 -0.4210233466
O  O77  1  0.13250000  0.27300000  0.19330000  1.0 -0.4210233466
O  O78  1  0.92030000  0.72700000  0.85950000  1.0 -0.4210233466
O  O79  1  0.07970000  0.93920000  0.80670000  1.0 -0.4210233466
O  O80  1  0.86750000  0.06080000  0.14050000  1.0 -0.4210233466
O  O81  1  0.27300000  0.19330000  0.13250000  1.0 -0.4210233466
O  O82  1  0.72700000  0.85950000  0.92030000  1.0 -0.4210233466
O  O83  1  0.93920000  0.80670000  0.07970000  1.0 -0.4210233466
O  O84  1  0.06080000  0.14050000  0.86750000  1.0 -0.4210233466
O  O85  1  0.27400000  0.27400000  0.27400000  1.0 -0.7947348879
O  O86  1  0.00000000  0.00000000  0.72600000  1.0 -0.7947348879
O  O87  1  0.00000000  0.72600000  0.00000000  1.0 -0.7961694227
O  O88  1  0.72600000  0.00000000  0.00000000  1.0 -0.8059150206
O  O89  1  0.45700000  0.73890000  0.32110000  1.0 -0.2424949776
O  O90  1  0.41780000  0.13590000  0.67890000  1.0 -0.2424949776
O  O91  1  0.58220000  0.26110000  0.71810000  1.0 -0.2424949776
O  O92  1  0.54300000  0.86410000  0.28190000  1.0 -0.2424949776
O  O93  1  0.32110000  0.45700000  0.73890000  1.0 -0.2424949776
O  O94  1  0.67890000  0.41780000  0.13590000  1.0 -0.2458174454
O  O95  1  0.71810000  0.58220000  0.26110000  1.0 -0.2424949776
O  O96  1  0.28190000  0.54300000  0.86410000  1.0 -0.2424949776
O  O97  1  0.73890000  0.32110000  0.45700000  1.0 -0.2424949776
O  O98  1  0.13590000  0.67890000  0.41780000  1.0 -0.2424949776
O  O99  1  0.26110000  0.71810000  0.58220000  1.0 -0.2424949776
O  O100  1  0.86410000  0.28190000  0.54300000  1.0 -0.2424949776
O  O101  1  0.73890000  0.45700000  0.32110000  1.0 -0.2424949776
O  O102  1  0.13590000  0.41780000  0.67890000  1.0 -0.2424949776
O  O103  1  0.26110000  0.58220000  0.71810000  1.0 -0.2424949776
O  O104  1  0.86410000  0.54300000  0.28190000  1.0 -0.2424949776
O  O105  1  0.45700000  0.32110000  0.73890000  1.0 -0.2424949776
O  O106  1  0.41780000  0.67890000  0.13590000  1.0 -0.2424949776
O  O107  1  0.58220000  0.71810000  0.26110000  1.0 -0.2424949776
O  O108  1  0.54300000  0.28190000  0.86410000  1.0 -0.2424949776
O  O109  1  0.32110000  0.73890000  0.45700000  1.0 -0.2424949776
O  O110  1  0.67890000  0.13590000  0.41780000  1.0 -0.2424949776
O  O111  1  0.71810000  0.26110000  0.58220000  1.0 -0.2424949776
O  O112  1  0.28190000  0.86410000  0.54300000  1.0 -0.2424949776
