# DDEC6 charges by PACMAN v1.1 (https://github.com/mtap-research/PACMAN-charge/)
data_INAMUG_FSR_pacman
_symmetry_space_group_name_H-M   'P 1'
_cell_length_a   11.16600000
_cell_length_b   11.63800000
_cell_length_c   20.95000000
_cell_angle_alpha   96.25000000
_cell_angle_beta   90.68000000
_cell_angle_gamma   108.49000000
_symmetry_Int_Tables_number   1
_chemical_formula_structural   Co2H48C49N6O11
_chemical_formula_sum   'Co4 H96 C98 N12 O22'
_cell_volume   2563.45925269
_cell_formula_units_Z   2
loop_
 _symmetry_equiv_pos_site_id
 _symmetry_equiv_pos_as_xyz
  1  'x, y, z'
loop_
 _atom_site_type_symbol
 _atom_site_label
 _atom_site_symmetry_multiplicity
 _atom_site_fract_x
 _atom_site_fract_y
 _atom_site_fract_z
 _atom_site_occupancy
 _atom_site_charge
Co  Co1  1  0.13448000  0.47922000  0.24063000  1.0 0.8162293356
Co  Co2  1  0.86552000  0.52078000  0.75937000  1.0 0.8162293356
Co  Co3  1  0.00000000  0.00000000  0.50000000  1.0 0.85358756
Co  Co4  1  0.50000000  0.50000000  0.00000000  1.0 0.8822808187
H  H1  1  0.21580000  0.28070000  0.23370000  1.0 0.3605670553
H  H2  1  0.78420000  0.71930000  0.76630000  1.0 0.3605670553
H  H3  1  0.21500000  0.33360000  0.29840000  1.0 0.368096761
H  H4  1  0.78500000  0.66640000  0.70160000  1.0 0.368096761
H  H5  1  0.87280000  0.32560000  0.03840000  1.0 0.1205128875
H  H6  1  0.12720000  0.67440000  0.96160000  1.0 0.1205128875
H  H7  1  0.21640000  0.07260000  0.56330000  1.0 0.2386373799
H  H8  1  0.78360000  0.92740000  0.43670000  1.0 0.2386373799
H  H9  1  0.14420000  0.97980000  0.57650000  1.0 0.2578127902
H  H10  1  0.85580000  0.02020000  0.42350000  1.0 0.2578127902
H  H11  1  0.09690000  0.64650000  0.43490000  1.0 0.1205128875
H  H12  1  0.90310000  0.35350000  0.56510000  1.0 0.1205128875
H  H13  1  0.36540000  0.26050000  0.97530000  1.0 0.3296303075
H  H14  1  0.63460000  0.73950000  0.02470000  1.0 0.3296303075
H  H15  1  0.49150000  0.28180000  0.97780000  1.0 0.3296303075
H  H16  1  0.50850000  0.71820000  0.02220000  1.0 0.3296303075
H  H17  1  0.32740000  0.86850000  0.37040000  1.0 0.132130466
H  H18  1  0.67260000  0.13150000  0.62960000  1.0 0.132130466
H  H19  1  0.20610000  0.88590000  0.45580000  1.0 0.0993642196
H  H20  1  0.79390000  0.11410000  0.54420000  1.0 0.0993642196
H  H21  1  0.08790000  0.12220000  0.37860000  1.0 0.1072950383
H  H22  1  0.91210000  0.87780000  0.62140000  1.0 0.1072950383
H  H23  1  0.75050000  0.94610000  0.18990000  1.0 0.0993642196
H  H24  1  0.24950000  0.05390000  0.81010000  1.0 0.0993642196
H  H25  1  0.76140000  0.81610000  0.17000000  1.0 0.0993642196
H  H26  1  0.23860000  0.18390000  0.83000000  1.0 0.0993642196
H  H27  1  0.75650000  0.85720000  0.30370000  1.0 0.0993642196
H  H28  1  0.24350000  0.14280000  0.69630000  1.0 0.0993642196
H  H29  1  0.55820000  0.73700000  0.34970000  1.0 0.132130466
H  H30  1  0.44180000  0.26300000  0.65030000  1.0 0.132130466
H  H31  1  0.89020000  0.39550000  0.15340000  1.0 0.0993642196
H  H32  1  0.10980000  0.60450000  0.84660000  1.0 0.0993642196
H  H33  1  0.75400000  0.13320000  0.30330000  1.0 0.1427546304
H  H34  1  0.24600000  0.86680000  0.69670000  1.0 0.1427546304
H  H35  1  0.95510000  0.26710000  0.30940000  1.0 0.1072950383
H  H36  1  0.04490000  0.73290000  0.69060000  1.0 0.1072950383
H  H37  1  0.96390000  0.98060000  0.18230000  1.0 0.1205128875
H  H38  1  0.03610000  0.01940000  0.81770000  1.0 0.1205128875
H  H39  1  0.94500000  0.99140000  0.25660000  1.0 0.1205128875
H  H40  1  0.05500000  0.00860000  0.74340000  1.0 0.1205128875
H  H41  1  0.51750000  0.10910000  0.17960000  1.0 0.1205128875
H  H42  1  0.48250000  0.89090000  0.82040000  1.0 0.1205128875
H  H43  1  0.57090000  0.00670000  0.19690000  1.0 0.1205128875
H  H44  1  0.42910000  0.99330000  0.80310000  1.0 0.1205128875
H  H45  1  0.48300000  0.15340000  0.28750000  1.0 0.1072950383
H  H46  1  0.51700000  0.84660000  0.71250000  1.0 0.1072950383
H  H47  1  0.53760000  0.05180000  0.30520000  1.0 0.1072950383
H  H48  1  0.46240000  0.94820000  0.69480000  1.0 0.1072950383
H  H49  1  0.36790000  0.90070000  0.25480000  1.0 0.1205128875
H  H50  1  0.63210000  0.09930000  0.74520000  1.0 0.1205128875
H  H51  1  0.31820000  0.99590000  0.22480000  1.0 0.1205128875
H  H52  1  0.68180000  0.00410000  0.77520000  1.0 0.1205128875
H  H53  1  0.20920000  0.11380000  0.29190000  1.0 0.132130466
H  H54  1  0.79080000  0.88620000  0.70810000  1.0 0.132130466
H  H55  1  0.19860000  0.40780000  0.80390000  1.0 0.1205128875
H  H56  1  0.80140000  0.59220000  0.19610000  1.0 0.1205128875
H  H57  1  0.26420000  0.40760000  0.90720000  1.0 0.0993642196
H  H58  1  0.73580000  0.59240000  0.09280000  1.0 0.0993642196
H  H59  1  0.60650000  0.60340000  0.87500000  1.0 0.1205128875
H  H60  1  0.39350000  0.39660000  0.12500000  1.0 0.1205128875
H  H61  1  0.55030000  0.61070000  0.77090000  1.0 0.1205128875
H  H62  1  0.44970000  0.38930000  0.22910000  1.0 0.1205128875
H  H63  1  0.23470000  0.46740000  0.69210000  1.0 0.0993642196
H  H64  1  0.76530000  0.53260000  0.30790000  1.0 0.0993642196
H  H65  1  0.48010000  0.54180000  0.65600000  1.0 0.0993642196
H  H66  1  0.51990000  0.45820000  0.34400000  1.0 0.0993642196
H  H67  1  0.45290000  0.66210000  0.68220000  1.0 0.0993642196
H  H68  1  0.54710000  0.33790000  0.31780000  1.0 0.0993642196
H  H69  1  0.32350000  0.50010000  0.57460000  1.0 0.1205128875
H  H70  1  0.67650000  0.49990000  0.42540000  1.0 0.1205128875
H  H71  1  0.28440000  0.61280000  0.60270000  1.0 0.1205128875
H  H72  1  0.71560000  0.38720000  0.39730000  1.0 0.1205128875
H  H73  1  0.34130000  0.76190000  0.52990000  1.0 0.1427546304
H  H74  1  0.65870000  0.23810000  0.47010000  1.0 0.1427546304
H  H75  1  0.48520000  0.88120000  0.46810000  1.0 0.0993642196
H  H76  1  0.51480000  0.11880000  0.53190000  1.0 0.0993642196
H  H77  1  0.72970000  0.72030000  0.50230000  1.0 0.1205128875
H  H78  1  0.27030000  0.27970000  0.49770000  1.0 0.1205128875
H  H79  1  0.59230000  0.59460000  0.56430000  1.0 0.1427546304
H  H80  1  0.40770000  0.40540000  0.43570000  1.0 0.1427546304
H  H81  1  0.96180000  0.82220000  0.31860000  1.0 0.1427546304
H  H82  1  0.03820000  0.17780000  0.68140000  1.0 0.1427546304
H  H83  1  0.09170000  0.64520000  0.13930000  1.0 0.1072950383
H  H84  1  0.90830000  0.35480000  0.86070000  1.0 0.1072950383
H  H85  1  0.69020000  0.25810000  0.14030000  1.0 0.1427546304
H  H86  1  0.30980000  0.74190000  0.85970000  1.0 0.1427546304
H  H87  1  0.02480000  0.65420000  0.32160000  1.0 0.1072950383
H  H88  1  0.97520000  0.34580000  0.67840000  1.0 0.1072950383
H  H89  1  0.02420000  0.80930000  0.13060000  1.0 0.1496813145
H  H90  1  0.97580000  0.19070000  0.86940000  1.0 0.1496813145
H  H91  1  0.35330000  0.61290000  0.34050000  1.0 0.1072950383
H  H92  1  0.64670000  0.38710000  0.65950000  1.0 0.1072950383
H  H93  1  0.33320000  0.64210000  0.15770000  1.0 0.1072950383
H  H94  1  0.66680000  0.35790000  0.84230000  1.0 0.1072950383
H  H95  1  0.53900000  0.76820000  0.16190000  1.0 0.132130466
H  H96  1  0.46100000  0.23180000  0.83810000  1.0 0.132130466
C  C1  1  0.27258000  0.58410000  0.02714000  1.0 0.5664973479
C  C2  1  0.72742000  0.41590000  0.97286000  1.0 0.5664973479
C  C3  1  0.13008000  0.54277000  0.01616000  1.0 -0.0484232757
C  C4  1  0.86992000  0.45723000  0.98384000  1.0 -0.0484232757
C  C5  1  0.05281000  0.43842000  0.04027000  1.0 -0.0342386294
C  C6  1  0.94719000  0.56158000  0.95973000  1.0 -0.0342386294
C  C7  1  0.10151000  0.37890000  0.09117000  1.0 0.5787040513
C  C8  1  0.89849000  0.62110000  0.90883000  1.0 0.5787040513
C  C9  1  0.92385000  0.39610000  0.02315000  1.0 -0.164655954
C  C10  1  0.07615000  0.60390000  0.97685000  1.0 -0.164655954
C  C11  1  0.11568000  0.43790000  0.38357000  1.0 0.5664973479
C  C12  1  0.88432000  0.56210000  0.61643000  1.0 0.5664973479
C  C13  1  0.05399000  0.46731000  0.44378000  1.0 -0.0449991006
C  C14  1  0.94601000  0.53269000  0.55622000  1.0 -0.0449991006
C  C15  1  0.97040000  0.24173000  0.46479000  1.0 0.5637116354
C  C16  1  0.02960000  0.75827000  0.53521000  1.0 0.5637116354
C  C17  1  0.99398000  0.37744000  0.48285000  1.0 -0.0230185747
C  C18  1  0.00602000  0.62256000  0.51715000  1.0 -0.0230185747
C  C19  1  0.05810000  0.58766000  0.46136000  1.0 -0.1508495936
C  C20  1  0.94190000  0.41234000  0.53864000  1.0 -0.1508495936
C  C21  1  0.27930000  0.92070000  0.37086000  1.0 -0.217632689
C  C22  1  0.72070000  0.07930000  0.62914000  1.0 -0.217632689
C  C23  1  0.20520000  0.93100000  0.42190000  1.0 0.0783215261
C  C24  1  0.79480000  0.06900000  0.57810000  1.0 0.0783215261
C  C25  1  0.13620000  0.07000000  0.37682000  1.0 0.0993642196
C  C26  1  0.86380000  0.93000000  0.62318000  1.0 0.0993642196
C  C27  1  0.78100000  0.88340000  0.20420000  1.0 -0.1508495936
C  C28  1  0.21900000  0.11660000  0.79580000  1.0 -0.1508495936
C  C29  1  0.71360000  0.83930000  0.26373000  1.0 -0.1941921491
C  C30  1  0.28640000  0.16070000  0.73627000  1.0 -0.2009660342
C  C31  1  0.57550000  0.76571000  0.25622000  1.0 0.1496813145
C  C32  1  0.42450000  0.23429000  0.74378000  1.0 0.1496813145
C  C33  1  0.51480000  0.71820000  0.30975000  1.0 -0.2009660342
C  C34  1  0.48520000  0.28180000  0.69025000  1.0 -0.2009660342
C  C35  1  0.86330000  0.34080000  0.18348000  1.0 0.0885672715
C  C36  1  0.13670000  0.65920000  0.81652000  1.0 0.0885672715
C  C37  1  0.78000000  0.18420000  0.27148000  1.0 -0.2009660342
C  C38  1  0.22000000  0.81580000  0.72852000  1.0 -0.2009660342
C  C39  1  0.90080000  0.26640000  0.27526000  1.0 0.0885672715
C  C40  1  0.09920000  0.73360000  0.72474000  1.0 0.0885672715
C  C41  1  0.92590000  0.93550000  0.21722000  1.0 -0.2494601909
C  C42  1  0.07410000  0.06450000  0.78278000  1.0 -0.2494601909
C  C43  1  0.69680000  0.17750000  0.22017000  1.0 0.1680097998
C  C44  1  0.30320000  0.82250000  0.77983000  1.0 0.1680097998
C  C45  1  0.56470000  0.08610000  0.21242000  1.0 -0.2494601909
C  C46  1  0.43530000  0.91390000  0.78758000  1.0 -0.2494601909
C  C47  1  0.49080000  0.07450000  0.27216000  1.0 -0.132659227
C  C48  1  0.50920000  0.92550000  0.72784000  1.0 -0.132659227
C  C49  1  0.36050000  0.98190000  0.26251000  1.0 -0.2597092245
C  C50  1  0.63950000  0.01810000  0.73749000  1.0 -0.2597092245
C  C51  1  0.28160000  0.98857000  0.32008000  1.0 0.1761674803
C  C52  1  0.71840000  0.01143000  0.67992000  1.0 0.1761674803
C  C53  1  0.20900000  0.06530000  0.32438000  1.0 -0.2097619676
C  C54  1  0.79100000  0.93470000  0.67562000  1.0 -0.2097619676
C  C55  1  0.28250000  0.44880000  0.81719000  1.0 -0.2009660342
C  C56  1  0.71750000  0.55120000  0.18281000  1.0 -0.2009660342
C  C57  1  0.32260000  0.44890000  0.87944000  1.0 0.0670638304
C  C58  1  0.67740000  0.55110000  0.12056000  1.0 0.0670638304
C  C59  1  0.52300000  0.56380000  0.86050000  1.0 0.0993642196
C  C60  1  0.47700000  0.43620000  0.13950000  1.0 0.0993642196
C  C61  1  0.48990000  0.56840000  0.79754000  1.0 -0.2097619676
C  C62  1  0.51010000  0.43160000  0.20246000  1.0 -0.2097619676
C  C63  1  0.36640000  0.50977000  0.77380000  1.0 0.155281521
C  C64  1  0.63360000  0.49023000  0.22620000  1.0 0.155281521
C  C65  1  0.31830000  0.50870000  0.70603000  1.0 -0.1697796959
C  C66  1  0.68170000  0.49130000  0.29397000  1.0 -0.1697796959
C  C67  1  0.41410000  0.57920000  0.66190000  1.0 -0.1508495936
C  C68  1  0.58590000  0.42080000  0.33810000  1.0 -0.1508495936
C  C69  1  0.35550000  0.58250000  0.59658000  1.0 -0.2494601909
C  C70  1  0.64450000  0.41750000  0.40342000  1.0 -0.2494601909
C  C71  1  0.44840000  0.66220000  0.55467000  1.0 0.1680097998
C  C72  1  0.55160000  0.33780000  0.44533000  1.0 0.1680097998
C  C73  1  0.41960000  0.75050000  0.52493000  1.0 -0.2009660342
C  C74  1  0.58040000  0.24950000  0.47507000  1.0 -0.2009660342
C  C75  1  0.50720000  0.82230000  0.48767000  1.0 0.0492768209
C  C76  1  0.49280000  0.17770000  0.51233000  1.0 0.0492768209
C  C77  1  0.65000000  0.72840000  0.50740000  1.0 0.0783215261
C  C78  1  0.35000000  0.27160000  0.49260000  1.0 0.0783215261
C  C79  1  0.56770000  0.65250000  0.54513000  1.0 -0.1941921491
C  C80  1  0.43230000  0.34750000  0.45487000  1.0 -0.1941921491
C  C81  1  0.98540000  0.78630000  0.28110000  1.0 -0.2009660342
C  C82  1  0.01460000  0.21370000  0.71890000  1.0 -0.2009660342
C  C83  1  0.06320000  0.67990000  0.17565000  1.0 0.0783215261
C  C84  1  0.93680000  0.32010000  0.82435000  1.0 0.0783215261
C  C85  1  0.98090000  0.83436000  0.22316000  1.0 0.1680097998
C  C86  1  0.01910000  0.16564000  0.77684000  1.0 0.1680097998
C  C87  1  0.74170000  0.25870000  0.17557000  1.0 -0.2009660342
C  C88  1  0.25830000  0.74130000  0.82443000  1.0 -0.2009660342
C  C89  1  0.02480000  0.68570000  0.28265000  1.0 0.0670638304
C  C90  1  0.97520000  0.31430000  0.71735000  1.0 0.0670638304
C  C91  1  0.02300000  0.77930000  0.17010000  1.0 -0.2009660342
C  C92  1  0.97700000  0.22070000  0.82990000  1.0 -0.2009660342
C  C93  1  0.39120000  0.64370000  0.30395000  1.0 0.0670638304
C  C94  1  0.60880000  0.35630000  0.69605000  1.0 0.0670638304
C  C95  1  0.37930000  0.66080000  0.19679000  1.0 0.0993642196
C  C96  1  0.62070000  0.33920000  0.80321000  1.0 0.0993642196
C  C97  1  0.50390000  0.73690000  0.19885000  1.0 -0.2097619676
C  C98  1  0.49610000  0.26310000  0.80115000  1.0 -0.2097619676
N  N1  1  0.94396000  0.34542000  0.23216000  1.0 -0.2597092245
N  N2  1  0.05604000  0.65458000  0.76784000  1.0 -0.2597092245
N  N3  1  0.13190000  0.00287000  0.42518000  1.0 -0.2597092245
N  N4  1  0.86810000  0.99713000  0.57482000  1.0 -0.2597092245
N  N5  1  0.44220000  0.50567000  0.90215000  1.0 -0.2684078742
N  N6  1  0.55780000  0.49433000  0.09785000  1.0 -0.2684078742
N  N7  1  0.62110000  0.81220000  0.47812000  1.0 -0.240028337
N  N8  1  0.37890000  0.18780000  0.52188000  1.0 -0.240028337
N  N9  1  0.06327000  0.63080000  0.23058000  1.0 -0.2597092245
N  N10  1  0.93673000  0.36920000  0.76942000  1.0 -0.2597092245
N  N11  1  0.32220000  0.61317000  0.24785000  1.0 -0.2494601909
N  N12  1  0.67780000  0.38683000  0.75215000  1.0 -0.2494601909
O  O1  1  0.22031000  0.34754000  0.25857000  1.0 -0.6901198704
O  O2  1  0.77969000  0.65246000  0.74143000  1.0 -0.6901198704
O  O3  1  0.14969000  0.44774000  0.14142000  1.0 -0.5820896803
O  O4  1  0.85031000  0.55226000  0.85858000  1.0 -0.5820896803
O  O5  1  0.08567000  0.26695000  0.08108000  1.0 -0.5626820553
O  O6  1  0.91433000  0.73305000  0.91892000  1.0 -0.5626820553
O  O7  1  0.32107000  0.50042000  0.02725000  1.0 -0.567881592
O  O8  1  0.67893000  0.49958000  0.97275000  1.0 -0.567881592
O  O9  1  0.33168000  0.69544000  0.03367000  1.0 -0.5490439016
O  O10  1  0.66832000  0.30456000  0.96633000  1.0 -0.5490439016
O  O11  1  0.11882000  0.50554000  0.33949000  1.0 -0.5820896803
O  O12  1  0.88118000  0.49446000  0.66051000  1.0 -0.5820896803
O  O13  1  0.14838000  0.04550000  0.57210000  1.0 -0.6020007212
O  O14  1  0.85162000  0.95450000  0.42790000  1.0 -0.6020007212
O  O15  1  0.15829000  0.35085000  0.38030000  1.0 -0.5406487662
O  O16  1  0.84171000  0.64915000  0.61970000  1.0 -0.5406487662
O  O17  1  0.02772000  0.19001000  0.49849000  1.0 -0.5820896803
O  O18  1  0.97228000  0.80999000  0.50151000  1.0 -0.5820896803
O  O19  1  0.88861000  0.19003000  0.42072000  1.0 -0.5626820553
O  O20  1  0.11139000  0.80997000  0.57928000  1.0 -0.5626820553
O  O21  1  0.43282000  0.30680000  0.98948000  1.0 -0.6387103874
O  O22  1  0.56718000  0.69320000  0.01052000  1.0 -0.6387103874
