# DDEC6 charges by PACMAN v1.1 (https://github.com/mtap-research/PACMAN-charge/)
data_INASAT_ASR_pacman
_symmetry_space_group_name_H-M   'P 1'
_cell_length_a   18.52830000
_cell_length_b   14.22190000
_cell_length_c   21.91460000
_cell_angle_alpha   90.00000000
_cell_angle_beta   93.89700000
_cell_angle_gamma   90.00000000
_symmetry_Int_Tables_number   1
_chemical_formula_structural   Zn2H10C21N7O8
_chemical_formula_sum   'Zn16 H80 C168 N56 O64'
_cell_volume   5761.31234827
_cell_formula_units_Z   8
loop_
 _symmetry_equiv_pos_site_id
 _symmetry_equiv_pos_as_xyz
  1  'x, y, z'
loop_
 _atom_site_type_symbol
 _atom_site_label
 _atom_site_symmetry_multiplicity
 _atom_site_fract_x
 _atom_site_fract_y
 _atom_site_fract_z
 _atom_site_occupancy
 _atom_site_charge
Zn  Zn1  1  0.69562000  0.66488000  0.61958000  1.0 0.8620287736
Zn  Zn2  1  0.30438000  0.16488000  0.88042000  1.0 0.8620287736
Zn  Zn3  1  0.30438000  0.33512000  0.38042000  1.0 0.8620287736
Zn  Zn4  1  0.69562000  0.83512000  0.11958000  1.0 0.8620287736
Zn  Zn5  1  0.71910000  0.73759000  0.46288000  1.0 0.7286983092
Zn  Zn6  1  0.28090000  0.23759000  0.03712000  1.0 0.7286983092
Zn  Zn7  1  0.28090000  0.26241000  0.53712000  1.0 0.7286983092
Zn  Zn8  1  0.71910000  0.76241000  0.96288000  1.0 0.7286983092
Zn  Zn9  1  0.62712000  0.55412000  0.74549000  1.0 0.7134037723
Zn  Zn10  1  0.37288000  0.05412000  0.75451000  1.0 0.7134037723
Zn  Zn11  1  0.37288000  0.44588000  0.25451000  1.0 0.7134037723
Zn  Zn12  1  0.62712000  0.94588000  0.24549000  1.0 0.7134037723
Zn  Zn13  1  0.87591000  0.96038000  0.72870000  1.0 0.6817172726
Zn  Zn14  1  0.12409000  0.46038000  0.77130000  1.0 0.6817172726
Zn  Zn15  1  0.12409000  0.03962000  0.27130000  1.0 0.6817172726
Zn  Zn16  1  0.87591000  0.53962000  0.22870000  1.0 0.6817172726
H  H1  1  0.62230000  0.40480000  0.55250000  1.0 0.140590797
H  H2  1  0.37770000  0.90480000  0.94750000  1.0 0.140590797
H  H3  1  0.37770000  0.59520000  0.44750000  1.0 0.140590797
H  H4  1  0.62230000  0.09520000  0.05250000  1.0 0.140590797
H  H5  1  0.48170000  0.28270000  0.42660000  1.0 0.1316969676
H  H6  1  0.51830000  0.78270000  0.07340000  1.0 0.1316969676
H  H7  1  0.51830000  0.71730000  0.57340000  1.0 0.1316969676
H  H8  1  0.48170000  0.21730000  0.92660000  1.0 0.1316969676
H  H9  1  0.54980000  0.54770000  0.40080000  1.0 0.1316969676
H  H10  1  0.45020000  0.04770000  0.09920000  1.0 0.1316969676
H  H11  1  0.45020000  0.45230000  0.59920000  1.0 0.1316969676
H  H12  1  0.54980000  0.95230000  0.90080000  1.0 0.1316969676
H  H13  1  0.48970000  0.13600000  0.59770000  1.0 0.1316969676
H  H14  1  0.51030000  0.63600000  0.90230000  1.0 0.1316969676
H  H15  1  0.51030000  0.86400000  0.40230000  1.0 0.1316969676
H  H16  1  0.48970000  0.36400000  0.09770000  1.0 0.1316969676
H  H17  1  0.55710000  0.86890000  0.62680000  1.0 0.1316969676
H  H18  1  0.44290000  0.36890000  0.87320000  1.0 0.1316969676
H  H19  1  0.44290000  0.13110000  0.37320000  1.0 0.1316969676
H  H20  1  0.55710000  0.63110000  0.12680000  1.0 0.1316969676
H  H21  1  0.63040000  0.01890000  0.48620000  1.0 0.1316969676
H  H22  1  0.36960000  0.51890000  0.01380000  1.0 0.1316969676
H  H23  1  0.36960000  0.98110000  0.51380000  1.0 0.1316969676
H  H24  1  0.63040000  0.48110000  0.98620000  1.0 0.1316969676
H  H25  1  0.75000000  0.28950000  0.72970000  1.0 0.140590797
H  H26  1  0.25000000  0.78950000  0.77030000  1.0 0.140590797
H  H27  1  0.25000000  0.71050000  0.27030000  1.0 0.140590797
H  H28  1  0.75000000  0.21050000  0.22970000  1.0 0.140590797
H  H29  1  0.89440000  0.19300000  0.61450000  1.0 0.1481700887
H  H30  1  0.10560000  0.69300000  0.88550000  1.0 0.1481700887
H  H31  1  0.10560000  0.80700000  0.38550000  1.0 0.1481700887
H  H32  1  0.89440000  0.30700000  0.11450000  1.0 0.1481700887
H  H33  1  0.82700000  0.46250000  0.60150000  1.0 0.1316969676
H  H34  1  0.17300000  0.96250000  0.89850000  1.0 0.1316969676
H  H35  1  0.17300000  0.53750000  0.39850000  1.0 0.1316969676
H  H36  1  0.82700000  0.03750000  0.10150000  1.0 0.1316969676
H  H37  1  0.90190000  0.44880000  0.41490000  1.0 0.1115146295
H  H38  1  0.09810000  0.94880000  0.08510000  1.0 0.1115146295
H  H39  1  0.09810000  0.55120000  0.58510000  1.0 0.1115146295
H  H40  1  0.90190000  0.05120000  0.91490000  1.0 0.1115146295
H  H41  1  0.09830000  0.39070000  0.35500000  1.0 0.1316969676
H  H42  1  0.90170000  0.89070000  0.14500000  1.0 0.1316969676
H  H43  1  0.90170000  0.60930000  0.64500000  1.0 0.1316969676
H  H44  1  0.09830000  0.10930000  0.85500000  1.0 0.1316969676
H  H45  1  0.05720000  0.33300000  0.52980000  1.0 0.1206604407
H  H46  1  0.94280000  0.83300000  0.97020000  1.0 0.1206604407
H  H47  1  0.94280000  0.66700000  0.47020000  1.0 0.1206604407
H  H48  1  0.05720000  0.16700000  0.02980000  1.0 0.1206604407
H  H49  1  0.67410000  0.64350000  0.86600000  1.0 0.1115146295
H  H50  1  0.32590000  0.14350000  0.63400000  1.0 0.1115146295
H  H51  1  0.32590000  0.35650000  0.13400000  1.0 0.1115146295
H  H52  1  0.67410000  0.85650000  0.36600000  1.0 0.1115146295
H  H53  1  0.77750000  0.84890000  0.64090000  1.0 0.0779600066
H  H54  1  0.22250000  0.34890000  0.85910000  1.0 0.0779600066
H  H55  1  0.22250000  0.15110000  0.35910000  1.0 0.0779600066
H  H56  1  0.77750000  0.65110000  0.14090000  1.0 0.0779600066
H  H57  1  0.82420000  0.88060000  0.91100000  1.0 0.1481700887
H  H58  1  0.17580000  0.38060000  0.58900000  1.0 0.1481700887
H  H59  1  0.17580000  0.11940000  0.08900000  1.0 0.1481700887
H  H60  1  0.82420000  0.61940000  0.41100000  1.0 0.1481700887
H  H61  1  0.84310000  0.92260000  0.85010000  1.0 0.140590797
H  H62  1  0.15690000  0.42260000  0.64990000  1.0 0.140590797
H  H63  1  0.15690000  0.07740000  0.14990000  1.0 0.140590797
H  H64  1  0.84310000  0.57740000  0.35010000  1.0 0.140590797
H  H65  1  0.78040000  0.83490000  0.66400000  1.0 0.1115146295
H  H66  1  0.21960000  0.33490000  0.83600000  1.0 0.1115146295
H  H67  1  0.21960000  0.16510000  0.33600000  1.0 0.1115146295
H  H68  1  0.78040000  0.66510000  0.16400000  1.0 0.1115146295
H  H69  1  0.65710000  0.61180000  0.87520000  1.0 0.0779600066
H  H70  1  0.34290000  0.11180000  0.62480000  1.0 0.0779600066
H  H71  1  0.34290000  0.38820000  0.12480000  1.0 0.0779600066
H  H72  1  0.65710000  0.88820000  0.37520000  1.0 0.0779600066
H  H73  1  0.82350000  0.95890000  0.85590000  1.0 0.1481700887
H  H74  1  0.17650000  0.45890000  0.64410000  1.0 0.1481700887
H  H75  1  0.17650000  0.04110000  0.14410000  1.0 0.1481700887
H  H76  1  0.82350000  0.54110000  0.35590000  1.0 0.1481700887
H  H77  1  0.78570000  0.88980000  0.89630000  1.0 0.140590797
H  H78  1  0.21430000  0.38980000  0.60370000  1.0 0.140590797
H  H79  1  0.21430000  0.11020000  0.10370000  1.0 0.140590797
H  H80  1  0.78570000  0.61020000  0.39630000  1.0 0.140590797
C  C1  1  0.63980000  0.57130000  0.49961000  1.0 0.5799739321
C  C2  1  0.36020000  0.07130000  0.00039000  1.0 0.5799739321
C  C3  1  0.36020000  0.42870000  0.50039000  1.0 0.5799739321
C  C4  1  0.63980000  0.92870000  0.99961000  1.0 0.5799739321
C  C5  1  0.59450000  0.48840000  0.47852000  1.0 -0.0078583786
C  C6  1  0.40550000  0.98840000  0.02148000  1.0 -0.0078583786
C  C7  1  0.40550000  0.51160000  0.52148000  1.0 -0.0078583786
C  C8  1  0.59450000  0.01160000  0.97852000  1.0 -0.0078583786
C  C9  1  0.59490000  0.40750000  0.51424000  1.0 -0.171950232
C  C10  1  0.40510000  0.90750000  0.98576000  1.0 -0.171950232
C  C11  1  0.40510000  0.59250000  0.48576000  1.0 -0.171950232
C  C12  1  0.59490000  0.09250000  0.01424000  1.0 -0.171950232
C  C13  1  0.55440000  0.33040000  0.49267000  1.0 0.1696998847
C  C14  1  0.44560000  0.83040000  0.00733000  1.0 0.1696998847
C  C15  1  0.44560000  0.66960000  0.50733000  1.0 0.1696998847
C  C16  1  0.55440000  0.16960000  0.99267000  1.0 0.1696998847
C  C17  1  0.50970000  0.33570000  0.43999000  1.0 -0.1497619354
C  C18  1  0.49030000  0.83570000  0.06001000  1.0 -0.1497619354
C  C19  1  0.49030000  0.66430000  0.56001000  1.0 -0.1497619354
C  C20  1  0.50970000  0.16430000  0.93999000  1.0 -0.1497619354
C  C21  1  0.50560000  0.41710000  0.40694000  1.0 -0.0022336313
C  C22  1  0.49440000  0.91710000  0.09306000  1.0 -0.0022336313
C  C23  1  0.49440000  0.58290000  0.59306000  1.0 -0.0022336313
C  C24  1  0.50560000  0.08290000  0.90694000  1.0 -0.0022336313
C  C25  1  0.55000000  0.49250000  0.42527000  1.0 -0.1229249087
C  C26  1  0.45000000  0.99250000  0.07473000  1.0 -0.1229249087
C  C27  1  0.45000000  0.50750000  0.57473000  1.0 -0.1229249087
C  C28  1  0.55000000  0.00750000  0.92527000  1.0 -0.1229249087
C  C29  1  0.45510000  0.42770000  0.35110000  1.0 0.5799739321
C  C30  1  0.54490000  0.92770000  0.14890000  1.0 0.5799739321
C  C31  1  0.54490000  0.57230000  0.64890000  1.0 0.5799739321
C  C32  1  0.45510000  0.07230000  0.85110000  1.0 0.5799739321
C  C33  1  0.56110000  0.09080000  0.53740000  1.0 0.1591628166
C  C34  1  0.43890000  0.59080000  0.96260000  1.0 0.1591628166
C  C35  1  0.43890000  0.90920000  0.46260000  1.0 0.1591628166
C  C36  1  0.56110000  0.40920000  0.03740000  1.0 0.1591628166
C  C37  1  0.51750000  0.08360000  0.58630000  1.0 -0.1609673503
C  C38  1  0.48250000  0.58360000  0.91370000  1.0 -0.1609673503
C  C39  1  0.48250000  0.91640000  0.41370000  1.0 -0.1609673503
C  C40  1  0.51750000  0.41640000  0.08630000  1.0 -0.1609673503
C  C41  1  0.51470000  0.00020000  0.61830000  1.0 0.000604673
C  C42  1  0.48530000  0.50020000  0.88170000  1.0 0.000604673
C  C43  1  0.48530000  0.99980000  0.38170000  1.0 0.000604673
C  C44  1  0.51470000  0.49980000  0.11830000  1.0 0.000604673
C  C45  1  0.55750000  0.92510000  0.60350000  1.0 -0.1229249087
C  C46  1  0.44250000  0.42510000  0.89650000  1.0 -0.1229249087
C  C47  1  0.44250000  0.07490000  0.39650000  1.0 -0.1229249087
C  C48  1  0.55750000  0.57490000  0.10350000  1.0 -0.1229249087
C  C49  1  0.60110000  0.93170000  0.55450000  1.0 -0.0223143583
C  C50  1  0.39890000  0.43170000  0.94550000  1.0 -0.0223143583
C  C51  1  0.39890000  0.06830000  0.44550000  1.0 -0.0223143583
C  C52  1  0.60110000  0.56830000  0.05450000  1.0 -0.0223143583
C  C53  1  0.60200000  0.01460000  0.52060000  1.0 -0.171950232
C  C54  1  0.39800000  0.51460000  0.97940000  1.0 -0.1755436848
C  C55  1  0.39800000  0.98540000  0.47940000  1.0 -0.171950232
C  C56  1  0.60200000  0.48540000  0.02060000  1.0 -0.171950232
C  C57  1  0.64380000  0.84900000  0.53740000  1.0 0.5742498745
C  C58  1  0.35620000  0.34900000  0.96260000  1.0 0.5742498745
C  C59  1  0.35620000  0.15100000  0.46260000  1.0 0.5742498745
C  C60  1  0.64380000  0.65100000  0.03740000  1.0 0.5742498745
C  C61  1  0.46030000  0.98880000  0.66810000  1.0 0.5414185037
C  C62  1  0.53970000  0.48880000  0.83190000  1.0 0.5414185037
C  C63  1  0.53970000  0.01120000  0.33190000  1.0 0.5414185037
C  C64  1  0.46030000  0.51120000  0.16810000  1.0 0.5414185037
C  C65  1  0.73510000  0.46730000  0.68920000  1.0 0.5799739321
C  C66  1  0.26490000  0.96730000  0.81080000  1.0 0.5799739321
C  C67  1  0.26490000  0.53270000  0.31080000  1.0 0.5799739321
C  C68  1  0.73510000  0.03270000  0.18920000  1.0 0.5799739321
C  C69  1  0.78090000  0.38840000  0.66790000  1.0 0.0095283854
C  C70  1  0.21910000  0.88840000  0.83210000  1.0 0.0095283854
C  C71  1  0.21910000  0.61160000  0.33210000  1.0 0.0095283854
C  C72  1  0.78090000  0.11160000  0.16790000  1.0 0.0095283854
C  C73  1  0.77950000  0.30000000  0.69660000  1.0 -0.1229249087
C  C74  1  0.22050000  0.80000000  0.80340000  1.0 -0.1229249087
C  C75  1  0.22050000  0.70000000  0.30340000  1.0 -0.1229249087
C  C76  1  0.77950000  0.20000000  0.19660000  1.0 -0.1229249087
C  C77  1  0.82240000  0.22820000  0.67560000  1.0 0.0095283854
C  C78  1  0.17760000  0.72820000  0.82440000  1.0 0.0095283854
C  C79  1  0.17760000  0.77180000  0.32440000  1.0 0.0095283854
C  C80  1  0.82240000  0.27180000  0.17560000  1.0 0.0095283854
C  C81  1  0.86610000  0.24320000  0.62880000  1.0 -0.1609673503
C  C82  1  0.13390000  0.74320000  0.87120000  1.0 -0.1609673503
C  C83  1  0.13390000  0.75680000  0.37120000  1.0 -0.1609673503
C  C84  1  0.86610000  0.25680000  0.12880000  1.0 -0.1609673503
C  C85  1  0.86950000  0.32990000  0.60240000  1.0 0.1316969676
C  C86  1  0.13050000  0.82990000  0.89760000  1.0 0.1316969676
C  C87  1  0.13050000  0.67010000  0.39760000  1.0 0.1316969676
C  C88  1  0.86950000  0.17010000  0.10240000  1.0 0.1316969676
C  C89  1  0.82580000  0.40300000  0.62100000  1.0 -0.1609673503
C  C90  1  0.17420000  0.90300000  0.87900000  1.0 -0.1609673503
C  C91  1  0.17420000  0.59700000  0.37900000  1.0 -0.1609673503
C  C92  1  0.82580000  0.09700000  0.12100000  1.0 -0.1609673503
C  C93  1  0.82290000  0.13300000  0.70520000  1.0 0.556873258
C  C94  1  0.17710000  0.63300000  0.79480000  1.0 0.556873258
C  C95  1  0.17710000  0.86700000  0.29480000  1.0 0.556873258
C  C96  1  0.82290000  0.36700000  0.20520000  1.0 0.556873258
C  C97  1  0.97150000  0.38880000  0.47860000  1.0 0.1591628166
C  C98  1  0.02850000  0.88880000  0.02140000  1.0 0.1591628166
C  C99  1  0.02850000  0.61120000  0.52140000  1.0 0.1591628166
C  C100  1  0.97150000  0.11120000  0.97860000  1.0 0.1591628166
C  C101  1  0.94940000  0.42450000  0.42220000  1.0 -0.171950232
C  C102  1  0.05060000  0.92450000  0.07780000  1.0 -0.171950232
C  C103  1  0.05060000  0.57550000  0.57780000  1.0 -0.171950232
C  C104  1  0.94940000  0.07550000  0.92220000  1.0 -0.171950232
C  C105  1  0.99610000  0.42480000  0.37660000  1.0 0.000604673
C  C106  1  0.00390000  0.92480000  0.12340000  1.0 0.000604673
C  C107  1  0.00390000  0.57520000  0.62340000  1.0 0.000604673
C  C108  1  0.99610000  0.07520000  0.87660000  1.0 0.000604673
C  C109  1  0.06630000  0.39090000  0.38710000  1.0 -0.110601267
C  C110  1  0.93370000  0.89090000  0.11290000  1.0 -0.110601267
C  C111  1  0.93370000  0.60910000  0.61290000  1.0 -0.110601267
C  C112  1  0.06630000  0.10910000  0.88710000  1.0 -0.110601267
C  C113  1  0.08930000  0.35800000  0.44400000  1.0 -0.0022336313
C  C114  1  0.91070000  0.85800000  0.05600000  1.0 -0.0022336313
C  C115  1  0.91070000  0.64200000  0.55600000  1.0 -0.0022336313
C  C116  1  0.08930000  0.14200000  0.94400000  1.0 -0.0022336313
C  C117  1  0.04180000  0.35620000  0.49040000  1.0 -0.1954960565
C  C118  1  0.95820000  0.85620000  0.00960000  1.0 -0.1954960565
C  C119  1  0.95820000  0.64380000  0.50960000  1.0 -0.1954960565
C  C120  1  0.04180000  0.14380000  0.99040000  1.0 -0.1954960565
C  C121  1  0.16620000  0.32580000  0.45590000  1.0 0.5742498745
C  C122  1  0.83380000  0.82580000  0.04410000  1.0 0.5742498745
C  C123  1  0.83380000  0.67420000  0.54410000  1.0 0.5742498745
C  C124  1  0.16620000  0.17420000  0.95590000  1.0 0.5742498745
C  C125  1  0.97250000  0.46010000  0.31420000  1.0 0.5521971543
C  C126  1  0.02750000  0.96010000  0.18580000  1.0 0.5521971543
C  C127  1  0.02750000  0.53990000  0.68580000  1.0 0.5521971543
C  C128  1  0.97250000  0.03990000  0.81420000  1.0 0.5521971543
C  C129  1  0.69770000  0.68790000  0.84190000  1.0 0.1481700887
C  C130  1  0.30230000  0.18790000  0.65810000  1.0 0.1481700887
C  C131  1  0.30230000  0.31210000  0.15810000  1.0 0.140590797
C  C132  1  0.69770000  0.81210000  0.34190000  1.0 0.1481700887
C  C133  1  0.77320000  0.82050000  0.84090000  1.0 0.0602579785
C  C134  1  0.22680000  0.32050000  0.65910000  1.0 0.0602579785
C  C135  1  0.22680000  0.17950000  0.15910000  1.0 0.0602579785
C  C136  1  0.77320000  0.67950000  0.34090000  1.0 0.0602579785
C  C137  1  0.76790000  0.81450000  0.77740000  1.0 0.0341424082
C  C138  1  0.23210000  0.31450000  0.72260000  1.0 0.0341424082
C  C139  1  0.23210000  0.18550000  0.22260000  1.0 0.0341424082
C  C140  1  0.76790000  0.68550000  0.27740000  1.0 0.0341424082
C  C141  1  0.72520000  0.74210000  0.74920000  1.0 0.1206604407
C  C142  1  0.27480000  0.24210000  0.75080000  1.0 0.1206604407
C  C143  1  0.27480000  0.25790000  0.25080000  1.0 0.1206604407
C  C144  1  0.72520000  0.75790000  0.24920000  1.0 0.1206604407
C  C145  1  0.76740000  0.82670000  0.68030000  1.0 0.0983413138
C  C146  1  0.23260000  0.32670000  0.81970000  1.0 0.0983413138
C  C147  1  0.23260000  0.17330000  0.31970000  1.0 0.0983413138
C  C148  1  0.76740000  0.67330000  0.18030000  1.0 0.0983413138
C  C149  1  0.76980000  0.81560000  0.70390000  1.0 0.1591628166
C  C150  1  0.23020000  0.31560000  0.79610000  1.0 0.1591628166
C  C151  1  0.23020000  0.18440000  0.29610000  1.0 0.1591628166
C  C152  1  0.76980000  0.68440000  0.20390000  1.0 0.1591628166
C  C153  1  0.78150000  0.84880000  0.80850000  1.0 0.0779600066
C  C154  1  0.21850000  0.34880000  0.69150000  1.0 0.0779600066
C  C155  1  0.21850000  0.15120000  0.19150000  1.0 0.0779600066
C  C156  1  0.78150000  0.65120000  0.30850000  1.0 0.0779600066
C  C157  1  0.73900000  0.76970000  0.81760000  1.0 0.0217324837
C  C158  1  0.26100000  0.26970000  0.68240000  1.0 0.0217324837
C  C159  1  0.26100000  0.23030000  0.18240000  1.0 0.0217324837
C  C160  1  0.73900000  0.73030000  0.31760000  1.0 0.0217324837
C  C161  1  0.71210000  0.71840000  0.76780000  1.0 0.1115146295
C  C162  1  0.28790000  0.21840000  0.73220000  1.0 0.1115146295
C  C163  1  0.28790000  0.28160000  0.23220000  1.0 0.1115146295
C  C164  1  0.71210000  0.78160000  0.26780000  1.0 0.1115146295
C  C165  1  0.67920000  0.65450000  0.84880000  1.0 0.0856150982
C  C166  1  0.32080000  0.15450000  0.65120000  1.0 0.0856150982
C  C167  1  0.32080000  0.34550000  0.15120000  1.0 0.0856150982
C  C168  1  0.67920000  0.84550000  0.34880000  1.0 0.0856150982
N  N1  1  0.69050000  0.67570000  0.78120000  1.0 -0.0491266793
N  N2  1  0.30950000  0.17570000  0.71880000  1.0 -0.0491266793
N  N3  1  0.30950000  0.32430000  0.21880000  1.0 -0.0491266793
N  N4  1  0.69050000  0.82430000  0.28120000  1.0 -0.0491266793
N  N5  1  0.73460000  0.75590000  0.87190000  1.0 -0.110601267
N  N6  1  0.26540000  0.25590000  0.62810000  1.0 -0.110601267
N  N7  1  0.26540000  0.24410000  0.12810000  1.0 -0.110601267
N  N8  1  0.73460000  0.74410000  0.37190000  1.0 -0.110601267
N  N9  1  0.72680000  0.75160000  0.68840000  1.0 -0.1497619354
N  N10  1  0.27320000  0.25160000  0.81160000  1.0 -0.1497619354
N  N11  1  0.27320000  0.24840000  0.31160000  1.0 -0.1497619354
N  N12  1  0.72680000  0.74840000  0.18840000  1.0 -0.1497619354
N  N13  1  0.79360000  0.86920000  0.73260000  1.0 -0.171950232
N  N14  1  0.20640000  0.36920000  0.76740000  1.0 -0.171950232
N  N15  1  0.20640000  0.13080000  0.26740000  1.0 -0.171950232
N  N16  1  0.79360000  0.63080000  0.23260000  1.0 -0.171950232
N  N17  1  0.81880000  0.88170000  0.87080000  1.0 -0.110601267
N  N18  1  0.18120000  0.38170000  0.62920000  1.0 -0.110601267
N  N19  1  0.18120000  0.11830000  0.12920000  1.0 -0.110601267
N  N20  1  0.81880000  0.61830000  0.37080000  1.0 -0.110601267
N  N21  1  0.55770000  0.24810000  0.53082000  1.0 -0.1013757155
N  N22  1  0.44230000  0.74810000  0.96918000  1.0 -0.110601267
N  N23  1  0.44230000  0.75190000  0.46918000  1.0 -0.1013757155
N  N24  1  0.55770000  0.25190000  0.03082000  1.0 -0.1013757155
N  N25  1  0.56330000  0.17430000  0.50044000  1.0 -0.0698728043
N  N26  1  0.43670000  0.67430000  0.99956000  1.0 -0.0698728043
N  N27  1  0.43670000  0.82570000  0.49956000  1.0 -0.0698728043
N  N28  1  0.56330000  0.32570000  0.00044000  1.0 -0.0698728043
N  N29  1  0.93030000  0.33250000  0.55460000  1.0 -0.0223143583
N  N30  1  0.06970000  0.83250000  0.94540000  1.0 -0.0223143583
N  N31  1  0.06970000  0.66750000  0.44540000  1.0 -0.0223143583
N  N32  1  0.93030000  0.16750000  0.05460000  1.0 -0.0223143583
N  N33  1  0.91560000  0.39250000  0.52310000  1.0 -0.0491266793
N  N34  1  0.08440000  0.89250000  0.97690000  1.0 -0.0491266793
N  N35  1  0.08440000  0.60750000  0.47690000  1.0 -0.0491266793
N  N36  1  0.91560000  0.10750000  0.02310000  1.0 -0.0491266793
N  N37  1  0.72710000  0.73920000  0.70830000  1.0 -0.1013757155
N  N38  1  0.27290000  0.23920000  0.79170000  1.0 -0.1013757155
N  N39  1  0.27290000  0.26080000  0.29170000  1.0 -0.1013757155
N  N40  1  0.72710000  0.76080000  0.20830000  1.0 -0.1013757155
N  N41  1  0.79920000  0.86750000  0.75190000  1.0 -0.1497619354
N  N42  1  0.20080000  0.36750000  0.74810000  1.0 -0.1497619354
N  N43  1  0.20080000  0.13250000  0.24810000  1.0 -0.1497619354
N  N44  1  0.79920000  0.63250000  0.25190000  1.0 -0.1497619354
N  N45  1  0.67480000  0.64250000  0.78650000  1.0 -0.1013757155
N  N46  1  0.32520000  0.14250000  0.71350000  1.0 -0.1013757155
N  N47  1  0.32520000  0.35750000  0.21350000  1.0 -0.1013757155
N  N48  1  0.67480000  0.85750000  0.28650000  1.0 -0.1013757155
N  N49  1  0.71660000  0.73030000  0.87060000  1.0 -0.1013757155
N  N50  1  0.28340000  0.23030000  0.62940000  1.0 -0.1013757155
N  N51  1  0.28340000  0.26970000  0.12940000  1.0 -0.1013757155
N  N52  1  0.71660000  0.76970000  0.37060000  1.0 -0.1013757155
N  N53  1  0.79910000  0.90640000  0.86010000  1.0 -0.1326030943
N  N54  1  0.20090000  0.40640000  0.63990000  1.0 -0.1326030943
N  N55  1  0.20090000  0.09360000  0.13990000  1.0 -0.1326030943
N  N56  1  0.79910000  0.59360000  0.36010000  1.0 -0.1326030943
O  O1  1  0.66554000  0.57038000  0.55314000  1.0 -0.5189528208
O  O2  1  0.33446000  0.07038000  0.94686000  1.0 -0.5189528208
O  O3  1  0.33446000  0.42962000  0.44686000  1.0 -0.5189528208
O  O4  1  0.66554000  0.92962000  0.05314000  1.0 -0.5189528208
O  O5  1  0.64750000  0.63480000  0.46024000  1.0 -0.5686083278
O  O6  1  0.35250000  0.13480000  0.03976000  1.0 -0.5686083278
O  O7  1  0.35250000  0.36520000  0.53976000  1.0 -0.5686083278
O  O8  1  0.64750000  0.86520000  0.96024000  1.0 -0.5686083278
O  O9  1  0.45860000  0.49860000  0.31869000  1.0 -0.4653013885
O  O10  1  0.54140000  0.99860000  0.18131000  1.0 -0.4653013885
O  O11  1  0.54140000  0.50140000  0.68131000  1.0 -0.4653013885
O  O12  1  0.45860000  0.00140000  0.81869000  1.0 -0.4638645987
O  O13  1  0.40793000  0.36440000  0.33814000  1.0 -0.5686083278
O  O14  1  0.59207000  0.86440000  0.16186000  1.0 -0.5686083278
O  O15  1  0.59207000  0.63560000  0.66186000  1.0 -0.5686083278
O  O16  1  0.40793000  0.13560000  0.83814000  1.0 -0.5686083278
O  O17  1  0.67260000  0.85180000  0.48708000  1.0 -0.5321528505
O  O18  1  0.32740000  0.35180000  0.01292000  1.0 -0.5321528505
O  O19  1  0.32740000  0.14820000  0.51292000  1.0 -0.5321528505
O  O20  1  0.67260000  0.64820000  0.98708000  1.0 -0.5321528505
O  O21  1  0.64900000  0.78130000  0.57355000  1.0 -0.5407736788
O  O22  1  0.35100000  0.28130000  0.92645000  1.0 -0.5407736788
O  O23  1  0.35100000  0.21870000  0.42645000  1.0 -0.5407736788
O  O24  1  0.64900000  0.71870000  0.07355000  1.0 -0.5407736788
O  O25  1  0.44470000  0.91040000  0.68390000  1.0 -0.4821166486
O  O26  1  0.55530000  0.41040000  0.81610000  1.0 -0.4821166486
O  O27  1  0.55530000  0.08960000  0.31610000  1.0 -0.4821166486
O  O28  1  0.44470000  0.58960000  0.18390000  1.0 -0.4821166486
O  O29  1  0.43550000  0.06130000  0.68670000  1.0 -0.4821166486
O  O30  1  0.56450000  0.56130000  0.81330000  1.0 -0.4821166486
O  O31  1  0.56450000  0.93870000  0.31330000  1.0 -0.4821166486
O  O32  1  0.43550000  0.43870000  0.18670000  1.0 -0.4821166486
O  O33  1  0.69090000  0.44670000  0.72990000  1.0 -0.5109917502
O  O34  1  0.30910000  0.94670000  0.77010000  1.0 -0.5109917502
O  O35  1  0.30910000  0.55330000  0.27010000  1.0 -0.5109917502
O  O36  1  0.69090000  0.05330000  0.22990000  1.0 -0.5109917502
O  O37  1  0.74250000  0.54620000  0.66787000  1.0 -0.5407736788
O  O38  1  0.25750000  0.04620000  0.83213000  1.0 -0.5407736788
O  O39  1  0.25750000  0.45380000  0.33213000  1.0 -0.5407736788
O  O40  1  0.74250000  0.95380000  0.16787000  1.0 -0.5407736788
O  O41  1  0.78970000  0.12060000  0.75110000  1.0 -0.5189528208
O  O42  1  0.21030000  0.62060000  0.74890000  1.0 -0.5109917502
O  O43  1  0.21030000  0.87940000  0.24890000  1.0 -0.5109917502
O  O44  1  0.78970000  0.37940000  0.25110000  1.0 -0.5189528208
O  O45  1  0.85620000  0.06860000  0.67880000  1.0 -0.5189528208
O  O46  1  0.14380000  0.56860000  0.82120000  1.0 -0.5189528208
O  O47  1  0.14380000  0.93140000  0.32120000  1.0 -0.5189528208
O  O48  1  0.85620000  0.43140000  0.17880000  1.0 -0.5189528208
O  O49  1  0.18810000  0.31600000  0.51103000  1.0 -0.5321528505
O  O50  1  0.81190000  0.81600000  0.98897000  1.0 -0.5321528505
O  O51  1  0.81190000  0.68400000  0.48897000  1.0 -0.5321528505
O  O52  1  0.18810000  0.18400000  0.01103000  1.0 -0.5321528505
O  O53  1  0.20172000  0.30960000  0.41187000  1.0 -0.5109917502
O  O54  1  0.79828000  0.80960000  0.08813000  1.0 -0.5109917502
O  O55  1  0.79828000  0.69040000  0.58813000  1.0 -0.5109917502
O  O56  1  0.20172000  0.19040000  0.91187000  1.0 -0.5109917502
O  O57  1  0.00700000  0.44200000  0.27190000  1.0 -0.4821166486
O  O58  1  0.99300000  0.94200000  0.22810000  1.0 -0.4821166486
O  O59  1  0.99300000  0.55800000  0.72810000  1.0 -0.4821166486
O  O60  1  0.00700000  0.05800000  0.77190000  1.0 -0.4821166486
O  O61  1  0.91480000  0.51030000  0.31060000  1.0 -0.5686083278
O  O62  1  0.08520000  0.01030000  0.18940000  1.0 -0.5686083278
O  O63  1  0.08520000  0.48970000  0.68940000  1.0 -0.5686083278
O  O64  1  0.91480000  0.98970000  0.81060000  1.0 -0.5686083278
