# DDEC6 charges by PACMAN v1.1 (https://github.com/mtap-research/PACMAN-charge/)
data_INECOV_FSR_pacman
_symmetry_space_group_name_H-M   'P 1'
_cell_length_a   15.08500000
_cell_length_b   15.08500000
_cell_length_c   14.25130000
_cell_angle_alpha   65.12120000
_cell_angle_beta   114.87900000
_cell_angle_gamma   146.57900000
_symmetry_Int_Tables_number   1
_chemical_formula_structural   PrH26C27(NO4)2
_chemical_formula_sum   'Pr2 H52 C54 N4 O16'
_cell_volume   1604.65241206
_cell_formula_units_Z   2
loop_
 _symmetry_equiv_pos_site_id
 _symmetry_equiv_pos_as_xyz
  1  'x, y, z'
loop_
 _atom_site_type_symbol
 _atom_site_label
 _atom_site_symmetry_multiplicity
 _atom_site_fract_x
 _atom_site_fract_y
 _atom_site_fract_z
 _atom_site_occupancy
 _atom_site_charge
Pr  Pr1  1  0.67603000  0.13001000  0.50573000  1.0 2.0664047107
Pr  Pr2  1  0.13001000  0.67603000  0.49427000  1.0 2.0664047107
H  H1  1  0.57090000  0.35430000  0.22370000  1.0 0.1292699286
H  H2  1  0.35430000  0.57090000  0.77630000  1.0 0.1292699286
H  H3  1  0.49490000  0.43230000  0.07030000  1.0 0.1096060103
H  H4  1  0.43230000  0.49490000  0.92970000  1.0 0.1096060103
H  H5  1  0.03100000  0.96840000  0.06950000  1.0 0.1096060103
H  H6  1  0.96840000  0.03100000  0.93050000  1.0 0.1096060103
H  H7  1  0.11090000  0.89190000  0.21720000  1.0 0.1292699286
H  H8  1  0.89190000  0.11090000  0.78280000  1.0 0.1292699286
H  H9  1  0.95920000  0.61860000  0.70800000  1.0 0.1292699286
H  H10  1  0.61860000  0.95920000  0.29200000  1.0 0.1292699286
H  H11  1  0.94680000  0.63200000  0.85860000  1.0 0.1096060103
H  H12  1  0.63200000  0.94680000  0.14140000  1.0 0.1096060103
H  H13  1  0.61780000  0.14980000  0.94800000  1.0 0.1096060103
H  H14  1  0.14980000  0.61780000  0.05200000  1.0 0.1096060103
H  H15  1  0.61790000  0.13390000  0.79190000  1.0 0.1172242133
H  H16  1  0.13390000  0.61790000  0.20810000  1.0 0.1172242133
H  H17  1  0.76620000  0.24880000  0.27100000  1.0 0.1096060103
H  H18  1  0.24880000  0.76620000  0.72900000  1.0 0.1096060103
H  H19  1  0.73820000  0.21940000  0.10790000  1.0 0.1096060103
H  H20  1  0.21940000  0.73820000  0.89210000  1.0 0.1096060103
H  H21  1  0.85020000  0.59640000  0.97170000  1.0 0.1096060103
H  H22  1  0.59640000  0.85020000  0.02830000  1.0 0.1096060103
H  H23  1  0.88640000  0.63040000  0.13620000  1.0 0.1172242133
H  H24  1  0.63040000  0.88640000  0.86380000  1.0 0.1172242133
H  H25  1  0.02200000  0.37580000  0.41040000  1.0 0.070626498
H  H26  1  0.37580000  0.02200000  0.58960000  1.0 0.070626498
H  H27  1  0.13040000  0.19080000  0.59830000  1.0 0.1172242133
H  H28  1  0.19080000  0.13040000  0.40170000  1.0 0.1172242133
H  H29  1  0.97790000  0.11810000  0.61410000  1.0 0.1292699286
H  H30  1  0.11810000  0.97790000  0.38590000  1.0 0.1292699286
H  H31  1  0.96760000  0.08260000  0.51630000  1.0 0.1096060103
H  H32  1  0.08260000  0.96760000  0.48370000  1.0 0.1096060103
H  H33  1  0.33120000  0.47960000  0.56210000  1.0 0.1013582751
H  H34  1  0.47960000  0.33120000  0.43790000  1.0 0.1013582751
H  H35  1  0.30080000  0.46120000  0.44600000  1.0 0.1292699286
H  H36  1  0.46120000  0.30080000  0.55400000  1.0 0.1292699286
H  H37  1  0.28100000  0.54120000  0.46510000  1.0 0.1013582751
H  H38  1  0.54120000  0.28100000  0.53490000  1.0 0.1013582751
H  H39  1  0.04710000  0.37170000  0.46000000  1.0 0.070626498
H  H40  1  0.37170000  0.04710000  0.54000000  1.0 0.070626498
H  H41  1  0.87250000  0.03770000  0.42280000  1.0 0.1096060103
H  H42  1  0.03770000  0.87250000  0.57720000  1.0 0.1096060103
H  H43  1  0.90120000  0.12760000  0.30500000  1.0 0.1403490111
H  H44  1  0.12760000  0.90120000  0.69500000  1.0 0.1403490111
H  H45  1  0.02380000  0.13800000  0.37770000  1.0 0.1292699286
H  H46  1  0.13800000  0.02380000  0.62230000  1.0 0.1292699286
H  H47  1  0.28480000  0.43200000  0.44900000  1.0 0.1292699286
H  H48  1  0.43200000  0.28480000  0.55100000  1.0 0.1292699286
H  H49  1  0.23930000  0.44670000  0.32460000  1.0 0.092788662
H  H50  1  0.44670000  0.23930000  0.67540000  1.0 0.092788662
H  H51  1  0.25090000  0.51990000  0.39090000  1.0 0.0790325433
H  H52  1  0.51990000  0.25090000  0.60910000  1.0 0.0790325433
C  C1  1  0.39470000  0.06590000  0.33480000  1.0 0.6110053167
C  C2  1  0.06590000  0.39470000  0.66520000  1.0 0.6110053167
C  C3  1  0.34640000  0.11540000  0.23520000  1.0 -0.0150515659
C  C4  1  0.11540000  0.34640000  0.76480000  1.0 -0.0150515659
C  C5  1  0.46080000  0.27500000  0.19160000  1.0 -0.0943198584
C  C6  1  0.27500000  0.46080000  0.80840000  1.0 -0.0943198584
C  C7  1  0.41500000  0.32100000  0.09960000  1.0 -0.1516165201
C  C8  1  0.32100000  0.41500000  0.90040000  1.0 -0.1516165201
C  C9  1  0.25430000  0.20710000  0.04940000  1.0 0.070626498
C  C10  1  0.20710000  0.25430000  0.95060000  1.0 0.070626498
C  C11  1  0.14260000  0.04840000  0.09820000  1.0 -0.1516165201
C  C12  1  0.04840000  0.14260000  0.90180000  1.0 -0.1516165201
C  C13  1  0.18960000  0.00320000  0.18800000  1.0 -0.0943198584
C  C14  1  0.00320000  0.18960000  0.81200000  1.0 -0.0943198584
C  C15  1  0.79660000  0.36540000  0.63830000  1.0 0.6163354024
C  C16  1  0.36540000  0.79660000  0.36170000  1.0 0.6163354024
C  C17  1  0.79020000  0.37380000  0.73620000  1.0 -0.029002901
C  C18  1  0.37380000  0.79020000  0.26380000  1.0 -0.029002901
C  C19  1  0.88910000  0.52330000  0.75630000  1.0 -0.0986766934
C  C20  1  0.52330000  0.88910000  0.24370000  1.0 -0.0986766934
C  C21  1  0.88450000  0.53170000  0.84720000  1.0 -0.1651036635
C  C22  1  0.53170000  0.88450000  0.15280000  1.0 -0.1651036635
C  C23  1  0.78920000  0.39440000  0.92220000  1.0 0.070626498
C  C24  1  0.39440000  0.78920000  0.07780000  1.0 0.070626498
C  C25  1  0.68770000  0.24550000  0.89980000  1.0 -0.1516165201
C  C26  1  0.24550000  0.68770000  0.10020000  1.0 -0.1516165201
C  C27  1  0.68840000  0.23620000  0.80680000  1.0 -0.1050349593
C  C28  1  0.23620000  0.68840000  0.19320000  1.0 -0.1050349593
C  C29  1  0.87970000  0.48370000  0.32400000  1.0 0.5804818973
C  C30  1  0.48370000  0.87970000  0.67600000  1.0 0.5804818973
C  C31  1  0.83430000  0.44570000  0.21970000  1.0 -0.029002901
C  C32  1  0.44570000  0.83430000  0.78030000  1.0 -0.029002901
C  C33  1  0.78670000  0.32170000  0.21080000  1.0 -0.0986766934
C  C34  1  0.32170000  0.78670000  0.78920000  1.0 -0.0986766934
C  C35  1  0.76850000  0.30350000  0.11310000  1.0 -0.1516165201
C  C36  1  0.30350000  0.76850000  0.88690000  1.0 -0.1516165201
C  C37  1  0.79410000  0.40590000  0.02430000  1.0 0.070626498
C  C38  1  0.40590000  0.79410000  0.97570000  1.0 0.070626498
C  C39  1  0.83590000  0.52750000  0.03240000  1.0 -0.1608578011
C  C40  1  0.52750000  0.83590000  0.96760000  1.0 -0.1608578011
C  C41  1  0.85680000  0.54700000  0.13060000  1.0 -0.0943198584
C  C42  1  0.54700000  0.85680000  0.86940000  1.0 -0.0943198584
C  C43  1  0.98400000  0.28200000  0.45170000  1.0 0.3160419568
C  C44  1  0.28200000  0.98400000  0.54830000  1.0 0.3160419568
C  C45  1  0.03900000  0.16300000  0.56240000  1.0 -0.3862784102
C  C46  1  0.16300000  0.03900000  0.43760000  1.0 -0.3862784102
C  C47  1  0.26590000  0.45810000  0.49320000  1.0 -0.2369535312
C  C48  1  0.45810000  0.26590000  0.50680000  1.0 -0.2369535312
C  C49  1  0.97840000  0.27160000  0.44300000  1.0 0.3038339719
C  C50  1  0.27160000  0.97840000  0.55700000  1.0 0.3038339719
C  C51  1  0.95450000  0.13350000  0.37600000  1.0 -0.3449102536
C  C52  1  0.13350000  0.95450000  0.62400000  1.0 -0.3456174329
C  C53  1  0.22020000  0.43180000  0.39060000  1.0 -0.2005221441
C  C54  1  0.43180000  0.22020000  0.60940000  1.0 -0.2005221441
N  N1  1  0.09390000  0.29930000  0.50210000  1.0 0.05087942
N  N2  1  0.29930000  0.09390000  0.49790000  1.0 0.05087942
N  N3  1  0.04710000  0.27550000  0.40410000  1.0 0.05087942
N  N4  1  0.27550000  0.04710000  0.59590000  1.0 0.05087942
O  O1  1  0.28053000  0.91987000  0.37470000  1.0 -0.6693315997
O  O2  1  0.91987000  0.28053000  0.62530000  1.0 -0.6693315997
O  O3  1  0.54134000  0.16926000  0.37230000  1.0 -0.6266498461
O  O4  1  0.16926000  0.54134000  0.62770000  1.0 -0.6266498461
O  O5  1  0.68123000  0.22937000  0.60890000  1.0 -0.6554950371
O  O6  1  0.22937000  0.68123000  0.39110000  1.0 -0.6554950371
O  O7  1  0.91976000  0.49824000  0.59230000  1.0 -0.6873859063
O  O8  1  0.49824000  0.91976000  0.40770000  1.0 -0.6873859063
O  O9  1  0.88072000  0.40308000  0.40650000  1.0 -0.7587057248
O  O10  1  0.40308000  0.88072000  0.59350000  1.0 -0.7587057248
O  O11  1  0.93239000  0.60321000  0.32970000  1.0 -0.5888633028
O  O12  1  0.60321000  0.93239000  0.67030000  1.0 -0.5888633028
O  O13  1  0.83670000  0.15330000  0.45500000  1.0 -0.4803077027
O  O14  1  0.15330000  0.83670000  0.54500000  1.0 -0.4803077027
O  O15  1  0.83780000  0.15620000  0.46000000  1.0 -0.4803077027
O  O16  1  0.15620000  0.83780000  0.54000000  1.0 -0.4803077027
