# DDEC6 charges by PACMAN v1.1 (https://github.com/mtap-research/PACMAN-charge/)
data_INIQUR_FSR_pacman
_symmetry_space_group_name_H-M   'P 1'
_cell_length_a   14.02160000
_cell_length_b   14.02160000
_cell_length_c   16.68100000
_cell_angle_alpha   80.93100000
_cell_angle_beta   99.06900000
_cell_angle_gamma   118.47300000
_symmetry_Int_Tables_number   1
_chemical_formula_structural   Fe2Ni3H54C30N21O
_chemical_formula_sum   'Fe4 Ni6 H108 C60 N42 O2'
_cell_volume   2833.96388037
_cell_formula_units_Z   2
loop_
 _symmetry_equiv_pos_site_id
 _symmetry_equiv_pos_as_xyz
  1  'x, y, z'
loop_
 _atom_site_type_symbol
 _atom_site_label
 _atom_site_symmetry_multiplicity
 _atom_site_fract_x
 _atom_site_fract_y
 _atom_site_fract_z
 _atom_site_occupancy
 _atom_site_charge
Fe  Fe1  1  0.78084000  0.16148000  0.58146000  1.0 0.008082732
Fe  Fe2  1  0.16148000  0.78084000  0.91854000  1.0 0.008082732
Fe  Fe3  1  0.21916000  0.83852000  0.41854000  1.0 0.008082732
Fe  Fe4  1  0.83852000  0.21916000  0.08146000  1.0 0.008082732
Ni  Ni1  1  0.59069000  0.04579000  0.30673000  1.0 0.7050405173
Ni  Ni2  1  0.04579000  0.59069000  0.19327000  1.0 0.7050405173
Ni  Ni3  1  0.40931000  0.95421000  0.69327000  1.0 0.7046155958
Ni  Ni4  1  0.95421000  0.40931000  0.80673000  1.0 0.7050405173
Ni  Ni5  1  0.89405000  0.89405000  0.75000000  1.0 0.6888446539
Ni  Ni6  1  0.10595000  0.10595000  0.25000000  1.0 0.6888446539
H  H1  1  0.66950000  0.92370000  0.28210000  1.0 0.2753453581
H  H2  1  0.92370000  0.66950000  0.21790000  1.0 0.2753453581
H  H3  1  0.33050000  0.07630000  0.71790000  1.0 0.2753453581
H  H4  1  0.07630000  0.33050000  0.78210000  1.0 0.2753453581
H  H5  1  0.59430000  0.86530000  0.35200000  1.0 0.3033993273
H  H6  1  0.86530000  0.59430000  0.14800000  1.0 0.3033993273
H  H7  1  0.40570000  0.13470000  0.64800000  1.0 0.3033993273
H  H8  1  0.13470000  0.40570000  0.85200000  1.0 0.3033993273
H  H9  1  0.54570000  0.78030000  0.22640000  1.0 0.0892363927
H  H10  1  0.78030000  0.54570000  0.27360000  1.0 0.0892363927
H  H11  1  0.45430000  0.21970000  0.77360000  1.0 0.0892363927
H  H12  1  0.21970000  0.45430000  0.72640000  1.0 0.0892363927
H  H13  1  0.45340000  0.77500000  0.27020000  1.0 0.11185434
H  H14  1  0.77500000  0.45340000  0.22980000  1.0 0.11185434
H  H15  1  0.54660000  0.22500000  0.72980000  1.0 0.11185434
H  H16  1  0.22500000  0.54660000  0.77020000  1.0 0.11185434
H  H17  1  0.42980000  0.80480000  0.13940000  1.0 0.1311472888
H  H18  1  0.80480000  0.42980000  0.36060000  1.0 0.1311472888
H  H19  1  0.57020000  0.19520000  0.86060000  1.0 0.1311472888
H  H20  1  0.19520000  0.57020000  0.63940000  1.0 0.1311472888
H  H21  1  0.54130000  0.90930000  0.14040000  1.0 0.1387480488
H  H22  1  0.90930000  0.54130000  0.35960000  1.0 0.1387480488
H  H23  1  0.45870000  0.09070000  0.85960000  1.0 0.1387480488
H  H24  1  0.09070000  0.45870000  0.64040000  1.0 0.1387480488
H  H25  1  0.40570000  0.94450000  0.10420000  1.0 0.11185434
H  H26  1  0.94450000  0.40570000  0.39580000  1.0 0.11185434
H  H27  1  0.59430000  0.05550000  0.89580000  1.0 0.11185434
H  H28  1  0.05550000  0.59430000  0.60420000  1.0 0.11185434
H  H29  1  0.35940000  0.89080000  0.18740000  1.0 0.11185434
H  H30  1  0.89080000  0.35940000  0.31260000  1.0 0.11185434
H  H31  1  0.64060000  0.10920000  0.81260000  1.0 0.11185434
H  H32  1  0.10920000  0.64060000  0.68740000  1.0 0.11185434
H  H33  1  0.52160000  0.07740000  0.14230000  1.0 0.2224026053
H  H34  1  0.07740000  0.52160000  0.35770000  1.0 0.2224026053
H  H35  1  0.47840000  0.92260000  0.85770000  1.0 0.2224026053
H  H36  1  0.92260000  0.47840000  0.64230000  1.0 0.2224026053
H  H37  1  0.43330000  0.10410000  0.11750000  1.0 0.11185434
H  H38  1  0.10410000  0.43330000  0.38250000  1.0 0.11185434
H  H39  1  0.56670000  0.89590000  0.88250000  1.0 0.11185434
H  H40  1  0.89590000  0.56670000  0.61750000  1.0 0.11185434
H  H41  1  0.37030000  0.05310000  0.19450000  1.0 0.11185434
H  H42  1  0.05310000  0.37030000  0.30550000  1.0 0.11185434
H  H43  1  0.62970000  0.94690000  0.80550000  1.0 0.11185434
H  H44  1  0.94690000  0.62970000  0.69450000  1.0 0.11185434
H  H45  1  0.52810000  0.24150000  0.16110000  1.0 0.1387480488
H  H46  1  0.24150000  0.52810000  0.33890000  1.0 0.1387480488
H  H47  1  0.47190000  0.75850000  0.83890000  1.0 0.1387480488
H  H48  1  0.75850000  0.47190000  0.66110000  1.0 0.1387480488
H  H49  1  0.41550000  0.20670000  0.19040000  1.0 0.0892363927
H  H50  1  0.20670000  0.41550000  0.30960000  1.0 0.0892363927
H  H51  1  0.58450000  0.79330000  0.80960000  1.0 0.0892363927
H  H52  1  0.79330000  0.58450000  0.69040000  1.0 0.0892363927
H  H53  1  0.57940000  0.31600000  0.27030000  1.0 0.0892363927
H  H54  1  0.31600000  0.57940000  0.22970000  1.0 0.0892363927
H  H55  1  0.42060000  0.68400000  0.72970000  1.0 0.0892363927
H  H56  1  0.68400000  0.42060000  0.77030000  1.0 0.0892363927
H  H57  1  0.47840000  0.22880000  0.31320000  1.0 0.11185434
H  H58  1  0.22880000  0.47840000  0.18680000  1.0 0.11185434
H  H59  1  0.52160000  0.77120000  0.68680000  1.0 0.11185434
H  H60  1  0.77120000  0.52160000  0.81320000  1.0 0.11185434
H  H61  1  0.67430000  0.24630000  0.32450000  1.0 0.2947847872
H  H62  1  0.24630000  0.67430000  0.17550000  1.0 0.2947847872
H  H63  1  0.32570000  0.75370000  0.67550000  1.0 0.2947847872
H  H64  1  0.75370000  0.32570000  0.82450000  1.0 0.2947847872
H  H65  1  0.58470000  0.18350000  0.38410000  1.0 0.3033993273
H  H66  1  0.18350000  0.58470000  0.11590000  1.0 0.3033993273
H  H67  1  0.41530000  0.81650000  0.61590000  1.0 0.3033993273
H  H68  1  0.81650000  0.41530000  0.88410000  1.0 0.3033993273
H  H69  1  0.93100000  0.77820000  0.67030000  1.0 0.2629162996
H  H70  1  0.77820000  0.93100000  0.82970000  1.0 0.2629162996
H  H71  1  0.06900000  0.22180000  0.32970000  1.0 0.2629162996
H  H72  1  0.22180000  0.06900000  0.17030000  1.0 0.2629162996
H  H73  1  0.86220000  0.82500000  0.61230000  1.0 0.2742680936
H  H74  1  0.82500000  0.86220000  0.88770000  1.0 0.2742680936
H  H75  1  0.13780000  0.17500000  0.38770000  1.0 0.2742680936
H  H76  1  0.17500000  0.13780000  0.11230000  1.0 0.2742680936
H  H77  1  0.04440000  0.85940000  0.60510000  1.0 0.1208151179
H  H78  1  0.85940000  0.04440000  0.89490000  1.0 0.1208151179
H  H79  1  0.95560000  0.14060000  0.39490000  1.0 0.1208151179
H  H80  1  0.14060000  0.95560000  0.10510000  1.0 0.1208151179
H  H81  1  0.97970000  0.91530000  0.55300000  1.0 0.1042785822
H  H82  1  0.91530000  0.97970000  0.94700000  1.0 0.1042785822
H  H83  1  0.02030000  0.08470000  0.44700000  1.0 0.1042785822
H  H84  1  0.08470000  0.02030000  0.05300000  1.0 0.1042785822
H  H85  1  0.15620000  0.99220000  0.63020000  1.0 0.1311472888
H  H86  1  0.99220000  0.15620000  0.86980000  1.0 0.1311472888
H  H87  1  0.84380000  0.00780000  0.36980000  1.0 0.1311472888
H  H88  1  0.00780000  0.84380000  0.13020000  1.0 0.1311472888
H  H89  1  0.09420000  0.04840000  0.57440000  1.0 0.1208151179
H  H90  1  0.04840000  0.09420000  0.92560000  1.0 0.1208151179
H  H91  1  0.90580000  0.95160000  0.42560000  1.0 0.1208151179
H  H92  1  0.95160000  0.90580000  0.07440000  1.0 0.1208151179
H  H93  1  0.11620000  0.13640000  0.65900000  1.0 0.11185434
H  H94  1  0.13640000  0.11620000  0.84100000  1.0 0.11185434
H  H95  1  0.88380000  0.86360000  0.34100000  1.0 0.11185434
H  H96  1  0.86360000  0.88380000  0.15900000  1.0 0.11185434
H  H97  1  0.18090000  0.08250000  0.71390000  1.0 0.1042785822
H  H98  1  0.08250000  0.18090000  0.78610000  1.0 0.1042785822
H  H99  1  0.81910000  0.91750000  0.28610000  1.0 0.1042785822
H  H100  1  0.91750000  0.81910000  0.21390000  1.0 0.1042785822
H  H101  1  0.69740000  0.73420000  0.78860000  1.0 0.3744773893
H  H102  1  0.73420000  0.69740000  0.71140000  1.0 0.3753600745
H  H103  1  0.30260000  0.26580000  0.21140000  1.0 0.3753600745
H  H104  1  0.26580000  0.30260000  0.28860000  1.0 0.3753600745
H  H105  1  0.08350000  0.01050000  0.79280000  1.0 0.2380311965
H  H106  1  0.01050000  0.08350000  0.70720000  1.0 0.2380311965
H  H107  1  0.91650000  0.98950000  0.20720000  1.0 0.2380311965
H  H108  1  0.98950000  0.91650000  0.29280000  1.0 0.2380311965
C  C1  1  0.72880000  0.09860000  0.47880000  1.0 0.0766643836
C  C2  1  0.09860000  0.72880000  0.02120000  1.0 0.0766643836
C  C3  1  0.27120000  0.90140000  0.52120000  1.0 0.0766643836
C  C4  1  0.90140000  0.27120000  0.97880000  1.0 0.0766643836
C  C5  1  0.80230000  0.04150000  0.63440000  1.0 0.0390444958
C  C6  1  0.04150000  0.80230000  0.86560000  1.0 0.0390444958
C  C7  1  0.19770000  0.95850000  0.36560000  1.0 0.0390444958
C  C8  1  0.95850000  0.19770000  0.13440000  1.0 0.0390444958
C  C9  1  0.63440000  0.08520000  0.61280000  1.0 0.0892363927
C  C10  1  0.08520000  0.63440000  0.88720000  1.0 0.0892363927
C  C11  1  0.36560000  0.91480000  0.38720000  1.0 0.0892363927
C  C12  1  0.91480000  0.36560000  0.11280000  1.0 0.0892363927
C  C13  1  0.93040000  0.23480000  0.55450000  1.0 0.008082732
C  C14  1  0.23480000  0.93040000  0.94550000  1.0 0.008082732
C  C15  1  0.06960000  0.76520000  0.44550000  1.0 0.008082732
C  C16  1  0.76520000  0.06960000  0.05450000  1.0 0.008082732
C  C17  1  0.75500000  0.28340000  0.53490000  1.0 0.008082732
C  C18  1  0.28340000  0.75500000  0.96510000  1.0 0.008082732
C  C19  1  0.24500000  0.71660000  0.46510000  1.0 0.008082732
C  C20  1  0.71660000  0.24500000  0.03490000  1.0 0.008082732
C  C21  1  0.83290000  0.22850000  0.68170000  1.0 0.0480369246
C  C22  1  0.22850000  0.83290000  0.81830000  1.0 0.0480369246
C  C23  1  0.16710000  0.77150000  0.31830000  1.0 0.0480369246
C  C24  1  0.77150000  0.16710000  0.18170000  1.0 0.0480369246
C  C25  1  0.51500000  0.82500000  0.24200000  1.0 -0.0292521407
C  C26  1  0.82500000  0.51500000  0.25800000  1.0 -0.0292521407
C  C27  1  0.48500000  0.17500000  0.75800000  1.0 -0.0292521407
C  C28  1  0.17500000  0.48500000  0.74200000  1.0 -0.0292521407
C  C29  1  0.48100000  0.85900000  0.17300000  1.0 -0.2081673415
C  C30  1  0.85900000  0.48100000  0.32700000  1.0 -0.2081673415
C  C31  1  0.51900000  0.14100000  0.82700000  1.0 -0.2081673415
C  C32  1  0.14100000  0.51900000  0.67300000  1.0 -0.2081673415
C  C33  1  0.43200000  0.92800000  0.16100000  1.0 -0.081728165
C  C34  1  0.92800000  0.43200000  0.33900000  1.0 -0.081728165
C  C35  1  0.56800000  0.07200000  0.83900000  1.0 -0.081728165
C  C36  1  0.07200000  0.56800000  0.66100000  1.0 -0.081728165
C  C37  1  0.44330000  0.10470000  0.18200000  1.0 -0.0730657698
C  C38  1  0.10470000  0.44330000  0.31800000  1.0 -0.0730657698
C  C39  1  0.55670000  0.89530000  0.81800000  1.0 -0.0730657698
C  C40  1  0.89530000  0.55670000  0.68200000  1.0 -0.0730657698
C  C41  1  0.48600000  0.20600000  0.20100000  1.0 -0.2204696209
C  C42  1  0.20600000  0.48600000  0.29900000  1.0 -0.2204696209
C  C43  1  0.51400000  0.79400000  0.79900000  1.0 -0.2204696209
C  C44  1  0.79400000  0.51400000  0.70100000  1.0 -0.2204696209
C  C45  1  0.53560000  0.23840000  0.27800000  1.0 -0.0124796441
C  C46  1  0.23840000  0.53560000  0.22200000  1.0 -0.0124796441
C  C47  1  0.46440000  0.76160000  0.72200000  1.0 -0.0124796441
C  C48  1  0.76160000  0.46440000  0.77800000  1.0 -0.0124796441
C  C49  1  0.01860000  0.91140000  0.60900000  1.0 -0.0161786566
C  C50  1  0.91140000  0.01860000  0.89100000  1.0 -0.0161786566
C  C51  1  0.98140000  0.08860000  0.39100000  1.0 -0.0161786566
C  C52  1  0.08860000  0.98140000  0.10900000  1.0 -0.0161786566
C  C53  1  0.09470000  0.00730000  0.62570000  1.0 -0.2320454539
C  C54  1  0.00730000  0.09470000  0.87430000  1.0 -0.2320454539
C  C55  1  0.90530000  0.99270000  0.37430000  1.0 -0.2320454539
C  C56  1  0.99270000  0.90530000  0.12570000  1.0 -0.2320454539
C  C57  1  0.10870000  0.06370000  0.68990000  1.0 -0.0730657698
C  C58  1  0.06370000  0.10870000  0.81010000  1.0 -0.0730657698
C  C59  1  0.89130000  0.93630000  0.31010000  1.0 -0.0730657698
C  C60  1  0.93630000  0.89130000  0.18990000  1.0 -0.0730657698
N  N1  1  0.69160000  0.06380000  0.41720000  1.0 -0.4414864707
N  N2  1  0.06380000  0.69160000  0.08280000  1.0 -0.4496619375
N  N3  1  0.30840000  0.93620000  0.58280000  1.0 -0.4414864707
N  N4  1  0.93620000  0.30840000  0.91720000  1.0 -0.4414864707
N  N5  1  0.81890000  0.97230000  0.67100000  1.0 -0.4577448339
N  N6  1  0.97230000  0.81890000  0.82900000  1.0 -0.4577448339
N  N7  1  0.18110000  0.02770000  0.32900000  1.0 -0.4577448339
N  N8  1  0.02770000  0.18110000  0.17100000  1.0 -0.4577448339
N  N9  1  0.54780000  0.03900000  0.63340000  1.0 -0.4010011376
N  N10  1  0.03900000  0.54780000  0.86660000  1.0 -0.4010011376
N  N11  1  0.45220000  0.96100000  0.36660000  1.0 -0.4010011376
N  N12  1  0.96100000  0.45220000  0.13340000  1.0 -0.4010011376
N  N13  1  0.02090000  0.27630000  0.54250000  1.0 -0.4577448339
N  N14  1  0.27630000  0.02090000  0.95750000  1.0 -0.4577448339
N  N15  1  0.97910000  0.72370000  0.45750000  1.0 -0.4577448339
N  N16  1  0.72370000  0.97910000  0.04250000  1.0 -0.4577448339
N  N17  1  0.73350000  0.35310000  0.51000000  1.0 -0.4496619375
N  N18  1  0.35310000  0.73350000  0.99000000  1.0 -0.4496619375
N  N19  1  0.26650000  0.64690000  0.49000000  1.0 -0.4496619375
N  N20  1  0.64690000  0.26650000  0.01000000  1.0 -0.4496619375
N  N21  1  0.86700000  0.27540000  0.73940000  1.0 -0.4414864707
N  N22  1  0.27540000  0.86700000  0.76060000  1.0 -0.4414864707
N  N23  1  0.13300000  0.72460000  0.26060000  1.0 -0.4414864707
N  N24  1  0.72460000  0.13300000  0.23940000  1.0 -0.4414864707
N  N25  1  0.59660000  0.90160000  0.29970000  1.0 -0.5180265726
N  N26  1  0.90160000  0.59660000  0.20030000  1.0 -0.5180265726
N  N27  1  0.40340000  0.09840000  0.70030000  1.0 -0.5180265726
N  N28  1  0.09840000  0.40340000  0.79970000  1.0 -0.5180265726
N  N29  1  0.48830000  0.03090000  0.19520000  1.0 -0.2937563331
N  N30  1  0.03090000  0.48830000  0.30480000  1.0 -0.2959026666
N  N31  1  0.51170000  0.96910000  0.80480000  1.0 -0.2959026666
N  N32  1  0.96910000  0.51170000  0.69520000  1.0 -0.2959026666
N  N33  1  0.59850000  0.19250000  0.32760000  1.0 -0.4917100639
N  N34  1  0.19250000  0.59850000  0.17240000  1.0 -0.4917100639
N  N35  1  0.40150000  0.80750000  0.67240000  1.0 -0.4917100639
N  N36  1  0.80750000  0.40150000  0.82760000  1.0 -0.4917100639
N  N37  1  0.92740000  0.84400000  0.65060000  1.0 -0.5180265726
N  N38  1  0.84400000  0.92740000  0.84940000  1.0 -0.5180265726
N  N39  1  0.07260000  0.15600000  0.34940000  1.0 -0.5180265726
N  N40  1  0.15600000  0.07260000  0.15060000  1.0 -0.5180265726
N  N41  1  0.04160000  0.04160000  0.75000000  1.0 -0.2415780024
N  N42  1  0.95840000  0.95840000  0.25000000  1.0 -0.2415780024
O  O1  1  0.74660000  0.74660000  0.75000000  1.0 -0.7508012624
O  O2  1  0.25340000  0.25340000  0.25000000  1.0 -0.7508012624
