# DDEC6 charges by PACMAN v1.1 (https://github.com/mtap-research/PACMAN-charge/)
data_INIRAY01_ASR_pacman
_symmetry_space_group_name_H-M   'P 1'
_cell_length_a   13.93370000
_cell_length_b   13.93370000
_cell_length_c   16.59900000
_cell_angle_alpha   80.80410000
_cell_angle_beta   99.19590000
_cell_angle_gamma   118.74600000
_symmetry_Int_Tables_number   1
_chemical_formula_structural   Co2Ni3H50(C10N7)3
_chemical_formula_sum   'Co4 Ni6 H100 C60 N42'
_cell_volume   2776.34779488
_cell_formula_units_Z   2
loop_
 _symmetry_equiv_pos_site_id
 _symmetry_equiv_pos_as_xyz
  1  'x, y, z'
loop_
 _atom_site_type_symbol
 _atom_site_label
 _atom_site_symmetry_multiplicity
 _atom_site_fract_x
 _atom_site_fract_y
 _atom_site_fract_z
 _atom_site_occupancy
 _atom_site_charge
Co  Co1  1  0.78155000  0.16249000  0.58231000  1.0 0.0989551718
Co  Co2  1  0.16249000  0.78155000  0.91769000  1.0 0.0989551718
Co  Co3  1  0.21845000  0.83751000  0.41769000  1.0 0.0989551718
Co  Co4  1  0.83751000  0.21845000  0.08231000  1.0 0.0989551718
Ni  Ni1  1  0.59163000  0.04427000  0.30831000  1.0 0.6775264642
Ni  Ni2  1  0.04427000  0.59163000  0.19169000  1.0 0.6775264642
Ni  Ni3  1  0.40837000  0.95573000  0.69169000  1.0 0.6775264642
Ni  Ni4  1  0.95573000  0.40837000  0.80831000  1.0 0.6775264642
Ni  Ni5  1  0.89180000  0.89180000  0.75000000  1.0 0.6502672038
Ni  Ni6  1  0.10820000  0.10820000  0.25000000  1.0 0.6502672038
H  H1  1  0.59180000  0.86340000  0.35420000  1.0 0.3109649024
H  H2  1  0.86340000  0.59180000  0.14580000  1.0 0.3109649024
H  H3  1  0.40820000  0.13660000  0.64580000  1.0 0.3109649024
H  H4  1  0.13660000  0.40820000  0.85420000  1.0 0.3109649024
H  H5  1  0.66960000  0.92240000  0.28510000  1.0 0.2900476358
H  H6  1  0.92240000  0.66960000  0.21490000  1.0 0.2900476358
H  H7  1  0.33040000  0.07760000  0.71490000  1.0 0.2900476358
H  H8  1  0.07760000  0.33040000  0.78510000  1.0 0.2900476358
H  H9  1  0.45380000  0.77160000  0.27160000  1.0 0.1112367987
H  H10  1  0.77160000  0.45380000  0.22840000  1.0 0.1112367987
H  H11  1  0.54620000  0.22840000  0.72840000  1.0 0.1112367987
H  H12  1  0.22840000  0.54620000  0.77160000  1.0 0.1112367987
H  H13  1  0.54910000  0.77830000  0.22980000  1.0 0.0989551718
H  H14  1  0.77830000  0.54910000  0.27020000  1.0 0.0989551718
H  H15  1  0.45090000  0.22170000  0.77020000  1.0 0.0989551718
H  H16  1  0.22170000  0.45090000  0.72980000  1.0 0.0989551718
H  H17  1  0.43300000  0.80440000  0.13850000  1.0 0.1301925607
H  H18  1  0.80440000  0.43300000  0.36150000  1.0 0.1301925607
H  H19  1  0.56700000  0.19560000  0.86150000  1.0 0.1301925607
H  H20  1  0.19560000  0.56700000  0.63850000  1.0 0.1301925607
H  H21  1  0.54590000  0.90950000  0.14110000  1.0 0.139734318
H  H22  1  0.90950000  0.54590000  0.35890000  1.0 0.139734318
H  H23  1  0.45410000  0.09050000  0.85890000  1.0 0.139734318
H  H24  1  0.09050000  0.45410000  0.64110000  1.0 0.139734318
H  H25  1  0.36400000  0.89080000  0.19100000  1.0 0.118833845
H  H26  1  0.89080000  0.36400000  0.30900000  1.0 0.118833845
H  H27  1  0.63600000  0.10920000  0.80900000  1.0 0.118833845
H  H28  1  0.10920000  0.63600000  0.69100000  1.0 0.118833845
H  H29  1  0.40650000  0.94350000  0.10580000  1.0 0.118833845
H  H30  1  0.94350000  0.40650000  0.39420000  1.0 0.118833845
H  H31  1  0.59350000  0.05650000  0.89420000  1.0 0.118833845
H  H32  1  0.05650000  0.59350000  0.60580000  1.0 0.118833845
H  H33  1  0.54820000  0.06880000  0.15710000  1.0 0.2481137565
H  H34  1  0.06880000  0.54820000  0.34290000  1.0 0.2481137565
H  H35  1  0.45180000  0.93120000  0.84290000  1.0 0.2481137565
H  H36  1  0.93120000  0.45180000  0.65710000  1.0 0.2481137565
H  H37  1  0.37300000  0.05480000  0.20150000  1.0 0.118833845
H  H38  1  0.05480000  0.37300000  0.29850000  1.0 0.118833845
H  H39  1  0.62700000  0.94520000  0.79850000  1.0 0.118833845
H  H40  1  0.94520000  0.62700000  0.70150000  1.0 0.118833845
H  H41  1  0.42350000  0.09870000  0.11820000  1.0 0.118833845
H  H42  1  0.09870000  0.42350000  0.38180000  1.0 0.118833845
H  H43  1  0.57650000  0.90130000  0.88180000  1.0 0.118833845
H  H44  1  0.90130000  0.57650000  0.61820000  1.0 0.118833845
H  H45  1  0.54180000  0.24520000  0.16210000  1.0 0.1301925607
H  H46  1  0.24520000  0.54180000  0.33790000  1.0 0.1301925607
H  H47  1  0.45820000  0.75480000  0.83790000  1.0 0.1301925607
H  H48  1  0.75480000  0.45820000  0.66210000  1.0 0.1301925607
H  H49  1  0.42680000  0.22240000  0.18110000  1.0 0.0989551718
H  H50  1  0.22240000  0.42680000  0.31890000  1.0 0.0989551718
H  H51  1  0.57320000  0.77760000  0.81890000  1.0 0.0989551718
H  H52  1  0.77760000  0.57320000  0.68110000  1.0 0.0989551718
H  H53  1  0.57490000  0.31670000  0.27650000  1.0 0.0785954329
H  H54  1  0.31670000  0.57490000  0.22350000  1.0 0.0785954329
H  H55  1  0.42510000  0.68330000  0.72350000  1.0 0.0785954329
H  H56  1  0.68330000  0.42510000  0.77650000  1.0 0.0785954329
H  H57  1  0.47190000  0.21930000  0.31290000  1.0 0.0989551718
H  H58  1  0.21930000  0.47190000  0.18710000  1.0 0.0989551718
H  H59  1  0.52810000  0.78070000  0.68710000  1.0 0.0989551718
H  H60  1  0.78070000  0.52810000  0.81290000  1.0 0.0989551718
H  H61  1  0.58710000  0.18470000  0.38350000  1.0 0.2984469137
H  H62  1  0.18470000  0.58710000  0.11650000  1.0 0.2984469137
H  H63  1  0.41290000  0.81530000  0.61650000  1.0 0.2984469137
H  H64  1  0.81530000  0.41290000  0.88350000  1.0 0.2984469137
H  H65  1  0.67370000  0.24690000  0.32060000  1.0 0.2900476358
H  H66  1  0.24690000  0.67370000  0.17940000  1.0 0.2900476358
H  H67  1  0.32630000  0.75310000  0.67940000  1.0 0.2900476358
H  H68  1  0.75310000  0.32630000  0.82060000  1.0 0.2900476358
H  H69  1  0.86000000  0.82560000  0.61080000  1.0 0.2900476358
H  H70  1  0.82560000  0.86000000  0.88920000  1.0 0.2900476358
H  H71  1  0.14000000  0.17440000  0.38920000  1.0 0.2900476358
H  H72  1  0.17440000  0.14000000  0.11080000  1.0 0.2900476358
H  H73  1  0.92580000  0.77460000  0.66900000  1.0 0.2797661326
H  H74  1  0.77460000  0.92580000  0.83100000  1.0 0.2797661326
H  H75  1  0.07420000  0.22540000  0.33100000  1.0 0.2797661326
H  H76  1  0.22540000  0.07420000  0.16900000  1.0 0.2797661326
H  H77  1  0.98340000  0.91580000  0.55310000  1.0 0.0989551718
H  H78  1  0.91580000  0.98340000  0.94690000  1.0 0.0989551718
H  H79  1  0.01660000  0.08420000  0.44690000  1.0 0.0989551718
H  H80  1  0.08420000  0.01660000  0.05310000  1.0 0.0989551718
H  H81  1  0.04760000  0.86120000  0.60900000  1.0 0.1112367987
H  H82  1  0.86120000  0.04760000  0.89100000  1.0 0.1112367987
H  H83  1  0.95240000  0.13880000  0.39100000  1.0 0.1112367987
H  H84  1  0.13880000  0.95240000  0.10900000  1.0 0.1112367987
H  H85  1  0.09520000  0.05240000  0.57630000  1.0 0.1112367987
H  H86  1  0.05240000  0.09520000  0.92370000  1.0 0.1112367987
H  H87  1  0.90480000  0.94760000  0.42370000  1.0 0.118833845
H  H88  1  0.94760000  0.90480000  0.07630000  1.0 0.118833845
H  H89  1  0.15930000  0.99770000  0.63240000  1.0 0.118833845
H  H90  1  0.99770000  0.15930000  0.86760000  1.0 0.118833845
H  H91  1  0.84070000  0.00230000  0.36760000  1.0 0.118833845
H  H92  1  0.00230000  0.84070000  0.13240000  1.0 0.118833845
H  H93  1  0.11280000  0.13720000  0.66140000  1.0 0.0989551718
H  H94  1  0.13720000  0.11280000  0.83860000  1.0 0.0989551718
H  H95  1  0.88720000  0.86280000  0.33860000  1.0 0.0989551718
H  H96  1  0.86280000  0.88720000  0.16140000  1.0 0.0989551718
H  H97  1  0.17960000  0.08480000  0.71670000  1.0 0.0989551718
H  H98  1  0.08480000  0.17960000  0.78330000  1.0 0.0989551718
H  H99  1  0.82040000  0.91520000  0.28330000  1.0 0.0989551718
H  H100  1  0.91520000  0.82040000  0.21670000  1.0 0.0989551718
C  C1  1  0.73090000  0.10110000  0.48090000  1.0 0.0658510733
C  C2  1  0.10110000  0.73090000  0.01910000  1.0 0.0658510733
C  C3  1  0.26910000  0.89890000  0.51910000  1.0 0.0658510733
C  C4  1  0.89890000  0.26910000  0.98090000  1.0 0.0658510733
C  C5  1  0.80130000  0.04250000  0.63360000  1.0 0.0595422811
C  C6  1  0.04250000  0.80130000  0.86640000  1.0 0.0595422811
C  C7  1  0.19870000  0.95750000  0.36640000  1.0 0.0595422811
C  C8  1  0.95750000  0.19870000  0.13360000  1.0 0.0595422811
C  C9  1  0.63610000  0.08810000  0.61220000  1.0 0.0785954329
C  C10  1  0.08810000  0.63610000  0.88780000  1.0 0.0785954329
C  C11  1  0.36390000  0.91190000  0.38780000  1.0 0.0785954329
C  C12  1  0.91190000  0.36390000  0.11220000  1.0 0.0785954329
C  C13  1  0.93070000  0.23530000  0.55550000  1.0 -0.0005925467
C  C14  1  0.23530000  0.93070000  0.94450000  1.0 -0.0005925467
C  C15  1  0.06930000  0.76470000  0.44450000  1.0 -0.0005925467
C  C16  1  0.76470000  0.06930000  0.05550000  1.0 0.0033485236
C  C17  1  0.75680000  0.28380000  0.53620000  1.0 -0.0005925467
C  C18  1  0.28380000  0.75680000  0.96380000  1.0 -0.0005925467
C  C19  1  0.24320000  0.71620000  0.46380000  1.0 -0.0005925467
C  C20  1  0.71620000  0.24320000  0.03620000  1.0 -0.0005925467
C  C21  1  0.83290000  0.22750000  0.68200000  1.0 0.0397387124
C  C22  1  0.22750000  0.83290000  0.81800000  1.0 0.0397387124
C  C23  1  0.16710000  0.77250000  0.31800000  1.0 0.0397387124
C  C24  1  0.77250000  0.16710000  0.18200000  1.0 0.0397387124
C  C25  1  0.51500000  0.81700000  0.24400000  1.0 -0.0264261016
C  C26  1  0.81700000  0.51500000  0.25600000  1.0 -0.0264261016
C  C27  1  0.48500000  0.18300000  0.75600000  1.0 -0.0264261016
C  C28  1  0.18300000  0.48500000  0.74400000  1.0 -0.0264261016
C  C29  1  0.48000000  0.86200000  0.16900000  1.0 -0.2119081788
C  C30  1  0.86200000  0.48000000  0.33100000  1.0 -0.2119081788
C  C31  1  0.52000000  0.13800000  0.83100000  1.0 -0.2119081788
C  C32  1  0.13800000  0.52000000  0.66900000  1.0 -0.2119081788
C  C33  1  0.42600000  0.92600000  0.16300000  1.0 -0.0890160748
C  C34  1  0.92600000  0.42600000  0.33700000  1.0 -0.0890160748
C  C35  1  0.57400000  0.07400000  0.83700000  1.0 -0.0890160748
C  C36  1  0.07400000  0.57400000  0.66300000  1.0 -0.0890160748
C  C37  1  0.44000000  0.10000000  0.17800000  1.0 -0.0846067839
C  C38  1  0.10000000  0.44000000  0.32200000  1.0 -0.0846067839
C  C39  1  0.56000000  0.90000000  0.82200000  1.0 -0.0846067839
C  C40  1  0.90000000  0.56000000  0.67800000  1.0 -0.0846067839
C  C41  1  0.49100000  0.20900000  0.19900000  1.0 -0.2196074822
C  C42  1  0.20900000  0.49100000  0.30100000  1.0 -0.2196074822
C  C43  1  0.50900000  0.79100000  0.80100000  1.0 -0.2196074822
C  C44  1  0.79100000  0.50900000  0.69900000  1.0 -0.2196074822
C  C45  1  0.53560000  0.24440000  0.28800000  1.0 0.0033485236
C  C46  1  0.24440000  0.53560000  0.21200000  1.0 0.0033485236
C  C47  1  0.46440000  0.75560000  0.71200000  1.0 0.005254678
C  C48  1  0.75560000  0.46440000  0.78800000  1.0 0.005254678
C  C49  1  0.01300000  0.90500000  0.60900000  1.0 -0.006855102
C  C50  1  0.90500000  0.01300000  0.89100000  1.0 -0.006855102
C  C51  1  0.98700000  0.09500000  0.39100000  1.0 -0.006855102
C  C52  1  0.09500000  0.98700000  0.10900000  1.0 -0.006855102
C  C53  1  0.09300000  0.00700000  0.62600000  1.0 -0.2196074822
C  C54  1  0.00700000  0.09300000  0.87400000  1.0 -0.2196074822
C  C55  1  0.90700000  0.99300000  0.37400000  1.0 -0.2196074822
C  C56  1  0.99300000  0.90700000  0.12600000  1.0 -0.2196074822
C  C57  1  0.11090000  0.06710000  0.69100000  1.0 -0.0708472975
C  C58  1  0.06710000  0.11090000  0.80900000  1.0 -0.0708472975
C  C59  1  0.88910000  0.93290000  0.30900000  1.0 -0.0708472975
C  C60  1  0.93290000  0.88910000  0.19100000  1.0 -0.0708472975
N  N1  1  0.69440000  0.06560000  0.41950000  1.0 -0.4318010333
N  N2  1  0.06560000  0.69440000  0.08050000  1.0 -0.4318010333
N  N3  1  0.30560000  0.93440000  0.58050000  1.0 -0.4318010333
N  N4  1  0.93440000  0.30560000  0.91950000  1.0 -0.4318010333
N  N5  1  0.81740000  0.97140000  0.67050000  1.0 -0.45160679
N  N6  1  0.97140000  0.81740000  0.82950000  1.0 -0.45160679
N  N7  1  0.18260000  0.02860000  0.32950000  1.0 -0.45160679
N  N8  1  0.02860000  0.18260000  0.17050000  1.0 -0.45160679
N  N9  1  0.55050000  0.04270000  0.63300000  1.0 -0.3903381028
N  N10  1  0.04270000  0.55050000  0.86700000  1.0 -0.3903381028
N  N11  1  0.44950000  0.95730000  0.36700000  1.0 -0.3903381028
N  N12  1  0.95730000  0.44950000  0.13300000  1.0 -0.3903381028
N  N13  1  0.02200000  0.27820000  0.54310000  1.0 -0.4318010333
N  N14  1  0.27820000  0.02200000  0.95690000  1.0 -0.4318010333
N  N15  1  0.97800000  0.72180000  0.45690000  1.0 -0.4318010333
N  N16  1  0.72180000  0.97800000  0.04310000  1.0 -0.4318010333
N  N17  1  0.73510000  0.35610000  0.51060000  1.0 -0.4395504989
N  N18  1  0.35610000  0.73510000  0.98940000  1.0 -0.4395504989
N  N19  1  0.26490000  0.64390000  0.48940000  1.0 -0.4395504989
N  N20  1  0.64390000  0.26490000  0.01060000  1.0 -0.4395504989
N  N21  1  0.86810000  0.27330000  0.74010000  1.0 -0.4318010333
N  N22  1  0.27330000  0.86810000  0.75990000  1.0 -0.4318010333
N  N23  1  0.13190000  0.72670000  0.25990000  1.0 -0.4318010333
N  N24  1  0.72670000  0.13190000  0.24010000  1.0 -0.4318010333
N  N25  1  0.59870000  0.89930000  0.30230000  1.0 -0.4983226009
N  N26  1  0.89930000  0.59870000  0.19770000  1.0 -0.4983226009
N  N27  1  0.40130000  0.10070000  0.69770000  1.0 -0.4983226009
N  N28  1  0.10070000  0.40130000  0.80230000  1.0 -0.4983226009
N  N29  1  0.49170000  0.03230000  0.19560000  1.0 -0.2802951806
N  N30  1  0.03230000  0.49170000  0.30440000  1.0 -0.2802951806
N  N31  1  0.50830000  0.96770000  0.80440000  1.0 -0.2802951806
N  N32  1  0.96770000  0.50830000  0.69560000  1.0 -0.2802951806
N  N33  1  0.60080000  0.19380000  0.32840000  1.0 -0.4983226009
N  N34  1  0.19380000  0.60080000  0.17160000  1.0 -0.4983226009
N  N35  1  0.39920000  0.80620000  0.67160000  1.0 -0.4983226009
N  N36  1  0.80620000  0.39920000  0.82840000  1.0 -0.4983226009
N  N37  1  0.92170000  0.84030000  0.65050000  1.0 -0.472335706
N  N38  1  0.84030000  0.92170000  0.84950000  1.0 -0.472335706
N  N39  1  0.07830000  0.15970000  0.34950000  1.0 -0.472335706
N  N40  1  0.15970000  0.07830000  0.15050000  1.0 -0.472335706
N  N41  1  0.04130000  0.04130000  0.75000000  1.0 -0.2119081788
N  N42  1  0.95870000  0.95870000  0.25000000  1.0 -0.2119081788
