# DDEC6 charges by PACMAN v1.1 (https://github.com/mtap-research/PACMAN-charge/)
data_INIRAY_FSR_pacman
_symmetry_space_group_name_H-M   'P 1'
_cell_length_a   14.22870000
_cell_length_b   14.22870000
_cell_length_c   16.47500000
_cell_angle_alpha   81.37980000
_cell_angle_beta   98.62020000
_cell_angle_gamma   118.57500000
_symmetry_Int_Tables_number   1
_chemical_formula_structural   Co2Ni3H52C30N21O
_chemical_formula_sum   'Co4 Ni6 H104 C60 N42 O2'
_cell_volume   2884.31757225
_cell_formula_units_Z   2
loop_
 _symmetry_equiv_pos_site_id
 _symmetry_equiv_pos_as_xyz
  1  'x, y, z'
loop_
 _atom_site_type_symbol
 _atom_site_label
 _atom_site_symmetry_multiplicity
 _atom_site_fract_x
 _atom_site_fract_y
 _atom_site_fract_z
 _atom_site_occupancy
 _atom_site_charge
Co  Co1  1  0.77198000  0.14912000  0.58634000  1.0 0.1098723151
Co  Co2  1  0.14912000  0.77198000  0.91366000  1.0 0.1098723151
Co  Co3  1  0.22802000  0.85088000  0.41366000  1.0 0.1098723151
Co  Co4  1  0.85088000  0.22802000  0.08634000  1.0 0.1098723151
Ni  Ni1  1  0.59563000  0.05571000  0.30459000  1.0 0.6685189888
Ni  Ni2  1  0.05571000  0.59563000  0.19541000  1.0 0.6685189888
Ni  Ni3  1  0.40437000  0.94429000  0.69541000  1.0 0.6685189888
Ni  Ni4  1  0.94429000  0.40437000  0.80459000  1.0 0.6685189888
Ni  Ni5  1  0.89070000  0.89070000  0.75000000  1.0 0.7028311774
Ni  Ni6  1  0.10930000  0.10930000  0.25000000  1.0 0.7028311774
H  H1  1  0.66520000  0.93900000  0.26470000  1.0 0.2914543435
H  H2  1  0.93900000  0.66520000  0.23530000  1.0 0.2914543435
H  H3  1  0.33480000  0.06100000  0.73530000  1.0 0.2914543435
H  H4  1  0.06100000  0.33480000  0.76470000  1.0 0.2914543435
H  H5  1  0.59240000  0.87660000  0.33570000  1.0 0.301500088
H  H6  1  0.87660000  0.59240000  0.16430000  1.0 0.301500088
H  H7  1  0.40760000  0.12340000  0.66430000  1.0 0.301500088
H  H8  1  0.12340000  0.40760000  0.83570000  1.0 0.301500088
H  H9  1  0.44940000  0.80720000  0.25180000  1.0 0.1098723151
H  H10  1  0.80720000  0.44940000  0.24820000  1.0 0.1098723151
H  H11  1  0.55060000  0.19280000  0.74820000  1.0 0.1098723151
H  H12  1  0.19280000  0.55060000  0.75180000  1.0 0.1098723151
H  H13  1  0.53658000  0.79678000  0.21310000  1.0 0.0898426929
H  H14  1  0.79678000  0.53658000  0.28690000  1.0 0.0898426929
H  H15  1  0.46342000  0.20322000  0.78690000  1.0 0.0898426929
H  H16  1  0.20322000  0.46342000  0.71310000  1.0 0.0898426929
H  H17  1  0.55350000  0.93390000  0.12630000  1.0 0.1396539345
H  H18  1  0.93390000  0.55350000  0.37370000  1.0 0.1396539345
H  H19  1  0.44650000  0.06610000  0.87370000  1.0 0.1396539345
H  H20  1  0.06610000  0.44650000  0.62630000  1.0 0.1396539345
H  H21  1  0.44260000  0.83260000  0.11830000  1.0 0.1396539345
H  H22  1  0.83260000  0.44260000  0.38170000  1.0 0.1396539345
H  H23  1  0.55740000  0.16740000  0.88170000  1.0 0.1396539345
H  H24  1  0.16740000  0.55740000  0.61830000  1.0 0.1396539345
H  H25  1  0.40900000  0.97020000  0.10010000  1.0 0.1098723151
H  H26  1  0.97020000  0.40900000  0.39990000  1.0 0.1098723151
H  H27  1  0.59100000  0.02980000  0.89990000  1.0 0.1098723151
H  H28  1  0.02980000  0.59100000  0.60010000  1.0 0.1098723151
H  H29  1  0.37570000  0.91550000  0.18720000  1.0 0.1098723151
H  H30  1  0.91550000  0.37570000  0.31280000  1.0 0.1098723151
H  H31  1  0.62430000  0.08450000  0.81280000  1.0 0.1098723151
H  H32  1  0.08450000  0.62430000  0.68720000  1.0 0.1098723151
H  H33  1  0.55830000  0.09210000  0.15190000  1.0 0.2556128487
H  H34  1  0.09210000  0.55830000  0.34810000  1.0 0.2556128487
H  H35  1  0.44170000  0.90790000  0.84810000  1.0 0.2556128487
H  H36  1  0.90790000  0.44170000  0.65190000  1.0 0.2556128487
H  H37  1  0.43280000  0.12420000  0.12290000  1.0 0.1185692757
H  H38  1  0.12420000  0.43280000  0.37710000  1.0 0.1185692757
H  H39  1  0.56720000  0.87580000  0.87710000  1.0 0.1185692757
H  H40  1  0.87580000  0.56720000  0.62290000  1.0 0.1185692757
H  H41  1  0.39400000  0.08160000  0.21040000  1.0 0.1185692757
H  H42  1  0.08160000  0.39400000  0.28960000  1.0 0.1185692757
H  H43  1  0.60600000  0.91840000  0.78960000  1.0 0.1185692757
H  H44  1  0.91840000  0.60600000  0.71040000  1.0 0.1185692757
H  H45  1  0.57170000  0.26430000  0.17460000  1.0 0.1396539345
H  H46  1  0.26430000  0.57170000  0.32540000  1.0 0.1396539345
H  H47  1  0.42830000  0.73570000  0.82540000  1.0 0.1396539345
H  H48  1  0.73570000  0.42830000  0.67460000  1.0 0.1396539345
H  H49  1  0.46170000  0.25710000  0.18470000  1.0 0.0898426929
H  H50  1  0.25710000  0.46170000  0.31530000  1.0 0.0898426929
H  H51  1  0.53830000  0.74290000  0.81530000  1.0 0.0898426929
H  H52  1  0.74290000  0.53830000  0.68470000  1.0 0.0898426929
H  H53  1  0.58820000  0.32840000  0.29210000  1.0 0.0898426929
H  H54  1  0.32840000  0.58820000  0.20790000  1.0 0.0898426929
H  H55  1  0.41180000  0.67160000  0.70790000  1.0 0.0898426929
H  H56  1  0.67160000  0.41180000  0.79210000  1.0 0.0898426929
H  H57  1  0.48430000  0.22930000  0.32020000  1.0 0.101677312
H  H58  1  0.22930000  0.48430000  0.17980000  1.0 0.101677312
H  H59  1  0.51570000  0.77070000  0.67980000  1.0 0.101677312
H  H60  1  0.77070000  0.51570000  0.82020000  1.0 0.101677312
H  H61  1  0.59820000  0.18820000  0.38970000  1.0 0.301500088
H  H62  1  0.18820000  0.59820000  0.11030000  1.0 0.301500088
H  H63  1  0.40180000  0.81180000  0.61030000  1.0 0.301500088
H  H64  1  0.81180000  0.40180000  0.88970000  1.0 0.301500088
H  H65  1  0.68320000  0.25060000  0.32660000  1.0 0.2914543435
H  H66  1  0.25060000  0.68320000  0.17340000  1.0 0.2914543435
H  H67  1  0.31680000  0.74940000  0.67340000  1.0 0.2914543435
H  H68  1  0.74940000  0.31680000  0.82660000  1.0 0.2914543435
H  H69  1  0.92010000  0.77310000  0.66910000  1.0 0.2518558785
H  H70  1  0.77310000  0.92010000  0.83090000  1.0 0.2518558785
H  H71  1  0.07990000  0.22690000  0.33090000  1.0 0.2518558785
H  H72  1  0.22690000  0.07990000  0.16910000  1.0 0.2518558785
H  H73  1  0.86370000  0.82990000  0.60960000  1.0 0.2706352309
H  H74  1  0.82990000  0.86370000  0.89040000  1.0 0.2706352309
H  H75  1  0.13630000  0.17010000  0.39040000  1.0 0.2706352309
H  H76  1  0.17010000  0.13630000  0.10960000  1.0 0.2706352309
H  H77  1  0.98090000  0.89790000  0.55680000  1.0 0.1098723151
H  H78  1  0.89790000  0.98090000  0.94320000  1.0 0.1098723151
H  H79  1  0.01910000  0.10210000  0.44320000  1.0 0.1098723151
H  H80  1  0.10210000  0.01910000  0.05680000  1.0 0.1098723151
H  H81  1  0.04110000  0.85030000  0.62200000  1.0 0.1098723151
H  H82  1  0.85030000  0.04110000  0.87800000  1.0 0.1098723151
H  H83  1  0.95890000  0.14970000  0.37800000  1.0 0.1098723151
H  H84  1  0.14970000  0.95890000  0.12200000  1.0 0.1098723151
H  H85  1  0.07900000  0.03100000  0.57250000  1.0 0.1185692757
H  H86  1  0.03100000  0.07900000  0.92750000  1.0 0.1185692757
H  H87  1  0.92100000  0.96900000  0.42750000  1.0 0.1185692757
H  H88  1  0.96900000  0.92100000  0.07250000  1.0 0.1185692757
H  H89  1  0.14780000  0.98200000  0.62490000  1.0 0.1291519054
H  H90  1  0.98200000  0.14780000  0.87510000  1.0 0.1291519054
H  H91  1  0.85220000  0.01800000  0.37510000  1.0 0.1291519054
H  H92  1  0.01800000  0.85220000  0.12490000  1.0 0.1291519054
H  H93  1  0.11110000  0.11830000  0.65710000  1.0 0.101677312
H  H94  1  0.11830000  0.11110000  0.84290000  1.0 0.101677312
H  H95  1  0.88890000  0.88170000  0.34290000  1.0 0.101677312
H  H96  1  0.88170000  0.88890000  0.15710000  1.0 0.101677312
H  H97  1  0.16650000  0.05830000  0.71380000  1.0 0.0898426929
H  H98  1  0.05830000  0.16650000  0.78620000  1.0 0.0898426929
H  H99  1  0.83350000  0.94170000  0.28620000  1.0 0.0898426929
H  H100  1  0.94170000  0.83350000  0.21380000  1.0 0.0898426929
H  H101  1  0.67960000  0.74340000  0.75000000  1.0 0.370877324
H  H102  1  0.74340000  0.67960000  0.75000000  1.0 0.370877324
H  H103  1  0.32040000  0.25660000  0.25000000  1.0 0.370877324
H  H104  1  0.25660000  0.32040000  0.25000000  1.0 0.370877324
C  C1  1  0.72230000  0.09030000  0.48400000  1.0 0.0692034051
C  C2  1  0.09030000  0.72230000  0.01600000  1.0 0.0692034051
C  C3  1  0.27770000  0.90970000  0.51600000  1.0 0.0692034051
C  C4  1  0.90970000  0.27770000  0.98400000  1.0 0.0692034051
C  C5  1  0.79690000  0.03370000  0.63670000  1.0 0.045807714
C  C6  1  0.03370000  0.79690000  0.86330000  1.0 0.045807714
C  C7  1  0.20310000  0.96630000  0.36330000  1.0 0.045807714
C  C8  1  0.96630000  0.20310000  0.13670000  1.0 0.045807714
C  C9  1  0.63070000  0.07630000  0.61750000  1.0 0.0692034051
C  C10  1  0.07630000  0.63070000  0.88250000  1.0 0.0692034051
C  C11  1  0.36930000  0.92370000  0.38250000  1.0 0.0692034051
C  C12  1  0.92370000  0.36930000  0.11750000  1.0 0.0692034051
C  C13  1  0.91690000  0.22230000  0.55820000  1.0 0.0091535258
C  C14  1  0.22230000  0.91690000  0.94180000  1.0 0.0091535258
C  C15  1  0.08310000  0.77770000  0.44180000  1.0 0.0091535258
C  C16  1  0.77770000  0.08310000  0.05820000  1.0 0.0091535258
C  C17  1  0.75040000  0.26740000  0.54020000  1.0 -0.0060625126
C  C18  1  0.26740000  0.75040000  0.95980000  1.0 -0.0060625126
C  C19  1  0.24960000  0.73260000  0.45980000  1.0 -0.0060625126
C  C20  1  0.73260000  0.24960000  0.04020000  1.0 -0.0060625126
C  C21  1  0.82120000  0.21500000  0.68580000  1.0 0.045807714
C  C22  1  0.21500000  0.82120000  0.81420000  1.0 0.045807714
C  C23  1  0.17880000  0.78500000  0.31420000  1.0 0.045807714
C  C24  1  0.78500000  0.17880000  0.18580000  1.0 0.045807714
C  C25  1  0.50800000  0.84600000  0.22600000  1.0 -0.042287463
C  C26  1  0.84600000  0.50800000  0.27400000  1.0 -0.042287463
C  C27  1  0.49200000  0.15400000  0.77400000  1.0 -0.042287463
C  C28  1  0.15400000  0.49200000  0.72600000  1.0 -0.042287463
C  C29  1  0.49000000  0.88200000  0.15300000  1.0 -0.1900553718
C  C30  1  0.88200000  0.49000000  0.34700000  1.0 -0.1900553718
C  C31  1  0.51000000  0.11800000  0.84700000  1.0 -0.1900553718
C  C32  1  0.11800000  0.51000000  0.65300000  1.0 -0.1900553718
C  C33  1  0.43600000  0.95800000  0.15500000  1.0 -0.0909702141
C  C34  1  0.95800000  0.43600000  0.34500000  1.0 -0.0909702141
C  C35  1  0.56400000  0.04200000  0.84500000  1.0 -0.0909702141
C  C36  1  0.04200000  0.56400000  0.65500000  1.0 -0.0909702141
C  C37  1  0.45630000  0.13970000  0.18600000  1.0 -0.1073421106
C  C38  1  0.13970000  0.45630000  0.31400000  1.0 -0.1073421106
C  C39  1  0.54370000  0.86030000  0.81400000  1.0 -0.1073421106
C  C40  1  0.86030000  0.54370000  0.68600000  1.0 -0.1073421106
C  C41  1  0.52670000  0.24730000  0.20800000  1.0 -0.2189361021
C  C42  1  0.24730000  0.52670000  0.29200000  1.0 -0.2189361021
C  C43  1  0.47330000  0.75270000  0.79200000  1.0 -0.2189361021
C  C44  1  0.75270000  0.47330000  0.70800000  1.0 -0.2189361021
C  C45  1  0.54720000  0.25080000  0.29200000  1.0 -0.02358246
C  C46  1  0.25080000  0.54720000  0.20800000  1.0 -0.02358246
C  C47  1  0.45280000  0.74920000  0.70800000  1.0 -0.02358246
C  C48  1  0.74920000  0.45280000  0.79200000  1.0 -0.02358246
C  C49  1  0.00400000  0.90000000  0.60800000  1.0 0.0039568696
C  C50  1  0.90000000  0.00400000  0.89200000  1.0 0.0039568696
C  C51  1  0.99600000  0.10000000  0.39200000  1.0 0.0039568696
C  C52  1  0.10000000  0.99600000  0.10800000  1.0 0.0039568696
C  C53  1  0.08800000  0.99200000  0.62500000  1.0 -0.2322500661
C  C54  1  0.99200000  0.08800000  0.87500000  1.0 -0.2322500661
C  C55  1  0.91200000  0.00800000  0.37500000  1.0 -0.2322500661
C  C56  1  0.00800000  0.91200000  0.12500000  1.0 -0.2322500661
C  C57  1  0.09800000  0.06200000  0.68800000  1.0 -0.0661193762
C  C58  1  0.06200000  0.09800000  0.81200000  1.0 -0.0661193762
C  C59  1  0.90200000  0.93800000  0.31200000  1.0 -0.0661193762
C  C60  1  0.93800000  0.90200000  0.18800000  1.0 -0.0661193762
N  N1  1  0.68690000  0.05890000  0.41960000  1.0 -0.4142473504
N  N2  1  0.05890000  0.68690000  0.08040000  1.0 -0.4142473504
N  N3  1  0.31310000  0.94110000  0.58040000  1.0 -0.4142473504
N  N4  1  0.94110000  0.31310000  0.91960000  1.0 -0.4142473504
N  N5  1  0.81620000  0.96880000  0.67110000  1.0 -0.4361879082
N  N6  1  0.96880000  0.81620000  0.82890000  1.0 -0.4361879082
N  N7  1  0.18380000  0.03120000  0.32890000  1.0 -0.4361879082
N  N8  1  0.03120000  0.18380000  0.17110000  1.0 -0.4311532572
N  N9  1  0.54680000  0.03080000  0.63900000  1.0 -0.3913818911
N  N10  1  0.03080000  0.54680000  0.86100000  1.0 -0.3913818911
N  N11  1  0.45320000  0.96920000  0.36100000  1.0 -0.3913818911
N  N12  1  0.96920000  0.45320000  0.13900000  1.0 -0.3913818911
N  N13  1  0.00360000  0.26500000  0.54380000  1.0 -0.4361879082
N  N14  1  0.26500000  0.00360000  0.95620000  1.0 -0.4361879082
N  N15  1  0.99640000  0.73500000  0.45620000  1.0 -0.4361879082
N  N16  1  0.73500000  0.99640000  0.04380000  1.0 -0.4361879082
N  N17  1  0.73400000  0.33880000  0.51510000  1.0 -0.4361879082
N  N18  1  0.33880000  0.73400000  0.98490000  1.0 -0.4361879082
N  N19  1  0.26600000  0.66120000  0.48490000  1.0 -0.4361879082
N  N20  1  0.66120000  0.26600000  0.01510000  1.0 -0.4361879082
N  N21  1  0.85450000  0.26390000  0.74250000  1.0 -0.4311532572
N  N22  1  0.26390000  0.85450000  0.75750000  1.0 -0.4311532572
N  N23  1  0.14550000  0.73610000  0.25750000  1.0 -0.4311532572
N  N24  1  0.73610000  0.14550000  0.24250000  1.0 -0.4311532572
N  N25  1  0.59760000  0.91620000  0.28430000  1.0 -0.5010510698
N  N26  1  0.91620000  0.59760000  0.21570000  1.0 -0.5010510698
N  N27  1  0.40240000  0.08380000  0.71570000  1.0 -0.5010510698
N  N28  1  0.08380000  0.40240000  0.78430000  1.0 -0.5010510698
N  N29  1  0.50270000  0.05850000  0.18930000  1.0 -0.287061879
N  N30  1  0.05850000  0.50270000  0.31070000  1.0 -0.287061879
N  N31  1  0.49730000  0.94150000  0.81070000  1.0 -0.287061879
N  N32  1  0.94150000  0.49730000  0.68930000  1.0 -0.287061879
N  N33  1  0.60960000  0.19960000  0.33333333  1.0 -0.4908725336
N  N34  1  0.19960000  0.60960000  0.16667000  1.0 -0.4908725336
N  N35  1  0.39040000  0.80040000  0.66666667  1.0 -0.4908725336
N  N36  1  0.80040000  0.39040000  0.83333000  1.0 -0.4908725336
N  N37  1  0.92100000  0.84040000  0.65030000  1.0 -0.4481625274
N  N38  1  0.84040000  0.92100000  0.84970000  1.0 -0.4481625274
N  N39  1  0.07900000  0.15960000  0.34970000  1.0 -0.4481625274
N  N40  1  0.15960000  0.07900000  0.15030000  1.0 -0.4481625274
N  N41  1  0.03400000  0.03400000  0.75000000  1.0 -0.2189361021
N  N42  1  0.96600000  0.96600000  0.25000000  1.0 -0.2189361021
O  O1  1  0.74450000  0.74450000  0.75000000  1.0 -0.7308577612
O  O2  1  0.25550000  0.25550000  0.25000000  1.0 -0.7308577612
