# DDEC6 charges by PACMAN v1.1 (https://github.com/mtap-research/PACMAN-charge/)
data_IPEBAI_ASR_pacman
_symmetry_space_group_name_H-M   'P 1'
_cell_length_a   16.66660000
_cell_length_b   16.66660000
_cell_length_c   16.66660000
_cell_angle_alpha   133.13200000
_cell_angle_beta   133.13200000
_cell_angle_gamma   68.44660000
_symmetry_Int_Tables_number   1
_chemical_formula_structural   Cu2H64C77(IN2)2
_chemical_formula_sum   'Cu4 H128 C154 I4 N8'
_cell_volume   2421.71713537
_cell_formula_units_Z   2
loop_
 _symmetry_equiv_pos_site_id
 _symmetry_equiv_pos_as_xyz
  1  'x, y, z'
loop_
 _atom_site_type_symbol
 _atom_site_label
 _atom_site_symmetry_multiplicity
 _atom_site_fract_x
 _atom_site_fract_y
 _atom_site_fract_z
 _atom_site_occupancy
 _atom_site_charge
Cu  Cu1  1  0.93382000  0.43382000  0.36764000  1.0 0.0996453576
Cu  Cu2  1  0.56618000  0.93382000  0.50000000  1.0 0.0996453576
Cu  Cu3  1  0.06618000  0.56618000  0.63236000  1.0 0.0996453576
Cu  Cu4  1  0.43382000  0.06618000  0.50000000  1.0 0.0996453576
H  H1  1  0.62880000  0.25830000  0.55690000  1.0 0.057708747
H  H2  1  0.87120000  0.42810000  0.62950000  1.0 0.057708747
H  H3  1  0.70140000  0.07190000  0.44310000  1.0 0.057708747
H  H4  1  0.79860000  0.24170000  0.37050000  1.0 0.057708747
H  H5  1  0.42810000  0.79860000  0.55690000  1.0 0.057708747
H  H6  1  0.07190000  0.62880000  0.37050000  1.0 0.057708747
H  H7  1  0.25830000  0.70140000  0.62950000  1.0 0.057708747
H  H8  1  0.24170000  0.87120000  0.44310000  1.0 0.057708747
H  H9  1  0.37120000  0.74170000  0.44310000  1.0 0.057708747
H  H10  1  0.12880000  0.57190000  0.37050000  1.0 0.057708747
H  H11  1  0.29860000  0.92810000  0.55690000  1.0 0.057708747
H  H12  1  0.20140000  0.75830000  0.62950000  1.0 0.057708747
H  H13  1  0.57190000  0.20140000  0.44310000  1.0 0.057708747
H  H14  1  0.92810000  0.37120000  0.62950000  1.0 0.057708747
H  H15  1  0.74170000  0.29860000  0.37050000  1.0 0.057708747
H  H16  1  0.75830000  0.12880000  0.55690000  1.0 0.057708747
H  H17  1  0.67800000  0.31020000  0.75680000  1.0 0.0484501488
H  H18  1  0.82200000  0.57880000  0.63220000  1.0 0.0484501488
H  H19  1  0.55340000  0.92120000  0.24320000  1.0 0.0484501488
H  H20  1  0.94660000  0.18980000  0.36780000  1.0 0.0484501488
H  H21  1  0.57880000  0.94660000  0.75680000  1.0 0.0484501488
H  H22  1  0.92120000  0.67800000  0.36780000  1.0 0.0484501488
H  H23  1  0.31020000  0.55340000  0.63220000  1.0 0.0484501488
H  H24  1  0.18980000  0.82200000  0.24320000  1.0 0.0484501488
H  H25  1  0.32200000  0.68980000  0.24320000  1.0 0.0484501488
H  H26  1  0.17800000  0.42120000  0.36780000  1.0 0.0484501488
H  H27  1  0.44660000  0.07880000  0.75680000  1.0 0.0484501488
H  H28  1  0.05340000  0.81020000  0.63220000  1.0 0.0484501488
H  H29  1  0.42120000  0.05340000  0.24320000  1.0 0.0484501488
H  H30  1  0.07880000  0.32200000  0.63220000  1.0 0.0484501488
H  H31  1  0.68980000  0.44660000  0.36780000  1.0 0.0484501488
H  H32  1  0.81020000  0.17800000  0.75680000  1.0 0.0484501488
H  H33  1  0.00450000  0.38190000  0.96320000  1.0 0.0925904542
H  H34  1  0.49550000  0.45870000  0.37740000  1.0 0.0925904542
H  H35  1  0.41870000  0.04130000  0.03680000  1.0 0.0925904542
H  H36  1  0.08130000  0.11810000  0.62260000  1.0 0.0925904542
H  H37  1  0.45870000  0.08130000  0.96320000  1.0 0.0925904542
H  H38  1  0.04130000  0.00450000  0.62260000  1.0 0.0925904542
H  H39  1  0.38190000  0.41870000  0.37740000  1.0 0.0925904542
H  H40  1  0.11810000  0.49550000  0.03680000  1.0 0.0925904542
H  H41  1  0.99550000  0.61810000  0.03680000  1.0 0.0925904542
H  H42  1  0.50450000  0.54130000  0.62260000  1.0 0.0925904542
H  H43  1  0.58130000  0.95870000  0.96320000  1.0 0.0925904542
H  H44  1  0.91870000  0.88190000  0.37740000  1.0 0.0925904542
H  H45  1  0.54130000  0.91870000  0.03680000  1.0 0.0925904542
H  H46  1  0.95870000  0.99550000  0.37740000  1.0 0.0925904542
H  H47  1  0.61810000  0.58130000  0.62260000  1.0 0.0925904542
H  H48  1  0.88190000  0.50450000  0.96320000  1.0 0.0925904542
H  H49  1  0.95470000  0.32340000  0.75810000  1.0 0.0761035785
H  H50  1  0.54530000  0.30340000  0.36870000  1.0 0.0761035785
H  H51  1  0.56530000  0.19660000  0.24190000  1.0 0.0761035785
H  H52  1  0.93470000  0.17660000  0.63130000  1.0 0.0761035785
H  H53  1  0.30340000  0.93470000  0.75810000  1.0 0.0761035785
H  H54  1  0.19660000  0.95470000  0.63130000  1.0 0.0761035785
H  H55  1  0.32340000  0.56530000  0.36870000  1.0 0.0761035785
H  H56  1  0.17660000  0.54530000  0.24190000  1.0 0.0761035785
H  H57  1  0.04530000  0.67660000  0.24190000  1.0 0.0761035785
H  H58  1  0.45470000  0.69660000  0.63130000  1.0 0.0761035785
H  H59  1  0.43470000  0.80340000  0.75810000  1.0 0.0761035785
H  H60  1  0.06530000  0.82340000  0.36870000  1.0 0.0761035785
H  H61  1  0.69660000  0.06530000  0.24190000  1.0 0.0761035785
H  H62  1  0.80340000  0.04530000  0.36870000  1.0 0.0761035785
H  H63  1  0.67660000  0.43470000  0.63130000  1.0 0.0761035785
H  H64  1  0.82340000  0.45470000  0.75810000  1.0 0.0761035785
H  H65  1  0.88380000  0.56780000  0.27620000  1.0 0.057708747
H  H66  1  0.61620000  0.89240000  0.68400000  1.0 0.057708747
H  H67  1  0.29160000  0.60760000  0.72380000  1.0 0.057708747
H  H68  1  0.20840000  0.93220000  0.31600000  1.0 0.057708747
H  H69  1  0.89240000  0.20840000  0.27620000  1.0 0.057708747
H  H70  1  0.60760000  0.88380000  0.31600000  1.0 0.057708747
H  H71  1  0.56780000  0.29160000  0.68400000  1.0 0.057708747
H  H72  1  0.93220000  0.61620000  0.72380000  1.0 0.057708747
H  H73  1  0.11620000  0.43220000  0.72380000  1.0 0.057708747
H  H74  1  0.38380000  0.10760000  0.31600000  1.0 0.057708747
H  H75  1  0.70840000  0.39240000  0.27620000  1.0 0.057708747
H  H76  1  0.79160000  0.06780000  0.68400000  1.0 0.057708747
H  H77  1  0.10760000  0.79160000  0.72380000  1.0 0.057708747
H  H78  1  0.39240000  0.11620000  0.68400000  1.0 0.057708747
H  H79  1  0.43220000  0.70840000  0.31600000  1.0 0.057708747
H  H80  1  0.06780000  0.38380000  0.27620000  1.0 0.057708747
H  H81  1  0.97370000  0.27680000  0.16470000  1.0 0.0761035785
H  H82  1  0.52630000  0.69100000  0.30310000  1.0 0.0761035785
H  H83  1  0.11210000  0.80900000  0.83530000  1.0 0.0761035785
H  H84  1  0.38790000  0.22320000  0.69690000  1.0 0.0761035785
H  H85  1  0.69100000  0.38790000  0.16470000  1.0 0.0761035785
H  H86  1  0.80900000  0.97370000  0.69690000  1.0 0.0761035785
H  H87  1  0.27680000  0.11210000  0.30310000  1.0 0.0761035785
H  H88  1  0.22320000  0.52630000  0.83530000  1.0 0.0761035785
H  H89  1  0.02630000  0.72320000  0.83530000  1.0 0.0761035785
H  H90  1  0.47370000  0.30900000  0.69690000  1.0 0.0761035785
H  H91  1  0.88790000  0.19100000  0.16470000  1.0 0.0761035785
H  H92  1  0.61210000  0.77680000  0.30310000  1.0 0.0761035785
H  H93  1  0.30900000  0.61210000  0.83530000  1.0 0.0761035785
H  H94  1  0.19100000  0.02630000  0.30310000  1.0 0.0761035785
H  H95  1  0.72320000  0.88790000  0.69690000  1.0 0.0761035785
H  H96  1  0.77680000  0.47370000  0.16470000  1.0 0.0761035785
H  H97  1  0.84200000  0.53250000  0.08910000  1.0 0.0996453576
H  H98  1  0.65800000  0.74710000  0.69050000  1.0 0.0996453576
H  H99  1  0.44340000  0.75290000  0.91090000  1.0 0.0996453576
H  H100  1  0.05660000  0.96750000  0.30950000  1.0 0.0996453576
H  H101  1  0.74710000  0.05660000  0.08910000  1.0 0.0996453576
H  H102  1  0.75290000  0.84200000  0.30950000  1.0 0.0996453576
H  H103  1  0.53250000  0.44340000  0.69050000  1.0 0.0996453576
H  H104  1  0.96750000  0.65800000  0.91090000  1.0 0.0996453576
H  H105  1  0.15800000  0.46750000  0.91090000  1.0 0.0996453576
H  H106  1  0.34200000  0.25290000  0.30950000  1.0 0.0996453576
H  H107  1  0.55660000  0.24710000  0.08910000  1.0 0.0996453576
H  H108  1  0.94340000  0.03250000  0.69050000  1.0 0.0996453576
H  H109  1  0.25290000  0.94340000  0.91090000  1.0 0.0996453576
H  H110  1  0.24710000  0.15800000  0.69050000  1.0 0.0996453576
H  H111  1  0.46750000  0.55660000  0.30950000  1.0 0.0996453576
H  H112  1  0.03250000  0.34200000  0.08910000  1.0 0.0996453576
H  H113  1  0.93910000  0.23440000  0.97670000  1.0 0.0925904542
H  H114  1  0.56090000  0.53760000  0.29530000  1.0 0.0925904542
H  H115  1  0.25770000  0.96240000  0.02330000  1.0 0.0925904542
H  H116  1  0.24230000  0.26560000  0.70470000  1.0 0.0925904542
H  H117  1  0.53760000  0.24230000  0.97670000  1.0 0.0925904542
H  H118  1  0.96240000  0.93910000  0.70470000  1.0 0.0925904542
H  H119  1  0.23440000  0.25770000  0.29530000  1.0 0.0925904542
H  H120  1  0.26560000  0.56090000  0.02330000  1.0 0.0925904542
H  H121  1  0.06090000  0.76560000  0.02330000  1.0 0.0925904542
H  H122  1  0.43910000  0.46240000  0.70470000  1.0 0.0925904542
H  H123  1  0.74230000  0.03760000  0.97670000  1.0 0.0925904542
H  H124  1  0.75770000  0.73440000  0.29530000  1.0 0.0925904542
H  H125  1  0.46240000  0.75770000  0.02330000  1.0 0.0925904542
H  H126  1  0.03760000  0.06090000  0.29530000  1.0 0.0925904542
H  H127  1  0.76560000  0.74230000  0.70470000  1.0 0.0925904542
H  H128  1  0.73440000  0.43910000  0.97670000  1.0 0.0925904542
C  C1  1  0.75000000  0.25000000  0.50000000  1.0 -0.0298062738
C  C2  1  0.25000000  0.75000000  0.50000000  1.0 -0.0298062738
C  C3  1  0.78539000  0.28539000  0.63556000  1.0 0.0484501488
C  C4  1  0.71461000  0.35017000  0.50000000  1.0 0.0484501488
C  C5  1  0.64983000  0.14983000  0.36444000  1.0 0.0484501488
C  C6  1  0.85017000  0.21461000  0.50000000  1.0 0.0484501488
C  C7  1  0.35017000  0.85017000  0.63556000  1.0 0.0484501488
C  C8  1  0.14983000  0.78539000  0.50000000  1.0 0.0484501488
C  C9  1  0.28539000  0.64983000  0.50000000  1.0 0.0484501488
C  C10  1  0.21461000  0.71461000  0.36444000  1.0 0.0484501488
C  C11  1  0.87928000  0.37928000  0.00740000  1.0 0.032837189
C  C12  1  0.62072000  0.62812000  0.50000000  1.0 0.032837189
C  C13  1  0.37188000  0.87188000  0.99260000  1.0 0.032837189
C  C14  1  0.12812000  0.12072000  0.50000000  1.0 0.032837189
C  C15  1  0.62812000  0.12812000  0.00740000  1.0 0.032837189
C  C16  1  0.87188000  0.87928000  0.50000000  1.0 0.032837189
C  C17  1  0.37928000  0.37188000  0.50000000  1.0 0.032837189
C  C18  1  0.12072000  0.62072000  0.99260000  1.0 0.032837189
C  C19  1  0.84893000  0.34893000  0.88158000  1.0 0.0416670409
C  C20  1  0.65107000  0.53265000  0.50000000  1.0 0.0416670409
C  C21  1  0.46735000  0.96735000  0.11842000  1.0 0.0416670409
C  C22  1  0.03265000  0.15107000  0.50000000  1.0 0.0416670409
C  C23  1  0.53265000  0.03265000  0.88158000  1.0 0.0416670409
C  C24  1  0.96735000  0.84893000  0.50000000  1.0 0.0416670409
C  C25  1  0.34893000  0.46735000  0.50000000  1.0 0.0416670409
C  C26  1  0.15107000  0.65107000  0.11842000  1.0 0.0416670409
C  C27  1  0.92803000  0.35473000  0.87990000  1.0 -0.0744985275
C  C28  1  0.57197000  0.45187000  0.42670000  1.0 -0.0744985275
C  C29  1  0.47483000  0.04813000  0.12010000  1.0 -0.0744985275
C  C30  1  0.02517000  0.14527000  0.57330000  1.0 -0.0744985275
C  C31  1  0.45187000  0.02517000  0.87990000  1.0 -0.0744985275
C  C32  1  0.04813000  0.92803000  0.57330000  1.0 -0.0744985275
C  C33  1  0.35473000  0.47483000  0.42670000  1.0 -0.0744985275
C  C34  1  0.14527000  0.57197000  0.12010000  1.0 -0.0744985275
C  C35  1  0.07197000  0.64527000  0.12010000  1.0 -0.0744985275
C  C36  1  0.42803000  0.54813000  0.57330000  1.0 -0.0744985275
C  C37  1  0.52517000  0.95187000  0.87990000  1.0 -0.0744985275
C  C38  1  0.97483000  0.85473000  0.42670000  1.0 -0.0744985275
C  C39  1  0.54813000  0.97483000  0.12010000  1.0 -0.0744985275
C  C40  1  0.95187000  0.07197000  0.42670000  1.0 -0.0744985275
C  C41  1  0.64527000  0.52517000  0.57330000  1.0 -0.0744985275
C  C42  1  0.85473000  0.42803000  0.87990000  1.0 -0.0744985275
C  C43  1  0.89822000  0.32142000  0.75780000  1.0 -0.0843182512
C  C44  1  0.60178000  0.35958000  0.42320000  1.0 -0.0843182512
C  C45  1  0.56362000  0.14042000  0.24220000  1.0 -0.0843182512
C  C46  1  0.93638000  0.17858000  0.57680000  1.0 -0.0843182512
C  C47  1  0.35958000  0.93638000  0.75780000  1.0 -0.0843182512
C  C48  1  0.14042000  0.89822000  0.57680000  1.0 -0.0843182512
C  C49  1  0.32142000  0.56362000  0.42320000  1.0 -0.0843182512
C  C50  1  0.17858000  0.60178000  0.24220000  1.0 -0.0843182512
C  C51  1  0.10178000  0.67858000  0.24220000  1.0 -0.0843182512
C  C52  1  0.39822000  0.64042000  0.57680000  1.0 -0.0843182512
C  C53  1  0.43638000  0.85958000  0.75780000  1.0 -0.0843182512
C  C54  1  0.06362000  0.82142000  0.42320000  1.0 -0.0843182512
C  C55  1  0.64042000  0.06362000  0.24220000  1.0 -0.0843182512
C  C56  1  0.85958000  0.10178000  0.42320000  1.0 -0.0843182512
C  C57  1  0.67858000  0.43638000  0.57680000  1.0 -0.0843182512
C  C58  1  0.82142000  0.39822000  0.75780000  1.0 -0.0843182512
C  C59  1  0.73464000  0.31304000  0.75780000  1.0 -0.1206872946
C  C60  1  0.76536000  0.52316000  0.57840000  1.0 -0.1206872946
C  C61  1  0.55524000  0.97684000  0.24220000  1.0 -0.1206872946
C  C62  1  0.94476000  0.18696000  0.42160000  1.0 -0.1206872946
C  C63  1  0.52316000  0.94476000  0.75780000  1.0 -0.1206872946
C  C64  1  0.97684000  0.73464000  0.42160000  1.0 -0.1206872946
C  C65  1  0.31304000  0.55524000  0.57840000  1.0 -0.1206872946
C  C66  1  0.18696000  0.76536000  0.24220000  1.0 -0.1206872946
C  C67  1  0.26536000  0.68696000  0.24220000  1.0 -0.1206872946
C  C68  1  0.23464000  0.47684000  0.42160000  1.0 -0.1206872946
C  C69  1  0.44476000  0.02316000  0.75780000  1.0 -0.1206872946
C  C70  1  0.05524000  0.81304000  0.57840000  1.0 -0.1206872946
C  C71  1  0.47684000  0.05524000  0.24220000  1.0 -0.1206872946
C  C72  1  0.02316000  0.26536000  0.57840000  1.0 -0.1206872946
C  C73  1  0.68696000  0.44476000  0.42160000  1.0 -0.1206872946
C  C74  1  0.81304000  0.23464000  0.75780000  1.0 -0.1206872946
C  C75  1  0.70563000  0.28233000  0.63890000  1.0 -0.1051582404
C  C76  1  0.79437000  0.43327000  0.57670000  1.0 -0.1051582404
C  C77  1  0.64343000  0.06673000  0.36110000  1.0 -0.1051582404
C  C78  1  0.85657000  0.21767000  0.42330000  1.0 -0.1051582404
C  C79  1  0.43327000  0.85657000  0.63890000  1.0 -0.1051582404
C  C80  1  0.06673000  0.70563000  0.42330000  1.0 -0.1048180915
C  C81  1  0.28233000  0.64343000  0.57670000  1.0 -0.1051582404
C  C82  1  0.21767000  0.79437000  0.36110000  1.0 -0.1051582404
C  C83  1  0.29437000  0.71767000  0.36110000  1.0 -0.1051582404
C  C84  1  0.20563000  0.56673000  0.42330000  1.0 -0.1051582404
C  C85  1  0.35657000  0.93327000  0.63890000  1.0 -0.1051582404
C  C86  1  0.14343000  0.78233000  0.57670000  1.0 -0.1051582404
C  C87  1  0.56673000  0.14343000  0.36110000  1.0 -0.1051582404
C  C88  1  0.93327000  0.29437000  0.57670000  1.0 -0.1051582404
C  C89  1  0.71767000  0.35657000  0.42330000  1.0 -0.1051582404
C  C90  1  0.78233000  0.20563000  0.63890000  1.0 -0.1051582404
C  C91  1  0.92394000  0.30214000  0.03440000  1.0 -0.0629703882
C  C92  1  0.57606000  0.61046000  0.37820000  1.0 -0.0629703882
C  C93  1  0.26774000  0.88954000  0.96560000  1.0 -0.0629703882
C  C94  1  0.23226000  0.19786000  0.62180000  1.0 -0.0629703882
C  C95  1  0.61046000  0.23226000  0.03440000  1.0 -0.0629703882
C  C96  1  0.88954000  0.92394000  0.62180000  1.0 -0.0629703882
C  C97  1  0.30214000  0.26774000  0.37820000  1.0 -0.0629703882
C  C98  1  0.19786000  0.57606000  0.96560000  1.0 -0.0629703882
C  C99  1  0.07606000  0.69786000  0.96560000  1.0 -0.0629703882
C  C100  1  0.42394000  0.38954000  0.62180000  1.0 -0.0629703882
C  C101  1  0.73226000  0.11046000  0.03440000  1.0 -0.0629703882
C  C102  1  0.76774000  0.80214000  0.37820000  1.0 -0.0629703882
C  C103  1  0.38954000  0.76774000  0.96560000  1.0 -0.0629703882
C  C104  1  0.11046000  0.07606000  0.37820000  1.0 -0.0629703882
C  C105  1  0.69786000  0.73226000  0.62180000  1.0 -0.0629703882
C  C106  1  0.80214000  0.42394000  0.03440000  1.0 -0.0629703882
C  C107  1  0.86726000  0.47706000  0.10000000  1.0 -0.0629703882
C  C108  1  0.63274000  0.73274000  0.60980000  1.0 -0.0629703882
C  C109  1  0.37706000  0.76726000  0.90000000  1.0 -0.0629703882
C  C110  1  0.12294000  0.02294000  0.39020000  1.0 -0.0629703882
C  C111  1  0.73274000  0.12294000  0.10000000  1.0 -0.0629703882
C  C112  1  0.76726000  0.86726000  0.39020000  1.0 -0.0629703882
C  C113  1  0.47706000  0.37706000  0.60980000  1.0 -0.0629703882
C  C114  1  0.02294000  0.63274000  0.90000000  1.0 -0.0629703882
C  C115  1  0.13274000  0.52294000  0.90000000  1.0 -0.0629703882
C  C116  1  0.36726000  0.26726000  0.39020000  1.0 -0.0629703882
C  C117  1  0.62294000  0.23274000  0.10000000  1.0 -0.0629703882
C  C118  1  0.87706000  0.97706000  0.60980000  1.0 -0.0629703882
C  C119  1  0.26726000  0.87706000  0.90000000  1.0 -0.0629703882
C  C120  1  0.23274000  0.13274000  0.60980000  1.0 -0.0629703882
C  C121  1  0.52294000  0.62294000  0.39020000  1.0 -0.0629703882
C  C122  1  0.97706000  0.36726000  0.10000000  1.0 -0.0629703882
C  C123  1  0.89195000  0.49745000  0.21210000  1.0 0.0416670409
C  C124  1  0.60805000  0.82015000  0.60550000  1.0 0.0416670409
C  C125  1  0.28535000  0.67985000  0.78790000  1.0 0.0416670409
C  C126  1  0.21465000  0.00255000  0.39450000  1.0 0.0416670409
C  C127  1  0.82015000  0.21465000  0.21210000  1.0 0.0416670409
C  C128  1  0.67985000  0.89195000  0.39450000  1.0 0.0416670409
C  C129  1  0.49745000  0.28535000  0.60550000  1.0 0.0416670409
C  C130  1  0.00255000  0.60805000  0.78790000  1.0 0.0416670409
C  C131  1  0.10805000  0.50255000  0.78790000  1.0 0.0416670409
C  C132  1  0.39195000  0.17985000  0.39450000  1.0 0.0416670409
C  C133  1  0.71465000  0.32015000  0.21210000  1.0 0.0416670409
C  C134  1  0.78535000  0.99745000  0.60550000  1.0 0.0416670409
C  C135  1  0.17985000  0.78535000  0.78790000  1.0 0.0416670409
C  C136  1  0.32015000  0.10805000  0.60550000  1.0 0.0416670409
C  C137  1  0.50255000  0.71465000  0.39450000  1.0 0.0416670409
C  C138  1  0.99745000  0.39195000  0.21210000  1.0 0.0416670409
C  C139  1  0.94489000  0.32829000  0.14720000  1.0 -0.0014298021
C  C140  1  0.55511000  0.70231000  0.38340000  1.0 -0.0014298021
C  C141  1  0.18109000  0.79769000  0.85280000  1.0 -0.0014298021
C  C142  1  0.31891000  0.17171000  0.61660000  1.0 -0.0014298021
C  C143  1  0.70231000  0.31891000  0.14720000  1.0 -0.0014298021
C  C144  1  0.79769000  0.94489000  0.61660000  1.0 -0.0014298021
C  C145  1  0.32829000  0.18109000  0.38340000  1.0 -0.0014298021
C  C146  1  0.17171000  0.55511000  0.85280000  1.0 -0.0014298021
C  C147  1  0.05511000  0.67171000  0.85280000  1.0 -0.0014298021
C  C148  1  0.44489000  0.29769000  0.61660000  1.0 -0.0014298021
C  C149  1  0.81891000  0.20231000  0.14720000  1.0 -0.0014298021
C  C150  1  0.68109000  0.82829000  0.38340000  1.0 -0.0014298021
C  C151  1  0.29769000  0.68109000  0.85280000  1.0 -0.0014298021
C  C152  1  0.20231000  0.05511000  0.38340000  1.0 -0.0014298021
C  C153  1  0.67171000  0.81891000  0.61660000  1.0 -0.0014298021
C  C154  1  0.82829000  0.44489000  0.14720000  1.0 -0.0014298021
I  I1  1  0.12419000  0.37581000  0.50000000  1.0 -0.5021379747
I  I2  1  0.37581000  0.87581000  0.25162000  1.0 -0.5021379747
I  I3  1  0.87581000  0.62419000  0.50000000  1.0 -0.5021379747
I  I4  1  0.62419000  0.12419000  0.74838000  1.0 -0.5021379747
N  N1  1  0.92546000  0.42546000  0.23348000  1.0 -0.1753694497
N  N2  1  0.57454000  0.80802000  0.50000000  1.0 -0.1753694497
N  N3  1  0.19198000  0.69198000  0.76652000  1.0 -0.1753694497
N  N4  1  0.30802000  0.07454000  0.50000000  1.0 -0.1753694497
N  N5  1  0.80802000  0.30802000  0.23348000  1.0 -0.1753694497
N  N6  1  0.69198000  0.92546000  0.50000000  1.0 -0.1753694497
N  N7  1  0.42546000  0.19198000  0.50000000  1.0 -0.1753694497
N  N8  1  0.07454000  0.57454000  0.76652000  1.0 -0.1753694497
