# DDEC6 charges by PACMAN v1.1 (https://github.com/mtap-research/PACMAN-charge/)
data_IPEXEJ_ASR_pacman
_symmetry_space_group_name_H-M   'P 1'
_cell_length_a   16.67200000
_cell_length_b   16.67200000
_cell_length_c   16.67200000
_cell_angle_alpha   114.68600000
_cell_angle_beta   114.68600000
_cell_angle_gamma   114.68600000
_symmetry_Int_Tables_number   1
_chemical_formula_structural   Na2H13C19NO4
_chemical_formula_sum   'Na12 H78 C114 N6 O24'
_cell_volume   2666.18581622
_cell_formula_units_Z   6
loop_
 _symmetry_equiv_pos_site_id
 _symmetry_equiv_pos_as_xyz
  1  'x, y, z'
loop_
 _atom_site_type_symbol
 _atom_site_label
 _atom_site_symmetry_multiplicity
 _atom_site_fract_x
 _atom_site_fract_y
 _atom_site_fract_z
 _atom_site_occupancy
 _atom_site_charge
Na  Na1  1  0.22297000  0.07626000  0.56209000  1.0 0.8511743551
Na  Na2  1  0.01227000  0.71339000  0.34711000  1.0 0.8511743551
Na  Na3  1  0.07626000  0.56209000  0.22297000  1.0 0.8511743551
Na  Na4  1  0.71339000  0.34711000  0.01227000  1.0 0.8511743551
Na  Na5  1  0.56209000  0.22297000  0.07626000  1.0 0.8511743551
Na  Na6  1  0.34711000  0.01227000  0.71339000  1.0 0.8511743551
Na  Na7  1  0.77703000  0.92374000  0.43791000  1.0 0.8511743551
Na  Na8  1  0.98773000  0.28661000  0.65289000  1.0 0.8511743551
Na  Na9  1  0.92374000  0.43791000  0.77703000  1.0 0.8511743551
Na  Na10  1  0.28661000  0.65289000  0.98773000  1.0 0.8511743551
Na  Na11  1  0.43791000  0.77703000  0.92374000  1.0 0.8511743551
Na  Na12  1  0.65289000  0.98773000  0.28661000  1.0 0.8511743551
H  H1  1  0.47750000  0.12810000  0.62940000  1.0 0.0788030984
H  H2  1  0.26170000  0.79690000  0.27580000  1.0 0.0916772937
H  H3  1  0.59010000  0.12700000  0.45730000  1.0 0.0788030984
H  H4  1  0.38980000  0.06410000  0.32960000  1.0 0.101960166
H  H5  1  0.64830000  0.32620000  0.77920000  1.0 0.1335236138
H  H6  1  0.62600000  0.28250000  0.51310000  1.0 0.1184788561
H  H7  1  0.27860000  0.10370000  0.24940000  1.0 0.1090686265
H  H8  1  0.07190000  0.98070000  0.15040000  1.0 0.101960166
H  H9  1  0.08870000  0.78170000  0.21830000  1.0 0.1184788561
H  H10  1  0.77190000  0.53890000  0.90070000  1.0 0.1184788561
H  H11  1  0.76010000  0.49740000  0.64290000  1.0 0.1184788561
H  H12  1  0.82750000  0.62490000  0.83380000  1.0 0.1090686265
H  H13  1  0.97710000  0.81860000  0.13400000  1.0 0.1090686265
H  H14  1  0.12810000  0.62940000  0.47750000  1.0 0.0788030984
H  H15  1  0.79690000  0.27580000  0.26170000  1.0 0.0916772937
H  H16  1  0.12700000  0.45730000  0.59010000  1.0 0.0788030984
H  H17  1  0.06410000  0.32960000  0.38980000  1.0 0.101960166
H  H18  1  0.32620000  0.77920000  0.64830000  1.0 0.1335236138
H  H19  1  0.28250000  0.51310000  0.62600000  1.0 0.1184788561
H  H20  1  0.10370000  0.24940000  0.27860000  1.0 0.1090686265
H  H21  1  0.98070000  0.15040000  0.07190000  1.0 0.101960166
H  H22  1  0.78170000  0.21830000  0.08870000  1.0 0.1184788561
H  H23  1  0.53890000  0.90070000  0.77190000  1.0 0.1184788561
H  H24  1  0.49740000  0.64290000  0.76010000  1.0 0.1184788561
H  H25  1  0.62490000  0.83380000  0.82750000  1.0 0.1090686265
H  H26  1  0.81860000  0.13400000  0.97710000  1.0 0.1090686265
H  H27  1  0.62940000  0.47750000  0.12810000  1.0 0.0788030984
H  H28  1  0.27580000  0.26170000  0.79690000  1.0 0.0916772937
H  H29  1  0.45730000  0.59010000  0.12700000  1.0 0.0788030984
H  H30  1  0.32960000  0.38980000  0.06410000  1.0 0.101960166
H  H31  1  0.77920000  0.64830000  0.32620000  1.0 0.1335236138
H  H32  1  0.51310000  0.62600000  0.28250000  1.0 0.1184788561
H  H33  1  0.24940000  0.27860000  0.10370000  1.0 0.1090686265
H  H34  1  0.15040000  0.07190000  0.98070000  1.0 0.101960166
H  H35  1  0.21830000  0.08870000  0.78170000  1.0 0.1184788561
H  H36  1  0.90070000  0.77190000  0.53890000  1.0 0.1184788561
H  H37  1  0.64290000  0.76010000  0.49740000  1.0 0.1184788561
H  H38  1  0.83380000  0.82750000  0.62490000  1.0 0.1090686265
H  H39  1  0.13400000  0.97710000  0.81860000  1.0 0.1090686265
H  H40  1  0.52250000  0.87190000  0.37060000  1.0 0.0788030984
H  H41  1  0.73830000  0.20310000  0.72420000  1.0 0.0916772937
H  H42  1  0.40990000  0.87300000  0.54270000  1.0 0.0788030984
H  H43  1  0.61020000  0.93590000  0.67040000  1.0 0.101960166
H  H44  1  0.35170000  0.67380000  0.22080000  1.0 0.1335236138
H  H45  1  0.37400000  0.71750000  0.48690000  1.0 0.1184788561
H  H46  1  0.72140000  0.89630000  0.75060000  1.0 0.1090686265
H  H47  1  0.92810000  0.01930000  0.84960000  1.0 0.101960166
H  H48  1  0.91130000  0.21830000  0.78170000  1.0 0.1184788561
H  H49  1  0.22810000  0.46110000  0.09930000  1.0 0.1184788561
H  H50  1  0.23990000  0.50260000  0.35710000  1.0 0.1184788561
H  H51  1  0.17250000  0.37510000  0.16620000  1.0 0.1090686265
H  H52  1  0.02290000  0.18140000  0.86600000  1.0 0.1090686265
H  H53  1  0.87190000  0.37060000  0.52250000  1.0 0.0788030984
H  H54  1  0.20310000  0.72420000  0.73830000  1.0 0.0916772937
H  H55  1  0.87300000  0.54270000  0.40990000  1.0 0.0788030984
H  H56  1  0.93590000  0.67040000  0.61020000  1.0 0.101960166
H  H57  1  0.67380000  0.22080000  0.35170000  1.0 0.1335236138
H  H58  1  0.71750000  0.48690000  0.37400000  1.0 0.1184788561
H  H59  1  0.89630000  0.75060000  0.72140000  1.0 0.1090686265
H  H60  1  0.01930000  0.84960000  0.92810000  1.0 0.101960166
H  H61  1  0.21830000  0.78170000  0.91130000  1.0 0.1184788561
H  H62  1  0.46110000  0.09930000  0.22810000  1.0 0.1184788561
H  H63  1  0.50260000  0.35710000  0.23990000  1.0 0.1184788561
H  H64  1  0.37510000  0.16620000  0.17250000  1.0 0.1090686265
H  H65  1  0.18140000  0.86600000  0.02290000  1.0 0.1090686265
H  H66  1  0.37060000  0.52250000  0.87190000  1.0 0.0788030984
H  H67  1  0.72420000  0.73830000  0.20310000  1.0 0.0916772937
H  H68  1  0.54270000  0.40990000  0.87300000  1.0 0.0788030984
H  H69  1  0.67040000  0.61020000  0.93590000  1.0 0.101960166
H  H70  1  0.22080000  0.35170000  0.67380000  1.0 0.1335236138
H  H71  1  0.48690000  0.37400000  0.71750000  1.0 0.1184788561
H  H72  1  0.75060000  0.72140000  0.89630000  1.0 0.1090686265
H  H73  1  0.84960000  0.92810000  0.01930000  1.0 0.101960166
H  H74  1  0.78170000  0.91130000  0.21830000  1.0 0.1184788561
H  H75  1  0.09930000  0.22810000  0.46110000  1.0 0.1184788561
H  H76  1  0.35710000  0.23990000  0.50260000  1.0 0.1184788561
H  H77  1  0.16620000  0.17250000  0.37510000  1.0 0.1090686265
H  H78  1  0.86600000  0.02290000  0.18140000  1.0 0.1090686265
C  C1  1  0.25857000  0.88262000  0.44938000  1.0 0.6115684515
C  C2  1  0.40462000  0.88928000  0.23610000  1.0 0.5744759446
C  C3  1  0.48943000  0.08615000  0.58088000  1.0 -0.0022738298
C  C4  1  0.62111000  0.27842000  0.63067000  1.0 0.1918849355
C  C5  1  0.43587000  0.93944000  0.35656000  1.0 -0.0712294759
C  C6  1  0.32212000  0.88925000  0.33696000  1.0 -0.0910490452
C  C7  1  0.36900000  0.94048000  0.46427000  1.0 -0.0712294759
C  C8  1  0.55502000  0.08408000  0.47677000  1.0 -0.0067689119
C  C9  1  0.25200000  0.91818000  0.28332000  1.0 0.1184788561
C  C10  1  0.30699000  0.01463000  0.29118000  1.0 -0.1388977137
C  C11  1  0.66777000  0.35853000  0.74900000  1.0 -0.189295038
C  C12  1  0.65631000  0.33359000  0.59220000  1.0 -0.2276558796
C  C13  1  0.23981000  0.03803000  0.24226000  1.0 -0.1094432083
C  C14  1  0.11673000  0.96518000  0.18349000  1.0 -0.1204488235
C  C15  1  0.12761000  0.84632000  0.22427000  1.0 -0.1474903518
C  C16  1  0.74351000  0.48711000  0.82278000  1.0 -0.0910490452
C  C17  1  0.73540000  0.46267000  0.66933000  1.0 -0.1204488235
C  C18  1  0.77700000  0.53887000  0.78343000  1.0 -0.1388977137
C  C19  1  0.06062000  0.86888000  0.17420000  1.0 -0.0910490452
C  C20  1  0.88262000  0.44938000  0.25857000  1.0 0.6115684515
C  C21  1  0.88928000  0.23610000  0.40462000  1.0 0.5744759446
C  C22  1  0.08615000  0.58088000  0.48943000  1.0 -0.0022738298
C  C23  1  0.27842000  0.63067000  0.62111000  1.0 0.1918849355
C  C24  1  0.93944000  0.35656000  0.43587000  1.0 -0.0712294759
C  C25  1  0.88925000  0.33696000  0.32212000  1.0 -0.0910490452
C  C26  1  0.94048000  0.46427000  0.36900000  1.0 -0.0712294759
C  C27  1  0.08408000  0.47677000  0.55502000  1.0 -0.0067689119
C  C28  1  0.91818000  0.28332000  0.25200000  1.0 0.1184788561
C  C29  1  0.01463000  0.29118000  0.30699000  1.0 -0.1388977137
C  C30  1  0.35853000  0.74900000  0.66777000  1.0 -0.189295038
C  C31  1  0.33359000  0.59220000  0.65631000  1.0 -0.2276558796
C  C32  1  0.03803000  0.24226000  0.23981000  1.0 -0.1094432083
C  C33  1  0.96518000  0.18349000  0.11673000  1.0 -0.1204488235
C  C34  1  0.84632000  0.22427000  0.12761000  1.0 -0.1474903518
C  C35  1  0.48711000  0.82278000  0.74351000  1.0 -0.0910490452
C  C36  1  0.46267000  0.66933000  0.73540000  1.0 -0.1204488235
C  C37  1  0.53887000  0.78343000  0.77700000  1.0 -0.1388977137
C  C38  1  0.86888000  0.17420000  0.06062000  1.0 -0.0910490452
C  C39  1  0.44938000  0.25857000  0.88262000  1.0 0.6115684515
C  C40  1  0.23610000  0.40462000  0.88928000  1.0 0.5744759446
C  C41  1  0.58088000  0.48943000  0.08615000  1.0 -0.0022738298
C  C42  1  0.63067000  0.62111000  0.27842000  1.0 0.1918849355
C  C43  1  0.35656000  0.43587000  0.93944000  1.0 -0.0712294759
C  C44  1  0.33696000  0.32212000  0.88925000  1.0 -0.0910490452
C  C45  1  0.46427000  0.36900000  0.94048000  1.0 -0.0712294759
C  C46  1  0.47677000  0.55502000  0.08408000  1.0 -0.0067689119
C  C47  1  0.28332000  0.25200000  0.91818000  1.0 0.1184788561
C  C48  1  0.29118000  0.30699000  0.01463000  1.0 -0.1388977137
C  C49  1  0.74900000  0.66777000  0.35853000  1.0 -0.189295038
C  C50  1  0.59220000  0.65631000  0.33359000  1.0 -0.2276558796
C  C51  1  0.24226000  0.23981000  0.03803000  1.0 -0.1094432083
C  C52  1  0.18349000  0.11673000  0.96518000  1.0 -0.1204488235
C  C53  1  0.22427000  0.12761000  0.84632000  1.0 -0.1474903518
C  C54  1  0.82278000  0.74351000  0.48711000  1.0 -0.0910490452
C  C55  1  0.66933000  0.73540000  0.46267000  1.0 -0.1204488235
C  C56  1  0.78343000  0.77700000  0.53887000  1.0 -0.1388977137
C  C57  1  0.17420000  0.06062000  0.86888000  1.0 -0.0910490452
C  C58  1  0.74143000  0.11738000  0.55062000  1.0 0.6115684515
C  C59  1  0.59538000  0.11072000  0.76390000  1.0 0.5744759446
C  C60  1  0.51057000  0.91385000  0.41912000  1.0 -0.0022738298
C  C61  1  0.37889000  0.72158000  0.36933000  1.0 0.1918849355
C  C62  1  0.56413000  0.06056000  0.64344000  1.0 -0.0712294759
C  C63  1  0.67788000  0.11075000  0.66304000  1.0 -0.0910490452
C  C64  1  0.63100000  0.05952000  0.53573000  1.0 -0.0712294759
C  C65  1  0.44498000  0.91592000  0.52323000  1.0 -0.0067689119
C  C66  1  0.74800000  0.08182000  0.71668000  1.0 0.1184788561
C  C67  1  0.69301000  0.98537000  0.70882000  1.0 -0.1388977137
C  C68  1  0.33223000  0.64147000  0.25100000  1.0 -0.189295038
C  C69  1  0.34369000  0.66641000  0.40780000  1.0 -0.2276558796
C  C70  1  0.76019000  0.96197000  0.75774000  1.0 -0.1094432083
C  C71  1  0.88327000  0.03482000  0.81651000  1.0 -0.1204488235
C  C72  1  0.87239000  0.15368000  0.77573000  1.0 -0.1474903518
C  C73  1  0.25649000  0.51289000  0.17722000  1.0 -0.0910490452
C  C74  1  0.26460000  0.53733000  0.33067000  1.0 -0.1204488235
C  C75  1  0.22300000  0.46113000  0.21657000  1.0 -0.1388977137
C  C76  1  0.93938000  0.13112000  0.82580000  1.0 -0.0910490452
C  C77  1  0.11738000  0.55062000  0.74143000  1.0 0.6115684515
C  C78  1  0.11072000  0.76390000  0.59538000  1.0 0.5744759446
C  C79  1  0.91385000  0.41912000  0.51057000  1.0 -0.0022738298
C  C80  1  0.72158000  0.36933000  0.37889000  1.0 0.1918849355
C  C81  1  0.06056000  0.64344000  0.56413000  1.0 -0.0712294759
C  C82  1  0.11075000  0.66304000  0.67788000  1.0 -0.0910490452
C  C83  1  0.05952000  0.53573000  0.63100000  1.0 -0.0712294759
C  C84  1  0.91592000  0.52323000  0.44498000  1.0 -0.0067689119
C  C85  1  0.08182000  0.71668000  0.74800000  1.0 0.1184788561
C  C86  1  0.98537000  0.70882000  0.69301000  1.0 -0.1346367145
C  C87  1  0.64147000  0.25100000  0.33223000  1.0 -0.189295038
C  C88  1  0.66641000  0.40780000  0.34369000  1.0 -0.2276558796
C  C89  1  0.96197000  0.75774000  0.76019000  1.0 -0.1094432083
C  C90  1  0.03482000  0.81651000  0.88327000  1.0 -0.1204488235
C  C91  1  0.15368000  0.77573000  0.87239000  1.0 -0.1474903518
C  C92  1  0.51289000  0.17722000  0.25649000  1.0 -0.0910490452
C  C93  1  0.53733000  0.33067000  0.26460000  1.0 -0.1204488235
C  C94  1  0.46113000  0.21657000  0.22300000  1.0 -0.1388977137
C  C95  1  0.13112000  0.82580000  0.93938000  1.0 -0.0910490452
C  C96  1  0.55062000  0.74143000  0.11738000  1.0 0.6115684515
C  C97  1  0.76390000  0.59538000  0.11072000  1.0 0.5744759446
C  C98  1  0.41912000  0.51057000  0.91385000  1.0 -0.0022738298
C  C99  1  0.36933000  0.37889000  0.72158000  1.0 0.1918849355
C  C100  1  0.64344000  0.56413000  0.06056000  1.0 -0.0712294759
C  C101  1  0.66304000  0.67788000  0.11075000  1.0 -0.0910490452
C  C102  1  0.53573000  0.63100000  0.05952000  1.0 -0.0712294759
C  C103  1  0.52323000  0.44498000  0.91592000  1.0 -0.0067689119
C  C104  1  0.71668000  0.74800000  0.08182000  1.0 0.1184788561
C  C105  1  0.70882000  0.69301000  0.98537000  1.0 -0.1388977137
C  C106  1  0.25100000  0.33223000  0.64147000  1.0 -0.189295038
C  C107  1  0.40780000  0.34369000  0.66641000  1.0 -0.2276558796
C  C108  1  0.75774000  0.76019000  0.96197000  1.0 -0.1094432083
C  C109  1  0.81651000  0.88327000  0.03482000  1.0 -0.1204488235
C  C110  1  0.77573000  0.87239000  0.15368000  1.0 -0.1474903518
C  C111  1  0.17722000  0.25649000  0.51289000  1.0 -0.0910490452
C  C112  1  0.33067000  0.26460000  0.53733000  1.0 -0.1204488235
C  C113  1  0.21657000  0.22300000  0.46113000  1.0 -0.1388977137
C  C114  1  0.82580000  0.93938000  0.13112000  1.0 -0.0910490452
N  N1  1  0.53835000  0.14726000  0.54921000  1.0 -0.2412804161
N  N2  1  0.14726000  0.54921000  0.53835000  1.0 -0.2412804161
N  N3  1  0.54921000  0.53835000  0.14726000  1.0 -0.2412804161
N  N4  1  0.46165000  0.85274000  0.45079000  1.0 -0.2412804161
N  N5  1  0.85274000  0.45079000  0.46165000  1.0 -0.2412804161
N  N6  1  0.45079000  0.46165000  0.85274000  1.0 -0.2412804161
O  O1  1  0.25213000  0.95037000  0.51104000  1.0 -0.7094167615
O  O2  1  0.48937000  0.95875000  0.24892000  1.0 -0.650255918
O  O3  1  0.29921000  0.77753000  0.13328000  1.0 -0.659719566
O  O4  1  0.17920000  0.76453000  0.37576000  1.0 -0.7094167615
O  O5  1  0.95037000  0.51104000  0.25213000  1.0 -0.7094167615
O  O6  1  0.95875000  0.24892000  0.48937000  1.0 -0.650255918
O  O7  1  0.77753000  0.13328000  0.29921000  1.0 -0.659719566
O  O8  1  0.76453000  0.37576000  0.17920000  1.0 -0.7094167615
O  O9  1  0.51104000  0.25213000  0.95037000  1.0 -0.7094167615
O  O10  1  0.24892000  0.48937000  0.95875000  1.0 -0.650255918
O  O11  1  0.13328000  0.29921000  0.77753000  1.0 -0.659719566
O  O12  1  0.37576000  0.17920000  0.76453000  1.0 -0.7094167615
O  O13  1  0.74787000  0.04963000  0.48896000  1.0 -0.7094167615
O  O14  1  0.51063000  0.04125000  0.75108000  1.0 -0.650255918
O  O15  1  0.70079000  0.22247000  0.86672000  1.0 -0.659719566
O  O16  1  0.82080000  0.23547000  0.62424000  1.0 -0.7094167615
O  O17  1  0.04963000  0.48896000  0.74787000  1.0 -0.7094167615
O  O18  1  0.04125000  0.75108000  0.51063000  1.0 -0.650255918
O  O19  1  0.22247000  0.86672000  0.70079000  1.0 -0.659719566
O  O20  1  0.23547000  0.62424000  0.82080000  1.0 -0.7094167615
O  O21  1  0.48896000  0.74787000  0.04963000  1.0 -0.7094167615
O  O22  1  0.75108000  0.51063000  0.04125000  1.0 -0.650255918
O  O23  1  0.86672000  0.70079000  0.22247000  1.0 -0.659719566
O  O24  1  0.62424000  0.82080000  0.23547000  1.0 -0.7094167615
