# DDEC6 charges by PACMAN v1.1 (https://github.com/mtap-research/PACMAN-charge/)
data_IPEXUZ_FSR_pacman
_symmetry_space_group_name_H-M   'P 1'
_cell_length_a   11.27750000
_cell_length_b   11.27750000
_cell_length_c   15.68940000
_cell_angle_alpha   90.00000000
_cell_angle_beta   90.00000000
_cell_angle_gamma   145.08100000
_symmetry_Int_Tables_number   1
_chemical_formula_structural   ZrC9O7
_chemical_formula_sum   'Zr4 C36 O28'
_cell_volume   1142.20787024
_cell_formula_units_Z   4
loop_
 _symmetry_equiv_pos_site_id
 _symmetry_equiv_pos_as_xyz
  1  'x, y, z'
loop_
 _atom_site_type_symbol
 _atom_site_label
 _atom_site_symmetry_multiplicity
 _atom_site_fract_x
 _atom_site_fract_y
 _atom_site_fract_z
 _atom_site_occupancy
 _atom_site_charge
Zr  Zr1  1  0.03727000  0.37313000  0.50000000  1.0 2.1662463596
Zr  Zr2  1  0.96273000  0.62687000  0.50000000  1.0 2.1627818197
Zr  Zr3  1  0.37313000  0.03727000  0.00000000  1.0 2.1662463596
Zr  Zr4  1  0.62687000  0.96273000  0.00000000  1.0 2.1662463596
C  C1  1  0.99350000  0.31650000  0.69170000  1.0 0.2819220423
C  C2  1  0.79820000  0.11580000  0.66560000  1.0 0.1950488985
C  C3  1  0.63760000  0.96240000  0.71920000  1.0 -0.0533922986
C  C4  1  0.00650000  0.68350000  0.69170000  1.0 0.2819220423
C  C5  1  0.20180000  0.88420000  0.66560000  1.0 0.1950488985
C  C6  1  0.36240000  0.03760000  0.71920000  1.0 -0.0533922986
C  C7  1  0.31650000  0.99350000  0.80830000  1.0 0.2819220423
C  C8  1  0.11580000  0.79820000  0.83440000  1.0 0.1950488985
C  C9  1  0.96240000  0.63760000  0.78080000  1.0 -0.0533922986
C  C10  1  0.68350000  0.00650000  0.80830000  1.0 0.2819220423
C  C11  1  0.88420000  0.20180000  0.83440000  1.0 0.1950488985
C  C12  1  0.03760000  0.36240000  0.78080000  1.0 -0.0533922986
C  C13  1  0.00650000  0.68350000  0.30830000  1.0 0.2819220423
C  C14  1  0.20180000  0.88420000  0.33440000  1.0 0.1950488985
C  C15  1  0.36240000  0.03760000  0.28080000  1.0 -0.0533922986
C  C16  1  0.99350000  0.31650000  0.30830000  1.0 0.2819220423
C  C17  1  0.79820000  0.11580000  0.33440000  1.0 0.1946586072
C  C18  1  0.63760000  0.96240000  0.28080000  1.0 -0.0533922986
C  C19  1  0.68350000  0.00650000  0.19170000  1.0 0.2819220423
C  C20  1  0.88420000  0.20180000  0.16560000  1.0 0.1950488985
C  C21  1  0.03760000  0.36240000  0.21920000  1.0 -0.0533922986
C  C22  1  0.31650000  0.99350000  0.19170000  1.0 0.2819220423
C  C23  1  0.11580000  0.79820000  0.16560000  1.0 0.1950488985
C  C24  1  0.96240000  0.63760000  0.21920000  1.0 -0.0533922986
C  C25  1  0.45420000  0.58380000  0.50000000  1.0 0.2668012008
C  C26  1  0.29950000  0.36850000  0.50000000  1.0 0.2469922453
C  C27  1  0.34800000  0.29400000  0.50000000  1.0 -0.1403774396
C  C28  1  0.54580000  0.41620000  0.50000000  1.0 0.2668012008
C  C29  1  0.70050000  0.63150000  0.50000000  1.0 0.2469922453
C  C30  1  0.65200000  0.70600000  0.50000000  1.0 -0.1403774396
C  C31  1  0.58380000  0.45420000  0.00000000  1.0 0.2668012008
C  C32  1  0.36850000  0.29950000  0.00000000  1.0 0.2469922453
C  C33  1  0.29400000  0.34800000  0.00000000  1.0 -0.1403774396
C  C34  1  0.41620000  0.54580000  0.00000000  1.0 0.2668012008
C  C35  1  0.63150000  0.70050000  0.00000000  1.0 0.2469922453
C  C36  1  0.70600000  0.65200000  0.00000000  1.0 -0.1403774396
O  O1  1  0.13780000  0.46300000  0.63720000  1.0 -0.4828732088
O  O2  1  0.78510000  0.10410000  0.57720000  1.0 -0.4684745744
O  O3  1  0.86220000  0.53700000  0.63720000  1.0 -0.4828732088
O  O4  1  0.21490000  0.89590000  0.57720000  1.0 -0.4684745744
O  O5  1  0.46300000  0.13780000  0.86280000  1.0 -0.4828732088
O  O6  1  0.10410000  0.78510000  0.92280000  1.0 -0.4684745744
O  O7  1  0.53700000  0.86220000  0.86280000  1.0 -0.4828732088
O  O8  1  0.89590000  0.21490000  0.92280000  1.0 -0.4684745744
O  O9  1  0.86220000  0.53700000  0.36280000  1.0 -0.4828732088
O  O10  1  0.21490000  0.89590000  0.42280000  1.0 -0.4684745744
O  O11  1  0.13780000  0.46300000  0.36280000  1.0 -0.4828732088
O  O12  1  0.78510000  0.10410000  0.42280000  1.0 -0.4684745744
O  O13  1  0.53700000  0.86220000  0.13720000  1.0 -0.4828732088
O  O14  1  0.89590000  0.21490000  0.07720000  1.0 -0.4684745744
O  O15  1  0.46300000  0.13780000  0.13720000  1.0 -0.4828732088
O  O16  1  0.10410000  0.78510000  0.07720000  1.0 -0.4684745744
O  O17  1  0.14740000  0.63260000  0.50000000  1.0 -0.6030431738
O  O18  1  0.10310000  0.23290000  0.50000000  1.0 -0.4684745744
O  O19  1  0.38990000  0.64010000  0.50000000  1.0 -0.4107862935
O  O20  1  0.85260000  0.36740000  0.50000000  1.0 -0.6030431738
O  O21  1  0.89690000  0.76710000  0.50000000  1.0 -0.4684745744
O  O22  1  0.61010000  0.35990000  0.50000000  1.0 -0.4107862935
O  O23  1  0.63260000  0.14740000  0.00000000  1.0 -0.6064685136
O  O24  1  0.23290000  0.10310000  0.00000000  1.0 -0.4684745744
O  O25  1  0.64010000  0.38990000  0.00000000  1.0 -0.4107862935
O  O26  1  0.36740000  0.85260000  0.00000000  1.0 -0.6030431738
O  O27  1  0.76710000  0.89690000  0.00000000  1.0 -0.4684745744
O  O28  1  0.35990000  0.61010000  0.00000000  1.0 -0.4107862935
