# DDEC6 charges by PACMAN v1.1 (https://github.com/mtap-research/PACMAN-charge/)
data_IPEXOT_FSR_pacman
_symmetry_space_group_name_H-M   'P 1'
_cell_length_a   11.23910000
_cell_length_b   11.23910000
_cell_length_c   15.62050000
_cell_angle_alpha   90.00000000
_cell_angle_beta   90.00000000
_cell_angle_gamma   145.13100000
_symmetry_Int_Tables_number   1
_chemical_formula_structural   HfC9O7
_chemical_formula_sum   'Hf4 C36 O28'
_cell_volume   1128.04843548
_cell_formula_units_Z   4
loop_
 _symmetry_equiv_pos_site_id
 _symmetry_equiv_pos_as_xyz
  1  'x, y, z'
loop_
 _atom_site_type_symbol
 _atom_site_label
 _atom_site_symmetry_multiplicity
 _atom_site_fract_x
 _atom_site_fract_y
 _atom_site_fract_z
 _atom_site_occupancy
 _atom_site_charge
Hf  Hf1  1  0.03527000  0.37253000  0.50000000  1.0 1.3184457851
Hf  Hf2  1  0.96473000  0.62747000  0.50000000  1.0 1.3184457851
Hf  Hf3  1  0.37253000  0.03527000  0.00000000  1.0 1.3184457851
Hf  Hf4  1  0.62747000  0.96473000  0.00000000  1.0 1.3184457851
C  C1  1  0.79790000  0.11610000  0.66860000  1.0 0.1345289705
C  C2  1  0.98880000  0.31120000  0.69070000  1.0 0.2797615362
C  C3  1  0.64380000  0.96020000  0.71600000  1.0 -0.0324346668
C  C4  1  0.20210000  0.88390000  0.66860000  1.0 0.1345289705
C  C5  1  0.01120000  0.68880000  0.69070000  1.0 0.2797615362
C  C6  1  0.35620000  0.03980000  0.71600000  1.0 -0.0324346668
C  C7  1  0.11610000  0.79790000  0.83140000  1.0 0.1345289705
C  C8  1  0.31120000  0.98880000  0.80930000  1.0 0.2797615362
C  C9  1  0.96020000  0.64380000  0.78400000  1.0 -0.0324346668
C  C10  1  0.88390000  0.20210000  0.83140000  1.0 0.1345289705
C  C11  1  0.68880000  0.01120000  0.80930000  1.0 0.2797615362
C  C12  1  0.03980000  0.35620000  0.78400000  1.0 -0.0324346668
C  C13  1  0.20210000  0.88390000  0.33140000  1.0 0.1345289705
C  C14  1  0.01120000  0.68880000  0.30930000  1.0 0.2797615362
C  C15  1  0.35620000  0.03980000  0.28400000  1.0 -0.0324346668
C  C16  1  0.79790000  0.11610000  0.33140000  1.0 0.1345289705
C  C17  1  0.98880000  0.31120000  0.30930000  1.0 0.2797615362
C  C18  1  0.64380000  0.96020000  0.28400000  1.0 -0.0324346668
C  C19  1  0.88390000  0.20210000  0.16860000  1.0 0.1345289705
C  C20  1  0.68880000  0.01120000  0.19070000  1.0 0.2797615362
C  C21  1  0.03980000  0.35620000  0.21600000  1.0 -0.0324346668
C  C22  1  0.11610000  0.79790000  0.16860000  1.0 0.1345289705
C  C23  1  0.31120000  0.98880000  0.19070000  1.0 0.2797615362
C  C24  1  0.96020000  0.64380000  0.21600000  1.0 -0.0324346668
C  C25  1  0.43940000  0.56660000  0.50000000  1.0 0.2511613016
C  C26  1  0.29200000  0.35400000  0.50000000  1.0 0.2440766861
C  C27  1  0.65500000  0.71700000  0.50000000  1.0 -0.100644389
C  C28  1  0.56060000  0.43340000  0.50000000  1.0 0.2511613016
C  C29  1  0.70800000  0.64600000  0.50000000  1.0 0.2440766861
C  C30  1  0.34500000  0.28300000  0.50000000  1.0 -0.100644389
C  C31  1  0.56660000  0.43940000  0.00000000  1.0 0.2511613016
C  C32  1  0.35400000  0.29200000  0.00000000  1.0 0.2440766861
C  C33  1  0.71700000  0.65500000  0.00000000  1.0 -0.100644389
C  C34  1  0.43340000  0.56060000  0.00000000  1.0 0.2511613016
C  C35  1  0.64600000  0.70800000  0.00000000  1.0 0.2440766861
C  C36  1  0.28300000  0.34500000  0.00000000  1.0 -0.100644389
O  O1  1  0.77170000  0.09510000  0.57680000  1.0 -0.280772278
O  O2  1  0.13430000  0.46170000  0.63780000  1.0 -0.4293934236
O  O3  1  0.22830000  0.90490000  0.57680000  1.0 -0.280772278
O  O4  1  0.86570000  0.53830000  0.63780000  1.0 -0.4293934236
O  O5  1  0.09510000  0.77170000  0.92320000  1.0 -0.280772278
O  O6  1  0.46170000  0.13430000  0.86220000  1.0 -0.4293934236
O  O7  1  0.90490000  0.22830000  0.92320000  1.0 -0.280772278
O  O8  1  0.53830000  0.86570000  0.86220000  1.0 -0.4293934236
O  O9  1  0.22830000  0.90490000  0.42320000  1.0 -0.280772278
O  O10  1  0.86570000  0.53830000  0.36220000  1.0 -0.4293934236
O  O11  1  0.77170000  0.09510000  0.42320000  1.0 -0.280772278
O  O12  1  0.13430000  0.46170000  0.36220000  1.0 -0.4293934236
O  O13  1  0.90490000  0.22830000  0.07680000  1.0 -0.280772278
O  O14  1  0.53830000  0.86570000  0.13780000  1.0 -0.4293934236
O  O15  1  0.09510000  0.77170000  0.07680000  1.0 -0.280772278
O  O16  1  0.46170000  0.13430000  0.13780000  1.0 -0.4293934236
O  O17  1  0.14290000  0.62910000  0.50000000  1.0 -0.3436619209
O  O18  1  0.37660000  0.62740000  0.50000000  1.0 -0.3497738451
O  O19  1  0.09870000  0.22130000  0.50000000  1.0 -0.3583999517
O  O20  1  0.85710000  0.37090000  0.50000000  1.0 -0.3497738451
O  O21  1  0.62340000  0.37260000  0.50000000  1.0 -0.3497738451
O  O22  1  0.90130000  0.77870000  0.50000000  1.0 -0.3583999517
O  O23  1  0.62910000  0.14290000  0.00000000  1.0 -0.3497738451
O  O24  1  0.62740000  0.37660000  0.00000000  1.0 -0.3497738451
O  O25  1  0.22130000  0.09870000  0.00000000  1.0 -0.3583999517
O  O26  1  0.37090000  0.85710000  0.00000000  1.0 -0.3497738451
O  O27  1  0.37260000  0.62340000  0.00000000  1.0 -0.3497738451
O  O28  1  0.77870000  0.90130000  0.00000000  1.0 -0.3583999517
