# DDEC6 charges by PACMAN v1.1 (https://github.com/mtap-research/PACMAN-charge/)
data_IPICUG_ion_pacman
_symmetry_space_group_name_H-M   'P 1'
_cell_length_a   14.80300000
_cell_length_b   14.80300000
_cell_length_c   19.90100000
_cell_angle_alpha   90.00000000
_cell_angle_beta   90.00000000
_cell_angle_gamma   90.00000000
_symmetry_Int_Tables_number   1
_chemical_formula_structural   Cu2H20C28N12(ClO4)3
_chemical_formula_sum   'Cu8 H80 C112 N48 Cl12 O48'
_cell_volume   4360.88242791
_cell_formula_units_Z   4
loop_
 _symmetry_equiv_pos_site_id
 _symmetry_equiv_pos_as_xyz
  1  'x, y, z'
loop_
 _atom_site_type_symbol
 _atom_site_label
 _atom_site_symmetry_multiplicity
 _atom_site_fract_x
 _atom_site_fract_y
 _atom_site_fract_z
 _atom_site_occupancy
 _atom_site_charge
Cu  Cu1  1  0.75000000  0.25000000  0.75000000  1.0 0.6228102817
Cu  Cu2  1  0.25000000  0.25000000  0.25000000  1.0 0.6228102817
Cu  Cu3  1  0.25000000  0.75000000  0.75000000  1.0 0.6228102817
Cu  Cu4  1  0.75000000  0.75000000  0.25000000  1.0 0.6228102817
Cu  Cu5  1  0.00000000  0.00000000  0.00000000  1.0 0.2722004129
Cu  Cu6  1  0.50000000  0.50000000  0.50000000  1.0 0.2722004129
Cu  Cu7  1  0.50000000  0.50000000  0.00000000  1.0 0.2722004129
Cu  Cu8  1  0.00000000  0.00000000  0.50000000  1.0 0.2722004129
H  H1  1  0.81020000  0.95380000  0.95570000  1.0 0.1105459566
H  H2  1  0.54620000  0.31020000  0.45570000  1.0 0.1105459566
H  H3  1  0.18980000  0.04620000  0.95570000  1.0 0.1105459566
H  H4  1  0.45380000  0.68980000  0.45570000  1.0 0.1105459566
H  H5  1  0.31020000  0.54620000  0.04430000  1.0 0.1105459566
H  H6  1  0.95380000  0.81020000  0.54430000  1.0 0.1105459566
H  H7  1  0.68980000  0.45380000  0.04430000  1.0 0.1105459566
H  H8  1  0.04620000  0.18980000  0.54430000  1.0 0.1105459566
H  H9  1  0.68980000  0.54620000  0.54430000  1.0 0.1105459566
H  H10  1  0.95380000  0.18980000  0.04430000  1.0 0.1105459566
H  H11  1  0.31020000  0.45380000  0.54430000  1.0 0.1105459566
H  H12  1  0.04620000  0.81020000  0.04430000  1.0 0.1105459566
H  H13  1  0.18980000  0.95380000  0.45570000  1.0 0.1105459566
H  H14  1  0.54620000  0.68980000  0.95570000  1.0 0.1105459566
H  H15  1  0.81020000  0.04620000  0.45570000  1.0 0.1105459566
H  H16  1  0.45380000  0.31020000  0.95570000  1.0 0.1105459566
H  H17  1  0.70020000  0.99990000  0.88050000  1.0 0.1271709128
H  H18  1  0.50010000  0.20020000  0.38050000  1.0 0.1271709128
H  H19  1  0.29980000  0.00010000  0.88050000  1.0 0.1271709128
H  H20  1  0.49990000  0.79980000  0.38050000  1.0 0.1271709128
H  H21  1  0.20020000  0.50010000  0.11950000  1.0 0.1271709128
H  H22  1  0.99990000  0.70020000  0.61950000  1.0 0.1271709128
H  H23  1  0.79980000  0.49990000  0.11950000  1.0 0.1271709128
H  H24  1  0.00010000  0.29980000  0.61950000  1.0 0.1271709128
H  H25  1  0.79980000  0.50010000  0.61950000  1.0 0.1271709128
H  H26  1  0.99990000  0.29980000  0.11950000  1.0 0.1271709128
H  H27  1  0.20020000  0.49990000  0.61950000  1.0 0.1271709128
H  H28  1  0.00010000  0.70020000  0.11950000  1.0 0.1271709128
H  H29  1  0.29980000  0.99990000  0.38050000  1.0 0.1271709128
H  H30  1  0.50010000  0.79980000  0.88050000  1.0 0.1271709128
H  H31  1  0.70020000  0.00010000  0.38050000  1.0 0.1271709128
H  H32  1  0.49990000  0.20020000  0.88050000  1.0 0.1271709128
H  H33  1  0.93910000  0.31940000  0.78490000  1.0 0.1041894926
H  H34  1  0.18060000  0.43910000  0.28490000  1.0 0.1041894926
H  H35  1  0.06090000  0.68060000  0.78490000  1.0 0.1041894926
H  H36  1  0.81940000  0.56090000  0.28490000  1.0 0.1041894926
H  H37  1  0.43910000  0.18060000  0.21510000  1.0 0.1041894926
H  H38  1  0.31940000  0.93910000  0.71510000  1.0 0.1041894926
H  H39  1  0.56090000  0.81940000  0.21510000  1.0 0.1041894926
H  H40  1  0.68060000  0.06090000  0.71510000  1.0 0.1041894926
H  H41  1  0.56090000  0.18060000  0.71510000  1.0 0.1041894926
H  H42  1  0.31940000  0.06090000  0.21510000  1.0 0.1041894926
H  H43  1  0.43910000  0.81940000  0.71510000  1.0 0.1041894926
H  H44  1  0.68060000  0.93910000  0.21510000  1.0 0.1041894926
H  H45  1  0.06090000  0.31940000  0.28490000  1.0 0.1041894926
H  H46  1  0.18060000  0.56090000  0.78490000  1.0 0.1041894926
H  H47  1  0.93910000  0.68060000  0.28490000  1.0 0.1041894926
H  H48  1  0.81940000  0.43910000  0.78490000  1.0 0.1041894926
H  H49  1  0.05430000  0.28270000  0.86030000  1.0 0.1423540421
H  H50  1  0.21730000  0.55430000  0.36030000  1.0 0.1423540421
H  H51  1  0.94570000  0.71730000  0.86030000  1.0 0.1423540421
H  H52  1  0.78270000  0.44570000  0.36030000  1.0 0.1423540421
H  H53  1  0.55430000  0.21730000  0.13970000  1.0 0.1423540421
H  H54  1  0.28270000  0.05430000  0.63970000  1.0 0.1423540421
H  H55  1  0.44570000  0.78270000  0.13970000  1.0 0.1423540421
H  H56  1  0.71730000  0.94570000  0.63970000  1.0 0.1423540421
H  H57  1  0.44570000  0.21730000  0.63970000  1.0 0.1423540421
H  H58  1  0.28270000  0.94570000  0.13970000  1.0 0.1423540421
H  H59  1  0.55430000  0.78270000  0.63970000  1.0 0.1423540421
H  H60  1  0.71730000  0.05430000  0.13970000  1.0 0.1423540421
H  H61  1  0.94570000  0.28270000  0.36030000  1.0 0.1423540421
H  H62  1  0.21730000  0.44570000  0.86030000  1.0 0.1423540421
H  H63  1  0.05430000  0.71730000  0.36030000  1.0 0.1423540421
H  H64  1  0.78270000  0.55430000  0.86030000  1.0 0.1423540421
H  H65  1  0.03970000  0.15730000  0.93000000  1.0 0.1239524072
H  H66  1  0.34270000  0.53970000  0.43000000  1.0 0.1239524072
H  H67  1  0.96030000  0.84270000  0.93000000  1.0 0.1239524072
H  H68  1  0.65730000  0.46030000  0.43000000  1.0 0.1239524072
H  H69  1  0.53970000  0.34270000  0.07000000  1.0 0.1239524072
H  H70  1  0.15730000  0.03970000  0.57000000  1.0 0.1239524072
H  H71  1  0.46030000  0.65730000  0.07000000  1.0 0.1239524072
H  H72  1  0.84270000  0.96030000  0.57000000  1.0 0.1239524072
H  H73  1  0.46030000  0.34270000  0.57000000  1.0 0.1239524072
H  H74  1  0.15730000  0.96030000  0.07000000  1.0 0.1239524072
H  H75  1  0.53970000  0.65730000  0.57000000  1.0 0.1239524072
H  H76  1  0.84270000  0.03970000  0.07000000  1.0 0.1239524072
H  H77  1  0.96030000  0.15730000  0.43000000  1.0 0.1239524072
H  H78  1  0.34270000  0.46030000  0.93000000  1.0 0.1239524072
H  H79  1  0.03970000  0.84270000  0.43000000  1.0 0.1239524072
H  H80  1  0.65730000  0.53970000  0.93000000  1.0 0.1239524072
C  C1  1  0.82160000  0.00540000  0.92860000  1.0 0.0393941883
C  C2  1  0.49460000  0.32160000  0.42860000  1.0 0.0393941883
C  C3  1  0.17840000  0.99460000  0.92860000  1.0 0.0393941883
C  C4  1  0.50540000  0.67840000  0.42860000  1.0 0.0393941883
C  C5  1  0.32160000  0.49460000  0.07140000  1.0 0.0393941883
C  C6  1  0.00540000  0.82160000  0.57140000  1.0 0.0393941883
C  C7  1  0.67840000  0.50540000  0.07140000  1.0 0.0393941883
C  C8  1  0.99460000  0.17840000  0.57140000  1.0 0.0393941883
C  C9  1  0.67840000  0.49460000  0.57140000  1.0 0.0393941883
C  C10  1  0.00540000  0.17840000  0.07140000  1.0 0.0393941883
C  C11  1  0.32160000  0.50540000  0.57140000  1.0 0.0393941883
C  C12  1  0.99460000  0.82160000  0.07140000  1.0 0.0393941883
C  C13  1  0.17840000  0.00540000  0.42860000  1.0 0.0393941883
C  C14  1  0.49460000  0.67840000  0.92860000  1.0 0.0393941883
C  C15  1  0.82160000  0.99460000  0.42860000  1.0 0.0393941883
C  C16  1  0.50540000  0.32160000  0.92860000  1.0 0.0393941883
C  C17  1  0.75480000  0.03340000  0.88330000  1.0 0.0758504736
C  C18  1  0.46660000  0.25480000  0.38330000  1.0 0.0758504736
C  C19  1  0.24520000  0.96660000  0.88330000  1.0 0.0758504736
C  C20  1  0.53340000  0.74520000  0.38330000  1.0 0.0758504736
C  C21  1  0.25480000  0.46660000  0.11670000  1.0 0.0758504736
C  C22  1  0.03340000  0.75480000  0.61670000  1.0 0.0758504736
C  C23  1  0.74520000  0.53340000  0.11670000  1.0 0.0758504736
C  C24  1  0.96660000  0.24520000  0.61670000  1.0 0.0758504736
C  C25  1  0.74520000  0.46660000  0.61670000  1.0 0.0758504736
C  C26  1  0.03340000  0.24520000  0.11670000  1.0 0.0758504736
C  C27  1  0.25480000  0.53340000  0.61670000  1.0 0.0758504736
C  C28  1  0.96660000  0.75480000  0.11670000  1.0 0.0758504736
C  C29  1  0.24520000  0.03340000  0.38330000  1.0 0.0758504736
C  C30  1  0.46660000  0.74520000  0.88330000  1.0 0.0758504736
C  C31  1  0.75480000  0.96660000  0.38330000  1.0 0.0758504736
C  C32  1  0.53340000  0.25480000  0.88330000  1.0 0.0758504736
C  C33  1  0.93160000  0.26880000  0.81370000  1.0 0.1105459566
C  C34  1  0.23120000  0.43160000  0.31370000  1.0 0.1105459566
C  C35  1  0.06840000  0.73120000  0.81370000  1.0 0.1105459566
C  C36  1  0.76880000  0.56840000  0.31370000  1.0 0.1105459566
C  C37  1  0.43160000  0.23120000  0.18630000  1.0 0.1105459566
C  C38  1  0.26880000  0.93160000  0.68630000  1.0 0.1105459566
C  C39  1  0.56840000  0.76880000  0.18630000  1.0 0.1105459566
C  C40  1  0.73120000  0.06840000  0.68630000  1.0 0.1105459566
C  C41  1  0.56840000  0.23120000  0.68630000  1.0 0.1105459566
C  C42  1  0.26880000  0.06840000  0.18630000  1.0 0.1105459566
C  C43  1  0.43160000  0.76880000  0.68630000  1.0 0.1105459566
C  C44  1  0.73120000  0.93160000  0.18630000  1.0 0.1105459566
C  C45  1  0.06840000  0.26880000  0.31370000  1.0 0.1105459566
C  C46  1  0.23120000  0.56840000  0.81370000  1.0 0.1105459566
C  C47  1  0.93160000  0.73120000  0.31370000  1.0 0.1105459566
C  C48  1  0.76880000  0.43160000  0.81370000  1.0 0.1105459566
C  C49  1  0.00120000  0.24670000  0.85850000  1.0 -0.0969835819
C  C50  1  0.25330000  0.50120000  0.35850000  1.0 -0.0969835819
C  C51  1  0.99880000  0.75330000  0.85850000  1.0 -0.0969835819
C  C52  1  0.74670000  0.49880000  0.35850000  1.0 -0.0969835819
C  C53  1  0.50120000  0.25330000  0.14150000  1.0 -0.0969835819
C  C54  1  0.24670000  0.00120000  0.64150000  1.0 -0.0969835819
C  C55  1  0.49880000  0.74670000  0.14150000  1.0 -0.0969835819
C  C56  1  0.75330000  0.99880000  0.64150000  1.0 -0.0969835819
C  C57  1  0.49880000  0.25330000  0.64150000  1.0 -0.0969835819
C  C58  1  0.24670000  0.99880000  0.14150000  1.0 -0.0969835819
C  C59  1  0.50120000  0.74670000  0.64150000  1.0 -0.0969835819
C  C60  1  0.75330000  0.00120000  0.14150000  1.0 -0.0969835819
C  C61  1  0.99880000  0.24670000  0.35850000  1.0 -0.0969835819
C  C62  1  0.25330000  0.49880000  0.85850000  1.0 -0.0969835819
C  C63  1  0.00120000  0.75330000  0.35850000  1.0 -0.0969835819
C  C64  1  0.74670000  0.50120000  0.85850000  1.0 -0.0969835819
C  C65  1  0.99270000  0.17320000  0.89970000  1.0 -0.1211505371
C  C66  1  0.32680000  0.49270000  0.39970000  1.0 -0.1211505371
C  C67  1  0.00730000  0.82680000  0.89970000  1.0 -0.1211505371
C  C68  1  0.67320000  0.50730000  0.39970000  1.0 -0.1211505371
C  C69  1  0.49270000  0.32680000  0.10030000  1.0 -0.1211505371
C  C70  1  0.17320000  0.99270000  0.60030000  1.0 -0.1211505371
C  C71  1  0.50730000  0.67320000  0.10030000  1.0 -0.1211505371
C  C72  1  0.82680000  0.00730000  0.60030000  1.0 -0.1211505371
C  C73  1  0.50730000  0.32680000  0.60030000  1.0 -0.1211505371
C  C74  1  0.17320000  0.00730000  0.10030000  1.0 -0.1211505371
C  C75  1  0.49270000  0.67320000  0.60030000  1.0 -0.1211505371
C  C76  1  0.82680000  0.99270000  0.10030000  1.0 -0.1211505371
C  C77  1  0.00730000  0.17320000  0.39970000  1.0 -0.1211505371
C  C78  1  0.32680000  0.50730000  0.89970000  1.0 -0.1211505371
C  C79  1  0.99270000  0.82680000  0.39970000  1.0 -0.1211505371
C  C80  1  0.67320000  0.49270000  0.89970000  1.0 -0.1211505371
C  C81  1  0.91260000  0.12130000  0.89630000  1.0 0.1239524072
C  C82  1  0.37870000  0.41260000  0.39630000  1.0 0.1239524072
C  C83  1  0.08740000  0.87870000  0.89630000  1.0 0.1239524072
C  C84  1  0.62130000  0.58740000  0.39630000  1.0 0.1239524072
C  C85  1  0.41260000  0.37870000  0.10370000  1.0 0.1239524072
C  C86  1  0.12130000  0.91260000  0.60370000  1.0 0.1239524072
C  C87  1  0.58740000  0.62130000  0.10370000  1.0 0.1239524072
C  C88  1  0.87870000  0.08740000  0.60370000  1.0 0.1239524072
C  C89  1  0.58740000  0.37870000  0.60370000  1.0 0.1239524072
C  C90  1  0.12130000  0.08740000  0.10370000  1.0 0.1239524072
C  C91  1  0.41260000  0.62130000  0.60370000  1.0 0.1239524072
C  C92  1  0.87870000  0.91260000  0.10370000  1.0 0.1239524072
C  C93  1  0.08740000  0.12130000  0.39630000  1.0 0.1239524072
C  C94  1  0.37870000  0.58740000  0.89630000  1.0 0.1239524072
C  C95  1  0.91260000  0.87870000  0.39630000  1.0 0.1239524072
C  C96  1  0.62130000  0.41260000  0.89630000  1.0 0.1239524072
C  C97  1  0.84550000  0.14870000  0.85080000  1.0 0.2642036228
C  C98  1  0.35130000  0.34550000  0.35080000  1.0 0.2642036228
C  C99  1  0.15450000  0.85130000  0.85080000  1.0 0.2642036228
C  C100  1  0.64870000  0.65450000  0.35080000  1.0 0.2642036228
C  C101  1  0.34550000  0.35130000  0.14920000  1.0 0.2642036228
C  C102  1  0.14870000  0.84550000  0.64920000  1.0 0.2642036228
C  C103  1  0.65450000  0.64870000  0.14920000  1.0 0.2642036228
C  C104  1  0.85130000  0.15450000  0.64920000  1.0 0.2642036228
C  C105  1  0.65450000  0.35130000  0.64920000  1.0 0.2642036228
C  C106  1  0.14870000  0.15450000  0.14920000  1.0 0.2642036228
C  C107  1  0.34550000  0.64870000  0.64920000  1.0 0.2642036228
C  C108  1  0.85130000  0.84550000  0.14920000  1.0 0.2642036228
C  C109  1  0.15450000  0.14870000  0.35080000  1.0 0.2642036228
C  C110  1  0.35130000  0.65450000  0.85080000  1.0 0.2642036228
C  C111  1  0.84550000  0.85130000  0.35080000  1.0 0.2642036228
C  C112  1  0.64870000  0.34550000  0.85080000  1.0 0.2642036228
N  N1  1  0.90040000  0.04770000  0.93560000  1.0 -0.2102401817
N  N2  1  0.45230000  0.40040000  0.43560000  1.0 -0.2102401817
N  N3  1  0.09960000  0.95230000  0.93560000  1.0 -0.2102401817
N  N4  1  0.54770000  0.59960000  0.43560000  1.0 -0.2102401817
N  N5  1  0.40040000  0.45230000  0.06440000  1.0 -0.2102401817
N  N6  1  0.04770000  0.90040000  0.56440000  1.0 -0.2102401817
N  N7  1  0.59960000  0.54770000  0.06440000  1.0 -0.2102401817
N  N8  1  0.95230000  0.09960000  0.56440000  1.0 -0.2102401817
N  N9  1  0.59960000  0.45230000  0.56440000  1.0 -0.2102401817
N  N10  1  0.04770000  0.09960000  0.06440000  1.0 -0.2102401817
N  N11  1  0.40040000  0.54770000  0.56440000  1.0 -0.2102401817
N  N12  1  0.95230000  0.90040000  0.06440000  1.0 -0.2102401817
N  N13  1  0.09960000  0.04770000  0.43560000  1.0 -0.2102401817
N  N14  1  0.45230000  0.59960000  0.93560000  1.0 -0.2102401817
N  N15  1  0.90040000  0.95230000  0.43560000  1.0 -0.2102401817
N  N16  1  0.54770000  0.40040000  0.93560000  1.0 -0.2102401817
N  N17  1  0.76550000  0.10540000  0.84400000  1.0 -0.2834288256
N  N18  1  0.39460000  0.26550000  0.34400000  1.0 -0.2834288256
N  N19  1  0.23450000  0.89460000  0.84400000  1.0 -0.2834288256
N  N20  1  0.60540000  0.73450000  0.34400000  1.0 -0.2834288256
N  N21  1  0.26550000  0.39460000  0.15600000  1.0 -0.2834288256
N  N22  1  0.10540000  0.76550000  0.65600000  1.0 -0.2834288256
N  N23  1  0.73450000  0.60540000  0.15600000  1.0 -0.2834288256
N  N24  1  0.89460000  0.23450000  0.65600000  1.0 -0.2834288256
N  N25  1  0.73450000  0.39460000  0.65600000  1.0 -0.2834288256
N  N26  1  0.10540000  0.23450000  0.15600000  1.0 -0.2834288256
N  N27  1  0.26550000  0.60540000  0.65600000  1.0 -0.2834288256
N  N28  1  0.89460000  0.76550000  0.15600000  1.0 -0.2834288256
N  N29  1  0.23450000  0.10540000  0.34400000  1.0 -0.2834288256
N  N30  1  0.39460000  0.73450000  0.84400000  1.0 -0.2834288256
N  N31  1  0.76550000  0.89460000  0.34400000  1.0 -0.2834288256
N  N32  1  0.60540000  0.26550000  0.84400000  1.0 -0.2834288256
N  N33  1  0.85590000  0.22160000  0.81030000  1.0 -0.2741138825
N  N34  1  0.27840000  0.35590000  0.31030000  1.0 -0.2741138825
N  N35  1  0.14410000  0.77840000  0.81030000  1.0 -0.2741138825
N  N36  1  0.72160000  0.64410000  0.31030000  1.0 -0.2741138825
N  N37  1  0.35590000  0.27840000  0.18970000  1.0 -0.2741138825
N  N38  1  0.22160000  0.85590000  0.68970000  1.0 -0.2741138825
N  N39  1  0.64410000  0.72160000  0.18970000  1.0 -0.2741138825
N  N40  1  0.77840000  0.14410000  0.68970000  1.0 -0.2741138825
N  N41  1  0.64410000  0.27840000  0.68970000  1.0 -0.2741138825
N  N42  1  0.22160000  0.14410000  0.18970000  1.0 -0.2741138825
N  N43  1  0.35590000  0.72160000  0.68970000  1.0 -0.2741138825
N  N44  1  0.77840000  0.85590000  0.18970000  1.0 -0.2741138825
N  N45  1  0.14410000  0.22160000  0.31030000  1.0 -0.2741138825
N  N46  1  0.27840000  0.64410000  0.81030000  1.0 -0.2741138825
N  N47  1  0.85590000  0.77840000  0.31030000  1.0 -0.2741138825
N  N48  1  0.72160000  0.35590000  0.81030000  1.0 -0.2741138825
Cl  Cl1  1  0.73602000  0.23602000  0.47802000  1.0 1.252235112
Cl  Cl2  1  0.73602000  0.76398000  0.97802000  1.0 1.252235112
Cl  Cl3  1  0.26398000  0.76398000  0.47802000  1.0 1.252235112
Cl  Cl4  1  0.26398000  0.23602000  0.97802000  1.0 1.252235112
Cl  Cl5  1  0.76398000  0.73602000  0.52198000  1.0 1.252235112
Cl  Cl6  1  0.23602000  0.73602000  0.02198000  1.0 1.252235112
Cl  Cl7  1  0.23602000  0.26398000  0.52198000  1.0 1.252235112
Cl  Cl8  1  0.76398000  0.26398000  0.02198000  1.0 1.252235112
Cl  Cl9  1  0.00000000  0.50000000  0.73000000  1.0 1.252235112
Cl  Cl10  1  0.00000000  0.50000000  0.23000000  1.0 1.252235112
Cl  Cl11  1  0.50000000  0.00000000  0.27000000  1.0 1.252235112
Cl  Cl12  1  0.50000000  0.00000000  0.77000000  1.0 1.252235112
O  O1  1  0.70280000  0.20280000  0.54230000  1.0 -0.4729192929
O  O2  1  0.68400000  0.18400000  0.42880000  1.0 -0.4875967429
O  O3  1  0.82430000  0.21230000  0.47940000  1.0 -0.4470871464
O  O4  1  0.71230000  0.32430000  0.47940000  1.0 -0.4470871464
O  O5  1  0.70280000  0.79720000  0.04230000  1.0 -0.4729192929
O  O6  1  0.68400000  0.81600000  0.92880000  1.0 -0.4875967429
O  O7  1  0.71230000  0.67570000  0.97940000  1.0 -0.4470871464
O  O8  1  0.82430000  0.78770000  0.97940000  1.0 -0.4470871464
O  O9  1  0.29720000  0.79720000  0.54230000  1.0 -0.4729192929
O  O10  1  0.31600000  0.81600000  0.42880000  1.0 -0.4875967429
O  O11  1  0.17570000  0.78770000  0.47940000  1.0 -0.4470871464
O  O12  1  0.28770000  0.67570000  0.47940000  1.0 -0.4470871464
O  O13  1  0.29720000  0.20280000  0.04230000  1.0 -0.4729192929
O  O14  1  0.31600000  0.18400000  0.92880000  1.0 -0.4875967429
O  O15  1  0.28770000  0.32430000  0.97940000  1.0 -0.4470871464
O  O16  1  0.17570000  0.21230000  0.97940000  1.0 -0.4470871464
O  O17  1  0.79720000  0.70280000  0.45770000  1.0 -0.4729192929
O  O18  1  0.81600000  0.68400000  0.57120000  1.0 -0.4875967429
O  O19  1  0.67570000  0.71230000  0.52060000  1.0 -0.4470871464
O  O20  1  0.78770000  0.82430000  0.52060000  1.0 -0.4470871464
O  O21  1  0.20280000  0.70280000  0.95770000  1.0 -0.4729192929
O  O22  1  0.18400000  0.68400000  0.07120000  1.0 -0.4875967429
O  O23  1  0.21230000  0.82430000  0.02060000  1.0 -0.4470871464
O  O24  1  0.32430000  0.71230000  0.02060000  1.0 -0.4470871464
O  O25  1  0.20280000  0.29720000  0.45770000  1.0 -0.4729192929
O  O26  1  0.18400000  0.31600000  0.57120000  1.0 -0.4875967429
O  O27  1  0.32430000  0.28770000  0.52060000  1.0 -0.4470871464
O  O28  1  0.21230000  0.17570000  0.52060000  1.0 -0.4470871464
O  O29  1  0.79720000  0.29720000  0.95770000  1.0 -0.4729192929
O  O30  1  0.81600000  0.31600000  0.07120000  1.0 -0.4875967429
O  O31  1  0.78770000  0.17570000  0.02060000  1.0 -0.4470871464
O  O32  1  0.67570000  0.28770000  0.02060000  1.0 -0.4470871464
O  O33  1  0.05180000  0.44820000  0.78060000  1.0 -0.4835860507
O  O34  1  0.94820000  0.55180000  0.78060000  1.0 -0.4835860507
O  O35  1  0.94140000  0.44140000  0.69900000  1.0 -0.4600665384
O  O36  1  0.05860000  0.55860000  0.69900000  1.0 -0.4600665384
O  O37  1  0.94820000  0.44820000  0.28060000  1.0 -0.4835860507
O  O38  1  0.05180000  0.55180000  0.28060000  1.0 -0.4835860507
O  O39  1  0.94140000  0.55860000  0.19900000  1.0 -0.4600665384
O  O40  1  0.05860000  0.44140000  0.19900000  1.0 -0.4600665384
O  O41  1  0.44820000  0.94820000  0.21940000  1.0 -0.4835860507
O  O42  1  0.55180000  0.05180000  0.21940000  1.0 -0.4835860507
O  O43  1  0.55860000  0.94140000  0.30100000  1.0 -0.4600665384
O  O44  1  0.44140000  0.05860000  0.30100000  1.0 -0.4600665384
O  O45  1  0.44820000  0.05180000  0.71940000  1.0 -0.4835860507
O  O46  1  0.55180000  0.94820000  0.71940000  1.0 -0.4835860507
O  O47  1  0.44140000  0.94140000  0.80100000  1.0 -0.4600665384
O  O48  1  0.55860000  0.05860000  0.80100000  1.0 -0.4600665384
