# DDEC6 charges by PACMAN v1.1 (https://github.com/mtap-research/PACMAN-charge/)
data_IPIVOT_FSR_pacman
_symmetry_space_group_name_H-M   'P 1'
_cell_length_a   18.65000000
_cell_length_b   18.65000000
_cell_length_c   6.83290000
_cell_angle_alpha   90.00000000
_cell_angle_beta   90.00000000
_cell_angle_gamma   120.00000000
_symmetry_Int_Tables_number   1
_chemical_formula_structural   CuH11C11O7
_chemical_formula_sum   'Cu6 H66 C66 O42'
_cell_volume   2058.22746353
_cell_formula_units_Z   6
loop_
 _symmetry_equiv_pos_site_id
 _symmetry_equiv_pos_as_xyz
  1  'x, y, z'
loop_
 _atom_site_type_symbol
 _atom_site_label
 _atom_site_symmetry_multiplicity
 _atom_site_fract_x
 _atom_site_fract_y
 _atom_site_fract_z
 _atom_site_occupancy
 _atom_site_charge
Cu  Cu1  1  0.52330000  0.47670000  0.34331000  1.0 0.8339759474
Cu  Cu2  1  0.52330000  0.04660000  0.34331000  1.0 0.8339759474
Cu  Cu3  1  0.95340000  0.47670000  0.34331000  1.0 0.8339759474
Cu  Cu4  1  0.47670000  0.52330000  0.65669000  1.0 0.8339759474
Cu  Cu5  1  0.47670000  0.95340000  0.65669000  1.0 0.8339759474
Cu  Cu6  1  0.04660000  0.52330000  0.65669000  1.0 0.8339759474
H  H1  1  0.52490000  0.41700000  0.00930000  1.0 0.2810035462
H  H2  1  0.58300000  0.10790000  0.00930000  1.0 0.2810035462
H  H3  1  0.89210000  0.47510000  0.00930000  1.0 0.2810035462
H  H4  1  0.41700000  0.52490000  0.99070000  1.0 0.2810035462
H  H5  1  0.47510000  0.89210000  0.99070000  1.0 0.2810035462
H  H6  1  0.10790000  0.58300000  0.99070000  1.0 0.2810035462
H  H7  1  0.47510000  0.58300000  0.99070000  1.0 0.2810035462
H  H8  1  0.41700000  0.89210000  0.99070000  1.0 0.2810035462
H  H9  1  0.10790000  0.52490000  0.99070000  1.0 0.2810035462
H  H10  1  0.58300000  0.47510000  0.00930000  1.0 0.2810035462
H  H11  1  0.52490000  0.10790000  0.00930000  1.0 0.2810035462
H  H12  1  0.89210000  0.41700000  0.00930000  1.0 0.2810035462
H  H13  1  0.36400000  0.28950000  0.97500000  1.0 0.1436760986
H  H14  1  0.71050000  0.07450000  0.97500000  1.0 0.1436760986
H  H15  1  0.92550000  0.63600000  0.97500000  1.0 0.1436760986
H  H16  1  0.28950000  0.36400000  0.02500000  1.0 0.1436760986
H  H17  1  0.63600000  0.92550000  0.02500000  1.0 0.1436760986
H  H18  1  0.07450000  0.71050000  0.02500000  1.0 0.1436760986
H  H19  1  0.63600000  0.71050000  0.02500000  1.0 0.1436760986
H  H20  1  0.28950000  0.92550000  0.02500000  1.0 0.1436760986
H  H21  1  0.07450000  0.36400000  0.02500000  1.0 0.1436760986
H  H22  1  0.71050000  0.63600000  0.97500000  1.0 0.1436760986
H  H23  1  0.36400000  0.07450000  0.97500000  1.0 0.1436760986
H  H24  1  0.92550000  0.28950000  0.97500000  1.0 0.1436760986
H  H25  1  0.47250000  0.23625000  0.53360000  1.0 0.150490638
H  H26  1  0.76375000  0.23625000  0.53360000  1.0 0.150490638
H  H27  1  0.76375000  0.52750000  0.53360000  1.0 0.150490638
H  H28  1  0.23625000  0.47250000  0.46640000  1.0 0.150490638
H  H29  1  0.52750000  0.76375000  0.46640000  1.0 0.150490638
H  H30  1  0.23625000  0.76375000  0.46640000  1.0 0.150490638
H  H31  1  0.99580000  0.22940000  0.54670000  1.0 0.0545902738
H  H32  1  0.77060000  0.76640000  0.54670000  1.0 0.0545902738
H  H33  1  0.23360000  0.00420000  0.54670000  1.0 0.0545902738
H  H34  1  0.22940000  0.99580000  0.45330000  1.0 0.0545902738
H  H35  1  0.00420000  0.23360000  0.45330000  1.0 0.0545902738
H  H36  1  0.76640000  0.77060000  0.45330000  1.0 0.0545902738
H  H37  1  0.00420000  0.77060000  0.45330000  1.0 0.0545902738
H  H38  1  0.22940000  0.23360000  0.45330000  1.0 0.0545902738
H  H39  1  0.76640000  0.99580000  0.45330000  1.0 0.0545902738
H  H40  1  0.77060000  0.00420000  0.54670000  1.0 0.0545902738
H  H41  1  0.99580000  0.76640000  0.54670000  1.0 0.0545902738
H  H42  1  0.23360000  0.22940000  0.54670000  1.0 0.0545902738
H  H43  1  0.04590000  0.18410000  0.58700000  1.0 0.0889375721
H  H44  1  0.81590000  0.86180000  0.58700000  1.0 0.0889375721
H  H45  1  0.13820000  0.95410000  0.58700000  1.0 0.0889375721
H  H46  1  0.18410000  0.04590000  0.41300000  1.0 0.0889375721
H  H47  1  0.95410000  0.13820000  0.41300000  1.0 0.0889375721
H  H48  1  0.86180000  0.81590000  0.41300000  1.0 0.0889375721
H  H49  1  0.95410000  0.81590000  0.41300000  1.0 0.0889375721
H  H50  1  0.18410000  0.13820000  0.41300000  1.0 0.0889375721
H  H51  1  0.86180000  0.04590000  0.41300000  1.0 0.0889375721
H  H52  1  0.81590000  0.95410000  0.58700000  1.0 0.0889375721
H  H53  1  0.04590000  0.86180000  0.58700000  1.0 0.0889375721
H  H54  1  0.13820000  0.18410000  0.58700000  1.0 0.0889375721
H  H55  1  0.08580000  0.26600000  0.46410000  1.0 0.0766845012
H  H56  1  0.73400000  0.81980000  0.46410000  1.0 0.0766845012
H  H57  1  0.18020000  0.91420000  0.46410000  1.0 0.0766845012
H  H58  1  0.26600000  0.08580000  0.53590000  1.0 0.0766845012
H  H59  1  0.91420000  0.18020000  0.53590000  1.0 0.0766845012
H  H60  1  0.81980000  0.73400000  0.53590000  1.0 0.0766845012
H  H61  1  0.91420000  0.73400000  0.53590000  1.0 0.0766845012
H  H62  1  0.26600000  0.18020000  0.53590000  1.0 0.0766845012
H  H63  1  0.81980000  0.08580000  0.53590000  1.0 0.0766845012
H  H64  1  0.73400000  0.91420000  0.46410000  1.0 0.0766845012
H  H65  1  0.08580000  0.81980000  0.46410000  1.0 0.0766845012
H  H66  1  0.18020000  0.26600000  0.46410000  1.0 0.0766845012
C  C1  1  0.30380000  0.15190000  0.18390000  1.0 0.4839465583
C  C2  1  0.84810000  0.15190000  0.18390000  1.0 0.4839465583
C  C3  1  0.84810000  0.69620000  0.18390000  1.0 0.4839465583
C  C4  1  0.15190000  0.30380000  0.81610000  1.0 0.4839465583
C  C5  1  0.69620000  0.84810000  0.81610000  1.0 0.4839465583
C  C6  1  0.15190000  0.84810000  0.81610000  1.0 0.4839465583
C  C7  1  0.35500000  0.17750000  0.99890000  1.0 -0.0218674395
C  C8  1  0.82250000  0.17750000  0.99890000  1.0 -0.0218674395
C  C9  1  0.82250000  0.64500000  0.99890000  1.0 -0.0218674395
C  C10  1  0.17750000  0.35500000  0.00110000  1.0 -0.0218674395
C  C11  1  0.64500000  0.82250000  0.00110000  1.0 -0.0218674395
C  C12  1  0.17750000  0.82250000  0.00110000  1.0 -0.0218674395
C  C13  1  0.37810000  0.25350000  0.91480000  1.0 -0.0850779673
C  C14  1  0.74650000  0.12460000  0.91480000  1.0 -0.0850779673
C  C15  1  0.87540000  0.62190000  0.91480000  1.0 -0.0850779673
C  C16  1  0.25350000  0.37810000  0.08520000  1.0 -0.0848413369
C  C17  1  0.62190000  0.87540000  0.08520000  1.0 -0.0848413369
C  C18  1  0.12460000  0.74650000  0.08520000  1.0 -0.0848413369
C  C19  1  0.62190000  0.74650000  0.08520000  1.0 -0.0848413369
C  C20  1  0.25350000  0.87540000  0.08520000  1.0 -0.0848413369
C  C21  1  0.12460000  0.37810000  0.08520000  1.0 -0.0848413369
C  C22  1  0.74650000  0.62190000  0.91480000  1.0 -0.0850779673
C  C23  1  0.37810000  0.12460000  0.91480000  1.0 -0.0850779673
C  C24  1  0.87540000  0.25350000  0.91480000  1.0 -0.0850779673
C  C25  1  0.42270000  0.27620000  0.73930000  1.0 -0.0218674395
C  C26  1  0.72380000  0.14650000  0.73930000  1.0 -0.0218674395
C  C27  1  0.85350000  0.57730000  0.73930000  1.0 -0.0218674395
C  C28  1  0.27620000  0.42270000  0.26070000  1.0 -0.0218674395
C  C29  1  0.57730000  0.85350000  0.26070000  1.0 -0.0218674395
C  C30  1  0.14650000  0.72380000  0.26070000  1.0 -0.0218674395
C  C31  1  0.57730000  0.72380000  0.26070000  1.0 -0.0218674395
C  C32  1  0.27620000  0.85350000  0.26070000  1.0 -0.0218674395
C  C33  1  0.14650000  0.42270000  0.26070000  1.0 -0.0218674395
C  C34  1  0.72380000  0.57730000  0.73930000  1.0 -0.0218674395
C  C35  1  0.42270000  0.14650000  0.73930000  1.0 -0.0218674395
C  C36  1  0.85350000  0.27620000  0.73930000  1.0 -0.0218674395
C  C37  1  0.44390000  0.22195000  0.65170000  1.0 -0.0975769943
C  C38  1  0.77805000  0.22195000  0.65170000  1.0 -0.0975769943
C  C39  1  0.77805000  0.55610000  0.65170000  1.0 -0.0975769943
C  C40  1  0.22195000  0.44390000  0.34830000  1.0 -0.0975769943
C  C41  1  0.55610000  0.77805000  0.34830000  1.0 -0.0975769943
C  C42  1  0.22195000  0.77805000  0.34830000  1.0 -0.0975769943
C  C43  1  0.45030000  0.35900000  0.65070000  1.0 0.5543948376
C  C44  1  0.64100000  0.09130000  0.65070000  1.0 0.5543948376
C  C45  1  0.90870000  0.54970000  0.65070000  1.0 0.5543948376
C  C46  1  0.35900000  0.45030000  0.34930000  1.0 0.5543948376
C  C47  1  0.54970000  0.90870000  0.34930000  1.0 0.5543948376
C  C48  1  0.09130000  0.64100000  0.34930000  1.0 0.5543948376
C  C49  1  0.54970000  0.64100000  0.34930000  1.0 0.5543948376
C  C50  1  0.35900000  0.90870000  0.34930000  1.0 0.5543948376
C  C51  1  0.09130000  0.45030000  0.34930000  1.0 0.5543948376
C  C52  1  0.64100000  0.54970000  0.65070000  1.0 0.5543948376
C  C53  1  0.45030000  0.09130000  0.65070000  1.0 0.5543948376
C  C54  1  0.90870000  0.35900000  0.65070000  1.0 0.5543948376
C  C55  1  0.23710000  0.04980000  0.42800000  1.0 -0.1486229199
C  C56  1  0.95020000  0.18730000  0.42800000  1.0 -0.1486229199
C  C57  1  0.81270000  0.76290000  0.42800000  1.0 -0.1486229199
C  C58  1  0.04980000  0.23710000  0.57200000  1.0 -0.1486229199
C  C59  1  0.76290000  0.81270000  0.57200000  1.0 -0.1486229199
C  C60  1  0.18730000  0.95020000  0.57200000  1.0 -0.1486229199
C  C61  1  0.76290000  0.95020000  0.57200000  1.0 -0.1486229199
C  C62  1  0.04980000  0.81270000  0.57200000  1.0 -0.1486229199
C  C63  1  0.18730000  0.23710000  0.57200000  1.0 -0.1486229199
C  C64  1  0.95020000  0.76290000  0.42800000  1.0 -0.1486229199
C  C65  1  0.23710000  0.18730000  0.42800000  1.0 -0.1486229199
C  C66  1  0.81270000  0.04980000  0.42800000  1.0 -0.1486229199
O  O1  1  0.28420000  0.08240000  0.25330000  1.0 -0.3056863582
O  O2  1  0.91760000  0.20180000  0.25330000  1.0 -0.3056863582
O  O3  1  0.79820000  0.71580000  0.25330000  1.0 -0.3056863582
O  O4  1  0.08240000  0.28420000  0.74670000  1.0 -0.3056863582
O  O5  1  0.71580000  0.79820000  0.74670000  1.0 -0.3056863582
O  O6  1  0.20180000  0.91760000  0.74670000  1.0 -0.3056863582
O  O7  1  0.71580000  0.91760000  0.74670000  1.0 -0.3056863582
O  O8  1  0.08240000  0.79820000  0.74670000  1.0 -0.3056863582
O  O9  1  0.20180000  0.28420000  0.74670000  1.0 -0.3056863582
O  O10  1  0.91760000  0.71580000  0.25330000  1.0 -0.3056863582
O  O11  1  0.28420000  0.20180000  0.25330000  1.0 -0.3056863582
O  O12  1  0.79820000  0.08240000  0.25330000  1.0 -0.3056863582
O  O13  1  0.48060000  0.37120000  0.48230000  1.0 -0.4837615327
O  O14  1  0.62880000  0.10940000  0.48230000  1.0 -0.4837615327
O  O15  1  0.89060000  0.51940000  0.48230000  1.0 -0.4837615327
O  O16  1  0.37120000  0.48060000  0.51770000  1.0 -0.4837615327
O  O17  1  0.51940000  0.89060000  0.51770000  1.0 -0.4837615327
O  O18  1  0.10940000  0.62880000  0.51770000  1.0 -0.4837615327
O  O19  1  0.51940000  0.62880000  0.51770000  1.0 -0.4837615327
O  O20  1  0.37120000  0.89060000  0.51770000  1.0 -0.4837615327
O  O21  1  0.10940000  0.48060000  0.51770000  1.0 -0.4837615327
O  O22  1  0.62880000  0.51940000  0.48230000  1.0 -0.4837615327
O  O23  1  0.48060000  0.10940000  0.48230000  1.0 -0.4837615327
O  O24  1  0.89060000  0.37120000  0.48230000  1.0 -0.4837615327
O  O25  1  0.44200000  0.41100000  0.75000000  1.0 -0.5252634918
O  O26  1  0.58900000  0.03100000  0.75000000  1.0 -0.5252634918
O  O27  1  0.96900000  0.55800000  0.75000000  1.0 -0.5252634918
O  O28  1  0.41100000  0.44200000  0.25000000  1.0 -0.5252634918
O  O29  1  0.55800000  0.96900000  0.25000000  1.0 -0.5252634918
O  O30  1  0.03100000  0.58900000  0.25000000  1.0 -0.5252634918
O  O31  1  0.55800000  0.58900000  0.25000000  1.0 -0.5252634918
O  O32  1  0.41100000  0.96900000  0.25000000  1.0 -0.5252634918
O  O33  1  0.03100000  0.44200000  0.25000000  1.0 -0.5252634918
O  O34  1  0.58900000  0.55800000  0.75000000  1.0 -0.5252634918
O  O35  1  0.44200000  0.03100000  0.75000000  1.0 -0.5252634918
O  O36  1  0.96900000  0.41100000  0.75000000  1.0 -0.5252634918
O  O37  1  0.56273000  0.43727000  0.08930000  1.0 -0.6072195804
O  O38  1  0.56273000  0.12546000  0.08930000  1.0 -0.6072195804
O  O39  1  0.87454000  0.43727000  0.08930000  1.0 -0.6072195804
O  O40  1  0.43727000  0.56273000  0.91070000  1.0 -0.6072195804
O  O41  1  0.43727000  0.87454000  0.91070000  1.0 -0.6072195804
O  O42  1  0.12546000  0.56273000  0.91070000  1.0 -0.6072195804
