# DDEC6 charges by PACMAN v1.1 (https://github.com/mtap-research/PACMAN-charge/)
data_IQIJIC_ASR_pacman
_symmetry_space_group_name_H-M   'P 1'
_cell_length_a   13.64400000
_cell_length_b   13.64400000
_cell_length_c   26.60900000
_cell_angle_alpha   80.71140000
_cell_angle_beta   99.28860000
_cell_angle_gamma   75.53630000
_symmetry_Int_Tables_number   1
_chemical_formula_structural   Co3H72C88(NO3)6
_chemical_formula_sum   'Co6 H144 C176 N12 O36'
_cell_volume   4626.94320303
_cell_formula_units_Z   2
loop_
 _symmetry_equiv_pos_site_id
 _symmetry_equiv_pos_as_xyz
  1  'x, y, z'
loop_
 _atom_site_type_symbol
 _atom_site_label
 _atom_site_symmetry_multiplicity
 _atom_site_fract_x
 _atom_site_fract_y
 _atom_site_fract_z
 _atom_site_occupancy
 _atom_site_charge
Co  Co1  1  0.46084000  0.57768000  0.55695000  1.0 0.8395783618
Co  Co2  1  0.57768000  0.46084000  0.94305000  1.0 0.8395783618
Co  Co3  1  0.53916000  0.42232000  0.44305000  1.0 0.8395783618
Co  Co4  1  0.42232000  0.53916000  0.05695000  1.0 0.8395783618
Co  Co5  1  0.00000000  0.50000000  0.00000000  1.0 0.7193295971
Co  Co6  1  0.50000000  0.00000000  0.50000000  1.0 0.7193295971
H  H1  1  0.28360000  0.81120000  0.43730000  1.0 0.1297967909
H  H2  1  0.81120000  0.28360000  0.06270000  1.0 0.1297967909
H  H3  1  0.71640000  0.18880000  0.56270000  1.0 0.1297967909
H  H4  1  0.18880000  0.71640000  0.93730000  1.0 0.1297967909
H  H5  1  0.17420000  0.94000000  0.36980000  1.0 0.1368312217
H  H6  1  0.94000000  0.17420000  0.13020000  1.0 0.1368312217
H  H7  1  0.82580000  0.06000000  0.63020000  1.0 0.1368312217
H  H8  1  0.06000000  0.82580000  0.86980000  1.0 0.1368312217
H  H9  1  0.30820000  0.80320000  0.26780000  1.0 0.1491280371
H  H10  1  0.80320000  0.30820000  0.23220000  1.0 0.1491280371
H  H11  1  0.69180000  0.19680000  0.73220000  1.0 0.1491280371
H  H12  1  0.19680000  0.69180000  0.76780000  1.0 0.1491280371
H  H13  1  0.42100000  0.67840000  0.33570000  1.0 0.1297967909
H  H14  1  0.67840000  0.42100000  0.16430000  1.0 0.1297967909
H  H15  1  0.57900000  0.32160000  0.66430000  1.0 0.1297967909
H  H16  1  0.32160000  0.57900000  0.83570000  1.0 0.1297967909
H  H17  1  0.08390000  0.05350000  0.30790000  1.0 0.1187023969
H  H18  1  0.05350000  0.08390000  0.19210000  1.0 0.1187023969
H  H19  1  0.91610000  0.94650000  0.69210000  1.0 0.1187023969
H  H20  1  0.94650000  0.91610000  0.80790000  1.0 0.1187023969
H  H21  1  0.60130000  0.67790000  0.49700000  1.0 0.1092554774
H  H22  1  0.67790000  0.60130000  0.00300000  1.0 0.1092554774
H  H23  1  0.39870000  0.32210000  0.50300000  1.0 0.1092554774
H  H24  1  0.32210000  0.39870000  0.99700000  1.0 0.1092554774
H  H25  1  0.77070000  0.66790000  0.50000000  1.0 0.1297967909
H  H26  1  0.66790000  0.77070000  0.00000000  1.0 0.1297967909
H  H27  1  0.22930000  0.33210000  0.50000000  1.0 0.1297967909
H  H28  1  0.33210000  0.22930000  0.00000000  1.0 0.1297967909
H  H29  1  0.98630000  0.48930000  0.59380000  1.0 0.1187023969
H  H30  1  0.48930000  0.98630000  0.90620000  1.0 0.1187023969
H  H31  1  0.01370000  0.51070000  0.40620000  1.0 0.1187023969
H  H32  1  0.51070000  0.01370000  0.09380000  1.0 0.1187023969
H  H33  1  0.84430000  0.44930000  0.63010000  1.0 0.1297967909
H  H34  1  0.44930000  0.84430000  0.86990000  1.0 0.1297967909
H  H35  1  0.15570000  0.55070000  0.36990000  1.0 0.1297967909
H  H36  1  0.55070000  0.15570000  0.13010000  1.0 0.1297967909
H  H37  1  0.67210000  0.46990000  0.62450000  1.0 0.0999306131
H  H38  1  0.46990000  0.67210000  0.87550000  1.0 0.0999306131
H  H39  1  0.32790000  0.53010000  0.37550000  1.0 0.0999306131
H  H40  1  0.53010000  0.32790000  0.12450000  1.0 0.0999306131
H  H41  1  0.32250000  0.44770000  0.59800000  1.0 0.1092554774
H  H42  1  0.44770000  0.32250000  0.90200000  1.0 0.1092554774
H  H43  1  0.67750000  0.55230000  0.40200000  1.0 0.1092554774
H  H44  1  0.55230000  0.67750000  0.09800000  1.0 0.1092554774
H  H45  1  0.15140000  0.45200000  0.59150000  1.0 0.1187023969
H  H46  1  0.45200000  0.15140000  0.90850000  1.0 0.1187023969
H  H47  1  0.84860000  0.54800000  0.40850000  1.0 0.1187023969
H  H48  1  0.54800000  0.84860000  0.09150000  1.0 0.1187023969
H  H49  1  0.93620000  0.65500000  0.51460000  1.0 0.1297967909
H  H50  1  0.65500000  0.93620000  0.98540000  1.0 0.1297967909
H  H51  1  0.06380000  0.34500000  0.48540000  1.0 0.1297967909
H  H52  1  0.34500000  0.06380000  0.01460000  1.0 0.1297967909
H  H53  1  0.07510000  0.72850000  0.49910000  1.0 0.1368312217
H  H54  1  0.72850000  0.07510000  0.00090000  1.0 0.1368312217
H  H55  1  0.92490000  0.27150000  0.50090000  1.0 0.1368312217
H  H56  1  0.27150000  0.92490000  0.99910000  1.0 0.1368312217
H  H57  1  0.24740000  0.71580000  0.50710000  1.0 0.1092554774
H  H58  1  0.71580000  0.24740000  0.99290000  1.0 0.1092554774
H  H59  1  0.75260000  0.28420000  0.49290000  1.0 0.1092554774
H  H60  1  0.28420000  0.75260000  0.00710000  1.0 0.1092554774
H  H61  1  0.35150000  0.88610000  0.61080000  1.0 0.1297967909
H  H62  1  0.88610000  0.35150000  0.88920000  1.0 0.1297967909
H  H63  1  0.64850000  0.11390000  0.38920000  1.0 0.1297967909
H  H64  1  0.11390000  0.64850000  0.11080000  1.0 0.1297967909
H  H65  1  0.30770000  0.98650000  0.66840000  1.0 0.1187023969
H  H66  1  0.98650000  0.30770000  0.83160000  1.0 0.1187023969
H  H67  1  0.69230000  0.01350000  0.33160000  1.0 0.1187023969
H  H68  1  0.01350000  0.69230000  0.16840000  1.0 0.1187023969
H  H69  1  0.47240000  0.75280000  0.78540000  1.0 0.1368312217
H  H70  1  0.75280000  0.47240000  0.71460000  1.0 0.1368312217
H  H71  1  0.52760000  0.24720000  0.21460000  1.0 0.1368312217
H  H72  1  0.24720000  0.52760000  0.28540000  1.0 0.1368312217
H  H73  1  0.50360000  0.65040000  0.72790000  1.0 0.1297967909
H  H74  1  0.65040000  0.50360000  0.77210000  1.0 0.1297967909
H  H75  1  0.49640000  0.34960000  0.27210000  1.0 0.1297967909
H  H76  1  0.34960000  0.49640000  0.22790000  1.0 0.1297967909
H  H77  1  0.27360000  0.25360000  0.84700000  1.0 0.1187023969
H  H78  1  0.25360000  0.27360000  0.65300000  1.0 0.1187023969
H  H79  1  0.72640000  0.74640000  0.15300000  1.0 0.1187023969
H  H80  1  0.74640000  0.72640000  0.34700000  1.0 0.1187023969
H  H81  1  0.20060000  0.34040000  0.90680000  1.0 0.1187023969
H  H82  1  0.34040000  0.20060000  0.59320000  1.0 0.1187023969
H  H83  1  0.79940000  0.65960000  0.09320000  1.0 0.1187023969
H  H84  1  0.65960000  0.79940000  0.40680000  1.0 0.1187023969
H  H85  1  0.08650000  0.10810000  0.95240000  1.0 0.1187023969
H  H86  1  0.10810000  0.08650000  0.54760000  1.0 0.1187023969
H  H87  1  0.91350000  0.89190000  0.04760000  1.0 0.1187023969
H  H88  1  0.89190000  0.91350000  0.45240000  1.0 0.1187023969
H  H89  1  0.15520000  0.02140000  0.89310000  1.0 0.1297967909
H  H90  1  0.02140000  0.15520000  0.60690000  1.0 0.1297967909
H  H91  1  0.84480000  0.97860000  0.10690000  1.0 0.1297967909
H  H92  1  0.97860000  0.84480000  0.39310000  1.0 0.1297967909
H  H93  1  0.79680000  0.65220000  0.93050000  1.0 0.0999306131
H  H94  1  0.65220000  0.79680000  0.56950000  1.0 0.0999306131
H  H95  1  0.20320000  0.34780000  0.06950000  1.0 0.0999306131
H  H96  1  0.34780000  0.20320000  0.43050000  1.0 0.0999306131
H  H97  1  0.05360000  0.52440000  0.89080000  1.0 0.0999306131
H  H98  1  0.52440000  0.05360000  0.60920000  1.0 0.0999306131
H  H99  1  0.94640000  0.47560000  0.10920000  1.0 0.0999306131
H  H100  1  0.47560000  0.94640000  0.39080000  1.0 0.0999306131
H  H101  1  0.98520000  0.60160000  0.80560000  1.0 0.1368312217
H  H102  1  0.60160000  0.98520000  0.69440000  1.0 0.1368312217
H  H103  1  0.01480000  0.39840000  0.19440000  1.0 0.1368312217
H  H104  1  0.39840000  0.01480000  0.30560000  1.0 0.1368312217
H  H105  1  0.72000000  0.72360000  0.84500000  1.0 0.1297967909
H  H106  1  0.72360000  0.72000000  0.65500000  1.0 0.1297967909
H  H107  1  0.28000000  0.27640000  0.15500000  1.0 0.1297967909
H  H108  1  0.27640000  0.28000000  0.34500000  1.0 0.1297967909
H  H109  1  0.82790000  0.68530000  0.73530000  1.0 0.1297967909
H  H110  1  0.68530000  0.82790000  0.76470000  1.0 0.1297967909
H  H111  1  0.17210000  0.31470000  0.26470000  1.0 0.1297967909
H  H112  1  0.31470000  0.17210000  0.23530000  1.0 0.1297967909
H  H113  1  0.23880000  0.94720000  0.83630000  1.0 0.1187023969
H  H114  1  0.94720000  0.23880000  0.66370000  1.0 0.1187023969
H  H115  1  0.76120000  0.05280000  0.16370000  1.0 0.1187023969
H  H116  1  0.05280000  0.76120000  0.33630000  1.0 0.1187023969
H  H117  1  0.14110000  0.03590000  0.80410000  1.0 0.0999306131
H  H118  1  0.03590000  0.14110000  0.69590000  1.0 0.0999306131
H  H119  1  0.85890000  0.96410000  0.19590000  1.0 0.0999306131
H  H120  1  0.96410000  0.85890000  0.30410000  1.0 0.0999306131
H  H121  1  0.20560000  0.95020000  0.74580000  1.0 0.0999306131
H  H122  1  0.95020000  0.20560000  0.75420000  1.0 0.0999306131
H  H123  1  0.79440000  0.04980000  0.25420000  1.0 0.0999306131
H  H124  1  0.04980000  0.79440000  0.24580000  1.0 0.0999306131
H  H125  1  0.23330000  0.05590000  0.73670000  1.0 0.0999306131
H  H126  1  0.05590000  0.23330000  0.76330000  1.0 0.0999306131
H  H127  1  0.76670000  0.94410000  0.26330000  1.0 0.0999306131
H  H128  1  0.94410000  0.76670000  0.23670000  1.0 0.0999306131
H  H129  1  0.28050000  0.17890000  0.78560000  1.0 0.0999306131
H  H130  1  0.17890000  0.28050000  0.71440000  1.0 0.0999306131
H  H131  1  0.71950000  0.82110000  0.21440000  1.0 0.0999306131
H  H132  1  0.82110000  0.71950000  0.28560000  1.0 0.0999306131
H  H133  1  0.37670000  0.09050000  0.81810000  1.0 0.1297967909
H  H134  1  0.09050000  0.37670000  0.68190000  1.0 0.1297967909
H  H135  1  0.62330000  0.90950000  0.18190000  1.0 0.1297967909
H  H136  1  0.90950000  0.62330000  0.31810000  1.0 0.1297967909
H  H137  1  0.35480000  0.07940000  0.72920000  1.0 0.0902072607
H  H138  1  0.07940000  0.35480000  0.77080000  1.0 0.0902072607
H  H139  1  0.64520000  0.92060000  0.27080000  1.0 0.0902072607
H  H140  1  0.92060000  0.64520000  0.22920000  1.0 0.0902072607
H  H141  1  0.24300000  0.06740000  0.72890000  1.0 0.0902072607
H  H142  1  0.06740000  0.24300000  0.77110000  1.0 0.0902072607
H  H143  1  0.75700000  0.93260000  0.27110000  1.0 0.0902072607
H  H144  1  0.93260000  0.75700000  0.22890000  1.0 0.0902072607
C  C1  1  0.22840000  0.66140000  0.52540000  1.0 0.0902072607
C  C2  1  0.66140000  0.22840000  0.97460000  1.0 0.0902072607
C  C3  1  0.77160000  0.33860000  0.47460000  1.0 0.0902072607
C  C4  1  0.33860000  0.77160000  0.02540000  1.0 0.0902072607
C  C5  1  0.12390000  0.66950000  0.52000000  1.0 -0.2113362535
C  C6  1  0.66950000  0.12390000  0.98000000  1.0 -0.2113362535
C  C7  1  0.87610000  0.33050000  0.48000000  1.0 -0.2113362535
C  C8  1  0.33050000  0.87610000  0.02000000  1.0 -0.2113362535
C  C9  1  0.27210000  0.50630000  0.57780000  1.0 0.0902072607
C  C10  1  0.50630000  0.27210000  0.92220000  1.0 0.0902072607
C  C11  1  0.72790000  0.49370000  0.42220000  1.0 0.0902072607
C  C12  1  0.49370000  0.72790000  0.07780000  1.0 0.0902072607
C  C13  1  0.16830000  0.50870000  0.57390000  1.0 -0.2204986434
C  C14  1  0.50870000  0.16830000  0.92610000  1.0 -0.2204986434
C  C15  1  0.83170000  0.49130000  0.42610000  1.0 -0.2204986434
C  C16  1  0.49130000  0.83170000  0.07390000  1.0 -0.2204986434
C  C17  1  0.09150000  0.59230000  0.54510000  1.0 0.1491280371
C  C18  1  0.59230000  0.09150000  0.95490000  1.0 0.1491280371
C  C19  1  0.90850000  0.40770000  0.45490000  1.0 0.1491280371
C  C20  1  0.40770000  0.90850000  0.04510000  1.0 0.1491280371
C  C21  1  0.43180000  0.64500000  0.43610000  1.0 0.5606058255
C  C22  1  0.64500000  0.43180000  0.06390000  1.0 0.5606058255
C  C23  1  0.56820000  0.35500000  0.56390000  1.0 0.5606058255
C  C24  1  0.35500000  0.56820000  0.93610000  1.0 0.5606058255
C  C25  1  0.36330000  0.73210000  0.39280000  1.0 -0.0510201998
C  C26  1  0.73210000  0.36330000  0.10720000  1.0 -0.0510201998
C  C27  1  0.63670000  0.26790000  0.60720000  1.0 -0.0510201998
C  C28  1  0.26790000  0.63670000  0.89280000  1.0 -0.0510201998
C  C29  1  0.28950000  0.80970000  0.40310000  1.0 -0.0915327243
C  C30  1  0.80970000  0.28950000  0.09690000  1.0 -0.0915327243
C  C31  1  0.71050000  0.19030000  0.59690000  1.0 -0.0915327243
C  C32  1  0.19030000  0.71050000  0.90310000  1.0 -0.0915327243
C  C33  1  0.22320000  0.88620000  0.36260000  1.0 -0.2204986434
C  C34  1  0.88620000  0.22320000  0.13740000  1.0 -0.2204986434
C  C35  1  0.77680000  0.11380000  0.63740000  1.0 -0.2204986434
C  C36  1  0.11380000  0.77680000  0.86260000  1.0 -0.2204986434
C  C37  1  0.22960000  0.88280000  0.31300000  1.0 0.2226591348
C  C38  1  0.88280000  0.22960000  0.18700000  1.0 0.2226591348
C  C39  1  0.77040000  0.11720000  0.68700000  1.0 0.2226591348
C  C40  1  0.11720000  0.77040000  0.81300000  1.0 0.2226591348
C  C41  1  0.30330000  0.80550000  0.30210000  1.0 -0.2204986434
C  C42  1  0.80550000  0.30330000  0.19790000  1.0 -0.2204986434
C  C43  1  0.69670000  0.19450000  0.69790000  1.0 -0.2204986434
C  C44  1  0.19450000  0.69670000  0.80210000  1.0 -0.2204986434
C  C45  1  0.37020000  0.73080000  0.34280000  1.0 -0.0985301756
C  C46  1  0.73080000  0.37020000  0.15720000  1.0 -0.0985301756
C  C47  1  0.62980000  0.26920000  0.65720000  1.0 -0.0985301756
C  C48  1  0.26920000  0.62980000  0.84280000  1.0 -0.0985301756
C  C49  1  0.09520000  0.03640000  0.27650000  1.0 -0.0760586694
C  C50  1  0.03640000  0.09520000  0.22350000  1.0 -0.0760586694
C  C51  1  0.90480000  0.96360000  0.72350000  1.0 -0.0740862995
C  C52  1  0.96360000  0.90480000  0.77650000  1.0 -0.0740862995
C  C53  1  0.65090000  0.63130000  0.52420000  1.0 0.0812143363
C  C54  1  0.63130000  0.65090000  0.97580000  1.0 0.0812143363
C  C55  1  0.34910000  0.36870000  0.47580000  1.0 0.0812143363
C  C56  1  0.36870000  0.34910000  0.02420000  1.0 0.0812143363
C  C57  1  0.75280000  0.62520000  0.52570000  1.0 -0.1915880725
C  C58  1  0.62520000  0.75280000  0.97430000  1.0 -0.1915880725
C  C59  1  0.24720000  0.37480000  0.47430000  1.0 -0.1915880725
C  C60  1  0.37480000  0.24720000  0.02570000  1.0 -0.1915880725
C  C61  1  0.82970000  0.55630000  0.56500000  1.0 0.1491280371
C  C62  1  0.55630000  0.82970000  0.93500000  1.0 0.1491280371
C  C63  1  0.17030000  0.44370000  0.43500000  1.0 0.1491280371
C  C64  1  0.44370000  0.17030000  0.06500000  1.0 0.1491280371
C  C65  1  0.94100000  0.54420000  0.56860000  1.0 -0.1610505752
C  C66  1  0.54420000  0.94100000  0.93140000  1.0 -0.1610505752
C  C67  1  0.05900000  0.45580000  0.43140000  1.0 -0.1610505752
C  C68  1  0.45580000  0.05900000  0.06860000  1.0 -0.1610505752
C  C69  1  0.79660000  0.49680000  0.60260000  1.0 -0.2204986434
C  C70  1  0.49680000  0.79660000  0.89740000  1.0 -0.2204986434
C  C71  1  0.20340000  0.50320000  0.39740000  1.0 -0.2204986434
C  C72  1  0.50320000  0.20340000  0.10260000  1.0 -0.2204986434
C  C73  1  0.69280000  0.50920000  0.59852000  1.0 0.0812143363
C  C74  1  0.50920000  0.69280000  0.90148000  1.0 0.0744751483
C  C75  1  0.30720000  0.49080000  0.40148000  1.0 0.0812143363
C  C76  1  0.49080000  0.30720000  0.09852000  1.0 0.0812143363
C  C77  1  0.98170000  0.60170000  0.54060000  1.0 -0.1318359136
C  C78  1  0.60170000  0.98170000  0.95940000  1.0 -0.1318359136
C  C79  1  0.01830000  0.39830000  0.45940000  1.0 -0.1318359136
C  C80  1  0.39830000  0.01830000  0.04060000  1.0 -0.1318359136
C  C81  1  0.44950000  0.68650000  0.62570000  1.0 0.522871913
C  C82  1  0.68650000  0.44950000  0.87430000  1.0 0.522871913
C  C83  1  0.55050000  0.31350000  0.37430000  1.0 0.522871913
C  C84  1  0.31350000  0.55050000  0.12570000  1.0 0.522871913
C  C85  1  0.43120000  0.75440000  0.66267000  1.0 -0.0396634894
C  C86  1  0.75440000  0.43120000  0.83733000  1.0 -0.0396634894
C  C87  1  0.56880000  0.24560000  0.33733000  1.0 -0.0396634894
C  C88  1  0.24560000  0.56880000  0.16267000  1.0 -0.0396634894
C  C89  1  0.37340000  0.85780000  0.64640000  1.0 -0.0760586694
C  C90  1  0.85780000  0.37340000  0.85360000  1.0 -0.0760586694
C  C91  1  0.62660000  0.14220000  0.35360000  1.0 -0.0760586694
C  C92  1  0.14220000  0.62660000  0.14640000  1.0 -0.0760586694
C  C93  1  0.34800000  0.91820000  0.68040000  1.0 -0.2204986434
C  C94  1  0.91820000  0.34800000  0.81960000  1.0 -0.2204986434
C  C95  1  0.65200000  0.08180000  0.31960000  1.0 -0.2204986434
C  C96  1  0.08180000  0.65200000  0.18040000  1.0 -0.2204986434
C  C97  1  0.38200000  0.87860000  0.73290000  1.0 0.1865327969
C  C98  1  0.87860000  0.38200000  0.76710000  1.0 0.1865327969
C  C99  1  0.61800000  0.12140000  0.26710000  1.0 0.1865327969
C  C100  1  0.12140000  0.61800000  0.23290000  1.0 0.1865327969
C  C101  1  0.44440000  0.77880000  0.75010000  1.0 -0.2113362535
C  C102  1  0.77880000  0.44440000  0.74990000  1.0 -0.2113362535
C  C103  1  0.55560000  0.22120000  0.24990000  1.0 -0.2113362535
C  C104  1  0.22120000  0.55560000  0.25010000  1.0 -0.2113362535
C  C105  1  0.46480000  0.71920000  0.71550000  1.0 -0.0915327243
C  C106  1  0.71920000  0.46480000  0.78450000  1.0 -0.0915327243
C  C107  1  0.53520000  0.28080000  0.28450000  1.0 -0.0915327243
C  C108  1  0.28080000  0.53520000  0.21550000  1.0 -0.0915327243
C  C109  1  0.21760000  0.12920000  0.86460000  1.0 0.0812143363
C  C110  1  0.12920000  0.21760000  0.63540000  1.0 0.0902072607
C  C111  1  0.78240000  0.87080000  0.13540000  1.0 0.0902072607
C  C112  1  0.87080000  0.78240000  0.36460000  1.0 0.0902072607
C  C113  1  0.23480000  0.22520000  0.86780000  1.0 -0.2824724004
C  C114  1  0.22520000  0.23480000  0.63220000  1.0 -0.2824724004
C  C115  1  0.76520000  0.77480000  0.13220000  1.0 -0.2824724004
C  C116  1  0.77480000  0.76520000  0.36780000  1.0 -0.2824724004
C  C117  1  0.19110000  0.27630000  0.90380000  1.0 -0.1084228553
C  C118  1  0.27630000  0.19110000  0.59620000  1.0 -0.1084228553
C  C119  1  0.80890000  0.72370000  0.09620000  1.0 -0.1084228553
C  C120  1  0.72370000  0.80890000  0.40380000  1.0 -0.1084228553
C  C121  1  0.13410000  0.23350000  0.93490000  1.0 -0.0396634894
C  C122  1  0.23350000  0.13410000  0.56510000  1.0 -0.0396634894
C  C123  1  0.86590000  0.76650000  0.06510000  1.0 -0.0396634894
C  C124  1  0.76650000  0.86590000  0.43490000  1.0 -0.0396634894
C  C125  1  0.12290000  0.13830000  0.93080000  1.0 -0.0985301756
C  C126  1  0.13830000  0.12290000  0.56920000  1.0 -0.0985301756
C  C127  1  0.87710000  0.86170000  0.06920000  1.0 -0.0985301756
C  C128  1  0.86170000  0.87710000  0.43080000  1.0 -0.0985301756
C  C129  1  0.16410000  0.08590000  0.89550000  1.0 -0.2389928963
C  C130  1  0.08590000  0.16410000  0.60450000  1.0 -0.2389928963
C  C131  1  0.83590000  0.91410000  0.10450000  1.0 -0.2389928963
C  C132  1  0.91410000  0.83590000  0.39550000  1.0 -0.2389928963
C  C133  1  0.08000000  0.29240000  0.97060000  1.0 0.5410867944
C  C134  1  0.29240000  0.08000000  0.52940000  1.0 0.5410867944
C  C135  1  0.92000000  0.70760000  0.02940000  1.0 0.5410867944
C  C136  1  0.70760000  0.92000000  0.47060000  1.0 0.5410867944
C  C137  1  0.83520000  0.64040000  0.90510000  1.0 0.0902072607
C  C138  1  0.64040000  0.83520000  0.59490000  1.0 0.0902072607
C  C139  1  0.16480000  0.35960000  0.09490000  1.0 0.0902072607
C  C140  1  0.35960000  0.16480000  0.40510000  1.0 0.0902072607
C  C141  1  0.98570000  0.56690000  0.88178000  1.0 0.0902072607
C  C142  1  0.56690000  0.98570000  0.61822000  1.0 0.0902072607
C  C143  1  0.01430000  0.43310000  0.11822000  1.0 0.0902072607
C  C144  1  0.43310000  0.01430000  0.38178000  1.0 0.0902072607
C  C145  1  0.94440000  0.61160000  0.83020000  1.0 -0.2113362535
C  C146  1  0.61160000  0.94440000  0.66980000  1.0 -0.2113362535
C  C147  1  0.05560000  0.38840000  0.16980000  1.0 -0.2113362535
C  C148  1  0.38840000  0.05560000  0.33020000  1.0 -0.2113362535
C  C149  1  0.84290000  0.67150000  0.81470000  1.0 0.1491280371
C  C150  1  0.67150000  0.84290000  0.68530000  1.0 0.1491280371
C  C151  1  0.15710000  0.32850000  0.18530000  1.0 0.1491280371
C  C152  1  0.32850000  0.15710000  0.31470000  1.0 0.1491280371
C  C153  1  0.78900000  0.68440000  0.85360000  1.0 -0.1987565331
C  C154  1  0.68440000  0.78900000  0.64640000  1.0 -0.1987565331
C  C155  1  0.21100000  0.31560000  0.14640000  1.0 -0.1987565331
C  C156  1  0.31560000  0.21100000  0.35360000  1.0 -0.1987565331
C  C157  1  0.79660000  0.71720000  0.75930000  1.0 -0.1390749462
C  C158  1  0.71720000  0.79660000  0.74070000  1.0 -0.1390749462
C  C159  1  0.20340000  0.28280000  0.24070000  1.0 -0.1390749462
C  C160  1  0.28280000  0.20340000  0.25930000  1.0 -0.1390749462
C  C161  1  0.21600000  0.01100000  0.81000000  1.0 -0.1689497739
C  C162  1  0.01100000  0.21600000  0.69000000  1.0 -0.1689497739
C  C163  1  0.78400000  0.98900000  0.19000000  1.0 -0.1689497739
C  C164  1  0.98900000  0.78400000  0.31000000  1.0 -0.1689497739
C  C165  1  0.24670000  0.99070000  0.76120000  1.0 -0.0915327243
C  C166  1  0.99070000  0.24670000  0.73880000  1.0 -0.0915327243
C  C167  1  0.75330000  0.00930000  0.23880000  1.0 -0.0915327243
C  C168  1  0.00930000  0.75330000  0.26120000  1.0 -0.0915327243
C  C169  1  0.30640000  0.10460000  0.79860000  1.0 -0.0311109004
C  C170  1  0.10460000  0.30640000  0.70140000  1.0 -0.0311109004
C  C171  1  0.69360000  0.89540000  0.20140000  1.0 -0.0311109004
C  C172  1  0.89540000  0.69360000  0.29860000  1.0 -0.0311109004
C  C173  1  0.31180000  0.05260000  0.75030000  1.0 -0.1390749462
C  C174  1  0.05260000  0.31180000  0.74970000  1.0 -0.1390749462
C  C175  1  0.68820000  0.94740000  0.24970000  1.0 -0.1390749462
C  C176  1  0.94740000  0.68820000  0.25030000  1.0 -0.1390749462
N  N1  1  0.30275000  0.58175000  0.55446000  1.0 -0.2204986434
N  N2  1  0.58175000  0.30275000  0.94554000  1.0 -0.2204986434
N  N3  1  0.69725000  0.41825000  0.44554000  1.0 -0.2204986434
N  N4  1  0.41825000  0.69725000  0.05446000  1.0 -0.2204986434
N  N5  1  0.61981000  0.57321000  0.56004000  1.0 -0.2389928963
N  N6  1  0.57321000  0.61981000  0.93996000  1.0 -0.2389928963
N  N7  1  0.38019000  0.42679000  0.43996000  1.0 -0.2389928963
N  N8  1  0.42679000  0.38019000  0.06004000  1.0 -0.2389928963
N  N9  1  0.93406000  0.58066000  0.91962000  1.0 -0.2204986434
N  N10  1  0.58066000  0.93406000  0.58038000  1.0 -0.2204986434
N  N11  1  0.06594000  0.41934000  0.08038000  1.0 -0.2204986434
N  N12  1  0.41934000  0.06594000  0.41962000  1.0 -0.2204986434
O  O1  1  0.41504000  0.64688000  0.48074000  1.0 -0.5442489115
O  O2  1  0.64688000  0.41504000  0.01926000  1.0 -0.5442489115
O  O3  1  0.58496000  0.35312000  0.51926000  1.0 -0.5442489115
O  O4  1  0.35312000  0.58496000  0.98074000  1.0 -0.5442489115
O  O5  1  0.49965000  0.57673000  0.42456000  1.0 -0.5500862517
O  O6  1  0.57673000  0.49965000  0.07544000  1.0 -0.5500862517
O  O7  1  0.50035000  0.42327000  0.57544000  1.0 -0.5500862517
O  O8  1  0.42327000  0.50035000  0.92456000  1.0 -0.5500862517
O  O9  1  0.16720000  0.95460000  0.27064000  1.0 -0.1084228553
O  O10  1  0.95460000  0.16720000  0.22936000  1.0 -0.1155272856
O  O11  1  0.83280000  0.04540000  0.72936000  1.0 -0.1084228553
O  O12  1  0.04540000  0.83280000  0.77064000  1.0 -0.1155272856
O  O13  1  0.43088000  0.72594000  0.57758000  1.0 -0.5305964187
O  O14  1  0.72594000  0.43088000  0.92242000  1.0 -0.5305964187
O  O15  1  0.56912000  0.27406000  0.42242000  1.0 -0.5305964187
O  O16  1  0.27406000  0.56912000  0.07758000  1.0 -0.5305964187
O  O17  1  0.48203000  0.59063000  0.64149000  1.0 -0.5500862517
O  O18  1  0.59063000  0.48203000  0.85851000  1.0 -0.5500862517
O  O19  1  0.51797000  0.40937000  0.35851000  1.0 -0.5500862517
O  O20  1  0.40937000  0.51797000  0.14149000  1.0 -0.5500862517
O  O21  1  0.25830000  0.08230000  0.82720000  1.0 -0.0510201998
O  O22  1  0.08230000  0.25830000  0.67280000  1.0 -0.0510201998
O  O23  1  0.74170000  0.91770000  0.17280000  1.0 -0.0510201998
O  O24  1  0.91770000  0.74170000  0.32720000  1.0 -0.0510201998
O  O25  1  0.35870000  0.93350000  0.77093000  1.0 -0.1390749462
O  O26  1  0.93350000  0.35870000  0.72907000  1.0 -0.1390749462
O  O27  1  0.64130000  0.06650000  0.22907000  1.0 -0.1390749462
O  O28  1  0.06650000  0.64130000  0.27093000  1.0 -0.1390749462
O  O29  1  0.02510000  0.25270000  0.99459000  1.0 -0.5442489115
O  O30  1  0.25270000  0.02510000  0.50541000  1.0 -0.5442489115
O  O31  1  0.97490000  0.74730000  0.00541000  1.0 -0.5500862517
O  O32  1  0.74730000  0.97490000  0.49459000  1.0 -0.5442489115
O  O33  1  0.09357000  0.38077000  0.97223000  1.0 -0.587692602
O  O34  1  0.38077000  0.09357000  0.52777000  1.0 -0.587692602
O  O35  1  0.90643000  0.61923000  0.02777000  1.0 -0.587692602
O  O36  1  0.61923000  0.90643000  0.47223000  1.0 -0.587692602
