# DDEC6 charges by PACMAN v1.1 (https://github.com/mtap-research/PACMAN-charge/)
data_IQIPUW_ASR_pacman
_symmetry_space_group_name_H-M   'P 1'
_cell_length_a   10.13390000
_cell_length_b   17.30930000
_cell_length_c   23.51220000
_cell_angle_alpha   90.00000000
_cell_angle_beta   90.00000000
_cell_angle_gamma   90.00000000
_symmetry_Int_Tables_number   1
_chemical_formula_structural   CdH34C35S3(NO2)3
_chemical_formula_sum   'Cd4 H136 C140 S12 N12 O24'
_cell_volume   4124.29181957
_cell_formula_units_Z   4
loop_
 _symmetry_equiv_pos_site_id
 _symmetry_equiv_pos_as_xyz
  1  'x, y, z'
loop_
 _atom_site_type_symbol
 _atom_site_label
 _atom_site_symmetry_multiplicity
 _atom_site_fract_x
 _atom_site_fract_y
 _atom_site_fract_z
 _atom_site_occupancy
 _atom_site_charge
Cd  Cd1  1  0.20605000  0.25000000  0.14565000  1.0 0.8039191625
Cd  Cd2  1  0.29395000  0.75000000  0.64565000  1.0 0.8039191625
Cd  Cd3  1  0.79395000  0.75000000  0.85435000  1.0 0.8039191625
Cd  Cd4  1  0.70605000  0.25000000  0.35435000  1.0 0.8039191625
H  H1  1  0.80891000  0.08378000  0.08555000  1.0 0.3292534611
H  H2  1  0.46067000  0.50254000  0.19863000  1.0 0.1371100696
H  H3  1  0.39146000  0.39561000  0.14795000  1.0 0.1007633373
H  H4  1  0.14746000  0.33327000  0.26837000  1.0 0.0919744498
H  H5  1  0.20296000  0.43995000  0.32245000  1.0 0.1371100696
H  H6  1  0.84652000  0.79628000  0.41264000  1.0 0.1201720703
H  H7  1  0.59319000  0.56913000  0.27557000  1.0 0.1201720703
H  H8  1  0.49746000  0.61552000  0.23324000  1.0 0.1201720703
H  H9  1  0.20366000  0.06027000  0.00951000  1.0 0.1371100696
H  H10  1  0.62576000  0.56348000  0.36416000  1.0 0.1299948356
H  H11  1  0.69272000  0.60906000  0.41587000  1.0 0.1371100696
H  H12  1  0.77538000  0.59228000  0.35921000  1.0 0.1371100696
H  H13  1  0.33706000  0.70983000  0.24305000  1.0 0.1007633373
H  H14  1  0.35917000  0.80053000  0.23389000  1.0 0.0919744498
H  H15  1  0.44485000  0.73964000  0.19840000  1.0 0.1007633373
H  H16  1  0.69109000  0.91622000  0.58555000  1.0 0.3292534611
H  H17  1  0.03933000  0.49746000  0.69863000  1.0 0.1371100696
H  H18  1  0.10854000  0.60439000  0.64795000  1.0 0.1007633373
H  H19  1  0.35254000  0.66666667  0.76837000  1.0 0.0919744498
H  H20  1  0.29704000  0.56005000  0.82245000  1.0 0.1371100696
H  H21  1  0.65348000  0.20372000  0.91264000  1.0 0.1201720703
H  H22  1  0.90681000  0.43087000  0.77557000  1.0 0.1201720703
H  H23  1  0.00254000  0.38448000  0.73324000  1.0 0.1201720703
H  H24  1  0.29634000  0.93973000  0.50951000  1.0 0.1371100696
H  H25  1  0.87424000  0.43652000  0.86416000  1.0 0.1299948356
H  H26  1  0.80728000  0.39094000  0.91587000  1.0 0.1371100696
H  H27  1  0.72462000  0.40772000  0.85921000  1.0 0.1371100696
H  H28  1  0.16294000  0.29017000  0.74305000  1.0 0.1007633373
H  H29  1  0.14083000  0.19947000  0.73389000  1.0 0.0919744498
H  H30  1  0.05515000  0.26036000  0.69840000  1.0 0.1007633373
H  H31  1  0.19109000  0.58378000  0.91445000  1.0 0.3292534611
H  H32  1  0.53933000  0.00254000  0.80137000  1.0 0.1371100696
H  H33  1  0.60854000  0.89561000  0.85205000  1.0 0.1007633373
H  H34  1  0.85254000  0.83327000  0.73163000  1.0 0.0919744498
H  H35  1  0.79704000  0.93995000  0.67755000  1.0 0.1371100696
H  H36  1  0.15348000  0.29628000  0.58736000  1.0 0.1201720703
H  H37  1  0.40681000  0.06913000  0.72443000  1.0 0.1201720703
H  H38  1  0.50254000  0.11552000  0.76676000  1.0 0.1201720703
H  H39  1  0.79634000  0.56027000  0.99049000  1.0 0.1371100696
H  H40  1  0.37424000  0.06348000  0.63584000  1.0 0.1299948356
H  H41  1  0.30728000  0.10906000  0.58413000  1.0 0.1371100696
H  H42  1  0.22462000  0.09228000  0.64079000  1.0 0.1371100696
H  H43  1  0.66294000  0.20983000  0.75695000  1.0 0.1007633373
H  H44  1  0.64083000  0.30053000  0.76611000  1.0 0.0919744498
H  H45  1  0.55515000  0.23964000  0.80160000  1.0 0.1007633373
H  H46  1  0.30891000  0.41622000  0.41445000  1.0 0.3292534611
H  H47  1  0.96067000  0.99746000  0.30137000  1.0 0.1371100696
H  H48  1  0.89146000  0.10439000  0.35205000  1.0 0.1007633373
H  H49  1  0.64746000  0.16673000  0.23163000  1.0 0.0919744498
H  H50  1  0.70296000  0.06005000  0.17755000  1.0 0.1371100696
H  H51  1  0.34652000  0.70372000  0.08736000  1.0 0.1201720703
H  H52  1  0.09319000  0.93087000  0.22443000  1.0 0.1201720703
H  H53  1  0.99746000  0.88448000  0.26676000  1.0 0.1201720703
H  H54  1  0.70366000  0.43973000  0.49049000  1.0 0.1371100696
H  H55  1  0.12576000  0.93652000  0.13584000  1.0 0.1299948356
H  H56  1  0.19272000  0.89094000  0.08413000  1.0 0.1371100696
H  H57  1  0.27538000  0.90772000  0.14079000  1.0 0.1371100696
H  H58  1  0.83706000  0.79017000  0.25695000  1.0 0.1007633373
H  H59  1  0.85917000  0.69947000  0.26611000  1.0 0.0919744498
H  H60  1  0.94485000  0.76036000  0.30160000  1.0 0.1007633373
H  H61  1  0.19109000  0.91622000  0.91445000  1.0 0.3292534611
H  H62  1  0.53933000  0.49746000  0.80137000  1.0 0.1371100696
H  H63  1  0.60854000  0.60439000  0.85205000  1.0 0.1007633373
H  H64  1  0.85254000  0.66666667  0.73163000  1.0 0.0919744498
H  H65  1  0.79704000  0.56005000  0.67755000  1.0 0.1371100696
H  H66  1  0.15348000  0.20372000  0.58736000  1.0 0.1201720703
H  H67  1  0.40681000  0.43087000  0.72443000  1.0 0.1201720703
H  H68  1  0.50254000  0.38448000  0.76676000  1.0 0.1201720703
H  H69  1  0.79634000  0.93973000  0.99049000  1.0 0.1371100696
H  H70  1  0.37424000  0.43652000  0.63584000  1.0 0.1299948356
H  H71  1  0.30728000  0.39094000  0.58413000  1.0 0.1371100696
H  H72  1  0.22462000  0.40772000  0.64079000  1.0 0.1371100696
H  H73  1  0.66294000  0.29017000  0.75695000  1.0 0.1007633373
H  H74  1  0.64083000  0.19947000  0.76611000  1.0 0.0919744498
H  H75  1  0.55515000  0.26036000  0.80160000  1.0 0.1007633373
H  H76  1  0.30891000  0.08378000  0.41445000  1.0 0.3292534611
H  H77  1  0.96067000  0.50254000  0.30137000  1.0 0.1371100696
H  H78  1  0.89146000  0.39561000  0.35205000  1.0 0.1007633373
H  H79  1  0.64746000  0.33327000  0.23163000  1.0 0.0919744498
H  H80  1  0.70296000  0.43995000  0.17755000  1.0 0.1371100696
H  H81  1  0.34652000  0.79628000  0.08736000  1.0 0.1201720703
H  H82  1  0.09319000  0.56913000  0.22443000  1.0 0.1201720703
H  H83  1  0.99746000  0.61552000  0.26676000  1.0 0.1201720703
H  H84  1  0.70366000  0.06027000  0.49049000  1.0 0.1371100696
H  H85  1  0.12576000  0.56348000  0.13584000  1.0 0.1299948356
H  H86  1  0.19272000  0.60906000  0.08413000  1.0 0.1371100696
H  H87  1  0.27538000  0.59228000  0.14079000  1.0 0.1371100696
H  H88  1  0.83706000  0.70983000  0.25695000  1.0 0.1007633373
H  H89  1  0.85917000  0.80053000  0.26611000  1.0 0.0919744498
H  H90  1  0.94485000  0.73964000  0.30160000  1.0 0.1007633373
H  H91  1  0.80891000  0.41622000  0.08555000  1.0 0.3292534611
H  H92  1  0.46067000  0.99746000  0.19863000  1.0 0.1371100696
H  H93  1  0.39146000  0.10439000  0.14795000  1.0 0.1007633373
H  H94  1  0.14746000  0.16673000  0.26837000  1.0 0.0919744498
H  H95  1  0.20296000  0.06005000  0.32245000  1.0 0.1371100696
H  H96  1  0.84652000  0.70372000  0.41264000  1.0 0.1201720703
H  H97  1  0.59319000  0.93087000  0.27557000  1.0 0.1201720703
H  H98  1  0.49746000  0.88448000  0.23324000  1.0 0.1201720703
H  H99  1  0.20366000  0.43973000  0.00951000  1.0 0.1371100696
H  H100  1  0.62576000  0.93652000  0.36416000  1.0 0.1299948356
H  H101  1  0.69272000  0.89094000  0.41587000  1.0 0.1371100696
H  H102  1  0.77538000  0.90772000  0.35921000  1.0 0.1371100696
H  H103  1  0.33706000  0.79017000  0.24305000  1.0 0.1007633373
H  H104  1  0.35917000  0.69947000  0.23389000  1.0 0.0919744498
H  H105  1  0.44485000  0.76036000  0.19840000  1.0 0.1007633373
H  H106  1  0.69109000  0.58378000  0.58555000  1.0 0.3292534611
H  H107  1  0.03933000  0.00254000  0.69863000  1.0 0.1371100696
H  H108  1  0.10854000  0.89561000  0.64795000  1.0 0.1007633373
H  H109  1  0.35254000  0.83327000  0.76837000  1.0 0.0919744498
H  H110  1  0.29704000  0.93995000  0.82245000  1.0 0.1371100696
H  H111  1  0.65348000  0.29628000  0.91264000  1.0 0.1201720703
H  H112  1  0.90681000  0.06913000  0.77557000  1.0 0.1201720703
H  H113  1  0.00254000  0.11552000  0.73324000  1.0 0.1201720703
H  H114  1  0.29634000  0.56027000  0.50951000  1.0 0.1371100696
H  H115  1  0.87424000  0.06348000  0.86416000  1.0 0.1299948356
H  H116  1  0.80728000  0.10906000  0.91587000  1.0 0.1371100696
H  H117  1  0.72462000  0.09228000  0.85921000  1.0 0.1371100696
H  H118  1  0.16294000  0.20983000  0.74305000  1.0 0.1007633373
H  H119  1  0.14083000  0.30053000  0.73389000  1.0 0.0919744498
H  H120  1  0.05515000  0.23964000  0.69840000  1.0 0.1007633373
H  H121  1  0.95247000  0.75000000  0.66097000  1.0 0.0919744498
H  H122  1  0.76705000  0.75000000  0.60682000  1.0 0.1534679829
H  H123  1  0.17977000  0.75000000  0.52717000  1.0 0.1201720703
H  H124  1  0.99928000  0.75000000  0.46801000  1.0 0.1371100696
H  H125  1  0.54753000  0.25000000  0.16097000  1.0 0.0919744498
H  H126  1  0.73295000  0.25000000  0.10682000  1.0 0.1534679829
H  H127  1  0.32023000  0.25000000  0.02717000  1.0 0.1201720703
H  H128  1  0.50072000  0.25000000  0.96801000  1.0 0.1371100696
H  H129  1  0.04753000  0.25000000  0.33903000  1.0 0.0919744498
H  H130  1  0.23295000  0.25000000  0.39318000  1.0 0.1534679829
H  H131  1  0.82023000  0.25000000  0.47283000  1.0 0.1201720703
H  H132  1  0.00072000  0.25000000  0.53199000  1.0 0.1371100696
H  H133  1  0.45247000  0.75000000  0.83903000  1.0 0.0919744498
H  H134  1  0.26705000  0.75000000  0.89318000  1.0 0.1534679829
H  H135  1  0.67977000  0.75000000  0.97283000  1.0 0.1201720703
H  H136  1  0.49928000  0.75000000  0.03199000  1.0 0.1371100696
C  C1  1  0.01680000  0.05970000  0.03900000  1.0 -0.1294838377
C  C2  1  0.55340000  0.68030000  0.30320000  1.0 -0.023103923
C  C3  1  0.03580000  0.12350000  0.08220000  1.0 0.5772131941
C  C4  1  0.39580000  0.46880000  0.21390000  1.0 -0.2016127296
C  C5  1  0.64120000  0.67980000  0.34970000  1.0 0.0550017095
C  C6  1  0.35460000  0.40410000  0.18460000  1.0 0.0831004492
C  C7  1  0.33850000  0.48280000  0.26680000  1.0 0.1118127219
C  C8  1  0.21210000  0.36810000  0.25430000  1.0 0.0659685237
C  C9  1  0.24460000  0.43150000  0.28680000  1.0 -0.1808201945
C  C10  1  0.89470000  0.02380000  0.03300000  1.0 0.2498855851
C  C11  1  0.51790000  0.60550000  0.27370000  1.0 -0.2800234259
C  C12  1  0.12030000  0.03570000  0.00580000  1.0 -0.1940533938
C  C13  1  0.68780000  0.60460000  0.37440000  1.0 -0.4654836096
C  C14  1  0.48320000  0.94030000  0.53900000  1.0 -0.1294838377
C  C15  1  0.94660000  0.31970000  0.80320000  1.0 -0.023103923
C  C16  1  0.46420000  0.87650000  0.58220000  1.0 0.5772131941
C  C17  1  0.10420000  0.53120000  0.71390000  1.0 -0.2016127296
C  C18  1  0.85880000  0.32020000  0.84970000  1.0 0.0550017095
C  C19  1  0.14540000  0.59590000  0.68460000  1.0 0.0831004492
C  C20  1  0.16150000  0.51720000  0.76680000  1.0 0.1118127219
C  C21  1  0.28790000  0.63190000  0.75430000  1.0 0.0659685237
C  C22  1  0.25540000  0.56850000  0.78680000  1.0 -0.1808201945
C  C23  1  0.60530000  0.97620000  0.53300000  1.0 0.2498855851
C  C24  1  0.98210000  0.39450000  0.77370000  1.0 -0.2800234259
C  C25  1  0.37970000  0.96430000  0.50580000  1.0 -0.1940533938
C  C26  1  0.81220000  0.39540000  0.87440000  1.0 -0.4654836096
C  C27  1  0.98320000  0.55970000  0.96100000  1.0 -0.1294838377
C  C28  1  0.44660000  0.18030000  0.69680000  1.0 -0.023103923
C  C29  1  0.96420000  0.62350000  0.91780000  1.0 0.5772131941
C  C30  1  0.60420000  0.96880000  0.78610000  1.0 -0.2016127296
C  C31  1  0.35880000  0.17980000  0.65030000  1.0 0.0550017095
C  C32  1  0.64540000  0.90410000  0.81540000  1.0 0.0831004492
C  C33  1  0.66150000  0.98280000  0.73320000  1.0 0.1118127219
C  C34  1  0.78790000  0.86810000  0.74570000  1.0 0.0659685237
C  C35  1  0.75540000  0.93150000  0.71320000  1.0 -0.1808201945
C  C36  1  0.10530000  0.52380000  0.96700000  1.0 0.2498855851
C  C37  1  0.48210000  0.10550000  0.72630000  1.0 -0.2800234259
C  C38  1  0.87970000  0.53570000  0.99420000  1.0 -0.1940533938
C  C39  1  0.31220000  0.10460000  0.62560000  1.0 -0.4654836096
C  C40  1  0.51680000  0.44030000  0.46100000  1.0 -0.1294838377
C  C41  1  0.05340000  0.81970000  0.19680000  1.0 -0.023103923
C  C42  1  0.53580000  0.37650000  0.41780000  1.0 0.5772131941
C  C43  1  0.89580000  0.03120000  0.28610000  1.0 -0.2016127296
C  C44  1  0.14120000  0.82020000  0.15030000  1.0 0.0550017095
C  C45  1  0.85460000  0.09590000  0.31540000  1.0 0.0831004492
C  C46  1  0.83850000  0.01720000  0.23320000  1.0 0.1118127219
C  C47  1  0.71210000  0.13190000  0.24570000  1.0 0.0659685237
C  C48  1  0.74460000  0.06850000  0.21320000  1.0 -0.1808201945
C  C49  1  0.39470000  0.47620000  0.46700000  1.0 0.2498855851
C  C50  1  0.01790000  0.89450000  0.22630000  1.0 -0.2800234259
C  C51  1  0.62030000  0.46430000  0.49420000  1.0 -0.1940533938
C  C52  1  0.18780000  0.89540000  0.12560000  1.0 -0.4654836096
C  C53  1  0.98320000  0.94030000  0.96100000  1.0 -0.1294838377
C  C54  1  0.44660000  0.31970000  0.69680000  1.0 -0.023103923
C  C55  1  0.96420000  0.87650000  0.91780000  1.0 0.5772131941
C  C56  1  0.60420000  0.53120000  0.78610000  1.0 -0.2016127296
C  C57  1  0.35880000  0.32020000  0.65030000  1.0 0.0550017095
C  C58  1  0.64540000  0.59590000  0.81540000  1.0 0.0831004492
C  C59  1  0.66150000  0.51720000  0.73320000  1.0 0.1118127219
C  C60  1  0.78790000  0.63190000  0.74570000  1.0 0.0659685237
C  C61  1  0.75540000  0.56850000  0.71320000  1.0 -0.1808201945
C  C62  1  0.10530000  0.97620000  0.96700000  1.0 0.2498855851
C  C63  1  0.48210000  0.39450000  0.72630000  1.0 -0.2800234259
C  C64  1  0.87970000  0.96430000  0.99420000  1.0 -0.1940533938
C  C65  1  0.31220000  0.39540000  0.62560000  1.0 -0.4654836096
C  C66  1  0.51680000  0.05970000  0.46100000  1.0 -0.1294838377
C  C67  1  0.05340000  0.68030000  0.19680000  1.0 -0.023103923
C  C68  1  0.53580000  0.12350000  0.41780000  1.0 0.5772131941
C  C69  1  0.89580000  0.46880000  0.28610000  1.0 -0.2016127296
C  C70  1  0.14120000  0.67980000  0.15030000  1.0 0.0550017095
C  C71  1  0.85460000  0.40410000  0.31540000  1.0 0.0831004492
C  C72  1  0.83850000  0.48280000  0.23320000  1.0 0.1118127219
C  C73  1  0.71210000  0.36810000  0.24570000  1.0 0.0659685237
C  C74  1  0.74460000  0.43150000  0.21320000  1.0 -0.1808201945
C  C75  1  0.39470000  0.02380000  0.46700000  1.0 0.2498855851
C  C76  1  0.01790000  0.60550000  0.22630000  1.0 -0.2800234259
C  C77  1  0.62030000  0.03570000  0.49420000  1.0 -0.1940533938
C  C78  1  0.18780000  0.60460000  0.12560000  1.0 -0.4654836096
C  C79  1  0.01680000  0.44030000  0.03900000  1.0 -0.1294838377
C  C80  1  0.55340000  0.81970000  0.30320000  1.0 -0.023103923
C  C81  1  0.03580000  0.37650000  0.08220000  1.0 0.5772131941
C  C82  1  0.39580000  0.03120000  0.21390000  1.0 -0.2016127296
C  C83  1  0.64120000  0.82020000  0.34970000  1.0 0.0550017095
C  C84  1  0.35460000  0.09590000  0.18460000  1.0 0.0831004492
C  C85  1  0.33850000  0.01720000  0.26680000  1.0 0.1118127219
C  C86  1  0.21210000  0.13190000  0.25430000  1.0 0.0659685237
C  C87  1  0.24460000  0.06850000  0.28680000  1.0 -0.1808201945
C  C88  1  0.89470000  0.47620000  0.03300000  1.0 0.2498855851
C  C89  1  0.51790000  0.89450000  0.27370000  1.0 -0.2800234259
C  C90  1  0.12030000  0.46430000  0.00580000  1.0 -0.1940533938
C  C91  1  0.68780000  0.89540000  0.37440000  1.0 -0.4654836096
C  C92  1  0.48320000  0.55970000  0.53900000  1.0 -0.1294838377
C  C93  1  0.94660000  0.18030000  0.80320000  1.0 -0.023103923
C  C94  1  0.46420000  0.62350000  0.58220000  1.0 0.5772131941
C  C95  1  0.10420000  0.96880000  0.71390000  1.0 -0.2016127296
C  C96  1  0.85880000  0.17980000  0.84970000  1.0 0.0550017095
C  C97  1  0.14540000  0.90410000  0.68460000  1.0 0.0831004492
C  C98  1  0.16150000  0.98280000  0.76680000  1.0 0.1118127219
C  C99  1  0.28790000  0.86810000  0.75430000  1.0 0.0659685237
C  C100  1  0.25540000  0.93150000  0.78680000  1.0 -0.1808201945
C  C101  1  0.60530000  0.52380000  0.53300000  1.0 0.2498855851
C  C102  1  0.98210000  0.10550000  0.77370000  1.0 -0.2800234259
C  C103  1  0.37970000  0.53570000  0.50580000  1.0 -0.1940533938
C  C104  1  0.81220000  0.10460000  0.87440000  1.0 -0.4654836096
C  C105  1  0.96230000  0.75000000  0.62080000  1.0 0.011854857
C  C106  1  0.85110000  0.75000000  0.58890000  1.0 -0.1808201945
C  C107  1  0.68410000  0.75000000  0.37180000  1.0 -0.014978259
C  C108  1  0.85990000  0.75000000  0.53030000  1.0 0.1118127219
C  C109  1  0.50530000  0.75000000  0.28110000  1.0 0.0261456584
C  C110  1  0.79010000  0.75000000  0.41720000  1.0 -0.2732200363
C  C111  1  0.40270000  0.75000000  0.23510000  1.0 -0.4155710675
C  C112  1  0.09440000  0.75000000  0.54380000  1.0 0.1007633373
C  C113  1  0.98670000  0.75000000  0.50810000  1.0 -0.2016127296
C  C114  1  0.53770000  0.25000000  0.12080000  1.0 0.011854857
C  C115  1  0.64890000  0.25000000  0.08890000  1.0 -0.1808201945
C  C116  1  0.81590000  0.25000000  0.87180000  1.0 -0.014978259
C  C117  1  0.64010000  0.25000000  0.03030000  1.0 0.1118127219
C  C118  1  0.99470000  0.25000000  0.78110000  1.0 0.0261456584
C  C119  1  0.70990000  0.25000000  0.91720000  1.0 -0.2732200363
C  C120  1  0.09730000  0.25000000  0.73510000  1.0 -0.4155710675
C  C121  1  0.40560000  0.25000000  0.04380000  1.0 0.1007633373
C  C122  1  0.51330000  0.25000000  0.00810000  1.0 -0.1940533938
C  C123  1  0.03770000  0.25000000  0.37920000  1.0 0.011854857
C  C124  1  0.14890000  0.25000000  0.41110000  1.0 -0.1808201945
C  C125  1  0.31590000  0.25000000  0.62820000  1.0 -0.023103923
C  C126  1  0.14010000  0.25000000  0.46970000  1.0 0.1118127219
C  C127  1  0.49470000  0.25000000  0.71890000  1.0 0.0261456584
C  C128  1  0.20990000  0.25000000  0.58280000  1.0 -0.2732200363
C  C129  1  0.59730000  0.25000000  0.76490000  1.0 -0.4155710675
C  C130  1  0.90560000  0.25000000  0.45620000  1.0 0.1007633373
C  C131  1  0.01330000  0.25000000  0.49190000  1.0 -0.2016127296
C  C132  1  0.46230000  0.75000000  0.87920000  1.0 0.011854857
C  C133  1  0.35110000  0.75000000  0.91110000  1.0 -0.1808201945
C  C134  1  0.18410000  0.75000000  0.12820000  1.0 -0.014978259
C  C135  1  0.35990000  0.75000000  0.96970000  1.0 0.1118127219
C  C136  1  0.00530000  0.75000000  0.21890000  1.0 0.0261456584
C  C137  1  0.29010000  0.75000000  0.08280000  1.0 -0.2732200363
C  C138  1  0.90270000  0.75000000  0.26490000  1.0 -0.4155710675
C  C139  1  0.59440000  0.75000000  0.95620000  1.0 0.1007633373
C  C140  1  0.48670000  0.75000000  0.99190000  1.0 -0.2016127296
S  S1  1  0.37536000  0.56387000  0.30890000  1.0 0.011854857
S  S2  1  0.12464000  0.43613000  0.80890000  1.0 0.011854857
S  S3  1  0.62464000  0.06387000  0.69110000  1.0 0.011854857
S  S4  1  0.87536000  0.93613000  0.19110000  1.0 0.011854857
S  S5  1  0.62464000  0.43613000  0.69110000  1.0 0.011854857
S  S6  1  0.87536000  0.56387000  0.19110000  1.0 0.011854857
S  S7  1  0.37536000  0.93613000  0.30890000  1.0 0.011854857
S  S8  1  0.12464000  0.06387000  0.80890000  1.0 0.011854857
S  S9  1  0.71720000  0.75000000  0.48840000  1.0 0.0497207985
S  S10  1  0.78280000  0.25000000  0.98840000  1.0 0.0497207985
S  S11  1  0.28280000  0.25000000  0.51160000  1.0 0.0497207985
S  S12  1  0.21720000  0.75000000  0.01160000  1.0 0.0497207985
N  N1  1  0.26810000  0.35310000  0.20340000  1.0 -0.2516831123
N  N2  1  0.23190000  0.64690000  0.70340000  1.0 -0.2516831123
N  N3  1  0.73190000  0.85310000  0.79660000  1.0 -0.2516831123
N  N4  1  0.76810000  0.14690000  0.29660000  1.0 -0.2516831123
N  N5  1  0.73190000  0.64690000  0.79660000  1.0 -0.2516831123
N  N6  1  0.76810000  0.35310000  0.29660000  1.0 -0.2516831123
N  N7  1  0.26810000  0.14690000  0.20340000  1.0 -0.2516831123
N  N8  1  0.23190000  0.85310000  0.70340000  1.0 -0.2516831123
N  N9  1  0.08610000  0.75000000  0.59960000  1.0 -0.2396036089
N  N10  1  0.41390000  0.25000000  0.09960000  1.0 -0.2396036089
N  N11  1  0.91390000  0.25000000  0.40040000  1.0 -0.2396036089
N  N12  1  0.58610000  0.75000000  0.90040000  1.0 -0.2396036089
O  O1  1  0.14420000  0.15770000  0.08214000  1.0 -0.5436336809
O  O2  1  0.94150000  0.13870000  0.11530000  1.0 -0.5543853082
O  O3  1  0.78640000  0.04850000  0.06300000  1.0 -0.4626044073
O  O4  1  0.35580000  0.84230000  0.58214000  1.0 -0.5436336809
O  O5  1  0.55850000  0.86130000  0.61530000  1.0 -0.5543853082
O  O6  1  0.71360000  0.95150000  0.56300000  1.0 -0.4626044073
O  O7  1  0.85580000  0.65770000  0.91786000  1.0 -0.5436336809
O  O8  1  0.05850000  0.63870000  0.88470000  1.0 -0.5543853082
O  O9  1  0.21360000  0.54850000  0.93700000  1.0 -0.4626044073
O  O10  1  0.64420000  0.34230000  0.41786000  1.0 -0.5436336809
O  O11  1  0.44150000  0.36130000  0.38470000  1.0 -0.5543853082
O  O12  1  0.28640000  0.45150000  0.43700000  1.0 -0.4626044073
O  O13  1  0.85580000  0.84230000  0.91786000  1.0 -0.5436336809
O  O14  1  0.05850000  0.86130000  0.88470000  1.0 -0.5543853082
O  O15  1  0.21360000  0.95150000  0.93700000  1.0 -0.4626044073
O  O16  1  0.64420000  0.15770000  0.41786000  1.0 -0.5436336809
O  O17  1  0.44150000  0.13870000  0.38470000  1.0 -0.5543853082
O  O18  1  0.28640000  0.04850000  0.43700000  1.0 -0.4626044073
O  O19  1  0.14420000  0.34230000  0.08214000  1.0 -0.5436336809
O  O20  1  0.94150000  0.36130000  0.11530000  1.0 -0.5543853082
O  O21  1  0.78640000  0.45150000  0.06300000  1.0 -0.4626044073
O  O22  1  0.35580000  0.65770000  0.58214000  1.0 -0.5436336809
O  O23  1  0.55850000  0.63870000  0.61530000  1.0 -0.5543853082
O  O24  1  0.71360000  0.54850000  0.56300000  1.0 -0.4626044073
