# DDEC6 charges by PACMAN v1.1 (https://github.com/mtap-research/PACMAN-charge/)
data_IQOHUT_ASR_pacman
_symmetry_space_group_name_H-M   'P 1'
_cell_length_a   11.28670000
_cell_length_b   13.83570000
_cell_length_c   14.86080000
_cell_angle_alpha   85.20900000
_cell_angle_beta   110.25800000
_cell_angle_gamma   106.09100000
_symmetry_Int_Tables_number   1
_chemical_formula_structural   CoH20C30N3O4
_chemical_formula_sum   'Co2 H40 C60 N6 O8'
_cell_volume   2091.61237523
_cell_formula_units_Z   2
loop_
 _symmetry_equiv_pos_site_id
 _symmetry_equiv_pos_as_xyz
  1  'x, y, z'
loop_
 _atom_site_type_symbol
 _atom_site_label
 _atom_site_symmetry_multiplicity
 _atom_site_fract_x
 _atom_site_fract_y
 _atom_site_fract_z
 _atom_site_occupancy
 _atom_site_charge
Co  Co1  1  0.50000000  0.00000000  0.00000000  1.0 0.8153025966
Co  Co2  1  0.50000000  0.50000000  0.00000000  1.0 0.8276699644
H  H1  1  0.39660000  0.80240000  0.72450000  1.0 0.1204430478
H  H2  1  0.60340000  0.19760000  0.27550000  1.0 0.1204430478
H  H3  1  0.48860000  0.90020000  0.61880000  1.0 0.1204430478
H  H4  1  0.51140000  0.09980000  0.38120000  1.0 0.1204430478
H  H5  1  0.78400000  0.76920000  0.70390000  1.0 0.1294936377
H  H6  1  0.21600000  0.23080000  0.29610000  1.0 0.1204430478
H  H7  1  0.68950000  0.66800000  0.80680000  1.0 0.1204430478
H  H8  1  0.31050000  0.33200000  0.19320000  1.0 0.1204430478
H  H9  1  0.41950000  0.77460000  0.31610000  1.0 0.1204430478
H  H10  1  0.58050000  0.22540000  0.68390000  1.0 0.1204430478
H  H11  1  0.50500000  0.78090000  0.48130000  1.0 0.1294936377
H  H12  1  0.49500000  0.21910000  0.51870000  1.0 0.1294936377
H  H13  1  0.78170000  0.03330000  0.46800000  1.0 0.1204430478
H  H14  1  0.21830000  0.96670000  0.53200000  1.0 0.1204430478
H  H15  1  0.69530000  0.02500000  0.30360000  1.0 0.1204430478
H  H16  1  0.30470000  0.97500000  0.69640000  1.0 0.1204430478
H  H17  1  0.22230000  0.47290000  0.84470000  1.0 0.1204430478
H  H18  1  0.77770000  0.52710000  0.15530000  1.0 0.1204430478
H  H19  1  0.04690000  0.35040000  0.75370000  1.0 0.1294936377
H  H20  1  0.95310000  0.64960000  0.24630000  1.0 0.1294936377
H  H21  1  0.27400000  0.15960000  0.83120000  1.0 0.1204430478
H  H22  1  0.72600000  0.84040000  0.16880000  1.0 0.1204430478
H  H23  1  0.43890000  0.28570000  0.92320000  1.0 0.1204430478
H  H24  1  0.56110000  0.71430000  0.07680000  1.0 0.1204430478
H  H25  1  0.88430000  0.20070000  0.75440000  1.0 0.1204430478
H  H26  1  0.11570000  0.79930000  0.24560000  1.0 0.1204430478
H  H27  1  0.71130000  0.06580000  0.67840000  1.0 0.1294936377
H  H28  1  0.28870000  0.93420000  0.32160000  1.0 0.1294936377
H  H29  1  0.95830000  0.94640000  0.61430000  1.0 0.1294936377
H  H30  1  0.04170000  0.05360000  0.38570000  1.0 0.1294936377
H  H31  1  0.13070000  0.08150000  0.68960000  1.0 0.1204430478
H  H32  1  0.86930000  0.91850000  0.31040000  1.0 0.1204430478
H  H33  1  0.21900000  0.95520000  0.86840000  1.0 0.1113397607
H  H34  1  0.78100000  0.04480000  0.13160000  1.0 0.1113397607
H  H35  1  0.01340000  0.94620000  0.86610000  1.0 0.1294936377
H  H36  1  0.98660000  0.05380000  0.13390000  1.0 0.1294936377
H  H37  1  0.17140000  0.06470000  0.13110000  1.0 0.1294936377
H  H38  1  0.82860000  0.93530000  0.86890000  1.0 0.1294936377
H  H39  1  0.37280000  0.07190000  0.12510000  1.0 0.1007413812
H  H40  1  0.62720000  0.92810000  0.87490000  1.0 0.1113397607
C  C1  1  0.47900000  0.66470000  0.84985000  1.0 0.5574943285
C  C2  1  0.52100000  0.33530000  0.15015000  1.0 0.5574943285
C  C3  1  0.53510000  0.72630000  0.77792000  1.0 -0.0327089213
C  C4  1  0.46490000  0.27370000  0.22208000  1.0 -0.0327089213
C  C5  1  0.47430000  0.79560000  0.72060000  1.0 -0.0884982038
C  C6  1  0.52570000  0.20440000  0.27940000  1.0 -0.0884982038
C  C7  1  0.52990000  0.85460000  0.65760000  1.0 -0.1891763323
C  C8  1  0.47010000  0.14540000  0.34240000  1.0 -0.1891763323
C  C9  1  0.64640000  0.84570000  0.65260000  1.0 0.165779547
C  C10  1  0.35360000  0.15430000  0.34740000  1.0 0.165779547
C  C11  1  0.70630000  0.77590000  0.70810000  1.0 -0.1975943435
C  C12  1  0.29370000  0.22410000  0.29190000  1.0 -0.1975943435
C  C13  1  0.65000000  0.71570000  0.77020000  1.0 -0.0884982038
C  C14  1  0.35000000  0.28430000  0.22980000  1.0 -0.0884982038
C  C15  1  0.49680000  0.89500000  0.18489000  1.0 0.5439195495
C  C16  1  0.50320000  0.10500000  0.81511000  1.0 0.5439195495
C  C17  1  0.54820000  0.89870000  0.29181000  1.0 -0.0576334882
C  C18  1  0.45180000  0.10130000  0.70819000  1.0 -0.0576334882
C  C19  1  0.49250000  0.82630000  0.34660000  1.0 -0.0884982038
C  C20  1  0.50750000  0.17370000  0.65340000  1.0 -0.0884982038
C  C21  1  0.54380000  0.82990000  0.44580000  1.0 -0.2095801372
C  C22  1  0.45620000  0.17010000  0.55420000  1.0 -0.2095801372
C  C23  1  0.65420000  0.90740000  0.49320000  1.0 0.2091060516
C  C24  1  0.34580000  0.09260000  0.50680000  1.0 0.2091060516
C  C25  1  0.70940000  0.98090000  0.43790000  1.0 -0.2095801372
C  C26  1  0.29060000  0.01910000  0.56210000  1.0 -0.2095801372
C  C27  1  0.65710000  0.97590000  0.33930000  1.0 -0.1032694641
C  C28  1  0.34290000  0.02410000  0.66070000  1.0 -0.1032694641
C  C29  1  0.23170000  0.40830000  0.84360000  1.0 0.1007413812
C  C30  1  0.76830000  0.59170000  0.15640000  1.0 0.1007413812
C  C31  1  0.12540000  0.33510000  0.78810000  1.0 -0.1975943435
C  C32  1  0.87460000  0.66490000  0.21190000  1.0 -0.1975943435
C  C33  1  0.13820000  0.23840000  0.78450000  1.0 0.1113397607
C  C34  1  0.86180000  0.76160000  0.21550000  1.0 0.1113397607
C  C35  1  0.25960000  0.22210000  0.83440000  1.0 -0.1891763323
C  C36  1  0.74040000  0.77790000  0.16560000  1.0 -0.1891763323
C  C37  1  0.35890000  0.29890000  0.88900000  1.0 0.1007413812
C  C38  1  0.64110000  0.70110000  0.11100000  1.0 0.1007413812
C  C39  1  0.02610000  0.15500000  0.73110000  1.0 0.050685228
C  C40  1  0.97390000  0.84500000  0.26890000  1.0 0.050685228
C  C41  1  0.89970000  0.14970000  0.72670000  1.0 -0.1284204971
C  C42  1  0.10030000  0.85030000  0.27330000  1.0 -0.1284204971
C  C43  1  0.79580000  0.06870000  0.68120000  1.0 -0.1615685958
C  C44  1  0.20420000  0.93130000  0.31880000  1.0 -0.1615685958
C  C45  1  0.81820000  0.99280000  0.64010000  1.0 0.1620444145
C  C46  1  0.18180000  0.00720000  0.35990000  1.0 0.1620444145
C  C47  1  0.94340000  0.99730000  0.64270000  1.0 -0.1813761009
C  C48  1  0.05660000  0.00270000  0.35730000  1.0 -0.1813761009
C  C49  1  0.04660000  0.07830000  0.68800000  1.0 -0.1284204971
C  C50  1  0.95340000  0.92170000  0.31200000  1.0 -0.1284204971
C  C51  1  0.20900000  0.97700000  0.92220000  1.0 0.0816288155
C  C52  1  0.79100000  0.02300000  0.07780000  1.0 0.0816288155
C  C53  1  0.08510000  0.97150000  0.92030000  1.0 -0.1891763323
C  C54  1  0.91490000  0.02850000  0.07970000  1.0 -0.1891763323
C  C55  1  0.06640000  0.00360000  0.99900000  1.0 0.1113397607
C  C56  1  0.93360000  0.99640000  0.00100000  1.0 0.1113397607
C  C57  1  0.17820000  0.04170000  0.07660000  1.0 -0.1813761009
C  C58  1  0.82180000  0.95830000  0.92340000  1.0 -0.1813761009
C  C59  1  0.29910000  0.04520000  0.07260000  1.0 0.1007413812
C  C60  1  0.70090000  0.95480000  0.92740000  1.0 0.1007413812
N  N1  1  0.71010000  0.91023000  0.59249000  1.0 -0.1813761009
N  N2  1  0.28990000  0.08977000  0.40751000  1.0 -0.1813761009
N  N3  1  0.34710000  0.39110000  0.89585000  1.0 -0.2413618255
N  N4  1  0.65290000  0.60890000  0.10415000  1.0 -0.2413618255
N  N5  1  0.31610000  0.01234000  0.99755000  1.0 -0.2206492264
N  N6  1  0.68390000  0.98766000  0.00245000  1.0 -0.2206492264
O  O1  1  0.38740000  0.68830000  0.86547000  1.0 -0.5794419784
O  O2  1  0.61260000  0.31170000  0.13453000  1.0 -0.5794419784
O  O3  1  0.52880000  0.59526000  0.88929000  1.0 -0.5794419784
O  O4  1  0.47120000  0.40474000  0.11071000  1.0 -0.5794419784
O  O5  1  0.40470000  0.82122000  0.14232000  1.0 -0.5573725838
O  O6  1  0.59530000  0.17878000  0.85768000  1.0 -0.5573725838
O  O7  1  0.55050000  0.96758000  0.14275000  1.0 -0.5794419784
O  O8  1  0.44950000  0.03242000  0.85725000  1.0 -0.5794419784
