# DDEC6 charges by PACMAN v1.1 (https://github.com/mtap-research/PACMAN-charge/)
data_IQOHON_ASR_pacman
_symmetry_space_group_name_H-M   'P 1'
_cell_length_a   15.09960000
_cell_length_b   15.09960000
_cell_length_c   30.04400000
_cell_angle_alpha   65.10940000
_cell_angle_beta   114.89100000
_cell_angle_gamma   141.60700000
_symmetry_Int_Tables_number   1
_chemical_formula_structural   CoH27C37(NO)4
_chemical_formula_sum   'Co4 H108 C148 N16 O16'
_cell_volume   3808.33501214
_cell_formula_units_Z   4
loop_
 _symmetry_equiv_pos_site_id
 _symmetry_equiv_pos_as_xyz
  1  'x, y, z'
loop_
 _atom_site_type_symbol
 _atom_site_label
 _atom_site_symmetry_multiplicity
 _atom_site_fract_x
 _atom_site_fract_y
 _atom_site_fract_z
 _atom_site_occupancy
 _atom_site_charge
Co  Co1  1  0.20952000  0.85416000  0.50202000  1.0 0.7839521264
Co  Co2  1  0.85416000  0.20952000  0.99798000  1.0 0.7839521264
Co  Co3  1  0.79048000  0.14584000  0.49798000  1.0 0.7839521264
Co  Co4  1  0.14584000  0.79048000  0.00202000  1.0 0.7839521264
H  H1  1  0.16190000  0.81310000  0.65440000  1.0 0.1200890431
H  H2  1  0.81310000  0.16190000  0.84560000  1.0 0.1200890431
H  H3  1  0.83810000  0.18690000  0.34560000  1.0 0.1200890431
H  H4  1  0.18690000  0.83810000  0.15440000  1.0 0.1200890431
H  H5  1  0.15710000  0.73390000  0.73820000  1.0 0.1293769515
H  H6  1  0.73390000  0.15710000  0.76180000  1.0 0.1293769515
H  H7  1  0.84290000  0.26610000  0.26180000  1.0 0.1293769515
H  H8  1  0.26610000  0.84290000  0.23820000  1.0 0.1293769515
H  H9  1  0.35800000  0.65160000  0.74530000  1.0 0.1200890431
H  H10  1  0.65160000  0.35800000  0.75470000  1.0 0.1200890431
H  H11  1  0.64200000  0.34840000  0.25470000  1.0 0.1200890431
H  H12  1  0.34840000  0.64200000  0.24530000  1.0 0.1200890431
H  H13  1  0.36080000  0.73000000  0.66170000  1.0 0.1200890431
H  H14  1  0.73000000  0.36080000  0.83830000  1.0 0.1200890431
H  H15  1  0.63920000  0.27000000  0.33830000  1.0 0.1200890431
H  H16  1  0.27000000  0.63920000  0.16170000  1.0 0.1200890431
H  H17  1  0.08670000  0.58370000  0.91110000  1.0 0.1200890431
H  H18  1  0.58370000  0.08670000  0.58890000  1.0 0.1200890431
H  H19  1  0.91330000  0.41630000  0.08890000  1.0 0.1200890431
H  H20  1  0.41630000  0.91330000  0.41110000  1.0 0.1200890431
H  H21  1  0.07580000  0.49560000  0.86110000  1.0 0.1200890431
H  H22  1  0.49560000  0.07580000  0.63890000  1.0 0.1200890431
H  H23  1  0.92420000  0.50440000  0.13890000  1.0 0.1200890431
H  H24  1  0.50440000  0.92420000  0.36110000  1.0 0.1200890431
H  H25  1  0.42840000  0.89740000  0.80980000  1.0 0.1200890431
H  H26  1  0.89740000  0.42840000  0.69020000  1.0 0.1200890431
H  H27  1  0.57160000  0.10260000  0.19020000  1.0 0.1200890431
H  H28  1  0.10260000  0.57160000  0.30980000  1.0 0.1200890431
H  H29  1  0.44000000  0.98480000  0.86060000  1.0 0.1093126343
H  H30  1  0.98480000  0.44000000  0.63940000  1.0 0.1093126343
H  H31  1  0.56000000  0.01520000  0.13940000  1.0 0.1093126343
H  H32  1  0.01520000  0.56000000  0.36060000  1.0 0.1093126343
H  H33  1  0.11030000  0.91750000  0.89160000  1.0 0.1093126343
H  H34  1  0.91750000  0.11030000  0.60840000  1.0 0.1093126343
H  H35  1  0.88970000  0.08250000  0.10840000  1.0 0.1093126343
H  H36  1  0.08250000  0.88970000  0.39160000  1.0 0.1093126343
H  H37  1  0.13700000  0.09900000  0.84630000  1.0 0.1293769515
H  H38  1  0.09900000  0.13700000  0.65370000  1.0 0.1293769515
H  H39  1  0.86300000  0.90100000  0.15370000  1.0 0.1293769515
H  H40  1  0.90100000  0.86300000  0.34630000  1.0 0.1293769515
H  H41  1  0.18540000  0.17040000  0.97110000  1.0 0.1293769515
H  H42  1  0.17040000  0.18540000  0.52890000  1.0 0.1293769515
H  H43  1  0.81460000  0.82960000  0.02890000  1.0 0.1293769515
H  H44  1  0.82960000  0.81460000  0.47110000  1.0 0.1293769515
H  H45  1  0.15830000  0.98590000  0.01270000  1.0 0.1093126343
H  H46  1  0.98590000  0.15830000  0.48730000  1.0 0.1093126343
H  H47  1  0.84170000  0.01410000  0.98730000  1.0 0.1093126343
H  H48  1  0.01410000  0.84170000  0.51270000  1.0 0.1093126343
H  H49  1  0.31960000  0.39680000  0.93040000  1.0 0.1093126343
H  H50  1  0.39680000  0.31960000  0.56960000  1.0 0.1093126343
H  H51  1  0.68040000  0.60320000  0.06960000  1.0 0.1093126343
H  H52  1  0.60320000  0.68040000  0.43040000  1.0 0.1093126343
H  H53  1  0.35990000  0.59170000  0.88880000  1.0 0.1200890431
H  H54  1  0.59170000  0.35990000  0.61120000  1.0 0.1200890431
H  H55  1  0.64010000  0.40830000  0.11120000  1.0 0.1200890431
H  H56  1  0.40830000  0.64010000  0.38880000  1.0 0.1200890431
H  H57  1  0.08980000  0.39400000  0.76980000  1.0 0.1293769515
H  H58  1  0.39400000  0.08980000  0.73020000  1.0 0.1293769515
H  H59  1  0.91020000  0.60600000  0.23020000  1.0 0.1293769515
H  H60  1  0.60600000  0.91020000  0.26980000  1.0 0.1293769515
H  H61  1  0.05650000  0.20470000  0.81140000  1.0 0.1200890431
H  H62  1  0.20470000  0.05650000  0.68860000  1.0 0.1200890431
H  H63  1  0.94350000  0.79530000  0.18860000  1.0 0.1200890431
H  H64  1  0.79530000  0.94350000  0.31140000  1.0 0.1200890431
H  H65  1  0.49180000  0.11900000  0.44600000  1.0 0.1293769515
H  H66  1  0.11900000  0.49180000  0.05400000  1.0 0.1293769515
H  H67  1  0.50820000  0.88100000  0.55400000  1.0 0.1293769515
H  H68  1  0.88100000  0.50820000  0.94600000  1.0 0.1293769515
H  H69  1  0.37220000  0.15120000  0.52540000  1.0 0.1200890431
H  H70  1  0.15120000  0.37220000  0.97460000  1.0 0.1200890431
H  H71  1  0.62780000  0.84880000  0.47460000  1.0 0.1200890431
H  H72  1  0.84880000  0.62780000  0.02540000  1.0 0.1200890431
H  H73  1  0.57980000  0.39500000  0.49060000  1.0 0.1200890431
H  H74  1  0.39500000  0.57980000  0.00940000  1.0 0.1200890431
H  H75  1  0.42020000  0.60500000  0.50940000  1.0 0.1200890431
H  H76  1  0.60500000  0.42020000  0.99060000  1.0 0.1200890431
H  H77  1  0.76460000  0.49800000  0.44280000  1.0 0.1293769515
H  H78  1  0.49800000  0.76460000  0.05720000  1.0 0.1293769515
H  H79  1  0.23540000  0.50200000  0.55720000  1.0 0.1293769515
H  H80  1  0.50200000  0.23540000  0.94280000  1.0 0.1293769515
H  H81  1  0.72810000  0.38570000  0.42630000  1.0 0.1464543437
H  H82  1  0.38570000  0.72810000  0.07370000  1.0 0.1464543437
H  H83  1  0.27190000  0.61430000  0.57370000  1.0 0.1464543437
H  H84  1  0.61430000  0.27190000  0.92630000  1.0 0.1464543437
H  H85  1  0.81740000  0.56200000  0.35140000  1.0 0.1200890431
H  H86  1  0.56200000  0.81740000  0.14860000  1.0 0.1200890431
H  H87  1  0.18260000  0.43800000  0.64860000  1.0 0.1200890431
H  H88  1  0.43800000  0.18260000  0.85140000  1.0 0.1200890431
H  H89  1  0.75800000  0.62680000  0.27080000  1.0 0.1200890431
H  H90  1  0.62680000  0.75800000  0.22920000  1.0 0.1200890431
H  H91  1  0.24200000  0.37320000  0.72920000  1.0 0.1200890431
H  H92  1  0.37320000  0.24200000  0.77080000  1.0 0.1200890431
H  H93  1  0.46000000  0.51140000  0.30590000  1.0 0.1093126343
H  H94  1  0.51140000  0.46000000  0.19410000  1.0 0.1093126343
H  H95  1  0.54000000  0.48860000  0.69410000  1.0 0.1093126343
H  H96  1  0.48860000  0.54000000  0.80590000  1.0 0.1093126343
H  H97  1  0.50490000  0.42750000  0.38550000  1.0 0.1036888362
H  H98  1  0.42750000  0.50490000  0.11450000  1.0 0.1036888362
H  H99  1  0.49510000  0.57250000  0.61450000  1.0 0.1036888362
H  H100  1  0.57250000  0.49510000  0.88550000  1.0 0.1036888362
H  H101  1  0.36570000  0.33570000  0.29190000  1.0 0.1036888362
H  H102  1  0.33570000  0.36570000  0.20810000  1.0 0.1036888362
H  H103  1  0.63430000  0.66430000  0.70810000  1.0 0.1036888362
H  H104  1  0.66430000  0.63430000  0.79190000  1.0 0.1036888362
H  H105  1  0.43550000  0.25990000  0.36950000  1.0 0.1093126343
H  H106  1  0.25990000  0.43550000  0.13050000  1.0 0.1093126343
H  H107  1  0.56450000  0.74010000  0.63050000  1.0 0.1093126343
H  H108  1  0.74010000  0.56450000  0.86950000  1.0 0.1093126343
C  C1  1  0.25386000  0.82054000  0.59383000  1.0 0.5218266492
C  C2  1  0.82054000  0.25386000  0.90617000  1.0 0.5218266492
C  C3  1  0.74614000  0.17946000  0.40617000  1.0 0.5218266492
C  C4  1  0.17946000  0.74614000  0.09383000  1.0 0.5218266492
C  C5  1  0.25921000  0.77699000  0.64859000  1.0 -0.036826508
C  C6  1  0.77699000  0.25921000  0.85141000  1.0 -0.036826508
C  C7  1  0.74079000  0.22301000  0.35141000  1.0 -0.036826508
C  C8  1  0.22301000  0.74079000  0.14859000  1.0 -0.036826508
C  C9  1  0.20038000  0.77902000  0.67261000  1.0 -0.0978374852
C  C10  1  0.77902000  0.20038000  0.82739000  1.0 -0.0978374852
C  C11  1  0.79962000  0.22098000  0.32739000  1.0 -0.0978374852
C  C12  1  0.22098000  0.79962000  0.17261000  1.0 -0.0978374852
C  C13  1  0.19759000  0.73181000  0.72286000  1.0 -0.19995845
C  C14  1  0.73181000  0.19759000  0.77714000  1.0 -0.19995845
C  C15  1  0.80241000  0.26819000  0.27714000  1.0 -0.19995845
C  C16  1  0.26819000  0.80241000  0.22286000  1.0 -0.19995845
C  C17  1  0.25431000  0.68149000  0.75056000  1.0 0.1794915741
C  C18  1  0.68149000  0.25431000  0.74944000  1.0 0.1794915741
C  C19  1  0.74569000  0.31851000  0.24944000  1.0 0.1794915741
C  C20  1  0.31851000  0.74569000  0.25056000  1.0 0.1794915741
C  C21  1  0.31693000  0.68287000  0.72701000  1.0 -0.19995845
C  C22  1  0.68287000  0.31693000  0.77299000  1.0 -0.19995845
C  C23  1  0.68307000  0.31713000  0.27299000  1.0 -0.19995845
C  C24  1  0.31713000  0.68307000  0.22701000  1.0 -0.19995845
C  C25  1  0.31844000  0.72996000  0.67690000  1.0 -0.0917925591
C  C26  1  0.72996000  0.31844000  0.82310000  1.0 -0.0917925591
C  C27  1  0.68156000  0.27004000  0.32310000  1.0 -0.0917925591
C  C28  1  0.27004000  0.68156000  0.17690000  1.0 -0.0917925591
C  C29  1  0.27705000  0.85035000  0.92685000  1.0 0.551255772
C  C30  1  0.85035000  0.27705000  0.57315000  1.0 0.551255772
C  C31  1  0.72295000  0.14965000  0.07315000  1.0 0.551255772
C  C32  1  0.14965000  0.72295000  0.42685000  1.0 0.551255772
C  C33  1  0.26502000  0.79278000  0.89213000  1.0 -0.0247874855
C  C34  1  0.79278000  0.26502000  0.60787000  1.0 -0.0247874855
C  C35  1  0.73498000  0.20722000  0.10787000  1.0 -0.0247874855
C  C36  1  0.20722000  0.73498000  0.39213000  1.0 -0.0247874855
C  C37  1  0.15689000  0.64751000  0.89100000  1.0 -0.083479544
C  C38  1  0.64751000  0.15689000  0.60900000  1.0 -0.083479544
C  C39  1  0.84311000  0.35249000  0.10900000  1.0 -0.083479544
C  C40  1  0.35249000  0.84311000  0.39100000  1.0 -0.083479544
C  C41  1  0.15018000  0.59462000  0.86108000  1.0 -0.1706427887
C  C42  1  0.59462000  0.15018000  0.63892000  1.0 -0.1706427887
C  C43  1  0.84982000  0.40538000  0.13892000  1.0 -0.1706427887
C  C44  1  0.40538000  0.84982000  0.36108000  1.0 -0.1706427887
C  C45  1  0.25218000  0.68622000  0.83100000  1.0 0.1609178578
C  C46  1  0.68622000  0.25218000  0.66900000  1.0 0.1609178578
C  C47  1  0.74782000  0.31378000  0.16900000  1.0 0.1609178578
C  C48  1  0.31378000  0.74782000  0.33100000  1.0 0.1609178578
C  C49  1  0.36012000  0.83368000  0.83072000  1.0 -0.1874146255
C  C50  1  0.83368000  0.36012000  0.66928000  1.0 -0.1874146255
C  C51  1  0.63988000  0.16632000  0.16928000  1.0 -0.1874146255
C  C52  1  0.16632000  0.63988000  0.33072000  1.0 -0.1874146255
C  C53  1  0.36654000  0.88566000  0.86087000  1.0 -0.0978374852
C  C54  1  0.88566000  0.36654000  0.63913000  1.0 -0.0978374852
C  C55  1  0.63346000  0.11434000  0.13913000  1.0 -0.0978374852
C  C56  1  0.11434000  0.63346000  0.36087000  1.0 -0.0978374852
C  C57  1  0.12799000  0.97081000  0.90844000  1.0 0.0808077474
C  C58  1  0.97081000  0.12799000  0.59156000  1.0 0.0808077474
C  C59  1  0.87201000  0.02919000  0.09156000  1.0 0.0808077474
C  C60  1  0.02919000  0.87201000  0.40844000  1.0 0.0808077474
C  C61  1  0.14206000  0.07914000  0.88055000  1.0 -0.19995845
C  C62  1  0.07914000  0.14206000  0.61945000  1.0 -0.19995845
C  C63  1  0.85794000  0.92086000  0.11945000  1.0 -0.19995845
C  C64  1  0.92086000  0.85794000  0.38055000  1.0 -0.19995845
C  C65  1  0.16343000  0.15757000  0.90296000  1.0 0.1093126343
C  C66  1  0.15757000  0.16343000  0.59704000  1.0 0.1093126343
C  C67  1  0.83657000  0.84243000  0.09704000  1.0 0.1093126343
C  C68  1  0.84243000  0.83657000  0.40296000  1.0 0.1093126343
C  C69  1  0.17048000  0.12072000  0.95350000  1.0 -0.2091869469
C  C70  1  0.12072000  0.17048000  0.54650000  1.0 -0.2091869469
C  C71  1  0.82952000  0.87928000  0.04650000  1.0 -0.2091869469
C  C72  1  0.87928000  0.82952000  0.45350000  1.0 -0.2091869469
C  C73  1  0.15540000  0.00980000  0.97845000  1.0 0.0734080618
C  C74  1  0.00980000  0.15540000  0.52155000  1.0 0.0734080618
C  C75  1  0.84460000  0.99020000  0.02155000  1.0 0.0734080618
C  C76  1  0.99020000  0.84460000  0.47845000  1.0 0.0734080618
C  C77  1  0.18388000  0.27892000  0.87510000  1.0 0.0563773831
C  C78  1  0.27892000  0.18388000  0.62490000  1.0 0.0563773831
C  C79  1  0.81612000  0.72108000  0.12490000  1.0 0.0563773831
C  C80  1  0.72108000  0.81612000  0.37510000  1.0 0.0563773831
C  C81  1  0.27378000  0.39622000  0.89782000  1.0 -0.1463986541
C  C82  1  0.39622000  0.27378000  0.60218000  1.0 -0.1463986541
C  C83  1  0.72622000  0.60378000  0.10218000  1.0 -0.1463986541
C  C84  1  0.60378000  0.72622000  0.39782000  1.0 -0.1463986541
C  C85  1  0.29703000  0.51277000  0.87310000  1.0 -0.17916066
C  C86  1  0.51277000  0.29703000  0.62690000  1.0 -0.17916066
C  C87  1  0.70297000  0.48723000  0.12690000  1.0 -0.17916066
C  C88  1  0.48723000  0.70297000  0.37310000  1.0 -0.17916066
C  C89  1  0.22651000  0.51149000  0.82505000  1.0 0.1716674512
C  C90  1  0.51149000  0.22651000  0.67495000  1.0 0.1716674512
C  C91  1  0.77349000  0.48851000  0.17495000  1.0 0.1716674512
C  C92  1  0.48851000  0.77349000  0.32505000  1.0 0.1716674512
C  C93  1  0.13712000  0.39588000  0.80223000  1.0 -0.1706427887
C  C94  1  0.39588000  0.13712000  0.69777000  1.0 -0.1706427887
C  C95  1  0.86288000  0.60412000  0.19777000  1.0 -0.1706427887
C  C96  1  0.60412000  0.86288000  0.30223000  1.0 -0.1706427887
C  C97  1  0.11754000  0.28226000  0.82748000  1.0 -0.1401096488
C  C98  1  0.28226000  0.11754000  0.67252000  1.0 -0.1401096488
C  C99  1  0.88246000  0.71774000  0.17252000  1.0 -0.1401096488
C  C100  1  0.71774000  0.88246000  0.32748000  1.0 -0.1401096488
C  C101  1  0.48693000  0.15667000  0.46160000  1.0 0.1293769515
C  C102  1  0.15667000  0.48693000  0.03840000  1.0 0.1293769515
C  C103  1  0.51307000  0.84333000  0.53840000  1.0 0.1293769515
C  C104  1  0.84333000  0.51307000  0.96160000  1.0 0.1293769515
C  C105  1  0.42249000  0.17511000  0.50481000  1.0 -0.0473772258
C  C106  1  0.17511000  0.42249000  0.99519000  1.0 -0.0473772258
C  C107  1  0.57751000  0.82489000  0.49519000  1.0 -0.0473772258
C  C108  1  0.82489000  0.57751000  0.00481000  1.0 -0.0473772258
C  C109  1  0.53691000  0.30989000  0.48579000  1.0 -0.1236291061
C  C110  1  0.30989000  0.53691000  0.01421000  1.0 -0.1236291061
C  C111  1  0.46309000  0.69011000  0.51421000  1.0 -0.1236291061
C  C112  1  0.69011000  0.46309000  0.98579000  1.0 -0.1236291061
C  C113  1  0.68785000  0.41295000  0.42677000  1.0 -0.1874146255
C  C114  1  0.41295000  0.68785000  0.07323000  1.0 -0.1874146255
C  C115  1  0.31215000  0.58705000  0.57323000  1.0 -0.1874146255
C  C116  1  0.58705000  0.31215000  0.92677000  1.0 -0.1874146255
C  C117  1  0.64985000  0.45575000  0.37513000  1.0 0.087062562
C  C118  1  0.45575000  0.64985000  0.12487000  1.0 0.087062562
C  C119  1  0.35015000  0.54425000  0.62487000  1.0 0.087062562
C  C120  1  0.54425000  0.35015000  0.87513000  1.0 0.087062562
C  C121  1  0.73100000  0.53240000  0.34193000  1.0 -0.1874146255
C  C122  1  0.53240000  0.73100000  0.15807000  1.0 -0.1874146255
C  C123  1  0.26900000  0.46760000  0.65807000  1.0 -0.1874146255
C  C124  1  0.46760000  0.26900000  0.84193000  1.0 -0.1874146255
C  C125  1  0.69510000  0.57250000  0.29288000  1.0 -0.19995845
C  C126  1  0.57250000  0.69510000  0.20712000  1.0 -0.19995845
C  C127  1  0.30490000  0.42750000  0.70712000  1.0 -0.19995845
C  C128  1  0.42750000  0.30490000  0.79288000  1.0 -0.19995845
C  C129  1  0.57706000  0.53754000  0.27636000  1.0 0.0468603262
C  C130  1  0.53754000  0.57706000  0.22364000  1.0 0.0468603262
C  C131  1  0.42294000  0.46246000  0.72364000  1.0 0.0468603262
C  C132  1  0.46246000  0.42294000  0.77636000  1.0 0.0468603262
C  C133  1  0.52010000  0.50350000  0.31340000  1.0 -0.0978374852
C  C134  1  0.50350000  0.52010000  0.18660000  1.0 -0.0978374852
C  C135  1  0.47990000  0.49650000  0.68660000  1.0 -0.0978374852
C  C136  1  0.49650000  0.47990000  0.81340000  1.0 -0.0978374852
C  C137  1  0.55110000  0.45790000  0.36140000  1.0 -0.0717737059
C  C138  1  0.45790000  0.55110000  0.13860000  1.0 -0.0717737059
C  C139  1  0.44890000  0.54210000  0.63860000  1.0 -0.0717737059
C  C140  1  0.54210000  0.44890000  0.86140000  1.0 -0.0717737059
C  C141  1  0.46290000  0.39530000  0.30550000  1.0 -0.036826508
C  C142  1  0.39530000  0.46290000  0.19450000  1.0 -0.036826508
C  C143  1  0.53710000  0.60470000  0.69450000  1.0 -0.036826508
C  C144  1  0.60470000  0.53710000  0.80550000  1.0 -0.036826508
C  C145  1  0.50330000  0.35350000  0.35270000  1.0 -0.1058098728
C  C146  1  0.35350000  0.50330000  0.14730000  1.0 -0.1058098728
C  C147  1  0.49670000  0.64650000  0.64730000  1.0 -0.1058098728
C  C148  1  0.64650000  0.49670000  0.85270000  1.0 -0.1058098728
N  N1  1  0.39030000  0.07750000  0.48948000  1.0 -0.3031808491
N  N2  1  0.07750000  0.39030000  0.01052000  1.0 -0.3031808491
N  N3  1  0.60970000  0.92250000  0.51052000  1.0 -0.3031808491
N  N4  1  0.92250000  0.60970000  0.98948000  1.0 -0.3031808491
N  N5  1  0.57801000  0.29799000  0.45811000  1.0 0.0416465422
N  N6  1  0.29799000  0.57801000  0.04189000  1.0 0.0416465422
N  N7  1  0.42199000  0.70201000  0.54189000  1.0 0.0416465422
N  N8  1  0.70201000  0.42199000  0.95811000  1.0 0.0416465422
N  N9  1  0.13750000  0.93630000  0.95684000  1.0 -0.2281674574
N  N10  1  0.93630000  0.13750000  0.54316000  1.0 -0.2281674574
N  N11  1  0.86250000  0.06370000  0.04316000  1.0 -0.2281674574
N  N12  1  0.06370000  0.86250000  0.45684000  1.0 -0.2281674574
N  N13  1  0.24762000  0.62878000  0.80171000  1.0 -0.1706427887
N  N14  1  0.62878000  0.24762000  0.69829000  1.0 -0.1706427887
N  N15  1  0.75238000  0.37122000  0.19829000  1.0 -0.1706427887
N  N16  1  0.37122000  0.75238000  0.30171000  1.0 -0.1706427887
O  O1  1  0.19962000  0.86358000  0.56945000  1.0 -0.5454907323
O  O2  1  0.86358000  0.19962000  0.93055000  1.0 -0.5454907323
O  O3  1  0.80038000  0.13642000  0.43055000  1.0 -0.5454907323
O  O4  1  0.13642000  0.80038000  0.06945000  1.0 -0.5454907323
O  O5  1  0.30069000  0.80931000  0.57266000  1.0 -0.527378803
O  O6  1  0.80931000  0.30069000  0.92734000  1.0 -0.527378803
O  O7  1  0.69931000  0.19069000  0.42734000  1.0 -0.527378803
O  O8  1  0.19069000  0.69931000  0.07266000  1.0 -0.527378803
O  O9  1  0.38987000  0.98013000  0.93173000  1.0 -0.5695673729
O  O10  1  0.98013000  0.38987000  0.56827000  1.0 -0.5695673729
O  O11  1  0.61013000  0.01987000  0.06827000  1.0 -0.5695673729
O  O12  1  0.01987000  0.61013000  0.43173000  1.0 -0.5695673729
O  O13  1  0.17029000  0.76271000  0.94897000  1.0 -0.582539549
O  O14  1  0.76271000  0.17029000  0.55103000  1.0 -0.582539549
O  O15  1  0.82971000  0.23729000  0.05103000  1.0 -0.582539549
O  O16  1  0.23729000  0.82971000  0.44897000  1.0 -0.582539549
