# DDEC6 charges by PACMAN v1.1 (https://github.com/mtap-research/PACMAN-charge/)
data_IQUQES_FSR_pacman
_symmetry_space_group_name_H-M   'P 1'
_cell_length_a   18.40350000
_cell_length_b   18.40350000
_cell_length_c   8.16400000
_cell_angle_alpha   78.46980000
_cell_angle_beta   101.53000000
_cell_angle_gamma   155.31100000
_symmetry_Int_Tables_number   1
_chemical_formula_structural   CoH14C22O13
_chemical_formula_sum   'Co2 H28 C44 O26'
_cell_volume   1130.50803891
_cell_formula_units_Z   2
loop_
 _symmetry_equiv_pos_site_id
 _symmetry_equiv_pos_as_xyz
  1  'x, y, z'
loop_
 _atom_site_type_symbol
 _atom_site_label
 _atom_site_symmetry_multiplicity
 _atom_site_fract_x
 _atom_site_fract_y
 _atom_site_fract_z
 _atom_site_occupancy
 _atom_site_charge
Co  Co1  1  0.00000000  0.00000000  0.00000000  1.0 1.2120578847
Co  Co2  1  0.00000000  0.00000000  0.50000000  1.0 1.2120578847
H  H1  1  0.45690000  0.24150000  0.37560000  1.0 0.3562436066
H  H2  1  0.24150000  0.45690000  0.12440000  1.0 0.3562436066
H  H3  1  0.54310000  0.75850000  0.62440000  1.0 0.3562436066
H  H4  1  0.75850000  0.54310000  0.87560000  1.0 0.3562436066
H  H5  1  0.79660000  0.88200000  0.14780000  1.0 0.3696072362
H  H6  1  0.88200000  0.79660000  0.35220000  1.0 0.3696072362
H  H7  1  0.20340000  0.11800000  0.85220000  1.0 0.3696072362
H  H8  1  0.11800000  0.20340000  0.64780000  1.0 0.3696072362
H  H9  1  0.19900000  0.95420000  0.10450000  1.0 0.1633677817
H  H10  1  0.95420000  0.19900000  0.39550000  1.0 0.1633677817
H  H11  1  0.80100000  0.04580000  0.89550000  1.0 0.1633677817
H  H12  1  0.04580000  0.80100000  0.60450000  1.0 0.1633677817
H  H13  1  0.08750000  0.67210000  0.44830000  1.0 0.1403619199
H  H14  1  0.67210000  0.08750000  0.05170000  1.0 0.1403619199
H  H15  1  0.91250000  0.32790000  0.55170000  1.0 0.1403619199
H  H16  1  0.32790000  0.91250000  0.94830000  1.0 0.1403619199
H  H17  1  0.80420000  0.45540000  0.44250000  1.0 0.1214618757
H  H18  1  0.45540000  0.80420000  0.05750000  1.0 0.1214618757
H  H19  1  0.19580000  0.54460000  0.55750000  1.0 0.1214618757
H  H20  1  0.54460000  0.19580000  0.94250000  1.0 0.1214618757
H  H21  1  0.49760000  0.11740000  0.54550000  1.0 0.1481822169
H  H22  1  0.11740000  0.49760000  0.95450000  1.0 0.1481822169
H  H23  1  0.50240000  0.88260000  0.45450000  1.0 0.1481822169
H  H24  1  0.88260000  0.50240000  0.04550000  1.0 0.1481822169
H  H25  1  0.35060000  0.83680000  0.26870000  1.0 0.1481822169
H  H26  1  0.83680000  0.35060000  0.23130000  1.0 0.1481822169
H  H27  1  0.64940000  0.16320000  0.73130000  1.0 0.1481822169
H  H28  1  0.16320000  0.64940000  0.76870000  1.0 0.1481822169
C  C1  1  0.94855000  0.72285000  0.16690000  1.0 0.014327919
C  C2  1  0.72285000  0.94855000  0.33310000  1.0 0.014327919
C  C3  1  0.05145000  0.27715000  0.83310000  1.0 0.014327919
C  C4  1  0.27715000  0.05145000  0.66690000  1.0 0.014327919
C  C5  1  0.82667000  0.56993000  0.26780000  1.0 -0.0857419708
C  C6  1  0.56993000  0.82667000  0.23220000  1.0 -0.0857419708
C  C7  1  0.17333000  0.43007000  0.73220000  1.0 -0.0857419708
C  C8  1  0.43007000  0.17333000  0.76780000  1.0 -0.0857419708
C  C9  1  0.90440000  0.75640000  0.05210000  1.0 0.5651858411
C  C10  1  0.75640000  0.90440000  0.44790000  1.0 0.5651858411
C  C11  1  0.09560000  0.24360000  0.94790000  1.0 0.5651858411
C  C12  1  0.24360000  0.09560000  0.55210000  1.0 0.5651858411
C  C13  1  0.16964000  0.83296000  0.27640000  1.0 0.2672301791
C  C14  1  0.83296000  0.16964000  0.22360000  1.0 0.2672301791
C  C15  1  0.83036000  0.16704000  0.72360000  1.0 0.2672301791
C  C16  1  0.16704000  0.83036000  0.77640000  1.0 0.2672301791
C  C17  1  0.11840000  0.85300000  0.17140000  1.0 -0.2064571791
C  C18  1  0.85300000  0.11840000  0.32860000  1.0 -0.2064571791
C  C19  1  0.88160000  0.14700000  0.82860000  1.0 -0.2064571791
C  C20  1  0.14700000  0.88160000  0.67140000  1.0 -0.2064571791
C  C21  1  0.05242000  0.68438000  0.37800000  1.0 -0.2298492976
C  C22  1  0.68438000  0.05242000  0.12200000  1.0 -0.2298492976
C  C23  1  0.94758000  0.31562000  0.62200000  1.0 -0.2298492976
C  C24  1  0.31562000  0.94758000  0.87800000  1.0 -0.2298492976
C  C25  1  0.88324000  0.55516000  0.37360000  1.0 -0.063234523
C  C26  1  0.55516000  0.88324000  0.12640000  1.0 -0.063234523
C  C27  1  0.11676000  0.44484000  0.62640000  1.0 -0.063234523
C  C28  1  0.44484000  0.11676000  0.87360000  1.0 -0.063234523
C  C29  1  0.64473000  0.43107000  0.26090000  1.0 0.5474396906
C  C30  1  0.43107000  0.64473000  0.23910000  1.0 0.5474396906
C  C31  1  0.35527000  0.56893000  0.73910000  1.0 0.5474396906
C  C32  1  0.56893000  0.35527000  0.76090000  1.0 0.5474396906
C  C33  1  0.41516000  0.97824000  0.38990000  1.0 0.2279219142
C  C34  1  0.97824000  0.41516000  0.11010000  1.0 0.2279219142
C  C35  1  0.58484000  0.02176000  0.61010000  1.0 0.2279219142
C  C36  1  0.02176000  0.58484000  0.88990000  1.0 0.2279219142
C  C37  1  0.49958000  0.07102000  0.52680000  1.0 -0.1682901346
C  C38  1  0.07102000  0.49958000  0.97320000  1.0 -0.1682901346
C  C39  1  0.50042000  0.92898000  0.47320000  1.0 -0.1682901346
C  C40  1  0.92898000  0.50042000  0.02680000  1.0 -0.1682901346
C  C41  1  0.41177000  0.90323000  0.36150000  1.0 -0.1800024547
C  C42  1  0.90323000  0.41177000  0.13850000  1.0 -0.1800024547
C  C43  1  0.58823000  0.09677000  0.63850000  1.0 -0.1800024547
C  C44  1  0.09677000  0.58823000  0.86150000  1.0 -0.1800024547
O  O1  1  0.87228000  0.72892000  0.90280000  1.0 -0.4131630399
O  O2  1  0.72892000  0.87228000  0.59720000  1.0 -0.4131630399
O  O3  1  0.12772000  0.27108000  0.09720000  1.0 -0.4131630399
O  O4  1  0.27108000  0.12772000  0.40280000  1.0 -0.4131630399
O  O5  1  0.91698000  0.82402000  0.11860000  1.0 -0.5007315763
O  O6  1  0.82402000  0.91698000  0.38140000  1.0 -0.5007315763
O  O7  1  0.08302000  0.17598000  0.88140000  1.0 -0.5007315763
O  O8  1  0.17598000  0.08302000  0.61860000  1.0 -0.5007315763
O  O9  1  0.88380000  0.88380000  0.75000000  1.0 -0.2721594759
O  O10  1  0.11620000  0.11620000  0.25000000  1.0 -0.2721594759
O  O11  1  0.54310000  0.29610000  0.36050000  1.0 -0.4495730587
O  O12  1  0.29610000  0.54310000  0.13950000  1.0 -0.4495730587
O  O13  1  0.45690000  0.70390000  0.63950000  1.0 -0.4495730587
O  O14  1  0.70390000  0.45690000  0.86050000  1.0 -0.4495730587
O  O15  1  0.34025000  0.96795000  0.26890000  1.0 -0.2064571791
O  O16  1  0.96795000  0.34025000  0.23110000  1.0 -0.2064571791
O  O17  1  0.65975000  0.03205000  0.73110000  1.0 -0.2064571791
O  O18  1  0.03205000  0.65975000  0.76890000  1.0 -0.2064571791
O  O19  1  0.77765000  0.85055000  0.05980000  1.0 -0.686565254
O  O20  1  0.85055000  0.77765000  0.44020000  1.0 -0.686565254
O  O21  1  0.22235000  0.14945000  0.94020000  1.0 -0.686565254
O  O22  1  0.14945000  0.22235000  0.55980000  1.0 -0.686565254
O  O23  1  0.59256000  0.43924000  0.16650000  1.0 -0.3493959345
O  O24  1  0.43924000  0.59256000  0.33350000  1.0 -0.3493959345
O  O25  1  0.40744000  0.56076000  0.83350000  1.0 -0.3493959345
O  O26  1  0.56076000  0.40744000  0.66650000  1.0 -0.3493959345
