# DDEC6 charges by PACMAN v1.1 (https://github.com/mtap-research/PACMAN-charge/)
data_IRAHUF_FSR_pacman
_symmetry_space_group_name_H-M   'P 1'
_cell_length_a   10.13570000
_cell_length_b   15.85000000
_cell_length_c   18.50600000
_cell_angle_alpha   90.00000000
_cell_angle_beta   90.00000000
_cell_angle_gamma   90.00000000
_symmetry_Int_Tables_number   1
_chemical_formula_structural   Ga3P3(O6F)2
_chemical_formula_sum   'Ga24 P24 O96 F16'
_cell_volume   2973.00453757
_cell_formula_units_Z   8
loop_
 _symmetry_equiv_pos_site_id
 _symmetry_equiv_pos_as_xyz
  1  'x, y, z'
loop_
 _atom_site_type_symbol
 _atom_site_label
 _atom_site_symmetry_multiplicity
 _atom_site_fract_x
 _atom_site_fract_y
 _atom_site_fract_z
 _atom_site_occupancy
 _atom_site_charge
Ga  Ga1  1  0.16565000  0.85019000  0.17455000  1.0 1.5383723835
Ga  Ga2  1  0.83435000  0.64981000  0.67455000  1.0 1.5383723835
Ga  Ga3  1  0.33435000  0.35019000  0.82545000  1.0 1.5383723835
Ga  Ga4  1  0.66565000  0.14981000  0.32545000  1.0 1.5320588376
Ga  Ga5  1  0.83435000  0.14981000  0.82545000  1.0 1.5320588376
Ga  Ga6  1  0.16565000  0.35019000  0.32545000  1.0 1.5383723835
Ga  Ga7  1  0.66565000  0.64981000  0.17455000  1.0 1.5383723835
Ga  Ga8  1  0.33435000  0.85019000  0.67455000  1.0 1.5383723835
Ga  Ga9  1  0.31505000  0.04125000  0.21800000  1.0 1.4512247469
Ga  Ga10  1  0.68495000  0.45875000  0.71800000  1.0 1.4512247469
Ga  Ga11  1  0.18495000  0.54125000  0.78200000  1.0 1.4512247469
Ga  Ga12  1  0.81505000  0.95875000  0.28200000  1.0 1.4512247469
Ga  Ga13  1  0.68495000  0.95875000  0.78200000  1.0 1.4512247469
Ga  Ga14  1  0.31505000  0.54125000  0.28200000  1.0 1.4512247469
Ga  Ga15  1  0.81505000  0.45875000  0.21800000  1.0 1.4512247469
Ga  Ga16  1  0.18495000  0.04125000  0.71800000  1.0 1.4512247469
Ga  Ga17  1  0.34681000  0.00855000  0.40553000  1.0 1.4972245024
Ga  Ga18  1  0.65319000  0.49145000  0.90553000  1.0 1.4972245024
Ga  Ga19  1  0.15319000  0.50855000  0.59447000  1.0 1.4972245024
Ga  Ga20  1  0.84681000  0.99145000  0.09447000  1.0 1.4972245024
Ga  Ga21  1  0.65319000  0.99145000  0.59447000  1.0 1.4972245024
Ga  Ga22  1  0.34681000  0.50855000  0.09447000  1.0 1.4944907751
Ga  Ga23  1  0.84681000  0.49145000  0.40553000  1.0 1.4944907751
Ga  Ga24  1  0.15319000  0.00855000  0.90553000  1.0 1.4972245024
P  P1  1  0.35009000  0.68552000  0.16751000  1.0 1.5598414268
P  P2  1  0.64991000  0.81448000  0.66751000  1.0 1.5598414268
P  P3  1  0.14991000  0.18552000  0.83249000  1.0 1.5598414268
P  P4  1  0.85009000  0.31448000  0.33249000  1.0 1.5598414268
P  P5  1  0.64991000  0.31448000  0.83249000  1.0 1.5598414268
P  P6  1  0.35009000  0.18552000  0.33249000  1.0 1.5598414268
P  P7  1  0.85009000  0.81448000  0.16751000  1.0 1.5598414268
P  P8  1  0.14991000  0.68552000  0.66751000  1.0 1.5598414268
P  P9  1  0.13661000  0.01529000  0.07801000  1.0 1.5458939399
P  P10  1  0.86339000  0.48471000  0.57801000  1.0 1.5383723835
P  P11  1  0.36339000  0.51529000  0.92199000  1.0 1.5383723835
P  P12  1  0.63661000  0.98471000  0.42199000  1.0 1.5383723835
P  P13  1  0.86339000  0.98471000  0.92199000  1.0 1.5383723835
P  P14  1  0.13661000  0.51529000  0.42199000  1.0 1.5383723835
P  P15  1  0.63661000  0.48471000  0.07801000  1.0 1.5383723835
P  P16  1  0.36339000  0.01529000  0.57801000  1.0 1.5458939399
P  P17  1  0.12125000  0.93733000  0.31458000  1.0 1.5383723835
P  P18  1  0.87875000  0.56267000  0.81458000  1.0 1.5383723835
P  P19  1  0.37875000  0.43733000  0.68542000  1.0 1.5383723835
P  P20  1  0.62125000  0.06267000  0.18542000  1.0 1.5320588376
P  P21  1  0.87875000  0.06267000  0.68542000  1.0 1.5320588376
P  P22  1  0.12125000  0.43733000  0.18542000  1.0 1.5383723835
P  P23  1  0.62125000  0.56267000  0.31458000  1.0 1.5383723835
P  P24  1  0.37875000  0.93733000  0.81458000  1.0 1.5383723835
O  O1  1  0.27330000  0.76485000  0.14587000  1.0 -0.6408099134
O  O2  1  0.72670000  0.73515000  0.64587000  1.0 -0.6408099134
O  O3  1  0.22670000  0.26485000  0.85413000  1.0 -0.6408099134
O  O4  1  0.77330000  0.23515000  0.35413000  1.0 -0.6408099134
O  O5  1  0.72670000  0.23515000  0.85413000  1.0 -0.6408099134
O  O6  1  0.27330000  0.26485000  0.35413000  1.0 -0.6408099134
O  O7  1  0.77330000  0.73515000  0.14587000  1.0 -0.6408099134
O  O8  1  0.22670000  0.76485000  0.64587000  1.0 -0.6408099134
O  O9  1  0.12260000  0.92275000  0.09998000  1.0 -0.7518956039
O  O10  1  0.87740000  0.57725000  0.59998000  1.0 -0.7518956039
O  O11  1  0.37740000  0.42275000  0.90002000  1.0 -0.7518956039
O  O12  1  0.62260000  0.07725000  0.40002000  1.0 -0.7518956039
O  O13  1  0.87740000  0.07725000  0.90002000  1.0 -0.7518956039
O  O14  1  0.12260000  0.42275000  0.40002000  1.0 -0.7518956039
O  O15  1  0.62260000  0.57725000  0.09998000  1.0 -0.7518956039
O  O16  1  0.37740000  0.92275000  0.59998000  1.0 -0.7518956039
O  O17  1  0.15350000  0.85406000  0.27537000  1.0 -0.7017055941
O  O18  1  0.84650000  0.64594000  0.77537000  1.0 -0.7017055941
O  O19  1  0.34650000  0.35406000  0.72463000  1.0 -0.7017055941
O  O20  1  0.65350000  0.14594000  0.22463000  1.0 -0.7017055941
O  O21  1  0.84650000  0.14594000  0.72463000  1.0 -0.7017055941
O  O22  1  0.15350000  0.35406000  0.22463000  1.0 -0.7017055941
O  O23  1  0.65350000  0.64594000  0.27537000  1.0 -0.7017055941
O  O24  1  0.34650000  0.85406000  0.77537000  1.0 -0.7017055941
O  O25  1  0.49750000  0.70740000  0.16684000  1.0 -0.681409712
O  O26  1  0.50250000  0.79260000  0.66684000  1.0 -0.681409712
O  O27  1  0.00250000  0.20740000  0.83316000  1.0 -0.681409712
O  O28  1  0.99750000  0.29260000  0.33316000  1.0 -0.681409712
O  O29  1  0.50250000  0.29260000  0.83316000  1.0 -0.681409712
O  O30  1  0.49750000  0.20740000  0.33316000  1.0 -0.681409712
O  O31  1  0.99750000  0.79260000  0.16684000  1.0 -0.681409712
O  O32  1  0.00250000  0.70740000  0.66684000  1.0 -0.681409712
O  O33  1  0.15180000  0.01270000  0.26666000  1.0 -0.7017055941
O  O34  1  0.84820000  0.48730000  0.76666000  1.0 -0.7017055941
O  O35  1  0.34820000  0.51270000  0.73334000  1.0 -0.7017055941
O  O36  1  0.65180000  0.98730000  0.23334000  1.0 -0.7017055941
O  O37  1  0.84820000  0.98730000  0.73334000  1.0 -0.7017055941
O  O38  1  0.15180000  0.51270000  0.23334000  1.0 -0.7017055941
O  O39  1  0.65180000  0.48730000  0.26666000  1.0 -0.7017055941
O  O40  1  0.34820000  0.01270000  0.76666000  1.0 -0.7017055941
O  O41  1  0.97530000  0.93650000  0.33631000  1.0 -0.6690846134
O  O42  1  0.02470000  0.56350000  0.83631000  1.0 -0.6690846134
O  O43  1  0.52470000  0.43650000  0.66369000  1.0 -0.6690846134
O  O44  1  0.47530000  0.06350000  0.16369000  1.0 -0.6690846134
O  O45  1  0.02470000  0.06350000  0.66369000  1.0 -0.6690846134
O  O46  1  0.97530000  0.43650000  0.16369000  1.0 -0.6690846134
O  O47  1  0.47530000  0.56350000  0.33631000  1.0 -0.6690846134
O  O48  1  0.52470000  0.93650000  0.83631000  1.0 -0.6690846134
O  O49  1  0.30680000  0.65500000  0.24227000  1.0 -0.716423494
O  O50  1  0.69320000  0.84500000  0.74227000  1.0 -0.716423494
O  O51  1  0.19320000  0.15500000  0.75773000  1.0 -0.7112707271
O  O52  1  0.80680000  0.34500000  0.25773000  1.0 -0.7112707271
O  O53  1  0.69320000  0.34500000  0.75773000  1.0 -0.7112707271
O  O54  1  0.30680000  0.15500000  0.25773000  1.0 -0.7112707271
O  O55  1  0.80680000  0.84500000  0.24227000  1.0 -0.716423494
O  O56  1  0.19320000  0.65500000  0.74227000  1.0 -0.716423494
O  O57  1  0.21350000  0.06959000  0.13213000  1.0 -0.6568438161
O  O58  1  0.78650000  0.43041000  0.63213000  1.0 -0.6568438161
O  O59  1  0.28650000  0.56959000  0.86787000  1.0 -0.6568438161
O  O60  1  0.71350000  0.93041000  0.36787000  1.0 -0.6568438161
O  O61  1  0.78650000  0.93041000  0.86787000  1.0 -0.6568438161
O  O62  1  0.21350000  0.56959000  0.36787000  1.0 -0.6568438161
O  O63  1  0.71350000  0.43041000  0.13213000  1.0 -0.6568438161
O  O64  1  0.28650000  0.06959000  0.63213000  1.0 -0.6568438161
O  O65  1  0.31610000  0.62155000  0.10770000  1.0 -0.7017055941
O  O66  1  0.68390000  0.87845000  0.60770000  1.0 -0.7112707271
O  O67  1  0.18390000  0.12155000  0.89230000  1.0 -0.7017055941
O  O68  1  0.81610000  0.37845000  0.39230000  1.0 -0.7017055941
O  O69  1  0.68390000  0.37845000  0.89230000  1.0 -0.7017055941
O  O70  1  0.31610000  0.12155000  0.39230000  1.0 -0.7017055941
O  O71  1  0.81610000  0.87845000  0.10770000  1.0 -0.7112707271
O  O72  1  0.18390000  0.62155000  0.60770000  1.0 -0.7017055941
O  O73  1  0.99670000  0.05238000  0.07110000  1.0 -0.681409712
O  O74  1  0.00330000  0.44762000  0.57110000  1.0 -0.681409712
O  O75  1  0.50330000  0.55238000  0.92890000  1.0 -0.681409712
O  O76  1  0.49670000  0.94762000  0.42890000  1.0 -0.681409712
O  O77  1  0.00330000  0.94762000  0.92890000  1.0 -0.681409712
O  O78  1  0.99670000  0.55238000  0.42890000  1.0 -0.681409712
O  O79  1  0.49670000  0.44762000  0.07110000  1.0 -0.681409712
O  O80  1  0.50330000  0.05238000  0.57110000  1.0 -0.685403255
O  O81  1  0.20270000  0.93912000  0.38532000  1.0 -0.6690846134
O  O82  1  0.79730000  0.56088000  0.88532000  1.0 -0.6690846134
O  O83  1  0.29730000  0.43912000  0.61468000  1.0 -0.6690846134
O  O84  1  0.70270000  0.06088000  0.11468000  1.0 -0.6690846134
O  O85  1  0.79730000  0.06088000  0.61468000  1.0 -0.6690846134
O  O86  1  0.20270000  0.43912000  0.11468000  1.0 -0.6690846134
O  O87  1  0.70270000  0.56088000  0.38532000  1.0 -0.6690846134
O  O88  1  0.29730000  0.93912000  0.88532000  1.0 -0.6690846134
O  O89  1  0.20640000  0.02120000  0.00518000  1.0 -0.6476721142
O  O90  1  0.79360000  0.47880000  0.50518000  1.0 -0.6476721142
O  O91  1  0.29360000  0.52120000  0.99482000  1.0 -0.6476721142
O  O92  1  0.70640000  0.97880000  0.49482000  1.0 -0.6476721142
O  O93  1  0.79360000  0.97880000  0.99482000  1.0 -0.6476721142
O  O94  1  0.20640000  0.52120000  0.49482000  1.0 -0.6476721142
O  O95  1  0.70640000  0.47880000  0.00518000  1.0 -0.6476721142
O  O96  1  0.29360000  0.02120000  0.50518000  1.0 -0.6476721142
F  F1  1  0.32700000  0.92364000  0.18639000  1.0 -0.4327812988
F  F2  1  0.67300000  0.57636000  0.68639000  1.0 -0.4327812988
F  F3  1  0.17300000  0.42364000  0.81361000  1.0 -0.4327812988
F  F4  1  0.82700000  0.07636000  0.31361000  1.0 -0.4327812988
F  F5  1  0.67300000  0.07636000  0.81361000  1.0 -0.4327812988
F  F6  1  0.32700000  0.42364000  0.31361000  1.0 -0.4327812988
F  F7  1  0.82700000  0.57636000  0.18639000  1.0 -0.4327812988
F  F8  1  0.17300000  0.92364000  0.68639000  1.0 -0.4327812988
F  F9  1  0.40820000  0.00294000  0.30334000  1.0 -0.4686022449
F  F10  1  0.59180000  0.49706000  0.80334000  1.0 -0.4686022449
F  F11  1  0.09180000  0.50294000  0.69666000  1.0 -0.4686022449
F  F12  1  0.90820000  0.99706000  0.19666000  1.0 -0.4686022449
F  F13  1  0.59180000  0.99706000  0.69666000  1.0 -0.4686022449
F  F14  1  0.40820000  0.50294000  0.19666000  1.0 -0.4686022449
F  F15  1  0.90820000  0.49706000  0.30334000  1.0 -0.4686022449
F  F16  1  0.09180000  0.00294000  0.80334000  1.0 -0.4686022449
