# DDEC6 charges by PACMAN v1.1 (https://github.com/mtap-research/PACMAN-charge/)
data_IRAJAN_ASR_pacman
_symmetry_space_group_name_H-M   'P 1'
_cell_length_a   8.65030000
_cell_length_b   10.18710000
_cell_length_c   18.36360000
_cell_angle_alpha   90.00000000
_cell_angle_beta   113.31300000
_cell_angle_gamma   90.00000000
_symmetry_Int_Tables_number   1
_chemical_formula_structural   Ga3P3N(O6F)2
_chemical_formula_sum   'Ga12 P12 N4 O48 F8'
_cell_volume   1486.10987472
_cell_formula_units_Z   4
loop_
 _symmetry_equiv_pos_site_id
 _symmetry_equiv_pos_as_xyz
  1  'x, y, z'
loop_
 _atom_site_type_symbol
 _atom_site_label
 _atom_site_symmetry_multiplicity
 _atom_site_fract_x
 _atom_site_fract_y
 _atom_site_fract_z
 _atom_site_occupancy
 _atom_site_charge
Ga  Ga1  1  0.56615000  0.82679000  0.79826000  1.0 1.4768191246
Ga  Ga2  1  0.43385000  0.32679000  0.70174000  1.0 1.4768191246
Ga  Ga3  1  0.43385000  0.17321000  0.20174000  1.0 1.4768191246
Ga  Ga4  1  0.56615000  0.67321000  0.29826000  1.0 1.4737087158
Ga  Ga5  1  0.51342000  0.85117000  0.59704000  1.0 1.4274286298
Ga  Ga6  1  0.48658000  0.35117000  0.90296000  1.0 1.4274286298
Ga  Ga7  1  0.48658000  0.14883000  0.40296000  1.0 1.4274286298
Ga  Ga8  1  0.51342000  0.64883000  0.09704000  1.0 1.4274286298
Ga  Ga9  1  0.19270000  0.65885000  0.76886000  1.0 1.558506575
Ga  Ga10  1  0.80730000  0.15885000  0.73114000  1.0 1.558506575
Ga  Ga11  1  0.80730000  0.34115000  0.23114000  1.0 1.548875275
Ga  Ga12  1  0.19270000  0.84115000  0.26886000  1.0 1.558506575
P  P1  1  0.86495000  0.85223000  0.74123000  1.0 1.548875275
P  P2  1  0.13505000  0.35223000  0.75877000  1.0 1.548875275
P  P3  1  0.13505000  0.14777000  0.25877000  1.0 1.548875275
P  P4  1  0.86495000  0.64777000  0.24123000  1.0 1.548875275
P  P5  1  0.61436000  0.12408000  0.83632000  1.0 1.5143713919
P  P6  1  0.38564000  0.62408000  0.66368000  1.0 1.5143713919
P  P7  1  0.38564000  0.87592000  0.16368000  1.0 1.5143713919
P  P8  1  0.61436000  0.37592000  0.33632000  1.0 1.5143713919
P  P9  1  0.52286000  0.64238000  0.92795000  1.0 1.4620870022
P  P10  1  0.47714000  0.14238000  0.57205000  1.0 1.4620870022
P  P11  1  0.47714000  0.35762000  0.07205000  1.0 1.4620870022
P  P12  1  0.52286000  0.85762000  0.42795000  1.0 1.4620870022
N  N1  1  0.54200000  0.79700000  0.01600000  1.0 0.5079349247
N  N2  1  0.45800000  0.29700000  0.48400000  1.0 0.5019316045
N  N3  1  0.45800000  0.20300000  0.98400000  1.0 0.5079349247
N  N4  1  0.54200000  0.70300000  0.51600000  1.0 0.5019316045
O  O1  1  0.58950000  0.98380000  0.85930000  1.0 -0.7185356575
O  O2  1  0.41050000  0.48380000  0.64070000  1.0 -0.7185356575
O  O3  1  0.41050000  0.01620000  0.14070000  1.0 -0.7185356575
O  O4  1  0.58950000  0.51620000  0.35930000  1.0 -0.7185356575
O  O5  1  0.62480000  0.72140000  0.89210000  1.0 -0.6816764059
O  O6  1  0.37520000  0.22140000  0.60790000  1.0 -0.6816764059
O  O7  1  0.37520000  0.27860000  0.10790000  1.0 -0.6816764059
O  O8  1  0.62480000  0.77860000  0.39210000  1.0 -0.6816764059
O  O9  1  0.79510000  0.83350000  0.80530000  1.0 -0.7580884483
O  O10  1  0.20490000  0.33350000  0.69470000  1.0 -0.7580884483
O  O11  1  0.20490000  0.16650000  0.19470000  1.0 -0.7580884483
O  O12  1  0.79510000  0.66650000  0.30530000  1.0 -0.7580884483
O  O13  1  0.53320000  0.66510000  0.73780000  1.0 -0.7580884483
O  O14  1  0.46680000  0.16510000  0.76220000  1.0 -0.7580884483
O  O15  1  0.46680000  0.33490000  0.26220000  1.0 -0.7580884483
O  O16  1  0.53320000  0.83490000  0.23780000  1.0 -0.7580884483
O  O17  1  0.73840000  0.81570000  0.65820000  1.0 -0.7788607063
O  O18  1  0.26160000  0.31570000  0.84180000  1.0 -0.7788607063
O  O19  1  0.26160000  0.18430000  0.34180000  1.0 -0.7788607063
O  O20  1  0.73840000  0.68430000  0.15820000  1.0 -0.7788607063
O  O21  1  0.60110000  0.50360000  0.94910000  1.0 -0.7020706567
O  O22  1  0.39890000  0.00360000  0.55090000  1.0 -0.7020706567
O  O23  1  0.39890000  0.49640000  0.05090000  1.0 -0.7020706567
O  O24  1  0.60110000  0.99640000  0.44910000  1.0 -0.7020706567
O  O25  1  0.63140000  0.21270000  0.90750000  1.0 -0.7185356575
O  O26  1  0.36860000  0.71270000  0.59250000  1.0 -0.7185356575
O  O27  1  0.36860000  0.78730000  0.09250000  1.0 -0.7185356575
O  O28  1  0.63140000  0.28730000  0.40750000  1.0 -0.7185356575
O  O29  1  0.53420000  0.71170000  0.00360000  1.0 -0.409509893
O  O30  1  0.46580000  0.21170000  0.49640000  1.0 -0.409509893
O  O31  1  0.46580000  0.28830000  0.99640000  1.0 -0.409509893
O  O32  1  0.53420000  0.78830000  0.50360000  1.0 -0.409509893
O  O33  1  0.01280000  0.75820000  0.76170000  1.0 -0.7076560291
O  O34  1  0.98720000  0.25820000  0.73830000  1.0 -0.7076560291
O  O35  1  0.98720000  0.24180000  0.23830000  1.0 -0.7076560291
O  O36  1  0.01280000  0.74180000  0.26170000  1.0 -0.7076560291
O  O37  1  0.33760000  0.62430000  0.87200000  1.0 -0.7580884483
O  O38  1  0.66240000  0.12430000  0.62800000  1.0 -0.7529402824
O  O39  1  0.66240000  0.37570000  0.12800000  1.0 -0.7529402824
O  O40  1  0.33760000  0.87570000  0.37200000  1.0 -0.7580884483
O  O41  1  0.78250000  0.13520000  0.82580000  1.0 -0.7529402824
O  O42  1  0.21750000  0.63520000  0.67420000  1.0 -0.7529402824
O  O43  1  0.21750000  0.86480000  0.17420000  1.0 -0.7580884483
O  O44  1  0.78250000  0.36480000  0.32580000  1.0 -0.7529402824
O  O45  1  0.92720000  0.99370000  0.73990000  1.0 -0.7350848647
O  O46  1  0.07280000  0.49370000  0.76010000  1.0 -0.7328323654
O  O47  1  0.07280000  0.00630000  0.26010000  1.0 -0.7328323654
O  O48  1  0.92720000  0.50630000  0.23990000  1.0 -0.7328323654
F  F1  1  0.49260000  0.91870000  0.69640000  1.0 -0.5024375947
F  F2  1  0.50740000  0.41870000  0.80360000  1.0 -0.5024375947
F  F3  1  0.50740000  0.08130000  0.30360000  1.0 -0.5024375947
F  F4  1  0.49260000  0.58130000  0.19640000  1.0 -0.5024375947
F  F5  1  0.32700000  0.82710000  0.77980000  1.0 -0.5112391593
F  F6  1  0.67300000  0.32710000  0.72020000  1.0 -0.5112391593
F  F7  1  0.67300000  0.17290000  0.22020000  1.0 -0.5112391593
F  F8  1  0.32700000  0.67290000  0.27980000  1.0 -0.5112391593
