# DDEC6 charges by PACMAN v1.1 (https://github.com/mtap-research/PACMAN-charge/)
data_IREGOD_ASR_pacman
_symmetry_space_group_name_H-M   'P 1'
_cell_length_a   24.54400000
_cell_length_b   15.45500000
_cell_length_c   19.43100000
_cell_angle_alpha   90.00000000
_cell_angle_beta   117.55100000
_cell_angle_gamma   90.00000000
_symmetry_Int_Tables_number   1
_chemical_formula_structural   Mn5H15(C19O13)2
_chemical_formula_sum   'Mn20 H60 C152 O104'
_cell_volume   6534.87028407
_cell_formula_units_Z   4
loop_
 _symmetry_equiv_pos_site_id
 _symmetry_equiv_pos_as_xyz
  1  'x, y, z'
loop_
 _atom_site_type_symbol
 _atom_site_label
 _atom_site_symmetry_multiplicity
 _atom_site_fract_x
 _atom_site_fract_y
 _atom_site_fract_z
 _atom_site_occupancy
 _atom_site_charge
Mn  Mn1  1  0.85281000  0.82899000  0.92441000  1.0 1.1516902351
Mn  Mn2  1  0.14720000  0.17094000  0.07587000  1.0 1.1516902351
Mn  Mn3  1  0.14713000  0.82917000  0.57591000  1.0 1.1568835481
Mn  Mn4  1  0.85289000  0.17090000  0.42436000  1.0 1.1445497576
Mn  Mn5  1  0.35295000  0.32921000  0.92425000  1.0 1.1568835481
Mn  Mn6  1  0.64709000  0.67087000  0.07579000  1.0 1.1516902351
Mn  Mn7  1  0.64726000  0.32896000  0.57576000  1.0 1.1445497576
Mn  Mn8  1  0.35277000  0.67097000  0.42428000  1.0 1.1445497576
Mn  Mn9  1  0.88532000  0.70228000  0.79701000  1.0 1.1961077356
Mn  Mn10  1  0.11440000  0.29752000  0.20303000  1.0 1.1935803636
Mn  Mn11  1  0.11427000  0.70257000  0.70310000  1.0 1.1935803636
Mn  Mn12  1  0.88545000  0.29763000  0.29694000  1.0 1.1961077356
Mn  Mn13  1  0.38572000  0.20258000  0.79696000  1.0 1.1935803636
Mn  Mn14  1  0.61437000  0.79749000  0.20301000  1.0 1.1935803636
Mn  Mn15  1  0.61467000  0.20227000  0.70305000  1.0 1.1961077356
Mn  Mn16  1  0.38542000  0.79767000  0.29692000  1.0 1.1935803636
Mn  Mn17  1  0.00000000  0.58274000  0.74998000  1.0 1.1770334645
Mn  Mn18  1  0.99999000  0.41722000  0.24999000  1.0 1.1770334645
Mn  Mn19  1  0.50001000  0.08278000  0.74998000  1.0 1.1770334645
Mn  Mn20  1  0.49997000  0.91723000  0.25000000  1.0 1.1770334645
H  H1  1  0.87014000  0.92774000  0.64941000  1.0 0.1077062879
H  H2  1  0.13102000  0.07233000  0.35218000  1.0 0.1077062879
H  H3  1  0.13112000  0.92790000  0.85216000  1.0 0.1077062879
H  H4  1  0.87003000  0.07204000  0.14942000  1.0 0.1077062879
H  H5  1  0.36887000  0.42785000  0.64790000  1.0 0.1077062879
H  H6  1  0.63104000  0.57235000  0.35212000  1.0 0.1077062879
H  H7  1  0.62985000  0.42779000  0.85064000  1.0 0.1077062879
H  H8  1  0.37005000  0.57202000  0.14937000  1.0 0.1077062879
H  H9  1  0.76339000  0.02660000  0.75956000  1.0 0.1277050148
H  H10  1  0.23631000  0.97320000  0.24017000  1.0 0.1277050148
H  H11  1  0.23645000  0.02684000  0.74013000  1.0 0.1277050148
H  H12  1  0.76325000  0.97337000  0.25960000  1.0 0.1277050148
H  H13  1  0.26354000  0.52677000  0.75994000  1.0 0.1277050148
H  H14  1  0.73636000  0.47316000  0.24017000  1.0 0.1277050148
H  H15  1  0.73660000  0.52666000  0.74050000  1.0 0.1277050148
H  H16  1  0.26329000  0.47341000  0.25960000  1.0 0.1277050148
H  H17  1  0.88564000  0.51977000  0.93803000  1.0 0.1077062879
H  H18  1  0.11429000  0.48021000  0.06176000  1.0 0.1077062879
H  H19  1  0.11430000  0.51983000  0.56178000  1.0 0.1077062879
H  H20  1  0.88563000  0.48020000  0.43802000  1.0 0.1077062879
H  H21  1  0.38565000  0.01984000  0.93804000  1.0 0.1077062879
H  H22  1  0.61434000  0.98015000  0.06197000  1.0 0.1077062879
H  H23  1  0.61431000  0.01975000  0.56178000  1.0 0.1077062879
H  H24  1  0.38568000  0.98025000  0.43822000  1.0 0.1077062879
H  H25  1  0.01621000  0.37055000  0.89308000  1.0 0.1277050148
H  H26  1  0.98382000  0.62943000  0.10690000  1.0 0.1277050148
H  H27  1  0.98382000  0.37058000  0.60690000  1.0 0.1277050148
H  H28  1  0.01619000  0.62946000  0.39308000  1.0 0.1277050148
H  H29  1  0.51616000  0.87053000  0.89304000  1.0 0.1277050148
H  H30  1  0.48382000  0.12947000  0.10694000  1.0 0.1277050148
H  H31  1  0.48379000  0.87060000  0.60687000  1.0 0.1277050148
H  H32  1  0.51620000  0.12940000  0.39311000  1.0 0.1277050148
H  H33  1  0.76807000  0.16597000  0.56860000  1.0 0.135155785
H  H34  1  0.23214000  0.83345000  0.43129000  1.0 0.135155785
H  H35  1  0.23235000  0.16672000  0.93124000  1.0 0.135155785
H  H36  1  0.76786000  0.83386000  0.06866000  1.0 0.1277050148
H  H37  1  0.26766000  0.66666667  0.56884000  1.0 0.135155785
H  H38  1  0.73213000  0.33346000  0.43129000  1.0 0.1277050148
H  H39  1  0.73193000  0.66602000  0.93147000  1.0 0.135155785
H  H40  1  0.26785000  0.33385000  0.06867000  1.0 0.135155785
H  H41  1  0.98686000  0.31410000  0.09264000  1.0 0.1010515523
H  H42  1  0.01314000  0.68610000  0.90737000  1.0 0.1010515523
H  H43  1  0.01317000  0.31392000  0.40739000  1.0 0.1010515523
H  H44  1  0.98683000  0.68589000  0.59262000  1.0 0.1010515523
H  H45  1  0.48685000  0.81414000  0.09262000  1.0 0.1010515523
H  H46  1  0.51317000  0.18586000  0.90738000  1.0 0.1010515523
H  H47  1  0.51316000  0.81388000  0.40738000  1.0 0.1010515523
H  H48  1  0.48686000  0.18612000  0.59263000  1.0 0.1010515523
H  H49  1  0.96657000  0.13541000  0.26818000  1.0 0.1714227154
H  H50  1  0.96657000  0.86456000  0.76818000  1.0 0.1714227154
H  H51  1  0.53342000  0.36456000  0.73181000  1.0 0.1714227154
H  H52  1  0.46657000  0.63540000  0.26818000  1.0 0.1714227154
H  H53  1  0.98738000  0.13634000  0.19007000  1.0 0.1802592865
H  H54  1  0.98739000  0.86368000  0.69008000  1.0 0.1802592865
H  H55  1  0.51260000  0.36367000  0.80992000  1.0 0.1802592865
H  H56  1  0.48738000  0.63634000  0.19008000  1.0 0.1802592865
H  H57  1  0.04630000  0.13701000  0.28822000  1.0 0.1802592865
H  H58  1  0.04630000  0.86301000  0.78823000  1.0 0.1802592865
H  H59  1  0.45369000  0.36301000  0.71177000  1.0 0.1802592865
H  H60  1  0.54630000  0.63702000  0.28823000  1.0 0.1802592865
C  C1  1  0.83926000  0.88986000  0.76893000  1.0 0.6183186873
C  C2  1  0.16064000  0.11008000  0.23133000  1.0 0.6183186873
C  C3  1  0.16065000  0.89005000  0.73134000  1.0 0.6183186873
C  C4  1  0.83926000  0.11000000  0.26892000  1.0 0.6183186873
C  C5  1  0.33937000  0.39004000  0.76876000  1.0 0.6183186873
C  C6  1  0.66064000  0.61005000  0.23130000  1.0 0.6183186873
C  C7  1  0.66075000  0.38988000  0.73117000  1.0 0.6183186873
C  C8  1  0.33927000  0.61004000  0.26889000  1.0 0.6183186873
C  C9  1  0.81980000  0.96771000  0.71232000  1.0 -0.0381047963
C  C10  1  0.18031000  0.03218000  0.28795000  1.0 -0.0381047963
C  C11  1  0.18043000  0.96796000  0.78794000  1.0 -0.0381047963
C  C12  1  0.81968000  0.03215000  0.21233000  1.0 -0.0381047963
C  C13  1  0.31958000  0.46792000  0.71213000  1.0 -0.0381047963
C  C14  1  0.68034000  0.53216000  0.28792000  1.0 -0.0381047963
C  C15  1  0.68021000  0.46774000  0.78775000  1.0 -0.0381047963
C  C16  1  0.31972000  0.53218000  0.21231000  1.0 -0.0381047963
C  C17  1  0.83997000  0.97686000  0.65457000  1.0 -0.08999783
C  C18  1  0.16061000  0.02296000  0.34611000  1.0 -0.08999783
C  C19  1  0.16074000  0.97723000  0.84610000  1.0 -0.08999783
C  C20  1  0.83984000  0.02295000  0.15458000  1.0 -0.08999783
C  C21  1  0.33926000  0.47718000  0.65397000  1.0 -0.08999783
C  C22  1  0.66063000  0.52296000  0.34608000  1.0 -0.08999783
C  C23  1  0.66003000  0.47691000  0.84549000  1.0 -0.08999783
C  C24  1  0.33986000  0.52295000  0.15455000  1.0 -0.08999783
C  C25  1  0.71579000  0.17233000  0.66266000  1.0 0.6103493004
C  C26  1  0.28422000  0.82746000  0.33716000  1.0 0.6103493004
C  C27  1  0.28440000  0.17273000  0.83710000  1.0 0.6103493004
C  C28  1  0.71561000  0.82748000  0.16273000  1.0 0.6103493004
C  C29  1  0.21560000  0.67266000  0.66299000  1.0 0.6103493004
C  C30  1  0.78426000  0.32737000  0.33721000  1.0 0.6103493004
C  C31  1  0.78420000  0.67240000  0.83743000  1.0 0.6103493004
C  C32  1  0.21565000  0.32757000  0.16278000  1.0 0.6103493004
C  C33  1  0.76082000  0.10375000  0.66409000  1.0 -0.0381047963
C  C34  1  0.23919000  0.89598000  0.33580000  1.0 -0.0381047963
C  C35  1  0.23937000  0.10416000  0.83575000  1.0 -0.0381047963
C  C36  1  0.76064000  0.89611000  0.16414000  1.0 -0.0381047963
C  C37  1  0.26063000  0.60409000  0.66432000  1.0 -0.0381047963
C  C38  1  0.73922000  0.39593000  0.33581000  1.0 -0.0381047963
C  C39  1  0.73917000  0.60381000  0.83599000  1.0 -0.0381047963
C  C40  1  0.26067000  0.39616000  0.16415000  1.0 -0.0381047963
C  C41  1  0.78009000  0.03252000  0.71626000  1.0 -0.08999783
C  C42  1  0.21983000  0.96728000  0.28368000  1.0 -0.0808256406
C  C43  1  0.21998000  0.03283000  0.78364000  1.0 -0.08999783
C  C44  1  0.77994000  0.96738000  0.21630000  1.0 -0.08999783
C  C45  1  0.28002000  0.53278000  0.71643000  1.0 -0.08999783
C  C46  1  0.71987000  0.46723000  0.28367000  1.0 -0.08999783
C  C47  1  0.71991000  0.53257000  0.78381000  1.0 -0.08999783
C  C48  1  0.27998000  0.46742000  0.21630000  1.0 -0.08999783
C  C49  1  0.93973000  0.51382000  0.84013000  1.0 0.6103493004
C  C50  1  0.06029000  0.48613000  0.15985000  1.0 0.6103493004
C  C51  1  0.06029000  0.51390000  0.65985000  1.0 0.6103493004
C  C52  1  0.93974000  0.48616000  0.34011000  1.0 0.6103493004
C  C53  1  0.43971000  0.01388000  0.84006000  1.0 0.6103493004
C  C54  1  0.56029000  0.98613000  0.15994000  1.0 0.6103493004
C  C55  1  0.56026000  0.01383000  0.65980000  1.0 0.6103493004
C  C56  1  0.43973000  0.98616000  0.34020000  1.0 0.6103493004
C  C57  1  0.94806000  0.45020000  0.90518000  1.0 -0.0381047963
C  C58  1  0.05194000  0.54975000  0.09475000  1.0 -0.0381047963
C  C59  1  0.05195000  0.45027000  0.59475000  1.0 -0.0381047963
C  C60  1  0.94805000  0.54979000  0.40517000  1.0 -0.0381047963
C  C61  1  0.44803000  0.95024000  0.90514000  1.0 -0.0381047963
C  C62  1  0.55196000  0.04977000  0.09486000  1.0 -0.0381047963
C  C63  1  0.55192000  0.95022000  0.59471000  1.0 -0.0381047963
C  C64  1  0.44807000  0.04977000  0.40528000  1.0 -0.0381047963
C  C65  1  0.91866000  0.46652000  0.95196000  1.0 -0.0583697077
C  C66  1  0.08130000  0.53348000  0.04791000  1.0 -0.0583697077
C  C67  1  0.08131000  0.46655000  0.54792000  1.0 -0.0583697077
C  C68  1  0.91865000  0.53346000  0.45194000  1.0 -0.0583697077
C  C69  1  0.41866000  0.96657000  0.95194000  1.0 -0.0583697077
C  C70  1  0.58134000  0.03343000  0.04806000  1.0 -0.0583697077
C  C71  1  0.58130000  0.96650000  0.54791000  1.0 -0.0583697077
C  C72  1  0.41870000  0.03351000  0.45209000  1.0 -0.0583697077
C  C73  1  0.99128000  0.38167000  0.92668000  1.0 -0.0808256406
C  C74  1  0.00873000  0.61827000  0.07329000  1.0 -0.0808256406
C  C75  1  0.00874000  0.38174000  0.57328000  1.0 -0.0808256406
C  C76  1  0.99127000  0.61832000  0.42668000  1.0 -0.0808256406
C  C77  1  0.49124000  0.88170000  0.92664000  1.0 -0.0808256406
C  C78  1  0.50876000  0.11831000  0.07336000  1.0 -0.0808256406
C  C79  1  0.50870000  0.88171000  0.57324000  1.0 -0.0808256406
C  C80  1  0.49130000  0.11828000  0.42675000  1.0 -0.0808256406
C  C81  1  0.84730000  0.06097000  0.54352000  1.0 0.5616371213
C  C82  1  0.15323000  0.93880000  0.45706000  1.0 0.5616371213
C  C83  1  0.15337000  0.06137000  0.95701000  1.0 0.5616371213
C  C84  1  0.84715000  0.93886000  0.04356000  1.0 0.5616371213
C  C85  1  0.34661000  0.56136000  0.54306000  1.0 0.5616371213
C  C86  1  0.65327000  0.43877000  0.45701000  1.0 0.5616371213
C  C87  1  0.65268000  0.56099000  0.95655000  1.0 0.5616371213
C  C88  1  0.34720000  0.43888000  0.04352000  1.0 0.5616371213
C  C89  1  0.82228000  0.04900000  0.60294000  1.0 -0.0105050047
C  C90  1  0.17815000  0.95065000  0.39752000  1.0 -0.0105050047
C  C91  1  0.17832000  0.04954000  0.89749000  1.0 -0.0105050047
C  C92  1  0.82211000  0.95080000  0.10296000  1.0 -0.0105050047
C  C93  1  0.32168000  0.54949000  0.60258000  1.0 -0.0105050047
C  C94  1  0.67817000  0.45067000  0.39747000  1.0 -0.0105050047
C  C95  1  0.67771000  0.54905000  0.89713000  1.0 -0.0105050047
C  C96  1  0.32213000  0.45080000  0.10292000  1.0 -0.0105050047
C  C97  1  0.78264000  0.11094000  0.60845000  1.0 -0.0808256406
C  C98  1  0.21755000  0.88862000  0.39161000  1.0 -0.0808256406
C  C99  1  0.21773000  0.11153000  0.89157000  1.0 -0.0808256406
C  C100  1  0.78246000  0.88890000  0.10849000  1.0 -0.0808256406
C  C101  1  0.28227000  0.61148000  0.60851000  1.0 -0.0808256406
C  C102  1  0.71756000  0.38861000  0.39159000  1.0 -0.0808256406
C  C103  1  0.71735000  0.61099000  0.89162000  1.0 -0.0808256406
C  C104  1  0.28247000  0.38891000  0.10848000  1.0 -0.0808256406
C  C105  1  0.05506000  0.26728000  0.02655000  1.0 0.5928172647
C  C106  1  0.94489000  0.73262000  0.97349000  1.0 0.5928172647
C  C107  1  0.94493000  0.26736000  0.47345000  1.0 0.5928172647
C  C108  1  0.05503000  0.73274000  0.52659000  1.0 0.5928172647
C  C109  1  0.55503000  0.76732000  0.02652000  1.0 0.5928172647
C  C110  1  0.44500000  0.23272000  0.97348000  1.0 0.5928172647
C  C111  1  0.44489000  0.76731000  0.47341000  1.0 0.5928172647
C  C112  1  0.55514000  0.23264000  0.52658000  1.0 0.5928172647
C  C113  1  0.00537000  0.33212000  0.99443000  1.0 -0.0583697077
C  C114  1  0.99459000  0.66783000  0.00553000  1.0 -0.0583697077
C  C115  1  0.99462000  0.33218000  0.50554000  1.0 -0.0583697077
C  C116  1  0.00535000  0.66787000  0.49442000  1.0 -0.0583697077
C  C117  1  0.50535000  0.83217000  0.99440000  1.0 -0.0583697077
C  C118  1  0.49467000  0.16785000  0.00560000  1.0 -0.0583697077
C  C119  1  0.49459000  0.83213000  0.50551000  1.0 -0.0583697077
C  C120  1  0.50542000  0.16785000  0.49449000  1.0 -0.0583697077
C  C121  1  0.97543000  0.35042000  0.03953000  1.0 -0.08999783
C  C122  1  0.02452000  0.64965000  0.96040000  1.0 -0.08999783
C  C123  1  0.02455000  0.35037000  0.46042000  1.0 -0.08999783
C  C124  1  0.97540000  0.64957000  0.53952000  1.0 -0.08999783
C  C125  1  0.47542000  0.85046000  0.03952000  1.0 -0.08999783
C  C126  1  0.52459000  0.14954000  0.96048000  1.0 -0.08999783
C  C127  1  0.52454000  0.85032000  0.46041000  1.0 -0.08999783
C  C128  1  0.47547000  0.14967000  0.53960000  1.0 -0.08999783
C  C129  1  0.90687000  0.44204000  0.07514000  1.0 0.5670647053
C  C130  1  0.09309000  0.55820000  0.92471000  1.0 0.5670647053
C  C131  1  0.09310000  0.44179000  0.42473000  1.0 0.5670647053
C  C132  1  0.90685000  0.55796000  0.57513000  1.0 0.5670647053
C  C133  1  0.40685000  0.94204000  0.07512000  1.0 0.5670647053
C  C134  1  0.59312000  0.05793000  0.92485000  1.0 0.5670647053
C  C135  1  0.59310000  0.94180000  0.42473000  1.0 0.5670647053
C  C136  1  0.40690000  0.05825000  0.57527000  1.0 0.5670647053
C  C137  1  0.93273000  0.41765000  0.01963000  1.0 -0.0381047963
C  C138  1  0.06723000  0.58244000  0.98027000  1.0 -0.0381047963
C  C139  1  0.06725000  0.41759000  0.48029000  1.0 -0.0381047963
C  C140  1  0.93271000  0.58233000  0.51961000  1.0 -0.0381047963
C  C141  1  0.43272000  0.91769000  0.01961000  1.0 -0.0381047963
C  C142  1  0.56727000  0.08230000  0.98039000  1.0 -0.0381047963
C  C143  1  0.56724000  0.91754000  0.48028000  1.0 -0.0381047963
C  C144  1  0.43276000  0.08246000  0.51972000  1.0 -0.0381047963
C  C145  1  0.99957000  0.74364000  0.74945000  1.0 0.725119005
C  C146  1  0.99956000  0.25636000  0.24947000  1.0 0.725119005
C  C147  1  0.50042000  0.24364000  0.75054000  1.0 0.725119005
C  C148  1  0.49954000  0.75637000  0.24946000  1.0 0.725119005
C  C149  1  0.99940000  0.83978000  0.74914000  1.0 -0.5294774667
C  C150  1  0.99939000  0.16023000  0.24914000  1.0 -0.5223614801
C  C151  1  0.50059000  0.33977000  0.75086000  1.0 -0.5294774667
C  C152  1  0.49939000  0.66022000  0.24914000  1.0 -0.5294774667
O  O1  1  0.83514000  0.89870000  0.83375000  1.0 -0.546963794
O  O2  1  0.16483000  0.10129000  0.16653000  1.0 -0.546963794
O  O3  1  0.16479000  0.89884000  0.66650000  1.0 -0.546963794
O  O4  1  0.83519000  0.10118000  0.33378000  1.0 -0.546963794
O  O5  1  0.33526000  0.39885000  0.83361000  1.0 -0.546963794
O  O6  1  0.66478000  0.60124000  0.16646000  1.0 -0.546963794
O  O7  1  0.66491000  0.39869000  0.66635000  1.0 -0.546963794
O  O8  1  0.33515000  0.60123000  0.33373000  1.0 -0.546963794
O  O9  1  0.85867000  0.81969000  0.75089000  1.0 -0.578625881
O  O10  1  0.14113000  0.18012000  0.24934000  1.0 -0.578625881
O  O11  1  0.14106000  0.82009000  0.74934000  1.0 -0.578625881
O  O12  1  0.85874000  0.18010000  0.25089000  1.0 -0.578625881
O  O13  1  0.35894000  0.32006000  0.75075000  1.0 -0.578625881
O  O14  1  0.64113000  0.68008000  0.24931000  1.0 -0.578625881
O  O15  1  0.64133000  0.31972000  0.74919000  1.0 -0.578625881
O  O16  1  0.35875000  0.68014000  0.25087000  1.0 -0.578625881
O  O17  1  0.70296000  0.23398000  0.61117000  1.0 -0.5223614801
O  O18  1  0.29704000  0.76582000  0.38865000  1.0 -0.5223614801
O  O19  1  0.29715000  0.23445000  0.88854000  1.0 -0.5223614801
O  O20  1  0.70286000  0.76576000  0.11129000  1.0 -0.5223614801
O  O21  1  0.20284000  0.73434000  0.61153000  1.0 -0.5223614801
O  O22  1  0.79708000  0.26570000  0.38870000  1.0 -0.5223614801
O  O23  1  0.79703000  0.73408000  0.88891000  1.0 -0.5223614801
O  O24  1  0.20289000  0.26588000  0.11134000  1.0 -0.5223614801
O  O25  1  0.69263000  0.16709000  0.71011000  1.0 -0.5414457928
O  O26  1  0.30743000  0.83278000  0.28977000  1.0 -0.5414457928
O  O27  1  0.30766000  0.16741000  0.78978000  1.0 -0.5414457928
O  O28  1  0.69239000  0.83272000  0.21011000  1.0 -0.5414457928
O  O29  1  0.19235000  0.66738000  0.71034000  1.0 -0.546963794
O  O30  1  0.80747000  0.33271000  0.28984000  1.0 -0.5414457928
O  O31  1  0.80738000  0.66712000  0.79000000  1.0 -0.5414457928
O  O32  1  0.19244000  0.33279000  0.21018000  1.0 -0.5414457928
O  O33  1  0.96743000  0.49706000  0.79878000  1.0 -0.5035875105
O  O34  1  0.03276000  0.50298000  0.20136000  1.0 -0.5035875105
O  O35  1  0.03278000  0.49701000  0.70137000  1.0 -0.5035875105
O  O36  1  0.96743000  0.50294000  0.29877000  1.0 -0.5035875105
O  O37  1  0.46723000  0.99702000  0.79855000  1.0 -0.5035875105
O  O38  1  0.53275000  0.00296000  0.20144000  1.0 -0.5035875105
O  O39  1  0.53257000  0.99707000  0.70114000  1.0 -0.5035875105
O  O40  1  0.46741000  0.00293000  0.29884000  1.0 -0.5035875105
O  O41  1  0.90769000  0.58221000  0.83406000  1.0 -0.5725636379
O  O42  1  0.09219000  0.41762000  0.16572000  1.0 -0.5725636379
O  O43  1  0.09216000  0.58243000  0.66571000  1.0 -0.5725636379
O  O44  1  0.90772000  0.41775000  0.33407000  1.0 -0.5725636379
O  O45  1  0.40785000  0.08241000  0.83423000  1.0 -0.5725636379
O  O46  1  0.59217000  0.91762000  0.16580000  1.0 -0.5725636379
O  O47  1  0.59232000  0.08222000  0.66587000  1.0 -0.5725636379
O  O48  1  0.40770000  0.91776000  0.33414000  1.0 -0.5725636379
O  O49  1  0.82080000  0.12525000  0.49016000  1.0 -0.5414457928
O  O50  1  0.17956000  0.87440000  0.51031000  1.0 -0.5414457928
O  O51  1  0.17967000  0.12574000  0.01028000  1.0 -0.5414457928
O  O52  1  0.82069000  0.87461000  0.99019000  1.0 -0.5414457928
O  O53  1  0.32032000  0.62581000  0.48987000  1.0 -0.5414457928
O  O54  1  0.67963000  0.37431000  0.51018000  1.0 -0.5414457928
O  O55  1  0.67920000  0.62517000  0.00999000  1.0 -0.5414457928
O  O56  1  0.32075000  0.37470000  0.99006000  1.0 -0.5414457928
O  O57  1  0.88893000  0.01402000  0.54603000  1.0 -0.4217840458
O  O58  1  0.11176000  0.98598000  0.45466000  1.0 -0.4217840458
O  O59  1  0.11190000  0.01415000  0.95456000  1.0 -0.4217840458
O  O60  1  0.88879000  0.98584000  0.04612000  1.0 -0.4217840458
O  O61  1  0.38805000  0.51413000  0.54542000  1.0 -0.4217840458
O  O62  1  0.61182000  0.48594000  0.45471000  1.0 -0.4217840458
O  O63  1  0.61102000  0.51404000  0.95395000  1.0 -0.4271403746
O  O64  1  0.38885000  0.48588000  0.04618000  1.0 -0.4217840458
O  O65  1  0.08678000  0.25046000  0.10197000  1.0 -0.578625881
O  O66  1  0.91304000  0.74935000  0.89808000  1.0 -0.578625881
O  O67  1  0.91314000  0.25059000  0.39805000  1.0 -0.578625881
O  O68  1  0.08669000  0.74959000  0.60200000  1.0 -0.578625881
O  O69  1  0.58676000  0.75051000  0.10193000  1.0 -0.578625881
O  O70  1  0.41329000  0.24957000  0.89807000  1.0 -0.578625881
O  O71  1  0.41311000  0.75057000  0.39800000  1.0 -0.578625881
O  O72  1  0.58694000  0.24938000  0.60199000  1.0 -0.578625881
O  O73  1  0.07446000  0.21972000  0.98801000  1.0 -0.4523198204
O  O74  1  0.92560000  0.78020000  0.01212000  1.0 -0.4523198204
O  O75  1  0.92563000  0.21980000  0.51208000  1.0 -0.4523198204
O  O76  1  0.07443000  0.78028000  0.48804000  1.0 -0.4523198204
O  O77  1  0.57439000  0.71975000  0.98795000  1.0 -0.4523198204
O  O78  1  0.42564000  0.28028000  0.01205000  1.0 -0.4523198204
O  O79  1  0.42556000  0.71975000  0.51202000  1.0 -0.4523198204
O  O80  1  0.57447000  0.28020000  0.48797000  1.0 -0.4523198204
O  O81  1  0.93594000  0.40487000  0.14583000  1.0 -0.5414457928
O  O82  1  0.06403000  0.59560000  0.85410000  1.0 -0.5414457928
O  O83  1  0.06404000  0.40442000  0.35411000  1.0 -0.5414457928
O  O84  1  0.93594000  0.59508000  0.64582000  1.0 -0.5294774667
O  O85  1  0.43593000  0.90488000  0.14583000  1.0 -0.5414457928
O  O86  1  0.56405000  0.09510000  0.85417000  1.0 -0.5414457928
O  O87  1  0.56402000  0.90439000  0.35410000  1.0 -0.5294774667
O  O88  1  0.43595000  0.09560000  0.64588000  1.0 -0.5414457928
O  O89  1  0.86218000  0.49017000  0.05436000  1.0 -0.5035875105
O  O90  1  0.13772000  0.51007000  0.94536000  1.0 -0.4940525786
O  O91  1  0.13778000  0.48992000  0.44539000  1.0 -0.4940525786
O  O92  1  0.86213000  0.50988000  0.55434000  1.0 -0.4940525786
O  O93  1  0.36213000  0.99012000  0.05432000  1.0 -0.4940525786
O  O94  1  0.63782000  0.00982000  0.94562000  1.0 -0.4940525786
O  O95  1  0.63773000  0.98995000  0.44536000  1.0 -0.4940525786
O  O96  1  0.36221000  0.01009000  0.55458000  1.0 -0.4940525786
O  O97  1  0.96457000  0.69804000  0.76964000  1.0 -0.5587973491
O  O98  1  0.03504000  0.30172000  0.22980000  1.0 -0.5587973491
O  O99  1  0.03507000  0.69830000  0.72978000  1.0 -0.5587973491
O  O100  1  0.96455000  0.30195000  0.26967000  1.0 -0.5587973491
O  O101  1  0.46493000  0.19828000  0.77021000  1.0 -0.5587973491
O  O102  1  0.53502000  0.80172000  0.22980000  1.0 -0.5587973491
O  O103  1  0.53542000  0.19805000  0.73034000  1.0 -0.5587973491
O  O104  1  0.46454000  0.80194000  0.26967000  1.0 -0.5587973491
