# DDEC6 charges by PACMAN v1.1 (https://github.com/mtap-research/PACMAN-charge/)
data_IRELUP_ASR_pacman
_symmetry_space_group_name_H-M   'P 1'
_cell_length_a   19.84620000
_cell_length_b   19.84620000
_cell_length_c   19.84620000
_cell_angle_alpha   60.00000000
_cell_angle_beta   60.00000000
_cell_angle_gamma   60.00000000
_symmetry_Int_Tables_number   1
_chemical_formula_structural   Th3C54(O2F3)8
_chemical_formula_sum   'Th6 C108 O32 F48'
_cell_volume   5527.35162236
_cell_formula_units_Z   2
loop_
 _symmetry_equiv_pos_site_id
 _symmetry_equiv_pos_as_xyz
  1  'x, y, z'
loop_
 _atom_site_type_symbol
 _atom_site_label
 _atom_site_symmetry_multiplicity
 _atom_site_fract_x
 _atom_site_fract_y
 _atom_site_fract_z
 _atom_site_occupancy
 _atom_site_charge
Th  Th1  1  0.40051000  0.59949000  0.59949000  1.0 2.3175104082
Th  Th2  1  0.59949000  0.40051000  0.40051000  1.0 2.3175104082
Th  Th3  1  0.59949000  0.59949000  0.40051000  1.0 2.3175104082
Th  Th4  1  0.40051000  0.40051000  0.59949000  1.0 2.3175104082
Th  Th5  1  0.59949000  0.40051000  0.59949000  1.0 2.3175104082
Th  Th6  1  0.40051000  0.59949000  0.40051000  1.0 2.3175104082
C  C1  1  0.56560000  0.84840000  0.45440000  1.0 0.1547363775
C  C2  1  0.45440000  0.13160000  0.56560000  1.0 0.1547363775
C  C3  1  0.84840000  0.56560000  0.13160000  1.0 0.1547363775
C  C4  1  0.13160000  0.45440000  0.84840000  1.0 0.1547363775
C  C5  1  0.84840000  0.45440000  0.56560000  1.0 0.1547363775
C  C6  1  0.13160000  0.56560000  0.45440000  1.0 0.1547363775
C  C7  1  0.56560000  0.13160000  0.84840000  1.0 0.1547363775
C  C8  1  0.45440000  0.84840000  0.13160000  1.0 0.1547363775
C  C9  1  0.45440000  0.56560000  0.84840000  1.0 0.1547363775
C  C10  1  0.56560000  0.45440000  0.13160000  1.0 0.1547363775
C  C11  1  0.13160000  0.84840000  0.56560000  1.0 0.1547363775
C  C12  1  0.84840000  0.13160000  0.45440000  1.0 0.1547363775
C  C13  1  0.43440000  0.86840000  0.54560000  1.0 0.1547363775
C  C14  1  0.54560000  0.15160000  0.43440000  1.0 0.1547363775
C  C15  1  0.15160000  0.54560000  0.86840000  1.0 0.1547363775
C  C16  1  0.86840000  0.43440000  0.15160000  1.0 0.157339113
C  C17  1  0.15160000  0.86840000  0.43440000  1.0 0.1547363775
C  C18  1  0.86840000  0.15160000  0.54560000  1.0 0.1547363775
C  C19  1  0.43440000  0.54560000  0.15160000  1.0 0.1547363775
C  C20  1  0.54560000  0.43440000  0.86840000  1.0 0.1547363775
C  C21  1  0.54560000  0.86840000  0.15160000  1.0 0.1547363775
C  C22  1  0.43440000  0.15160000  0.86840000  1.0 0.1547363775
C  C23  1  0.86840000  0.54560000  0.43440000  1.0 0.1547363775
C  C24  1  0.15160000  0.43440000  0.54560000  1.0 0.1547363775
C  C25  1  0.43440000  0.15160000  0.54560000  1.0 0.1547363775
C  C26  1  0.54560000  0.86840000  0.43440000  1.0 0.1547363775
C  C27  1  0.15160000  0.43440000  0.86840000  1.0 0.1547363775
C  C28  1  0.86840000  0.54560000  0.15160000  1.0 0.157339113
C  C29  1  0.15160000  0.54560000  0.43440000  1.0 0.1547363775
C  C30  1  0.86840000  0.43440000  0.54560000  1.0 0.1547363775
C  C31  1  0.43440000  0.86840000  0.15160000  1.0 0.1547363775
C  C32  1  0.54560000  0.15160000  0.86840000  1.0 0.1547363775
C  C33  1  0.54560000  0.43440000  0.15160000  1.0 0.157339113
C  C34  1  0.43440000  0.54560000  0.86840000  1.0 0.1547363775
C  C35  1  0.86840000  0.15160000  0.43440000  1.0 0.1547363775
C  C36  1  0.15160000  0.86840000  0.54560000  1.0 0.1547363775
C  C37  1  0.56560000  0.13160000  0.45440000  1.0 0.1547363775
C  C38  1  0.45440000  0.84840000  0.56560000  1.0 0.1547363775
C  C39  1  0.84840000  0.45440000  0.13160000  1.0 0.1547363775
C  C40  1  0.13160000  0.56560000  0.84840000  1.0 0.1547363775
C  C41  1  0.84840000  0.13160000  0.56560000  1.0 0.1547363775
C  C42  1  0.13160000  0.84840000  0.45440000  1.0 0.1547363775
C  C43  1  0.56560000  0.45440000  0.84840000  1.0 0.1547363775
C  C44  1  0.45440000  0.56560000  0.13160000  1.0 0.1547363775
C  C45  1  0.45440000  0.13160000  0.84840000  1.0 0.1547363775
C  C46  1  0.56560000  0.84840000  0.13160000  1.0 0.1547363775
C  C47  1  0.13160000  0.45440000  0.56560000  1.0 0.1547363775
C  C48  1  0.84840000  0.56560000  0.45440000  1.0 0.1547363775
C  C49  1  0.55660000  0.92580000  0.44340000  1.0 -0.1202023102
C  C50  1  0.44340000  0.07420000  0.55660000  1.0 -0.1202023102
C  C51  1  0.92580000  0.55660000  0.07420000  1.0 -0.1202023102
C  C52  1  0.07420000  0.44340000  0.92580000  1.0 -0.1202023102
C  C53  1  0.92580000  0.44340000  0.55660000  1.0 -0.1202023102
C  C54  1  0.07420000  0.55660000  0.44340000  1.0 -0.1202023102
C  C55  1  0.55660000  0.07420000  0.92580000  1.0 -0.1202023102
C  C56  1  0.44340000  0.92580000  0.07420000  1.0 -0.1202023102
C  C57  1  0.44340000  0.55660000  0.92580000  1.0 -0.1202023102
C  C58  1  0.55660000  0.44340000  0.07420000  1.0 -0.1202023102
C  C59  1  0.07420000  0.92580000  0.55660000  1.0 -0.1202023102
C  C60  1  0.92580000  0.07420000  0.44340000  1.0 -0.1202023102
C  C61  1  0.44340000  0.92580000  0.55660000  1.0 -0.1202023102
C  C62  1  0.55660000  0.07420000  0.44340000  1.0 -0.1202023102
C  C63  1  0.07420000  0.55660000  0.92580000  1.0 -0.1202023102
C  C64  1  0.92580000  0.44340000  0.07420000  1.0 -0.1202023102
C  C65  1  0.07420000  0.92580000  0.44340000  1.0 -0.1202023102
C  C66  1  0.92580000  0.07420000  0.55660000  1.0 -0.1202023102
C  C67  1  0.44340000  0.55660000  0.07420000  1.0 -0.1202023102
C  C68  1  0.55660000  0.44340000  0.92580000  1.0 -0.1202023102
C  C69  1  0.55660000  0.92580000  0.07420000  1.0 -0.1202023102
C  C70  1  0.44340000  0.07420000  0.92580000  1.0 -0.1202023102
C  C71  1  0.92580000  0.55660000  0.44340000  1.0 -0.1202023102
C  C72  1  0.07420000  0.44340000  0.55660000  1.0 -0.1202023102
C  C73  1  0.50000000  0.74480000  0.50000000  1.0 0.6502517383
C  C74  1  0.50000000  0.82080000  0.50000000  1.0 -0.1328731743
C  C75  1  0.50000000  0.96320000  0.50000000  1.0 0.0240804441
C  C76  1  0.50000000  0.25520000  0.50000000  1.0 0.6502517383
C  C77  1  0.50000000  0.17920000  0.50000000  1.0 -0.1328731743
C  C78  1  0.50000000  0.03680000  0.50000000  1.0 0.025109932
C  C79  1  0.74480000  0.50000000  0.25520000  1.0 0.6502517383
C  C80  1  0.82080000  0.50000000  0.17920000  1.0 -0.1328731743
C  C81  1  0.96320000  0.50000000  0.03680000  1.0 0.0240804441
C  C82  1  0.25520000  0.50000000  0.74480000  1.0 0.6502517383
C  C83  1  0.17920000  0.50000000  0.82080000  1.0 -0.1328731743
C  C84  1  0.03680000  0.50000000  0.96320000  1.0 0.0240804441
C  C85  1  0.74480000  0.50000000  0.50000000  1.0 0.6502517383
C  C86  1  0.82080000  0.50000000  0.50000000  1.0 -0.1328731743
C  C87  1  0.96320000  0.50000000  0.50000000  1.0 0.025109932
C  C88  1  0.25520000  0.50000000  0.50000000  1.0 0.6502517383
C  C89  1  0.17920000  0.50000000  0.50000000  1.0 -0.1328731743
C  C90  1  0.03680000  0.50000000  0.50000000  1.0 0.0240804441
C  C91  1  0.50000000  0.25520000  0.74480000  1.0 0.6502517383
C  C92  1  0.50000000  0.17920000  0.82080000  1.0 -0.1328731743
C  C93  1  0.50000000  0.03680000  0.96320000  1.0 0.0240804441
C  C94  1  0.50000000  0.74480000  0.25520000  1.0 0.6502517383
C  C95  1  0.50000000  0.82080000  0.17920000  1.0 -0.1328731743
C  C96  1  0.50000000  0.96320000  0.03680000  1.0 0.0240804441
C  C97  1  0.50000000  0.50000000  0.74480000  1.0 0.6502517383
C  C98  1  0.50000000  0.50000000  0.82080000  1.0 -0.1328731743
C  C99  1  0.50000000  0.50000000  0.96320000  1.0 0.0240804441
C  C100  1  0.50000000  0.50000000  0.25520000  1.0 0.6502517383
C  C101  1  0.50000000  0.50000000  0.17920000  1.0 -0.1328731743
C  C102  1  0.50000000  0.50000000  0.03680000  1.0 0.0240804441
C  C103  1  0.25520000  0.74480000  0.50000000  1.0 0.6502517383
C  C104  1  0.17920000  0.82080000  0.50000000  1.0 -0.1328731743
C  C105  1  0.03680000  0.96320000  0.50000000  1.0 0.0240804441
C  C106  1  0.74480000  0.25520000  0.50000000  1.0 0.6502517383
C  C107  1  0.82080000  0.17920000  0.50000000  1.0 -0.1328731743
C  C108  1  0.96320000  0.03680000  0.50000000  1.0 0.025109932
O  O1  1  0.35660000  0.54780000  0.54780000  1.0 -0.9927131364
O  O2  1  0.54780000  0.54780000  0.35660000  1.0 -0.9927131364
O  O3  1  0.54780000  0.35660000  0.54780000  1.0 -0.9927131364
O  O4  1  0.54780000  0.54780000  0.54780000  1.0 -0.9927131364
O  O5  1  0.64340000  0.45220000  0.45220000  1.0 -0.9927131364
O  O6  1  0.45220000  0.45220000  0.64340000  1.0 -0.9927131364
O  O7  1  0.45220000  0.45220000  0.45220000  1.0 -0.9927131364
O  O8  1  0.45220000  0.64340000  0.45220000  1.0 -0.9927131364
O  O9  1  0.44390000  0.71590000  0.55610000  1.0 -0.5335838203
O  O10  1  0.55610000  0.28410000  0.44390000  1.0 -0.5335838203
O  O11  1  0.71590000  0.44390000  0.28410000  1.0 -0.5335838203
O  O12  1  0.28410000  0.55610000  0.71590000  1.0 -0.5335838203
O  O13  1  0.71590000  0.55610000  0.44390000  1.0 -0.5335838203
O  O14  1  0.28410000  0.44390000  0.55610000  1.0 -0.5335838203
O  O15  1  0.44390000  0.28410000  0.71590000  1.0 -0.5335838203
O  O16  1  0.55610000  0.71590000  0.28410000  1.0 -0.5335838203
O  O17  1  0.55610000  0.44390000  0.71590000  1.0 -0.5335838203
O  O18  1  0.44390000  0.55610000  0.28410000  1.0 -0.5335838203
O  O19  1  0.28410000  0.71590000  0.44390000  1.0 -0.5335838203
O  O20  1  0.71590000  0.28410000  0.55610000  1.0 -0.5335838203
O  O21  1  0.55610000  0.71590000  0.44390000  1.0 -0.5335838203
O  O22  1  0.44390000  0.28410000  0.55610000  1.0 -0.5335838203
O  O23  1  0.28410000  0.44390000  0.71590000  1.0 -0.5335838203
O  O24  1  0.71590000  0.55610000  0.28410000  1.0 -0.5335838203
O  O25  1  0.28410000  0.71590000  0.55610000  1.0 -0.5335838203
O  O26  1  0.71590000  0.28410000  0.44390000  1.0 -0.5335838203
O  O27  1  0.55610000  0.44390000  0.28410000  1.0 -0.5335838203
O  O28  1  0.44390000  0.55610000  0.71590000  1.0 -0.5335838203
O  O29  1  0.44390000  0.71590000  0.28410000  1.0 -0.5335838203
O  O30  1  0.55610000  0.28410000  0.71590000  1.0 -0.5335838203
O  O31  1  0.71590000  0.44390000  0.55610000  1.0 -0.5335838203
O  O32  1  0.28410000  0.55610000  0.44390000  1.0 -0.5335838203
F  F1  1  0.64140000  0.79240000  0.42780000  1.0 -0.0876716898
F  F2  1  0.42780000  0.13840000  0.64140000  1.0 -0.0876716898
F  F3  1  0.79240000  0.64140000  0.13840000  1.0 -0.0876716898
F  F4  1  0.13840000  0.42780000  0.79240000  1.0 -0.0876716898
F  F5  1  0.79240000  0.42780000  0.64140000  1.0 -0.0876716898
F  F6  1  0.13840000  0.64140000  0.42780000  1.0 -0.0876716898
F  F7  1  0.64140000  0.13840000  0.79240000  1.0 -0.0876716898
F  F8  1  0.42780000  0.79240000  0.13840000  1.0 -0.0876716898
F  F9  1  0.42780000  0.64140000  0.79240000  1.0 -0.0876716898
F  F10  1  0.64140000  0.42780000  0.13840000  1.0 -0.0876716898
F  F11  1  0.13840000  0.79240000  0.64140000  1.0 -0.0876716898
F  F12  1  0.79240000  0.13840000  0.42780000  1.0 -0.0876716898
F  F13  1  0.35860000  0.86160000  0.57220000  1.0 -0.0876716898
F  F14  1  0.57220000  0.20760000  0.35860000  1.0 -0.0876716898
F  F15  1  0.20760000  0.57220000  0.86160000  1.0 -0.0876716898
F  F16  1  0.86160000  0.35860000  0.20760000  1.0 -0.0876716898
F  F17  1  0.20760000  0.86160000  0.35860000  1.0 -0.0876716898
F  F18  1  0.86160000  0.20760000  0.57220000  1.0 -0.0876716898
F  F19  1  0.35860000  0.57220000  0.20760000  1.0 -0.0876716898
F  F20  1  0.57220000  0.35860000  0.86160000  1.0 -0.0876716898
F  F21  1  0.57220000  0.86160000  0.20760000  1.0 -0.0876716898
F  F22  1  0.35860000  0.20760000  0.86160000  1.0 -0.0876716898
F  F23  1  0.86160000  0.57220000  0.35860000  1.0 -0.0876716898
F  F24  1  0.20760000  0.35860000  0.57220000  1.0 -0.0876716898
F  F25  1  0.35860000  0.20760000  0.57220000  1.0 -0.0876716898
F  F26  1  0.57220000  0.86160000  0.35860000  1.0 -0.0876716898
F  F27  1  0.20760000  0.35860000  0.86160000  1.0 -0.0876716898
F  F28  1  0.86160000  0.57220000  0.20760000  1.0 -0.0876716898
F  F29  1  0.20760000  0.57220000  0.35860000  1.0 -0.0876716898
F  F30  1  0.86160000  0.35860000  0.57220000  1.0 -0.0876716898
F  F31  1  0.35860000  0.86160000  0.20760000  1.0 -0.0876716898
F  F32  1  0.57220000  0.20760000  0.86160000  1.0 -0.0876716898
F  F33  1  0.57220000  0.35860000  0.20760000  1.0 -0.0876716898
F  F34  1  0.35860000  0.57220000  0.86160000  1.0 -0.0876716898
F  F35  1  0.86160000  0.20760000  0.35860000  1.0 -0.0876716898
F  F36  1  0.20760000  0.86160000  0.57220000  1.0 -0.0876716898
F  F37  1  0.64140000  0.13840000  0.42780000  1.0 -0.0876716898
F  F38  1  0.42780000  0.79240000  0.64140000  1.0 -0.0876716898
F  F39  1  0.79240000  0.42780000  0.13840000  1.0 -0.0876716898
F  F40  1  0.13840000  0.64140000  0.79240000  1.0 -0.0876716898
F  F41  1  0.79240000  0.13840000  0.64140000  1.0 -0.0876716898
F  F42  1  0.13840000  0.79240000  0.42780000  1.0 -0.0876716898
F  F43  1  0.64140000  0.42780000  0.79240000  1.0 -0.0876716898
F  F44  1  0.42780000  0.64140000  0.13840000  1.0 -0.0876716898
F  F45  1  0.42780000  0.13840000  0.79240000  1.0 -0.0876716898
F  F46  1  0.64140000  0.79240000  0.13840000  1.0 -0.0876716898
F  F47  1  0.13840000  0.42780000  0.64140000  1.0 -0.0876716898
F  F48  1  0.79240000  0.64140000  0.42780000  1.0 -0.0876716898
