# DDEC6 charges by PACMAN v1.1 (https://github.com/mtap-research/PACMAN-charge/)
data_IREMAW_ASR_pacman
_symmetry_space_group_name_H-M   'P 1'
_cell_length_a   19.91630000
_cell_length_b   19.91630000
_cell_length_c   19.91630000
_cell_angle_alpha   120.31300000
_cell_angle_beta   117.10700000
_cell_angle_gamma   92.27120000
_symmetry_Int_Tables_number   1
_chemical_formula_structural   Th3H8C30(O2F)8
_chemical_formula_sum   'Th12 H32 C120 O64 F32'
_cell_volume   5684.88759987
_cell_formula_units_Z   4
loop_
 _symmetry_equiv_pos_site_id
 _symmetry_equiv_pos_as_xyz
  1  'x, y, z'
loop_
 _atom_site_type_symbol
 _atom_site_label
 _atom_site_symmetry_multiplicity
 _atom_site_fract_x
 _atom_site_fract_y
 _atom_site_fract_z
 _atom_site_occupancy
 _atom_site_charge
Th  Th1  1  0.64883000  0.51893000  0.87010000  1.0 2.4183760704
Th  Th2  1  0.85117000  0.72127000  0.87010000  1.0 2.4183760704
Th  Th3  1  0.84378000  0.71959000  0.06337000  1.0 2.4288623155
Th  Th4  1  0.84227000  0.52146000  0.86373000  1.0 2.4089110316
Th  Th5  1  0.65622000  0.71959000  0.87581000  1.0 2.4288623155
Th  Th6  1  0.65773000  0.52146000  0.67919000  1.0 2.4089110316
Th  Th7  1  0.14883000  0.27873000  0.12990000  1.0 2.4183760704
Th  Th8  1  0.35117000  0.48107000  0.12990000  1.0 2.4183760704
Th  Th9  1  0.15622000  0.28041000  0.93663000  1.0 2.4288623155
Th  Th10  1  0.15773000  0.47854000  0.13627000  1.0 2.4089110316
Th  Th11  1  0.34378000  0.28041000  0.12419000  1.0 2.4288623155
Th  Th12  1  0.34227000  0.47854000  0.32081000  1.0 2.4089110316
H  H1  1  0.62854000  0.59791000  0.25641000  1.0 0.1490804276
H  H2  1  0.86608000  0.63942000  0.38000000  1.0 0.1425764979
H  H3  1  0.63397000  0.54144000  0.32863000  1.0 0.1490804276
H  H4  1  0.86447000  0.69603000  0.50830000  1.0 0.1490804276
H  H5  1  0.87146000  0.12787000  0.96937000  1.0 0.1490804276
H  H6  1  0.63392000  0.01392000  0.77334000  1.0 0.1425764979
H  H7  1  0.86603000  0.19466000  0.90747000  1.0 0.1490804276
H  H8  1  0.63553000  0.14383000  0.83156000  1.0 0.1490804276
H  H9  1  0.15850000  0.12787000  0.25641000  1.0 0.1490804276
H  H10  1  0.24058000  0.01392000  0.38000000  1.0 0.1425764979
H  H11  1  0.28719000  0.19466000  0.32863000  1.0 0.1490804276
H  H12  1  0.31227000  0.14383000  0.50830000  1.0 0.1490804276
H  H13  1  0.34150000  0.59791000  0.96937000  1.0 0.1490804276
H  H14  1  0.25942000  0.63942000  0.77334000  1.0 0.1425764979
H  H15  1  0.21281000  0.54144000  0.90747000  1.0 0.1490804276
H  H16  1  0.18773000  0.69603000  0.83156000  1.0 0.1490804276
H  H17  1  0.84150000  0.87213000  0.74359000  1.0 0.1490804276
H  H18  1  0.75942000  0.98608000  0.62000000  1.0 0.1425764979
H  H19  1  0.71281000  0.80534000  0.67137000  1.0 0.1490804276
H  H20  1  0.68773000  0.85617000  0.49170000  1.0 0.1490804276
H  H21  1  0.65850000  0.40209000  0.03063000  1.0 0.1490804276
H  H22  1  0.74058000  0.36058000  0.22666000  1.0 0.1425764979
H  H23  1  0.78719000  0.45856000  0.09253000  1.0 0.1490804276
H  H24  1  0.81227000  0.30397000  0.16844000  1.0 0.1490804276
H  H25  1  0.37146000  0.40209000  0.74359000  1.0 0.1490804276
H  H26  1  0.13392000  0.36058000  0.62000000  1.0 0.1425764979
H  H27  1  0.36603000  0.45856000  0.67137000  1.0 0.1490804276
H  H28  1  0.13553000  0.30397000  0.49170000  1.0 0.1490804276
H  H29  1  0.12854000  0.87213000  0.03063000  1.0 0.1490804276
H  H30  1  0.36608000  0.98608000  0.22666000  1.0 0.1425764979
H  H31  1  0.13397000  0.80534000  0.09253000  1.0 0.1490804276
H  H32  1  0.36447000  0.85617000  0.16844000  1.0 0.1490804276
C  C1  1  0.74220000  0.61650000  0.10930000  1.0 0.6686149658
C  C2  1  0.74285000  0.61655000  0.18710000  1.0 -0.2715480058
C  C3  1  0.67292000  0.60470000  0.18582000  1.0 0.3142144074
C  C4  1  0.81526000  0.62956000  0.25990000  1.0 0.3142144074
C  C5  1  0.67535000  0.60585000  0.25730000  1.0 -0.2715480058
C  C6  1  0.81763000  0.63070000  0.33133000  1.0 -0.2909645169
C  C7  1  0.74767000  0.61887000  0.33000000  1.0 0.1425764979
C  C8  1  0.74894000  0.61874000  0.40680000  1.0 0.1425764979
C  C9  1  0.68076000  0.57246000  0.38830000  1.0 -0.2786697327
C  C10  1  0.81880000  0.66510000  0.49590000  1.0 -0.2909645169
C  C11  1  0.68234000  0.57254000  0.45880000  1.0 0.3174260975
C  C12  1  0.82048000  0.66518000  0.56650000  1.0 0.3174260975
C  C13  1  0.75220000  0.61890000  0.54790000  1.0 -0.2715480058
C  C14  1  0.75400000  0.61940000  0.62640000  1.0 0.6686149658
C  C15  1  0.75780000  0.86710000  0.87430000  1.0 0.6686149658
C  C16  1  0.75715000  0.94425000  0.87370000  1.0 -0.2715480058
C  C17  1  0.82708000  0.01290000  0.93178000  1.0 0.3142144074
C  C18  1  0.68474000  0.94464000  0.81430000  1.0 0.3142144074
C  C19  1  0.82465000  0.08195000  0.93050000  1.0 -0.2715480058
C  C20  1  0.68237000  0.01370000  0.81307000  1.0 -0.2909645169
C  C21  1  0.75233000  0.08233000  0.87120000  1.0 0.1425764979
C  C22  1  0.75106000  0.15786000  0.86980000  1.0 0.1425764979
C  C23  1  0.81924000  0.20754000  0.89170000  1.0 -0.2786697327
C  C24  1  0.68120000  0.17710000  0.84630000  1.0 -0.2909645169
C  C25  1  0.81766000  0.27646000  0.89020000  1.0 0.3174260975
C  C26  1  0.67952000  0.24602000  0.84470000  1.0 0.3174260975
C  C27  1  0.74780000  0.29570000  0.86670000  1.0 -0.2715480058
C  C28  1  0.74600000  0.37240000  0.86540000  1.0 0.6686149658
C  C29  1  0.99280000  0.86710000  0.10930000  1.0 0.6686149658
C  C30  1  0.07055000  0.94425000  0.18710000  1.0 -0.2715480058
C  C31  1  0.08112000  0.01290000  0.18582000  1.0 0.3142144074
C  C32  1  0.13034000  0.94464000  0.25990000  1.0 0.3142144074
C  C33  1  0.15145000  0.08195000  0.25730000  1.0 -0.2715480058
C  C34  1  0.20063000  0.01370000  0.33133000  1.0 -0.2909645169
C  C35  1  0.21113000  0.08233000  0.33000000  1.0 0.1425764979
C  C36  1  0.28806000  0.15786000  0.40680000  1.0 0.1425764979
C  C37  1  0.31584000  0.20754000  0.38830000  1.0 -0.2786697327
C  C38  1  0.33080000  0.17710000  0.49590000  1.0 -0.2909645169
C  C39  1  0.38626000  0.27646000  0.45880000  1.0 0.3174260975
C  C40  1  0.40132000  0.24602000  0.56650000  1.0 0.3174260975
C  C41  1  0.42900000  0.29570000  0.54790000  1.0 -0.2715480058
C  C42  1  0.50700000  0.37240000  0.62640000  1.0 0.6686149658
C  C43  1  0.50720000  0.61650000  0.87430000  1.0 0.6686149658
C  C44  1  0.42945000  0.61655000  0.87370000  1.0 -0.2715480058
C  C45  1  0.41888000  0.60470000  0.93178000  1.0 0.3142144074
C  C46  1  0.36966000  0.62956000  0.81430000  1.0 0.3142144074
C  C47  1  0.34855000  0.60585000  0.93050000  1.0 -0.2715480058
C  C48  1  0.29937000  0.63070000  0.81307000  1.0 -0.2909645169
C  C49  1  0.28887000  0.61887000  0.87120000  1.0 0.1425764979
C  C50  1  0.21194000  0.61874000  0.86980000  1.0 0.1425764979
C  C51  1  0.18416000  0.57246000  0.89170000  1.0 -0.2786697327
C  C52  1  0.16920000  0.66510000  0.84630000  1.0 -0.2909645169
C  C53  1  0.11374000  0.57254000  0.89020000  1.0 0.3174260975
C  C54  1  0.09868000  0.66518000  0.84470000  1.0 0.3174260975
C  C55  1  0.07100000  0.61890000  0.86670000  1.0 -0.2715480058
C  C56  1  0.99300000  0.61940000  0.86540000  1.0 0.6686149658
C  C57  1  0.98410000  0.61370000  0.09780000  1.0 0.7424656571
C  C58  1  0.51590000  0.61370000  0.62960000  1.0 0.7424656571
C  C59  1  0.75000000  0.86660000  0.11660000  1.0 0.9234847844
C  C60  1  0.75000000  0.38010000  0.63010000  1.0 0.8864736975
C  C61  1  0.00720000  0.13290000  0.89070000  1.0 0.6686149658
C  C62  1  0.92945000  0.05575000  0.81290000  1.0 -0.2715480058
C  C63  1  0.91888000  0.98710000  0.81418000  1.0 0.3142144074
C  C64  1  0.86966000  0.05536000  0.74010000  1.0 0.3142144074
C  C65  1  0.84855000  0.91805000  0.74270000  1.0 -0.2715480058
C  C66  1  0.79937000  0.98630000  0.66867000  1.0 -0.2909645169
C  C67  1  0.78887000  0.91767000  0.67000000  1.0 0.1425764979
C  C68  1  0.71194000  0.84214000  0.59320000  1.0 0.1425764979
C  C69  1  0.68416000  0.79246000  0.61170000  1.0 -0.2786697327
C  C70  1  0.66920000  0.82290000  0.50410000  1.0 -0.2909645169
C  C71  1  0.61374000  0.72354000  0.54120000  1.0 0.3174260975
C  C72  1  0.59868000  0.75398000  0.43350000  1.0 0.3174260975
C  C73  1  0.57100000  0.70430000  0.45210000  1.0 -0.2715480058
C  C74  1  0.49300000  0.62760000  0.37360000  1.0 0.6686149658
C  C75  1  0.49280000  0.38350000  0.12570000  1.0 0.6686149658
C  C76  1  0.57055000  0.38345000  0.12630000  1.0 -0.2715480058
C  C77  1  0.58112000  0.39530000  0.06822000  1.0 0.3142144074
C  C78  1  0.63034000  0.37044000  0.18570000  1.0 0.3142144074
C  C79  1  0.65145000  0.39415000  0.06950000  1.0 -0.2715480058
C  C80  1  0.70063000  0.36930000  0.18693000  1.0 -0.2909645169
C  C81  1  0.71113000  0.38113000  0.12880000  1.0 0.1425764979
C  C82  1  0.78806000  0.38126000  0.13020000  1.0 0.1425764979
C  C83  1  0.81584000  0.42754000  0.10830000  1.0 -0.2786697327
C  C84  1  0.83080000  0.33490000  0.15370000  1.0 -0.2909645169
C  C85  1  0.88626000  0.42746000  0.10980000  1.0 0.3174260975
C  C86  1  0.90132000  0.33482000  0.15530000  1.0 0.3174260975
C  C87  1  0.92900000  0.38110000  0.13330000  1.0 -0.2715480058
C  C88  1  0.00700000  0.38060000  0.13460000  1.0 0.6686149658
C  C89  1  0.25780000  0.38350000  0.89070000  1.0 0.6686149658
C  C90  1  0.25715000  0.38345000  0.81290000  1.0 -0.2715480058
C  C91  1  0.32708000  0.39530000  0.81418000  1.0 0.3142144074
C  C92  1  0.18474000  0.37044000  0.74010000  1.0 0.3142144074
C  C93  1  0.32465000  0.39415000  0.74270000  1.0 -0.2715480058
C  C94  1  0.18237000  0.36930000  0.66867000  1.0 -0.2909645169
C  C95  1  0.25233000  0.38113000  0.67000000  1.0 0.1425764979
C  C96  1  0.25106000  0.38126000  0.59320000  1.0 0.1425764979
C  C97  1  0.31924000  0.42754000  0.61170000  1.0 -0.2786697327
C  C98  1  0.18120000  0.33490000  0.50410000  1.0 -0.2909645169
C  C99  1  0.31766000  0.42746000  0.54120000  1.0 0.3174260975
C  C100  1  0.17952000  0.33482000  0.43350000  1.0 0.3174260975
C  C101  1  0.24780000  0.38110000  0.45210000  1.0 -0.2715480058
C  C102  1  0.24600000  0.38060000  0.37360000  1.0 0.6686149658
C  C103  1  0.24220000  0.13290000  0.12570000  1.0 0.6686149658
C  C104  1  0.24285000  0.05575000  0.12630000  1.0 -0.2715480058
C  C105  1  0.17292000  0.98710000  0.06822000  1.0 0.3142144074
C  C106  1  0.31526000  0.05536000  0.18570000  1.0 0.3142144074
C  C107  1  0.17535000  0.91805000  0.06950000  1.0 -0.2715480058
C  C108  1  0.31763000  0.98630000  0.18693000  1.0 -0.2909645169
C  C109  1  0.24767000  0.91767000  0.12880000  1.0 0.1425764979
C  C110  1  0.24894000  0.84214000  0.13020000  1.0 0.1425764979
C  C111  1  0.18076000  0.79246000  0.10830000  1.0 -0.2786697327
C  C112  1  0.31880000  0.82290000  0.15370000  1.0 -0.2909645169
C  C113  1  0.18234000  0.72354000  0.10980000  1.0 0.3174260975
C  C114  1  0.32048000  0.75398000  0.15530000  1.0 0.3174260975
C  C115  1  0.25220000  0.70430000  0.13330000  1.0 -0.2715480058
C  C116  1  0.25400000  0.62760000  0.13460000  1.0 0.6686149658
C  C117  1  0.01590000  0.38630000  0.90220000  1.0 0.7424656571
C  C118  1  0.48410000  0.38630000  0.37040000  1.0 0.7424656571
C  C119  1  0.25000000  0.13340000  0.88340000  1.0 0.9234847844
C  C120  1  0.25000000  0.61990000  0.36990000  1.0 0.8847486795
O  O1  1  0.61300000  0.57340000  0.78120000  1.0 -1.0613901793
O  O2  1  0.68768000  0.55818000  0.02710000  1.0 -0.5903910129
O  O3  1  0.69460000  0.40410000  0.87390000  1.0 -0.5806661426
O  O4  1  0.79460000  0.67460000  0.13380000  1.0 -0.5608092724
O  O5  1  0.79710000  0.39940000  0.85710000  1.0 -0.5718854247
O  O6  1  0.88700000  0.66820000  0.96040000  1.0 -1.0613901793
O  O7  1  0.81232000  0.83942000  0.87050000  1.0 -0.5903910129
O  O8  1  0.80540000  0.67930000  0.70950000  1.0 -0.5806661426
O  O9  1  0.70540000  0.83920000  0.88000000  1.0 -0.5608092724
O  O10  1  0.70290000  0.56000000  0.60230000  1.0 -0.5718854247
O  O11  1  0.70780000  0.66820000  0.78120000  1.0 -1.0613901793
O  O12  1  0.96892000  0.83942000  0.02710000  1.0 -0.5903910129
O  O13  1  0.96980000  0.67930000  0.87390000  1.0 -0.5806661426
O  O14  1  0.95920000  0.83920000  0.13380000  1.0 -0.5608092724
O  O15  1  0.95770000  0.56000000  0.85710000  1.0 -0.5718854247
O  O16  1  0.79220000  0.57340000  0.96040000  1.0 -1.0613901793
O  O17  1  0.53108000  0.55818000  0.87050000  1.0 -0.5903910129
O  O18  1  0.53020000  0.40410000  0.70950000  1.0 -0.5806661426
O  O19  1  0.54080000  0.67460000  0.88000000  1.0 -0.5608092724
O  O20  1  0.54230000  0.39940000  0.60230000  1.0 -0.5718854247
O  O21  1  0.70030000  0.66540000  0.96510000  1.0 -1.1102544396
O  O22  1  0.70050000  0.47680000  0.77630000  1.0 -1.1102544396
O  O23  1  0.79970000  0.76480000  0.96510000  1.0 -1.1102544396
O  O24  1  0.79950000  0.57580000  0.77630000  1.0 -1.1102544396
O  O25  1  0.80520000  0.83720000  0.14240000  1.0 -0.6567975759
O  O26  1  0.95900000  0.67790000  0.13690000  1.0 -0.666206318
O  O27  1  0.95460000  0.55600000  0.01060000  1.0 -0.5957776635
O  O28  1  0.80720000  0.40150000  0.70870000  1.0 -0.6119306563
O  O29  1  0.69480000  0.83720000  0.03200000  1.0 -0.6567975759
O  O30  1  0.54100000  0.67790000  0.71890000  1.0 -0.666206318
O  O31  1  0.54540000  0.55600000  0.60140000  1.0 -0.5957776635
O  O32  1  0.69280000  0.40150000  0.59430000  1.0 -0.6119306563
O  O33  1  0.29220000  0.33180000  0.21880000  1.0 -1.0613901793
O  O34  1  0.03108000  0.16058000  0.97290000  1.0 -0.5903910129
O  O35  1  0.03020000  0.32070000  0.12610000  1.0 -0.5806661426
O  O36  1  0.04080000  0.16080000  0.86620000  1.0 -0.5608092724
O  O37  1  0.04230000  0.44000000  0.14290000  1.0 -0.5718854247
O  O38  1  0.20780000  0.42660000  0.03960000  1.0 -1.0613901793
O  O39  1  0.46892000  0.44182000  0.12950000  1.0 -0.5903910129
O  O40  1  0.46980000  0.59590000  0.29050000  1.0 -0.5806661426
O  O41  1  0.45920000  0.32540000  0.12000000  1.0 -0.5608092724
O  O42  1  0.45770000  0.60060000  0.39770000  1.0 -0.5718854247
O  O43  1  0.38700000  0.42660000  0.21880000  1.0 -1.0613901793
O  O44  1  0.31232000  0.44182000  0.97290000  1.0 -0.5903910129
O  O45  1  0.30540000  0.59590000  0.12610000  1.0 -0.5806661426
O  O46  1  0.20540000  0.32540000  0.86620000  1.0 -0.5608092724
O  O47  1  0.20290000  0.60060000  0.14290000  1.0 -0.5718854247
O  O48  1  0.11300000  0.33180000  0.03960000  1.0 -1.0613901793
O  O49  1  0.18768000  0.16058000  0.12950000  1.0 -0.5903910129
O  O50  1  0.19460000  0.32070000  0.29050000  1.0 -0.5806661426
O  O51  1  0.29460000  0.16080000  0.12000000  1.0 -0.5608092724
O  O52  1  0.29710000  0.44000000  0.39770000  1.0 -0.5718854247
O  O53  1  0.20030000  0.23520000  0.03490000  1.0 -1.1102544396
O  O54  1  0.20050000  0.42420000  0.22370000  1.0 -1.1102544396
O  O55  1  0.29970000  0.33460000  0.03490000  1.0 -1.1102544396
O  O56  1  0.29950000  0.52320000  0.22370000  1.0 -1.1102544396
O  O57  1  0.19480000  0.16280000  0.85760000  1.0 -0.6567975759
O  O58  1  0.04100000  0.32210000  0.86310000  1.0 -0.666206318
O  O59  1  0.04540000  0.44400000  0.98940000  1.0 -0.5957776635
O  O60  1  0.19280000  0.59850000  0.29130000  1.0 -0.6119306563
O  O61  1  0.30520000  0.16280000  0.96800000  1.0 -0.6567975759
O  O62  1  0.45900000  0.32210000  0.28110000  1.0 -0.666206318
O  O63  1  0.45460000  0.44400000  0.39860000  1.0 -0.5957776635
O  O64  1  0.30720000  0.59850000  0.40570000  1.0 -0.6119306563
F  F1  1  0.60490000  0.59380000  0.11830000  1.0 -0.1302254601
F  F2  1  0.88070000  0.63750000  0.26080000  1.0 -0.1302254601
F  F3  1  0.61622000  0.52822000  0.43740000  1.0 -0.1203915058
F  F4  1  0.88780000  0.71090000  0.64950000  1.0 -0.1302254601
F  F5  1  0.89510000  0.01340000  0.98890000  1.0 -0.1302254601
F  F6  1  0.61930000  0.88010000  0.75680000  1.0 -0.1302254601
F  F7  1  0.88378000  0.32118000  0.91200000  1.0 -0.1203915058
F  F8  1  0.61220000  0.26170000  0.82310000  1.0 -0.1302254601
F  F9  1  0.02450000  0.01340000  0.11830000  1.0 -0.1302254601
F  F10  1  0.12330000  0.88010000  0.26080000  1.0 -0.1302254601
F  F11  1  0.40918000  0.32118000  0.43740000  1.0 -0.1203915058
F  F12  1  0.43860000  0.26170000  0.64950000  1.0 -0.1302254601
F  F13  1  0.47550000  0.59380000  0.98890000  1.0 -0.1302254601
F  F14  1  0.37670000  0.63750000  0.75680000  1.0 -0.1302254601
F  F15  1  0.09082000  0.52822000  0.91200000  1.0 -0.1203915058
F  F16  1  0.06140000  0.71090000  0.82310000  1.0 -0.1302254601
F  F17  1  0.97550000  0.98660000  0.88170000  1.0 -0.1302254601
F  F18  1  0.87670000  0.11990000  0.73920000  1.0 -0.1302254601
F  F19  1  0.59082000  0.67882000  0.56260000  1.0 -0.1203915058
F  F20  1  0.56140000  0.73830000  0.35050000  1.0 -0.1302254601
F  F21  1  0.52450000  0.40620000  0.01110000  1.0 -0.1302254601
F  F22  1  0.62330000  0.36250000  0.24320000  1.0 -0.1302254601
F  F23  1  0.90918000  0.47178000  0.08800000  1.0 -0.1203915058
F  F24  1  0.93860000  0.28910000  0.17690000  1.0 -0.1302254601
F  F25  1  0.39510000  0.40620000  0.88170000  1.0 -0.1302254601
F  F26  1  0.11930000  0.36250000  0.73920000  1.0 -0.1302254601
F  F27  1  0.38378000  0.47178000  0.56260000  1.0 -0.1203915058
F  F28  1  0.11220000  0.28910000  0.35050000  1.0 -0.1302254601
F  F29  1  0.10490000  0.98660000  0.01110000  1.0 -0.1302254601
F  F30  1  0.38070000  0.11990000  0.24320000  1.0 -0.1302254601
F  F31  1  0.11622000  0.67882000  0.08800000  1.0 -0.1203915058
F  F32  1  0.38780000  0.73830000  0.17690000  1.0 -0.1302254601
