# DDEC6 charges by PACMAN v1.1 (https://github.com/mtap-research/PACMAN-charge/)
data_IROVES_ASR_pacman
_symmetry_space_group_name_H-M   'P 1'
_cell_length_a   5.22100000
_cell_length_b   12.86000000
_cell_length_c   14.56100000
_cell_angle_alpha   115.29900000
_cell_angle_beta   92.67300000
_cell_angle_gamma   89.89400000
_symmetry_Int_Tables_number   1
_chemical_formula_structural   U3Zn2P8H8(CO6)4
_chemical_formula_sum   'U3 Zn2 P8 H8 C4 O24'
_cell_volume   882.74995710
_cell_formula_units_Z   1
loop_
 _symmetry_equiv_pos_site_id
 _symmetry_equiv_pos_as_xyz
  1  'x, y, z'
loop_
 _atom_site_type_symbol
 _atom_site_label
 _atom_site_symmetry_multiplicity
 _atom_site_fract_x
 _atom_site_fract_y
 _atom_site_fract_z
 _atom_site_occupancy
 _atom_site_charge
U  U1  1  0.00000000  0.00000000  0.00000000  1.0 2.189452136
U  U2  1  0.83267000  0.28370000  0.41945000  1.0 2.4991191273
U  U3  1  0.16733000  0.71630000  0.58055000  1.0 2.4991191273
Zn  Zn1  1  0.65380000  0.15470000  0.57610000  1.0 1.0496441965
Zn  Zn2  1  0.34620000  0.84530000  0.42390000  1.0 1.0496441965
P  P1  1  0.64250000  0.54640000  0.40930000  1.0 1.4903171306
P  P2  1  0.35750000  0.45360000  0.59070000  1.0 1.4903171306
P  P3  1  0.51670000  0.06510000  0.18590000  1.0 1.4903171306
P  P4  1  0.48330000  0.93490000  0.81410000  1.0 1.4903171306
P  P5  1  0.32210000  0.06500000  0.37610000  1.0 1.4649024849
P  P6  1  0.67790000  0.93500000  0.62390000  1.0 1.4649024849
P  P7  1  0.85440000  0.71130000  0.33070000  1.0 1.4378966932
P  P8  1  0.14560000  0.28870000  0.66930000  1.0 1.4378966932
H  H1  1  0.93650000  0.51930000  0.28350000  1.0 0.2211716071
H  H2  1  0.06350000  0.48070000  0.71650000  1.0 0.2211716071
H  H3  1  0.66030000  0.53240000  0.24310000  1.0 0.2211716071
H  H4  1  0.33970000  0.46760000  0.75690000  1.0 0.2211716071
H  H5  1  0.58740000  0.93740000  0.25580000  1.0 0.2331802046
H  H6  1  0.41260000  0.06260000  0.74420000  1.0 0.2331802046
H  H7  1  0.30540000  0.92270000  0.20920000  1.0 0.2211716071
H  H8  1  0.69460000  0.07730000  0.79080000  1.0 0.2211716071
C  C1  1  0.78100000  0.56340000  0.30150000  1.0 -0.7929073329
C  C2  1  0.21900000  0.43660000  0.69850000  1.0 -0.7929073329
C  C3  1  0.43700000  0.97880000  0.24960000  1.0 -0.8087429161
C  C4  1  0.56300000  0.02120000  0.75040000  1.0 -0.8087429161
O  O1  1  0.69800000  0.99360000  0.10230000  1.0 -0.90265665
O  O2  1  0.30200000  0.00640000  0.89770000  1.0 -0.90265665
O  O3  1  0.26900000  0.09370000  0.14160000  1.0 -0.8754593487
O  O4  1  0.73100000  0.90630000  0.85840000  1.0 -0.8754593487
O  O5  1  0.61600000  0.41710000  0.37590000  1.0 -0.8275633807
O  O6  1  0.38400000  0.58290000  0.62410000  1.0 -0.8275633807
O  O7  1  0.54900000  0.14650000  0.43980000  1.0 -0.8588414545
O  O8  1  0.45100000  0.85350000  0.56020000  1.0 -0.8588414545
O  O9  1  0.39100000  0.60650000  0.43550000  1.0 -0.8364645595
O  O10  1  0.60900000  0.39350000  0.56450000  1.0 -0.8364645595
O  O11  1  0.10100000  0.13490000  0.36490000  1.0 -0.817784452
O  O12  1  0.89900000  0.86510000  0.63510000  1.0 -0.817784452
O  O13  1  0.84000000  0.59750000  0.49700000  1.0 -0.8688267822
O  O14  1  0.16000000  0.40250000  0.50300000  1.0 -0.8688267822
O  O15  1  0.64100000  0.17490000  0.26110000  1.0 -0.8087429161
O  O16  1  0.35900000  0.82510000  0.73890000  1.0 -0.817784452
O  O17  1  0.02600000  0.75930000  0.42540000  1.0 -0.817784452
O  O18  1  0.97400000  0.24070000  0.57460000  1.0 -0.817784452
O  O19  1  0.61500000  0.77620000  0.33300000  1.0 -0.739274701
O  O20  1  0.38500000  0.22380000  0.66700000  1.0 -0.739274701
O  O21  1  0.24900000  0.98920000  0.42610000  1.0 -0.739274701
O  O22  1  0.75100000  0.01080000  0.57390000  1.0 -0.739274701
O  O23  1  0.02200000  0.70560000  0.23680000  1.0 -0.7247734423
O  O24  1  0.97800000  0.29440000  0.76320000  1.0 -0.7247734423
