# DDEC6 charges by PACMAN v1.1 (https://github.com/mtap-research/PACMAN-charge/)
data_ISAYOQ_ion_pacman
_symmetry_space_group_name_H-M   'P 1'
_cell_length_a   25.11030000
_cell_length_b   25.11030000
_cell_length_c   25.11030000
_cell_angle_alpha   148.90200000
_cell_angle_beta   148.90200000
_cell_angle_gamma   44.55570000
_symmetry_Int_Tables_number   1
_chemical_formula_structural   CuP2H16C24N8(OF3)4
_chemical_formula_sum   'Cu4 P8 H64 C96 N32 O16 F48'
_cell_volume   4211.10877366
_cell_formula_units_Z   4
loop_
 _symmetry_equiv_pos_site_id
 _symmetry_equiv_pos_as_xyz
  1  'x, y, z'
loop_
 _atom_site_type_symbol
 _atom_site_label
 _atom_site_symmetry_multiplicity
 _atom_site_fract_x
 _atom_site_fract_y
 _atom_site_fract_z
 _atom_site_occupancy
 _atom_site_charge
Cu  Cu1  1  0.52798000  0.02798000  0.50000000  1.0 0.6098915684
Cu  Cu2  1  0.77798000  0.77798000  0.00000000  1.0 0.6098915684
Cu  Cu3  1  0.22202000  0.22202000  0.00000000  1.0 0.6098915684
Cu  Cu4  1  0.97202000  0.47202000  0.50000000  1.0 0.6098915684
P  P1  1  0.98590000  0.57960000  0.17510000  1.0 1.4504509914
P  P2  1  0.18920000  0.01410000  0.59370000  1.0 1.4504509914
P  P3  1  0.34550000  0.43920000  0.67510000  1.0 1.4504509914
P  P4  1  0.42040000  0.59550000  0.40630000  1.0 1.4504509914
P  P5  1  0.76410000  0.67040000  0.32490000  1.0 1.4504509914
P  P6  1  0.32960000  0.65450000  0.09370000  1.0 1.4504509914
P  P7  1  0.56080000  0.23590000  0.90630000  1.0 1.4504509914
P  P8  1  0.40450000  0.81080000  0.82490000  1.0 1.4504509914
H  H1  1  0.52590000  0.94900000  0.32150000  1.0 0.101732427
H  H2  1  0.69900000  0.87750000  0.92310000  1.0 0.101732427
H  H3  1  0.62750000  0.20440000  0.67850000  1.0 0.101732427
H  H4  1  0.95440000  0.77590000  0.07690000  1.0 0.101732427
H  H5  1  0.63330000  0.92510000  0.32300000  1.0 0.1465452585
H  H6  1  0.67510000  0.85210000  0.79180000  1.0 0.1465452585
H  H7  1  0.60210000  0.31030000  0.67700000  1.0 0.1465452585
H  H8  1  0.06030000  0.88330000  0.20820000  1.0 0.1465452585
H  H9  1  0.87560000  0.99270000  0.68430000  1.0 0.1403479763
H  H10  1  0.74270000  0.55840000  0.61710000  1.0 0.1403479763
H  H11  1  0.30840000  0.19130000  0.31570000  1.0 0.1403479763
H  H12  1  0.94130000  0.12560000  0.38290000  1.0 0.1403479763
H  H13  1  0.76160000  0.01660000  0.67500000  1.0 0.1061849041
H  H14  1  0.76660000  0.59160000  0.75500000  1.0 0.1061849041
H  H15  1  0.34160000  0.08660000  0.32500000  1.0 0.1061849041
H  H16  1  0.83660000  0.01160000  0.24500000  1.0 0.1061849041
H  H17  1  0.69670000  0.87800000  0.20030000  1.0 0.1403479763
H  H18  1  0.62800000  0.92770000  0.68130000  1.0 0.1403479763
H  H19  1  0.67770000  0.49640000  0.79970000  1.0 0.1403479763
H  H20  1  0.24640000  0.94670000  0.31870000  1.0 0.1403479763
H  H21  1  0.66730000  0.83370000  0.04960000  1.0 0.1061849041
H  H22  1  0.58370000  0.03410000  0.66640000  1.0 0.1061849041
H  H23  1  0.78410000  0.61770000  0.95040000  1.0 0.1061849041
H  H24  1  0.36770000  0.91730000  0.33360000  1.0 0.1061849041
H  H25  1  0.96320000  0.83520000  0.27700000  1.0 0.101732427
H  H26  1  0.58520000  0.80820000  0.37200000  1.0 0.101732427
H  H27  1  0.55820000  0.68620000  0.72300000  1.0 0.101732427
H  H28  1  0.43620000  0.21320000  0.62800000  1.0 0.101732427
H  H29  1  0.00240000  0.87640000  0.43300000  1.0 0.1465452585
H  H30  1  0.62640000  0.69340000  0.37400000  1.0 0.1465452585
H  H31  1  0.44340000  0.56940000  0.56700000  1.0 0.1465452585
H  H32  1  0.31940000  0.25240000  0.62600000  1.0 0.1465452585
H  H33  1  0.12250000  0.04560000  0.82150000  1.0 0.101732427
H  H34  1  0.79560000  0.47410000  0.42310000  1.0 0.101732427
H  H35  1  0.05100000  0.37250000  0.57690000  1.0 0.101732427
H  H36  1  0.22410000  0.30100000  0.17850000  1.0 0.101732427
H  H37  1  0.14790000  0.93970000  0.82300000  1.0 0.1465452585
H  H38  1  0.68970000  0.36670000  0.29180000  1.0 0.1465452585
H  H39  1  0.07490000  0.39790000  0.70820000  1.0 0.1465452585
H  H40  1  0.11670000  0.32490000  0.17700000  1.0 0.1465452585
H  H41  1  0.44160000  0.05870000  0.18430000  1.0 0.1403479763
H  H42  1  0.80870000  0.12440000  0.11710000  1.0 0.1403479763
H  H43  1  0.00730000  0.69160000  0.88290000  1.0 0.1403479763
H  H44  1  0.87440000  0.25730000  0.81570000  1.0 0.1403479763
H  H45  1  0.40840000  0.16340000  0.17500000  1.0 0.1061849041
H  H46  1  0.91340000  0.23840000  0.25500000  1.0 0.1061849041
H  H47  1  0.98340000  0.65840000  0.74500000  1.0 0.1061849041
H  H48  1  0.98840000  0.23340000  0.82500000  1.0 0.1061849041
H  H49  1  0.07230000  0.75360000  0.70030000  1.0 0.1403479763
H  H50  1  0.50360000  0.30330000  0.18130000  1.0 0.1403479763
H  H51  1  0.12200000  0.32230000  0.81870000  1.0 0.1403479763
H  H52  1  0.05330000  0.37200000  0.29970000  1.0 0.1403479763
H  H53  1  0.96590000  0.63230000  0.54960000  1.0 0.1061849041
H  H54  1  0.38230000  0.33270000  0.16640000  1.0 0.1061849041
H  H55  1  0.16630000  0.21590000  0.83360000  1.0 0.1061849041
H  H56  1  0.08270000  0.41630000  0.45040000  1.0 0.1061849041
H  H57  1  0.19180000  0.56380000  0.77700000  1.0 0.101732427
H  H58  1  0.31380000  0.03680000  0.87200000  1.0 0.101732427
H  H59  1  0.16480000  0.44180000  0.12800000  1.0 0.101732427
H  H60  1  0.78680000  0.41480000  0.22300000  1.0 0.101732427
H  H61  1  0.30660000  0.68060000  0.93300000  1.0 0.1465452585
H  H62  1  0.43060000  0.99760000  0.87400000  1.0 0.1465452585
H  H63  1  0.12360000  0.55660000  0.12600000  1.0 0.1465452585
H  H64  1  0.74760000  0.37360000  0.06700000  1.0 0.1465452585
C  C1  1  0.59699000  0.95829000  0.39550000  1.0 0.0773580141
C  C2  1  0.70829000  0.81279000  0.86130000  1.0 0.0773580141
C  C3  1  0.56279000  0.20149000  0.60450000  1.0 0.0773580141
C  C4  1  0.95149000  0.84699000  0.13870000  1.0 0.0773580141
C  C5  1  0.66062000  0.94382000  0.39560000  1.0 -0.1392971689
C  C6  1  0.69382000  0.79822000  0.78320000  1.0 -0.1392971689
C  C7  1  0.54822000  0.26502000  0.60440000  1.0 -0.1392971689
C  C8  1  0.01502000  0.91062000  0.21680000  1.0 -0.1392971689
C  C9  1  0.76546000  0.95706000  0.50400000  1.0 0.0556669283
C  C10  1  0.70706000  0.70306000  0.69160000  1.0 0.0556669283
C  C11  1  0.45306000  0.26146000  0.49600000  1.0 0.0556669283
C  C12  1  0.01146000  0.01546000  0.30840000  1.0 0.0556669283
C  C13  1  0.80474000  0.98414000  0.61040000  1.0 -0.1508296345
C  C14  1  0.73414000  0.62374000  0.67940000  1.0 -0.1508296345
C  C15  1  0.37374000  0.19434000  0.38960000  1.0 -0.1508296345
C  C16  1  0.94434000  0.05474000  0.32060000  1.0 -0.1508296345
C  C17  1  0.73569000  0.99789000  0.60340000  1.0 0.0773580141
C  C18  1  0.74789000  0.64449000  0.76220000  1.0 0.0773580141
C  C19  1  0.39449000  0.13229000  0.39660000  1.0 0.0773580141
C  C20  1  0.88229000  0.98569000  0.23780000  1.0 0.0773580141
C  C21  1  0.83549000  0.94649000  0.50880000  1.0 0.3048334318
C  C22  1  0.69649000  0.68769000  0.61100000  1.0 0.3048334318
C  C23  1  0.43769000  0.32669000  0.49120000  1.0 0.3048334318
C  C24  1  0.07669000  0.08549000  0.38900000  1.0 0.3048334318
C  C25  1  0.87467000  0.91277000  0.43390000  1.0 0.2789719488
C  C26  1  0.66277000  0.72887000  0.53810000  1.0 0.2789719488
C  C27  1  0.47887000  0.44077000  0.56610000  1.0 0.2789719488
C  C28  1  0.19077000  0.12467000  0.46190000  1.0 0.2789719488
C  C29  1  0.85335000  0.88545000  0.33670000  1.0 0.0485302407
C  C30  1  0.63545000  0.79875000  0.53210000  1.0 0.0485302407
C  C31  1  0.54875000  0.51665000  0.66330000  1.0 0.0485302407
C  C32  1  0.26665000  0.10335000  0.46790000  1.0 0.0485302407
C  C33  1  0.75213000  0.87013000  0.21820000  1.0 -0.1392971689
C  C34  1  0.62013000  0.90193000  0.61800000  1.0 -0.1392971689
C  C35  1  0.65193000  0.53393000  0.78180000  1.0 -0.1392971689
C  C36  1  0.28393000  0.00213000  0.38200000  1.0 -0.1392971689
C  C37  1  0.73492000  0.84312000  0.12800000  1.0 0.0773580141
C  C38  1  0.59312000  0.96512000  0.60820000  1.0 0.0773580141
C  C39  1  0.71512000  0.60692000  0.87200000  1.0 0.0773580141
C  C40  1  0.35692000  0.98492000  0.39180000  1.0 0.0773580141
C  C41  1  0.90927000  0.84357000  0.26170000  1.0 0.101732427
C  C42  1  0.59357000  0.83187000  0.43430000  1.0 0.101732427
C  C43  1  0.58187000  0.64757000  0.73830000  1.0 0.101732427
C  C44  1  0.39757000  0.15927000  0.56570000  1.0 0.101732427
C  C45  1  0.93400000  0.86960000  0.35720000  1.0 -0.1392971689
C  C46  1  0.61960000  0.76240000  0.43560000  1.0 -0.1392971689
C  C47  1  0.51240000  0.57680000  0.64280000  1.0 -0.1392971689
C  C48  1  0.32680000  0.18400000  0.56440000  1.0 -0.1392971689
C  C49  1  0.18721000  0.04851000  0.89550000  1.0 0.0773580141
C  C50  1  0.79851000  0.40301000  0.36130000  1.0 0.0773580141
C  C51  1  0.04171000  0.43721000  0.63870000  1.0 0.0773580141
C  C52  1  0.15301000  0.29171000  0.10450000  1.0 0.0773580141
C  C53  1  0.20178000  0.98498000  0.89560000  1.0 -0.1392971689
C  C54  1  0.73498000  0.33938000  0.28320000  1.0 -0.1392971689
C  C55  1  0.05618000  0.45178000  0.71680000  1.0 -0.1392971689
C  C56  1  0.08938000  0.30618000  0.10440000  1.0 -0.1392971689
C  C57  1  0.29694000  0.98854000  0.00400000  1.0 0.0556669283
C  C58  1  0.73854000  0.23454000  0.19160000  1.0 0.0556669283
C  C59  1  0.04294000  0.54694000  0.80840000  1.0 0.0556669283
C  C60  1  0.98454000  0.29294000  0.99600000  1.0 0.0556669283
C  C61  1  0.37626000  0.05566000  0.11040000  1.0 -0.1508296345
C  C62  1  0.80566000  0.19526000  0.17940000  1.0 -0.1508296345
C  C63  1  0.01586000  0.62626000  0.82060000  1.0 -0.1508296345
C  C64  1  0.94526000  0.26586000  0.88960000  1.0 -0.1508296345
C  C65  1  0.35551000  0.11771000  0.10340000  1.0 0.0773580141
C  C66  1  0.86771000  0.26431000  0.26220000  1.0 0.0773580141
C  C67  1  0.00211000  0.60551000  0.73780000  1.0 0.0773580141
C  C68  1  0.01431000  0.25211000  0.89660000  1.0 0.0773580141
C  C69  1  0.31231000  0.92331000  0.00880000  1.0 0.3058708904
C  C70  1  0.67331000  0.16451000  0.11100000  1.0 0.3058708904
C  C71  1  0.05351000  0.56231000  0.88900000  1.0 0.3048334318
C  C72  1  0.91451000  0.30351000  0.99120000  1.0 0.3058708904
C  C73  1  0.27113000  0.80923000  0.93390000  1.0 0.2789719488
C  C74  1  0.55923000  0.12533000  0.03810000  1.0 0.2789719488
C  C75  1  0.08723000  0.52113000  0.96190000  1.0 0.2789719488
C  C76  1  0.87533000  0.33723000  0.06610000  1.0 0.2789719488
C  C77  1  0.20125000  0.73335000  0.83670000  1.0 0.0485302407
C  C78  1  0.48335000  0.14665000  0.03210000  1.0 0.0485302407
C  C79  1  0.11455000  0.45125000  0.96790000  1.0 0.0485302407
C  C80  1  0.89665000  0.36455000  0.16330000  1.0 0.0485302407
C  C81  1  0.09807000  0.71607000  0.71820000  1.0 -0.1392971689
C  C82  1  0.46607000  0.24787000  0.11800000  1.0 -0.1392971689
C  C83  1  0.12987000  0.34807000  0.88200000  1.0 -0.1392971689
C  C84  1  0.99787000  0.37987000  0.28180000  1.0 -0.1392971689
C  C85  1  0.03488000  0.64308000  0.62800000  1.0 0.0773580141
C  C86  1  0.39308000  0.26508000  0.10820000  1.0 0.0773580141
C  C87  1  0.15688000  0.28488000  0.89180000  1.0 0.0773580141
C  C88  1  0.01508000  0.40688000  0.37200000  1.0 0.0773580141
C  C89  1  0.16813000  0.60243000  0.76170000  1.0 0.101732427
C  C90  1  0.35243000  0.09073000  0.93430000  1.0 0.101732427
C  C91  1  0.15643000  0.41813000  0.06570000  1.0 0.101732427
C  C92  1  0.84073000  0.40643000  0.23830000  1.0 0.101732427
C  C93  1  0.23760000  0.67320000  0.85720000  1.0 -0.1392971689
C  C94  1  0.42320000  0.06600000  0.93560000  1.0 -0.1392971689
C  C95  1  0.13040000  0.48760000  0.06440000  1.0 -0.1392971689
C  C96  1  0.81600000  0.38040000  0.14280000  1.0 -0.1392971689
N  N1  1  0.63324000  0.98584000  0.49900000  1.0 -0.2378949661
N  N2  1  0.73584000  0.73684000  0.85260000  1.0 -0.2378949661
N  N3  1  0.48684000  0.13424000  0.50100000  1.0 -0.2378949661
N  N4  1  0.88424000  0.88324000  0.14740000  1.0 -0.2378949661
N  N5  1  0.93272000  0.96922000  0.60770000  1.0 -0.2693250095
N  N6  1  0.71922000  0.61152000  0.53650000  1.0 -0.2693250095
N  N7  1  0.36152000  0.32502000  0.39230000  1.0 -0.2693250095
N  N8  1  0.07502000  0.18272000  0.46350000  1.0 -0.2693250095
N  N9  1  0.95663000  0.94493000  0.55370000  1.0 -0.2263982249
N  N10  1  0.69493000  0.64123000  0.48830000  1.0 -0.2263982249
N  N11  1  0.39123000  0.40293000  0.44630000  1.0 -0.2263982249
N  N12  1  0.15293000  0.20663000  0.51170000  1.0 -0.2263982249
N  N13  1  0.81456000  0.82996000  0.15100000  1.0 -0.2544812065
N  N14  1  0.57996000  0.92896000  0.51540000  1.0 -0.2552925351
N  N15  1  0.67896000  0.66356000  0.84900000  1.0 -0.2552925351
N  N16  1  0.41356000  0.06456000  0.48460000  1.0 -0.2552925351
N  N17  1  0.26316000  0.11576000  0.99900000  1.0 -0.2378949661
N  N18  1  0.86576000  0.36676000  0.35260000  1.0 -0.2378949661
N  N19  1  0.01416000  0.51316000  0.64740000  1.0 -0.2378949661
N  N20  1  0.11676000  0.26416000  0.00100000  1.0 -0.2378949661
N  N21  1  0.38848000  0.92498000  0.10770000  1.0 -0.2693250095
N  N22  1  0.67498000  0.06728000  0.03650000  1.0 -0.2693250095
N  N23  1  0.03078000  0.63848000  0.96350000  1.0 -0.2693250095
N  N24  1  0.81728000  0.28078000  0.89230000  1.0 -0.2693250095
N  N25  1  0.35877000  0.84707000  0.05370000  1.0 -0.2263982249
N  N26  1  0.59707000  0.04337000  0.98830000  1.0 -0.2263982249
N  N27  1  0.05507000  0.60877000  0.01170000  1.0 -0.2263982249
N  N28  1  0.79337000  0.30507000  0.94630000  1.0 -0.2263982249
N  N29  1  0.07104000  0.58644000  0.65100000  1.0 -0.2552925351
N  N30  1  0.33644000  0.18544000  0.01540000  1.0 -0.2552925351
N  N31  1  0.17004000  0.32104000  0.98460000  1.0 -0.2544812065
N  N32  1  0.93544000  0.42004000  0.34900000  1.0 -0.2552925351
O  O1  1  0.79125000  0.91185000  0.39540000  1.0 -0.1658597187
O  O2  1  0.66185000  0.76645000  0.62060000  1.0 -0.1658597187
O  O3  1  0.51645000  0.39585000  0.60460000  1.0 -0.1658597187
O  O4  1  0.14585000  0.04125000  0.37940000  1.0 -0.1658597187
O  O5  1  0.40390000  0.88880000  0.24170000  1.0 -0.0347786051
O  O6  1  0.63880000  0.89710000  0.98490000  1.0 -0.0386987882
O  O7  1  0.64710000  0.16220000  0.75830000  1.0 -0.0386987882
O  O8  1  0.91220000  0.65390000  0.01510000  1.0 -0.0386987882
O  O9  1  0.23355000  0.85415000  0.89540000  1.0 -0.1658597187
O  O10  1  0.60415000  0.20875000  0.12060000  1.0 -0.1658597187
O  O11  1  0.08815000  0.48355000  0.87940000  1.0 -0.1658597187
O  O12  1  0.95875000  0.33815000  0.10460000  1.0 -0.1658597187
O  O13  1  0.10290000  0.08780000  0.74170000  1.0 -0.0386987882
O  O14  1  0.83780000  0.59610000  0.48490000  1.0 -0.0386987882
O  O15  1  0.11120000  0.35290000  0.51510000  1.0 -0.0386987882
O  O16  1  0.34610000  0.36120000  0.25830000  1.0 -0.0386987882
F  F1  1  0.95880000  0.52980000  0.16500000  1.0 -0.3869550255
F  F2  1  0.04010000  0.67260000  0.33250000  1.0 -0.3650667471
F  F3  1  0.01320000  0.62820000  0.18500000  1.0 -0.2378949661
F  F4  1  0.95120000  0.49450000  0.03130000  1.0 -0.2804089215
F  F5  1  0.08630000  0.52090000  0.21140000  1.0 -0.3609873337
F  F6  1  0.88070000  0.62820000  0.12290000  1.0 -0.382193542
F  F7  1  0.20620000  0.04120000  0.57100000  1.0 -0.3869550255
F  F8  1  0.29240000  0.95990000  0.63250000  1.0 -0.3609873337
F  F9  1  0.17180000  0.98680000  0.61500000  1.0 -0.2378949661
F  F10  1  0.08010000  0.04880000  0.54330000  1.0 -0.2804089215
F  F11  1  0.12510000  0.91370000  0.43460000  1.0 -0.3542375666
F  F12  1  0.24220000  0.11930000  0.74750000  1.0 -0.382193542
F  F13  1  0.38520000  0.45620000  0.66500000  1.0 -0.3869550255
F  F14  1  0.40990000  0.54240000  0.83250000  1.0 -0.3609873337
F  F15  1  0.30680000  0.42180000  0.68500000  1.0 -0.2378949661
F  F16  1  0.28680000  0.33010000  0.53130000  1.0 -0.2804089215
F  F17  1  0.44050000  0.37510000  0.71140000  1.0 -0.3542375666
F  F18  1  0.24470000  0.49220000  0.62290000  1.0 -0.382193542
F  F19  1  0.47020000  0.63520000  0.42900000  1.0 -0.3869550255
F  F20  1  0.32740000  0.65990000  0.36750000  1.0 -0.3609873337
F  F21  1  0.37180000  0.55680000  0.38500000  1.0 -0.2378949661
F  F22  1  0.50550000  0.53680000  0.45670000  1.0 -0.2804089215
F  F23  1  0.47910000  0.69050000  0.56540000  1.0 -0.3609873337
F  F24  1  0.37180000  0.49470000  0.25250000  1.0 -0.382193542
F  F25  1  0.79120000  0.72020000  0.33500000  1.0 -0.3869550255
F  F26  1  0.70990000  0.57740000  0.16750000  1.0 -0.3609873337
F  F27  1  0.73680000  0.62180000  0.31500000  1.0 -0.2378949661
F  F28  1  0.79880000  0.75550000  0.46870000  1.0 -0.2804089215
F  F29  1  0.66370000  0.72910000  0.28860000  1.0 -0.3609873337
F  F30  1  0.86930000  0.62180000  0.37710000  1.0 -0.382193542
F  F31  1  0.27980000  0.61480000  0.07100000  1.0 -0.3869550255
F  F32  1  0.42260000  0.59010000  0.13250000  1.0 -0.3609873337
F  F33  1  0.37820000  0.69320000  0.11500000  1.0 -0.2378949661
F  F34  1  0.24450000  0.71320000  0.04330000  1.0 -0.2804089215
F  F35  1  0.27090000  0.55950000  0.93460000  1.0 -0.3542375666
F  F36  1  0.37820000  0.75530000  0.24750000  1.0 -0.382193542
F  F37  1  0.54380000  0.20880000  0.92900000  1.0 -0.3869550255
F  F38  1  0.45760000  0.29010000  0.86750000  1.0 -0.3609873337
F  F39  1  0.57820000  0.26320000  0.88500000  1.0 -0.2378949661
F  F40  1  0.66990000  0.20120000  0.95670000  1.0 -0.2804089215
F  F41  1  0.62490000  0.33630000  0.06540000  1.0 -0.3542375666
F  F42  1  0.50780000  0.13070000  0.75250000  1.0 -0.382193542
F  F43  1  0.36480000  0.79380000  0.83500000  1.0 -0.3869550255
F  F44  1  0.34010000  0.70760000  0.66750000  1.0 -0.3609873337
F  F45  1  0.44320000  0.82820000  0.81500000  1.0 -0.2378949661
F  F46  1  0.46320000  0.91990000  0.96870000  1.0 -0.2804089215
F  F47  1  0.30950000  0.87490000  0.78860000  1.0 -0.3542375666
F  F48  1  0.50530000  0.75780000  0.87710000  1.0 -0.382193542
