# DDEC6 charges by PACMAN v1.1 (https://github.com/mtap-research/PACMAN-charge/)
data_ISEQIH_FSR_pacman
_symmetry_space_group_name_H-M   'P 1'
_cell_length_a   5.94660000
_cell_length_b   10.22470000
_cell_length_c   16.64960000
_cell_angle_alpha   107.78700000
_cell_angle_beta   100.28200000
_cell_angle_gamma   89.79100000
_symmetry_Int_Tables_number   1
_chemical_formula_structural   Ca3H14(C3O4)4
_chemical_formula_sum   'Ca6 H28 C24 O32'
_cell_volume   947.06224713
_cell_formula_units_Z   2
loop_
 _symmetry_equiv_pos_site_id
 _symmetry_equiv_pos_as_xyz
  1  'x, y, z'
loop_
 _atom_site_type_symbol
 _atom_site_label
 _atom_site_symmetry_multiplicity
 _atom_site_fract_x
 _atom_site_fract_y
 _atom_site_fract_z
 _atom_site_occupancy
 _atom_site_charge
Ca  Ca1  1  0.75595000  0.87952000  0.00367000  1.0 1.3447219809
Ca  Ca2  1  0.24405000  0.12048000  0.99633000  1.0 1.3447219809
Ca  Ca3  1  0.05062000  0.18055000  0.60432000  1.0 1.2860905011
Ca  Ca4  1  0.94938000  0.81945000  0.39568000  1.0 1.2860905011
Ca  Ca5  1  0.45185000  0.57902000  0.39665000  1.0 1.364555486
Ca  Ca6  1  0.54815000  0.42098000  0.60335000  1.0 1.364555486
H  H1  1  0.46700000  0.65700000  0.02600000  1.0 0.3296638807
H  H2  1  0.53300000  0.34300000  0.97400000  1.0 0.3296638807
H  H3  1  0.49100000  0.62000000  0.94100000  1.0 0.3488052567
H  H4  1  0.50900000  0.38000000  0.05900000  1.0 0.3488052567
H  H5  1  0.15800000  0.73900000  0.01700000  1.0 0.3296638807
H  H6  1  0.84200000  0.26100000  0.98300000  1.0 0.3296638807
H  H7  1  0.08700000  0.69800000  0.07800000  1.0 0.3242428382
H  H8  1  0.91300000  0.30200000  0.92200000  1.0 0.3242428382
H  H9  1  0.29600000  0.35250000  0.25720000  1.0 0.3571386417
H  H10  1  0.70400000  0.64750000  0.74280000  1.0 0.3571386417
H  H11  1  0.15810000  0.01870000  0.64040000  1.0 0.2793158521
H  H12  1  0.84190000  0.98130000  0.35960000  1.0 0.2793158521
H  H13  1  0.75790000  0.24920000  0.20780000  1.0 0.1685408209
H  H14  1  0.24210000  0.75080000  0.79220000  1.0 0.1685408209
H  H15  1  0.91670000  0.13760000  0.23420000  1.0 0.1648843815
H  H16  1  0.08330000  0.86240000  0.76580000  1.0 0.1648843815
H  H17  1  0.01930000  0.19030000  0.36590000  1.0 0.1520729194
H  H18  1  0.98070000  0.80970000  0.63410000  1.0 0.1520729194
H  H19  1  0.84430000  0.30800000  0.39070000  1.0 0.1685408209
H  H20  1  0.15570000  0.69200000  0.60930000  1.0 0.1685408209
H  H21  1  0.48760000  0.82030000  0.62940000  1.0 0.1520729194
H  H22  1  0.51240000  0.17970000  0.37060000  1.0 0.1520729194
H  H23  1  0.65910000  0.91640000  0.60590000  1.0 0.1685408209
H  H24  1  0.34090000  0.08360000  0.39410000  1.0 0.1685408209
H  H25  1  0.74190000  0.02900000  0.79070000  1.0 0.1685408209
H  H26  1  0.25810000  0.97100000  0.20930000  1.0 0.1685408209
H  H27  1  0.58510000  0.89020000  0.75950000  1.0 0.1520729194
H  H28  1  0.41490000  0.10980000  0.24050000  1.0 0.1520729194
C  C1  1  0.02080000  0.20280000  0.14150000  1.0 0.6590263476
C  C2  1  0.97920000  0.79720000  0.85850000  1.0 0.6590263476
C  C3  1  0.91910000  0.22600000  0.22140000  1.0 -0.4387236158
C  C4  1  0.08090000  0.77400000  0.77860000  1.0 -0.4387236158
C  C5  1  0.03540000  0.33740000  0.30420000  1.0 0.2491867026
C  C6  1  0.96460000  0.66260000  0.69580000  1.0 0.2491867026
C  C7  1  0.00320000  0.29090000  0.38150000  1.0 -0.4301921646
C  C8  1  0.99680000  0.70910000  0.61850000  1.0 -0.4301921646
C  C9  1  0.16310000  0.35760000  0.46570000  1.0 0.6862815698
C  C10  1  0.83690000  0.64240000  0.53430000  1.0 0.6862815698
C  C11  1  0.92290000  0.47570000  0.31250000  1.0 0.5587992152
C  C12  1  0.07710000  0.52430000  0.68750000  1.0 0.5587992152
C  C13  1  0.33840000  0.89400000  0.53260000  1.0 0.6764934738
C  C14  1  0.66160000  0.10600000  0.46740000  1.0 0.6764934738
C  C15  1  0.50110000  0.90700000  0.61540000  1.0 -0.4500840227
C  C16  1  0.49890000  0.09300000  0.38460000  1.0 -0.4500840227
C  C17  1  0.46730000  0.02740000  0.69390000  1.0 0.2551324447
C  C18  1  0.53270000  0.97260000  0.30610000  1.0 0.2551324447
C  C19  1  0.58120000  0.99160000  0.77500000  1.0 -0.4161515454
C  C20  1  0.41880000  0.00840000  0.22500000  1.0 -0.4161515454
C  C21  1  0.47250000  0.04220000  0.85450000  1.0 0.6590263476
C  C22  1  0.52750000  0.95780000  0.14550000  1.0 0.6590263476
C  C23  1  0.57930000  0.15960000  0.68920000  1.0 0.5530730565
C  C24  1  0.42070000  0.84040000  0.31080000  1.0 0.5530730565
O  O1  1  0.17580000  0.28350000  0.13870000  1.0 -0.6067532917
O  O2  1  0.82420000  0.71650000  0.86130000  1.0 -0.6067532917
O  O3  1  0.49800000  0.68570000  0.98640000  1.0 -0.7048261235
O  O4  1  0.50200000  0.31430000  0.01360000  1.0 -0.7048261235
O  O5  1  0.94980000  0.09760000  0.07990000  1.0 -0.6467088978
O  O6  1  0.05020000  0.90240000  0.92010000  1.0 -0.6467088978
O  O7  1  0.06150000  0.75160000  0.04880000  1.0 -0.7048261235
O  O8  1  0.93850000  0.24840000  0.95120000  1.0 -0.7048261235
O  O9  1  0.18800000  0.29360000  0.51960000  1.0 -0.6400239239
O  O10  1  0.81200000  0.70640000  0.48040000  1.0 -0.6400239239
O  O11  1  0.26690000  0.47130000  0.47950000  1.0 -0.6192460279
O  O12  1  0.73310000  0.52870000  0.52050000  1.0 -0.6192460279
O  O13  1  0.04900000  0.58160000  0.32630000  1.0 -0.6067532917
O  O14  1  0.95100000  0.41840000  0.67370000  1.0 -0.6067532917
O  O15  1  0.71070000  0.47130000  0.30640000  1.0 -0.5932838241
O  O16  1  0.28930000  0.52870000  0.69360000  1.0 -0.5932838241
O  O17  1  0.27490000  0.35320000  0.30590000  1.0 -0.5576685588
O  O18  1  0.72510000  0.64680000  0.69410000  1.0 -0.5576685588
O  O19  1  0.23470000  0.99260000  0.51870000  1.0 -0.6192460279
O  O20  1  0.76530000  0.00740000  0.48130000  1.0 -0.6192460279
O  O21  1  0.31060000  0.77610000  0.47820000  1.0 -0.6400239239
O  O22  1  0.68940000  0.22390000  0.52180000  1.0 -0.6400239239
O  O23  1  0.54810000  0.00160000  0.91700000  1.0 -0.6551159541
O  O24  1  0.45190000  0.99840000  0.08300000  1.0 -0.6551159541
O  O25  1  0.31060000  0.12020000  0.85510000  1.0 -0.5502580623
O  O26  1  0.68940000  0.87980000  0.14490000  1.0 -0.5502580623
O  O27  1  0.45410000  0.25420000  0.67780000  1.0 -0.6067532917
O  O28  1  0.54590000  0.74580000  0.32220000  1.0 -0.6067532917
O  O29  1  0.79210000  0.16440000  0.69660000  1.0 -0.5774455885
O  O30  1  0.20790000  0.83560000  0.30340000  1.0 -0.5774455885
O  O31  1  0.22710000  0.04100000  0.69170000  1.0 -0.4923996399
O  O32  1  0.77290000  0.95900000  0.30830000  1.0 -0.4923996399
