# DDEC6 charges by PACMAN v1.1 (https://github.com/mtap-research/PACMAN-charge/)
data_ISIMUT_ASR_pacman
_symmetry_space_group_name_H-M   'P 1'
_cell_length_a   9.32650000
_cell_length_b   9.65870000
_cell_length_c   11.76310000
_cell_angle_alpha   104.63700000
_cell_angle_beta   101.44500000
_cell_angle_gamma   87.17800000
_symmetry_Int_Tables_number   1
_chemical_formula_structural   ZnH12C21N2O5
_chemical_formula_sum   'Zn2 H24 C42 N4 O10'
_cell_volume   1004.86561255
_cell_formula_units_Z   2
loop_
 _symmetry_equiv_pos_site_id
 _symmetry_equiv_pos_as_xyz
  1  'x, y, z'
loop_
 _atom_site_type_symbol
 _atom_site_label
 _atom_site_symmetry_multiplicity
 _atom_site_fract_x
 _atom_site_fract_y
 _atom_site_fract_z
 _atom_site_occupancy
 _atom_site_charge
Zn  Zn1  1  0.44539000  0.88505000  0.11163000  1.0 0.8870121436
Zn  Zn2  1  0.55461000  0.11495000  0.88837000  1.0 0.8870121436
H  H1  1  0.36690000  0.43700000  0.06600000  1.0 0.1280040937
H  H2  1  0.63310000  0.56300000  0.93400000  1.0 0.1280040937
H  H3  1  0.18390000  0.20270000  0.23740000  1.0 0.1410310538
H  H4  1  0.81610000  0.79730000  0.76260000  1.0 0.1410310538
H  H5  1  0.13810000  0.62920000  0.31740000  1.0 0.1173173757
H  H6  1  0.86190000  0.37080000  0.68260000  1.0 0.1173173757
H  H7  1  0.96050000  0.57740000  0.41090000  1.0 0.0928198723
H  H8  1  0.03950000  0.42260000  0.58910000  1.0 0.0928198723
H  H9  1  0.11630000  0.58560000  0.49440000  1.0 0.0928198723
H  H10  1  0.88370000  0.41440000  0.50560000  1.0 0.0928198723
H  H11  1  0.67350000  0.18500000  0.51510000  1.0 0.1410310538
H  H12  1  0.32650000  0.81500000  0.48490000  1.0 0.1410310538
H  H13  1  0.51990000  0.17320000  0.31970000  1.0 0.1280040937
H  H14  1  0.48010000  0.82680000  0.68030000  1.0 0.1280040937
H  H15  1  0.58560000  0.68730000  0.43600000  1.0 0.110247218
H  H16  1  0.41440000  0.31270000  0.56400000  1.0 0.110247218
H  H17  1  0.80090000  0.46930000  0.11360000  1.0 0.1173173757
H  H18  1  0.19910000  0.53070000  0.88640000  1.0 0.1173173757
H  H19  1  0.78020000  0.72240000  0.16980000  1.0 0.1173173757
H  H20  1  0.21980000  0.27760000  0.83020000  1.0 0.1173173757
H  H21  1  0.60790000  0.44060000  0.38280000  1.0 0.110247218
H  H22  1  0.39210000  0.55940000  0.61720000  1.0 0.110247218
H  H23  1  0.70900000  0.33730000  0.21830000  1.0 0.1173173757
H  H24  1  0.29100000  0.66270000  0.78170000  1.0 0.1173173757
C  C1  1  0.31260000  0.43130000  0.12290000  1.0 -0.1283621202
C  C2  1  0.68740000  0.56870000  0.87710000  1.0 -0.1283621202
C  C3  1  0.20360000  0.29110000  0.22590000  1.0 -0.2153768121
C  C4  1  0.79640000  0.70890000  0.77410000  1.0 -0.2153768121
C  C5  1  0.28630000  0.29840000  0.14170000  1.0 -0.021059695
C  C6  1  0.71370000  0.70160000  0.85830000  1.0 -0.021059695
C  C7  1  0.17570000  0.54630000  0.27370000  1.0 -0.2374895318
C  C8  1  0.82430000  0.45370000  0.72630000  1.0 -0.2374895318
C  C9  1  0.03220000  0.52460000  0.45520000  1.0 -0.0616160026
C  C10  1  0.96780000  0.47540000  0.54480000  1.0 -0.0616160026
C  C11  1  0.25790000  0.55400000  0.18900000  1.0 0.0080148419
C  C12  1  0.74210000  0.44600000  0.81100000  1.0 0.0080148419
C  C13  1  0.15000000  0.41480000  0.29290000  1.0 0.2502430873
C  C14  1  0.85000000  0.58520000  0.70710000  1.0 0.2502430873
C  C15  1  0.65620000  0.10420000  0.45150000  1.0 -0.0806383581
C  C16  1  0.34380000  0.89580000  0.54850000  1.0 -0.0806383581
C  C17  1  0.29100000  0.70100000  0.17770000  1.0 0.5413717823
C  C18  1  0.70900000  0.29900000  0.82230000  1.0 0.5413717823
C  C19  1  0.65910000  0.88500000  0.34070000  1.0 0.2435498731
C  C20  1  0.34090000  0.11500000  0.65930000  1.0 0.2435498731
C  C21  1  0.57130000  0.09690000  0.34330000  1.0 -0.021059695
C  C22  1  0.42870000  0.90310000  0.65670000  1.0 -0.021059695
C  C23  1  0.68120000  0.72850000  0.30720000  1.0 0.0080148419
C  C24  1  0.31880000  0.27150000  0.69280000  1.0 0.0080148419
C  C25  1  0.82610000  0.93330000  0.54470000  1.0 0.0080148419
C  C26  1  0.17390000  0.06670000  0.45530000  1.0 0.0080148419
C  C27  1  0.62890000  0.64370000  0.37120000  1.0 -0.1438990785
C  C28  1  0.37110000  0.35630000  0.62880000  1.0 -0.1438990785
C  C29  1  0.75730000  0.51420000  0.17790000  1.0 -0.0806383581
C  C30  1  0.24270000  0.48580000  0.82210000  1.0 -0.0806383581
C  C31  1  0.74510000  0.66630000  0.21200000  1.0 -0.1283621202
C  C32  1  0.25490000  0.33370000  0.78800000  1.0 -0.1283621202
C  C33  1  0.64080000  0.49690000  0.33970000  1.0 -0.0933123185
C  C34  1  0.35920000  0.50310000  0.66030000  1.0 -0.0933123185
C  C35  1  0.70330000  0.43660000  0.24190000  1.0 -0.0806383581
C  C36  1  0.29670000  0.56340000  0.75810000  1.0 -0.0806383581
C  C37  1  0.97100000  0.01970000  0.56200000  1.0 0.0281813815
C  C38  1  0.02900000  0.98030000  0.43800000  1.0 0.0281813815
C  C39  1  0.35430000  0.16610000  0.07740000  1.0 0.5833744602
C  C40  1  0.64570000  0.83390000  0.92260000  1.0 0.5833744602
C  C41  1  0.01930000  0.06600000  0.49150000  1.0 -0.0301835444
C  C42  1  0.98070000  0.93400000  0.50850000  1.0 -0.0301835444
N  N1  1  0.71230000  0.97020000  0.45020000  1.0 -0.021059695
N  N2  1  0.28770000  0.02980000  0.54980000  1.0 -0.021059695
N  N3  1  0.57220000  0.95940000  0.27280000  1.0 -0.3241261198
N  N4  1  0.42780000  0.04060000  0.72720000  1.0 -0.3241261198
O  O1  1  0.07430000  0.39740000  0.37760000  1.0 -0.1759751616
O  O2  1  0.92570000  0.60260000  0.62240000  1.0 -0.1759751616
O  O3  1  0.35700000  0.70330000  0.09273000  1.0 -0.5376513405
O  O4  1  0.64300000  0.29670000  0.90727000  1.0 -0.5376513405
O  O5  1  0.25720000  0.80770000  0.24840000  1.0 -0.5299343073
O  O6  1  0.74280000  0.19230000  0.75160000  1.0 -0.5299343073
O  O7  1  0.32210000  0.04940000  0.09490000  1.0 -0.5299343073
O  O8  1  0.67790000  0.95060000  0.90510000  1.0 -0.5299343073
O  O9  1  0.43790000  0.18080000  0.01280000  1.0 -0.5299343073
O  O10  1  0.56210000  0.81920000  0.98720000  1.0 -0.5299343073
