# DDEC6 charges by PACMAN v1.1 (https://github.com/mtap-research/PACMAN-charge/)
data_ISIYUF02_FSR_pacman
_symmetry_space_group_name_H-M   'P 1'
_cell_length_a   9.81636000
_cell_length_b   9.81636000
_cell_length_c   12.76710000
_cell_angle_alpha   78.80130000
_cell_angle_beta   101.19900000
_cell_angle_gamma   97.17860000
_symmetry_Int_Tables_number   1
_chemical_formula_structural   Er2H9(C4O9)2
_chemical_formula_sum   'Er4 H18 C16 O36'
_cell_volume   1178.96983072
_cell_formula_units_Z   2
loop_
 _symmetry_equiv_pos_site_id
 _symmetry_equiv_pos_as_xyz
  1  'x, y, z'
loop_
 _atom_site_type_symbol
 _atom_site_label
 _atom_site_symmetry_multiplicity
 _atom_site_fract_x
 _atom_site_fract_y
 _atom_site_fract_z
 _atom_site_occupancy
 _atom_site_charge
Er  Er1  1  0.69665000  0.16693000  0.68917000  1.0 1.9334992818
Er  Er2  1  0.16693000  0.69665000  0.81083000  1.0 1.9334992818
Er  Er3  1  0.30335000  0.83307000  0.31083000  1.0 1.9334992818
Er  Er4  1  0.83307000  0.30335000  0.18917000  1.0 1.9374984753
H  H1  1  0.73740000  0.29540000  0.92200000  1.0 0.0542788318
H  H2  1  0.29540000  0.73740000  0.57800000  1.0 0.0542788318
H  H3  1  0.26260000  0.70460000  0.07800000  1.0 0.0542788318
H  H4  1  0.70460000  0.26260000  0.42200000  1.0 0.0542788318
H  H5  1  0.80140000  0.80140000  0.75000000  1.0 0.088905922
H  H6  1  0.19860000  0.19860000  0.25000000  1.0 0.088905922
H  H7  1  0.83910000  0.49950000  0.75120000  1.0 0.0558512871
H  H8  1  0.49950000  0.83910000  0.74880000  1.0 0.0558512871
H  H9  1  0.16090000  0.50050000  0.24880000  1.0 0.0558512871
H  H10  1  0.50050000  0.16090000  0.25120000  1.0 0.0558512871
H  H11  1  0.50580000  0.48100000  0.62400000  1.0 0.1235732388
H  H12  1  0.48100000  0.50580000  0.87600000  1.0 0.1235732388
H  H13  1  0.49420000  0.51900000  0.37600000  1.0 0.1235732388
H  H14  1  0.51900000  0.49420000  0.12400000  1.0 0.1235732388
H  H15  1  0.55670000  0.92690000  0.51790000  1.0 0.2615671706
H  H16  1  0.92690000  0.55670000  0.98210000  1.0 0.2615671706
H  H17  1  0.44330000  0.07310000  0.48210000  1.0 0.2615671706
H  H18  1  0.07310000  0.44330000  0.01790000  1.0 0.2615671706
C  C1  1  0.75990000  0.20430000  0.94770000  1.0 0.5481563362
C  C2  1  0.20430000  0.75990000  0.55230000  1.0 0.5481563362
C  C3  1  0.24010000  0.79570000  0.05230000  1.0 0.5481563362
C  C4  1  0.79570000  0.24010000  0.44770000  1.0 0.5481563362
C  C5  1  0.87300000  0.87300000  0.75000000  1.0 0.5481563362
C  C6  1  0.12700000  0.12700000  0.25000000  1.0 0.5481563362
C  C7  1  0.91040000  0.45160000  0.74140000  1.0 0.5397922051
C  C8  1  0.45160000  0.91040000  0.75860000  1.0 0.5397922051
C  C9  1  0.08960000  0.54840000  0.25860000  1.0 0.5397922051
C  C10  1  0.54840000  0.08960000  0.24140000  1.0 0.5397922051
C  C11  1  0.55150000  0.40010000  0.64040000  1.0 0.4413388249
C  C12  1  0.40010000  0.55150000  0.85960000  1.0 0.4413388249
C  C13  1  0.44850000  0.59990000  0.35960000  1.0 0.4413388249
C  C14  1  0.59990000  0.44850000  0.14040000  1.0 0.4413388249
C  C15  1  0.50000000  0.00000000  0.50000000  1.0 0.2615671706
C  C16  1  0.00000000  0.50000000  0.00000000  1.0 0.2615671706
O  O1  1  0.79310000  0.16870000  0.04810000  1.0 -0.5799348104
O  O2  1  0.16870000  0.79310000  0.45190000  1.0 -0.5799348104
O  O3  1  0.20690000  0.83130000  0.95190000  1.0 -0.5799348104
O  O4  1  0.83130000  0.20690000  0.54810000  1.0 -0.5799348104
O  O5  1  0.75460000  0.12920000  0.87990000  1.0 -0.5690104364
O  O6  1  0.12920000  0.75460000  0.62010000  1.0 -0.5690104364
O  O7  1  0.24540000  0.87080000  0.12010000  1.0 -0.5690104364
O  O8  1  0.87080000  0.24540000  0.37990000  1.0 -0.5690104364
O  O9  1  0.83530000  0.98970000  0.73260000  1.0 -0.5690104364
O  O10  1  0.98970000  0.83530000  0.76740000  1.0 -0.5690104364
O  O11  1  0.16470000  0.01030000  0.26740000  1.0 -0.5690104364
O  O12  1  0.01030000  0.16470000  0.23260000  1.0 -0.5690104364
O  O13  1  0.56930000  0.33610000  0.73250000  1.0 -0.538898592
O  O14  1  0.33610000  0.56930000  0.76750000  1.0 -0.538898592
O  O15  1  0.43070000  0.66390000  0.26750000  1.0 -0.538898592
O  O16  1  0.66390000  0.43070000  0.23250000  1.0 -0.538898592
O  O17  1  0.87900000  0.33220000  0.72560000  1.0 -0.5690104364
O  O18  1  0.33220000  0.87900000  0.77440000  1.0 -0.5690104364
O  O19  1  0.12100000  0.66780000  0.27440000  1.0 -0.5690104364
O  O20  1  0.66780000  0.12100000  0.22560000  1.0 -0.5690104364
O  O21  1  0.02770000  0.51490000  0.74550000  1.0 -0.5857946622
O  O22  1  0.51490000  0.02770000  0.75450000  1.0 -0.5857946622
O  O23  1  0.97230000  0.48510000  0.25450000  1.0 -0.5857946622
O  O24  1  0.48510000  0.97230000  0.24550000  1.0 -0.5857946622
O  O25  1  0.59330000  0.35910000  0.56860000  1.0 -0.5558745611
O  O26  1  0.35910000  0.59330000  0.93140000  1.0 -0.5558745611
O  O27  1  0.40670000  0.64090000  0.43140000  1.0 -0.5558745611
O  O28  1  0.64090000  0.40670000  0.06860000  1.0 -0.5558745611
O  O29  1  0.54220000  0.09660000  0.54810000  1.0 -0.2290322791
O  O30  1  0.09660000  0.54220000  0.95190000  1.0 -0.2290322791
O  O31  1  0.45780000  0.90340000  0.45190000  1.0 -0.2290322791
O  O32  1  0.90340000  0.45780000  0.04810000  1.0 -0.2290322791
O  O33  1  0.60190000  0.01730000  0.56650000  1.0 -0.211805475
O  O34  1  0.01730000  0.60190000  0.93350000  1.0 -0.211805475
O  O35  1  0.39810000  0.98270000  0.43350000  1.0 -0.211805475
O  O36  1  0.98270000  0.39810000  0.06650000  1.0 -0.211805475
