# DDEC6 charges by PACMAN v1.1 (https://github.com/mtap-research/PACMAN-charge/)
data_ISUGIN_FSR_pacman
_symmetry_space_group_name_H-M   'P 1'
_cell_length_a   21.16250000
_cell_length_b   21.16250000
_cell_length_c   21.16250000
_cell_angle_alpha   47.40800000
_cell_angle_beta   47.40800000
_cell_angle_gamma   47.40800000
_symmetry_Int_Tables_number   1
_chemical_formula_structural   Gd9H37C72(N6O19)2
_chemical_formula_sum   'Gd18 H74 C144 N24 O76'
_cell_volume   4699.69502428
_cell_formula_units_Z   2
loop_
 _symmetry_equiv_pos_site_id
 _symmetry_equiv_pos_as_xyz
  1  'x, y, z'
loop_
 _atom_site_type_symbol
 _atom_site_label
 _atom_site_symmetry_multiplicity
 _atom_site_fract_x
 _atom_site_fract_y
 _atom_site_fract_z
 _atom_site_occupancy
 _atom_site_charge
Gd  Gd1  1  0.05250000  0.89598000  0.15470000  1.0 2.0660328518
Gd  Gd2  1  0.89598000  0.15470000  0.05250000  1.0 2.0660328518
Gd  Gd3  1  0.15470000  0.05250000  0.89598000  1.0 2.0660328518
Gd  Gd4  1  0.44750000  0.34530000  0.60402000  1.0 2.0660328518
Gd  Gd5  1  0.60402000  0.44750000  0.34530000  1.0 2.0660328518
Gd  Gd6  1  0.34530000  0.60402000  0.44750000  1.0 2.0660328518
Gd  Gd7  1  0.94750000  0.10402000  0.84530000  1.0 2.0660328518
Gd  Gd8  1  0.10402000  0.84530000  0.94750000  1.0 2.0660328518
Gd  Gd9  1  0.84530000  0.94750000  0.10402000  1.0 2.0660328518
Gd  Gd10  1  0.55250000  0.65470000  0.39598000  1.0 2.0660328518
Gd  Gd11  1  0.39598000  0.55250000  0.65470000  1.0 2.0660328518
Gd  Gd12  1  0.65470000  0.39598000  0.55250000  1.0 2.0660328518
Gd  Gd13  1  0.22387000  0.75000000  0.27613000  1.0 1.8884416869
Gd  Gd14  1  0.75000000  0.27613000  0.22387000  1.0 1.8884416869
Gd  Gd15  1  0.27613000  0.22387000  0.75000000  1.0 1.8884416869
Gd  Gd16  1  0.77613000  0.25000000  0.72387000  1.0 1.8884416869
Gd  Gd17  1  0.25000000  0.72387000  0.77613000  1.0 1.8884416869
Gd  Gd18  1  0.72387000  0.77613000  0.25000000  1.0 1.8884416869
H  H1  1  0.28100000  0.53380000  0.13330000  1.0 0.1118684123
H  H2  1  0.53380000  0.13330000  0.28100000  1.0 0.1118684123
H  H3  1  0.13330000  0.28100000  0.53380000  1.0 0.1118684123
H  H4  1  0.21900000  0.36670000  0.96620000  1.0 0.1118684123
H  H5  1  0.96620000  0.21900000  0.36670000  1.0 0.1118684123
H  H6  1  0.36670000  0.96620000  0.21900000  1.0 0.1118684123
H  H7  1  0.71900000  0.46620000  0.86670000  1.0 0.1118684123
H  H8  1  0.46620000  0.86670000  0.71900000  1.0 0.1118684123
H  H9  1  0.86670000  0.71900000  0.46620000  1.0 0.1118684123
H  H10  1  0.78100000  0.63330000  0.03380000  1.0 0.1118684123
H  H11  1  0.03380000  0.78100000  0.63330000  1.0 0.1118684123
H  H12  1  0.63330000  0.03380000  0.78100000  1.0 0.1118684123
H  H13  1  0.37090000  0.43100000  0.21880000  1.0 0.1213899736
H  H14  1  0.43100000  0.21880000  0.37090000  1.0 0.1213899736
H  H15  1  0.21880000  0.37090000  0.43100000  1.0 0.1213899736
H  H16  1  0.12910000  0.28120000  0.06900000  1.0 0.1213899736
H  H17  1  0.06900000  0.12910000  0.28120000  1.0 0.1213899736
H  H18  1  0.28120000  0.06900000  0.12910000  1.0 0.1213899736
H  H19  1  0.62910000  0.56900000  0.78120000  1.0 0.1213899736
H  H20  1  0.56900000  0.78120000  0.62910000  1.0 0.1213899736
H  H21  1  0.78120000  0.62910000  0.56900000  1.0 0.1213899736
H  H22  1  0.87090000  0.71880000  0.93100000  1.0 0.1213899736
H  H23  1  0.93100000  0.87090000  0.71880000  1.0 0.1213899736
H  H24  1  0.71880000  0.93100000  0.87090000  1.0 0.1213899736
H  H25  1  0.37270000  0.48880000  0.27860000  1.0 0.1021712088
H  H26  1  0.48880000  0.27860000  0.37270000  1.0 0.1021712088
H  H27  1  0.27860000  0.37270000  0.48880000  1.0 0.1021712088
H  H28  1  0.12730000  0.22140000  0.01120000  1.0 0.1021712088
H  H29  1  0.01120000  0.12730000  0.22140000  1.0 0.1021712088
H  H30  1  0.22140000  0.01120000  0.12730000  1.0 0.1021712088
H  H31  1  0.62730000  0.51120000  0.72140000  1.0 0.1021712088
H  H32  1  0.51120000  0.72140000  0.62730000  1.0 0.1021712088
H  H33  1  0.72140000  0.62730000  0.51120000  1.0 0.1021712088
H  H34  1  0.87270000  0.77860000  0.98880000  1.0 0.1021712088
H  H35  1  0.98880000  0.87270000  0.77860000  1.0 0.1021712088
H  H36  1  0.77860000  0.98880000  0.87270000  1.0 0.1021712088
H  H37  1  0.43050000  0.83390000  0.02900000  1.0 0.1213899736
H  H38  1  0.83390000  0.02900000  0.43050000  1.0 0.1213899736
H  H39  1  0.02900000  0.43050000  0.83390000  1.0 0.1213899736
H  H40  1  0.06950000  0.47100000  0.66610000  1.0 0.1213899736
H  H41  1  0.66610000  0.06950000  0.47100000  1.0 0.1213899736
H  H42  1  0.47100000  0.66610000  0.06950000  1.0 0.1213899736
H  H43  1  0.56950000  0.16610000  0.97100000  1.0 0.1213899736
H  H44  1  0.16610000  0.97100000  0.56950000  1.0 0.1213899736
H  H45  1  0.97100000  0.56950000  0.16610000  1.0 0.1213899736
H  H46  1  0.93050000  0.52900000  0.33390000  1.0 0.1213899736
H  H47  1  0.33390000  0.93050000  0.52900000  1.0 0.1213899736
H  H48  1  0.52900000  0.33390000  0.93050000  1.0 0.1213899736
H  H49  1  0.53500000  0.90470000  0.92540000  1.0 0.1283984483
H  H50  1  0.90470000  0.92540000  0.53500000  1.0 0.1283984483
H  H51  1  0.92540000  0.53500000  0.90470000  1.0 0.1283984483
H  H52  1  0.96500000  0.57460000  0.59530000  1.0 0.1283984483
H  H53  1  0.59530000  0.96500000  0.57460000  1.0 0.1283984483
H  H54  1  0.57460000  0.59530000  0.96500000  1.0 0.1283984483
H  H55  1  0.46500000  0.09530000  0.07460000  1.0 0.1283984483
H  H56  1  0.09530000  0.07460000  0.46500000  1.0 0.1283984483
H  H57  1  0.07460000  0.46500000  0.09530000  1.0 0.1283984483
H  H58  1  0.03500000  0.42540000  0.40470000  1.0 0.1283984483
H  H59  1  0.40470000  0.03500000  0.42540000  1.0 0.1283984483
H  H60  1  0.42540000  0.40470000  0.03500000  1.0 0.1283984483
H  H61  1  0.49710000  0.05350000  0.81210000  1.0 0.1118684123
H  H62  1  0.05350000  0.81210000  0.49710000  1.0 0.1118684123
H  H63  1  0.81210000  0.49710000  0.05350000  1.0 0.1118684123
H  H64  1  0.00290000  0.68790000  0.44650000  1.0 0.1118684123
H  H65  1  0.44650000  0.00290000  0.68790000  1.0 0.1118684123
H  H66  1  0.68790000  0.44650000  0.00290000  1.0 0.1118684123
H  H67  1  0.50290000  0.94650000  0.18790000  1.0 0.1118684123
H  H68  1  0.94650000  0.18790000  0.50290000  1.0 0.1118684123
H  H69  1  0.18790000  0.50290000  0.94650000  1.0 0.1118684123
H  H70  1  0.99710000  0.31210000  0.55350000  1.0 0.1118684123
H  H71  1  0.55350000  0.99710000  0.31210000  1.0 0.1118684123
H  H72  1  0.31210000  0.55350000  0.99710000  1.0 0.1118684123
H  H73  1  0.00000000  0.00000000  0.00000000  1.0 0.4125487706
H  H74  1  0.50000000  0.50000000  0.50000000  1.0 0.4125487706
C  C1  1  0.21181000  0.67001000  0.20941000  1.0 0.4873029292
C  C2  1  0.67001000  0.20941000  0.21181000  1.0 0.4873029292
C  C3  1  0.20941000  0.21181000  0.67001000  1.0 0.4873029292
C  C4  1  0.28819000  0.29059000  0.82999000  1.0 0.4873029292
C  C5  1  0.82999000  0.28819000  0.29059000  1.0 0.4873029292
C  C6  1  0.29059000  0.82999000  0.28819000  1.0 0.4873029292
C  C7  1  0.78819000  0.32999000  0.79059000  1.0 0.4873029292
C  C8  1  0.32999000  0.79059000  0.78819000  1.0 0.4873029292
C  C9  1  0.79059000  0.78819000  0.32999000  1.0 0.4873029292
C  C10  1  0.71181000  0.70941000  0.17001000  1.0 0.4873029292
C  C11  1  0.17001000  0.71181000  0.70941000  1.0 0.4873029292
C  C12  1  0.70941000  0.17001000  0.71181000  1.0 0.4873029292
C  C13  1  0.21561000  0.64421000  0.16031000  1.0 -0.198586955
C  C14  1  0.64421000  0.16031000  0.21561000  1.0 -0.198586955
C  C15  1  0.16031000  0.21561000  0.64421000  1.0 -0.198586955
C  C16  1  0.28439000  0.33969000  0.85579000  1.0 -0.198586955
C  C17  1  0.85579000  0.28439000  0.33969000  1.0 -0.198586955
C  C18  1  0.33969000  0.85579000  0.28439000  1.0 -0.198586955
C  C19  1  0.78439000  0.35579000  0.83969000  1.0 -0.198586955
C  C20  1  0.35579000  0.83969000  0.78439000  1.0 -0.198586955
C  C21  1  0.83969000  0.78439000  0.35579000  1.0 -0.198586955
C  C22  1  0.71561000  0.66031000  0.14421000  1.0 -0.198586955
C  C23  1  0.14421000  0.71561000  0.66031000  1.0 -0.198586955
C  C24  1  0.66031000  0.14421000  0.71561000  1.0 -0.1948883036
C  C25  1  0.27731000  0.55371000  0.16391000  1.0 -0.0447240509
C  C26  1  0.55371000  0.16391000  0.27731000  1.0 -0.0447240509
C  C27  1  0.16391000  0.27731000  0.55371000  1.0 -0.0447240509
C  C28  1  0.22269000  0.33609000  0.94629000  1.0 -0.0447240509
C  C29  1  0.94629000  0.22269000  0.33609000  1.0 -0.0447240509
C  C30  1  0.33609000  0.94629000  0.22269000  1.0 -0.0447240509
C  C31  1  0.72269000  0.44629000  0.83609000  1.0 -0.0447240509
C  C32  1  0.44629000  0.83609000  0.72269000  1.0 -0.0447240509
C  C33  1  0.83609000  0.72269000  0.44629000  1.0 -0.0447240509
C  C34  1  0.77731000  0.66391000  0.05371000  1.0 -0.0447240509
C  C35  1  0.05371000  0.77731000  0.66391000  1.0 -0.0447240509
C  C36  1  0.66391000  0.05371000  0.77731000  1.0 -0.0447240509
C  C37  1  0.33313000  0.49313000  0.21223000  1.0 -0.2181645414
C  C38  1  0.49313000  0.21223000  0.33313000  1.0 -0.2181645414
C  C39  1  0.21223000  0.33313000  0.49313000  1.0 -0.2181645414
C  C40  1  0.16687000  0.28777000  0.00687000  1.0 -0.2181645414
C  C41  1  0.00687000  0.16687000  0.28777000  1.0 -0.2181645414
C  C42  1  0.28777000  0.00687000  0.16687000  1.0 -0.2181645414
C  C43  1  0.66687000  0.50687000  0.78777000  1.0 -0.2181645414
C  C44  1  0.50687000  0.78777000  0.66687000  1.0 -0.2181645414
C  C45  1  0.78777000  0.66687000  0.50687000  1.0 -0.2181645414
C  C46  1  0.83313000  0.71223000  0.99313000  1.0 -0.2181645414
C  C47  1  0.99313000  0.83313000  0.71223000  1.0 -0.2181645414
C  C48  1  0.71223000  0.99313000  0.83313000  1.0 -0.2181645414
C  C49  1  0.33125000  0.52745000  0.25065000  1.0 0.1213899736
C  C50  1  0.52745000  0.25065000  0.33125000  1.0 0.1213899736
C  C51  1  0.25065000  0.33125000  0.52745000  1.0 0.1213899736
C  C52  1  0.16875000  0.24935000  0.97255000  1.0 0.1213899736
C  C53  1  0.97255000  0.16875000  0.24935000  1.0 0.1213899736
C  C54  1  0.24935000  0.97255000  0.16875000  1.0 0.1213899736
C  C55  1  0.66875000  0.47255000  0.74935000  1.0 0.1213899736
C  C56  1  0.47255000  0.74935000  0.66875000  1.0 0.1213899736
C  C57  1  0.74935000  0.66875000  0.47255000  1.0 0.1213899736
C  C58  1  0.83125000  0.75065000  0.02745000  1.0 0.1213899736
C  C59  1  0.02745000  0.83125000  0.75065000  1.0 0.1213899736
C  C60  1  0.75065000  0.02745000  0.83125000  1.0 0.1213899736
C  C61  1  0.16276000  0.71236000  0.09986000  1.0 0.6302756121
C  C62  1  0.71236000  0.09986000  0.16276000  1.0 0.6302756121
C  C63  1  0.09986000  0.16276000  0.71236000  1.0 0.6302756121
C  C64  1  0.33724000  0.40014000  0.78764000  1.0 0.6302756121
C  C65  1  0.78764000  0.33724000  0.40014000  1.0 0.6302756121
C  C66  1  0.40014000  0.78764000  0.33724000  1.0 0.6302756121
C  C67  1  0.83724000  0.28764000  0.90014000  1.0 0.6302756121
C  C68  1  0.28764000  0.90014000  0.83724000  1.0 0.6302756121
C  C69  1  0.90014000  0.83724000  0.28764000  1.0 0.6302756121
C  C70  1  0.66276000  0.59986000  0.21236000  1.0 0.6302756121
C  C71  1  0.21236000  0.66276000  0.59986000  1.0 0.6302756121
C  C72  1  0.59986000  0.21236000  0.66276000  1.0 0.6302756121
C  C73  1  0.31117000  0.03507000  0.90867000  1.0 0.4765043309
C  C74  1  0.03507000  0.90867000  0.31117000  1.0 0.4765043309
C  C75  1  0.90867000  0.31117000  0.03507000  1.0 0.4765043309
C  C76  1  0.18883000  0.59133000  0.46493000  1.0 0.4765043309
C  C77  1  0.46493000  0.18883000  0.59133000  1.0 0.4765043309
C  C78  1  0.59133000  0.46493000  0.18883000  1.0 0.4765043309
C  C79  1  0.68883000  0.96493000  0.09133000  1.0 0.4765043309
C  C80  1  0.96493000  0.09133000  0.68883000  1.0 0.4765043309
C  C81  1  0.09133000  0.68883000  0.96493000  1.0 0.4765043309
C  C82  1  0.81117000  0.40867000  0.53507000  1.0 0.4765043309
C  C83  1  0.53507000  0.81117000  0.40867000  1.0 0.4765043309
C  C84  1  0.40867000  0.53507000  0.81117000  1.0 0.4765043309
C  C85  1  0.33122000  0.94212000  0.97722000  1.0 -0.2181645414
C  C86  1  0.94212000  0.97722000  0.33122000  1.0 -0.2181645414
C  C87  1  0.97722000  0.33122000  0.94212000  1.0 -0.2181645414
C  C88  1  0.16878000  0.52278000  0.55788000  1.0 -0.2181645414
C  C89  1  0.55788000  0.16878000  0.52278000  1.0 -0.2181645414
C  C90  1  0.52278000  0.55788000  0.16878000  1.0 -0.2181645414
C  C91  1  0.66878000  0.05788000  0.02278000  1.0 -0.2181645414
C  C92  1  0.05788000  0.02278000  0.66878000  1.0 -0.2181645414
C  C93  1  0.02278000  0.66878000  0.05788000  1.0 -0.2181645414
C  C94  1  0.83122000  0.47722000  0.44212000  1.0 -0.2181645414
C  C95  1  0.44212000  0.83122000  0.47722000  1.0 -0.2181645414
C  C96  1  0.47722000  0.44212000  0.83122000  1.0 -0.2181645414
C  C97  1  0.41568000  0.89438000  0.98328000  1.0 -0.0264105854
C  C98  1  0.89438000  0.98328000  0.41568000  1.0 -0.0264105854
C  C99  1  0.98328000  0.41568000  0.89438000  1.0 -0.0264105854
C  C100  1  0.08432000  0.51672000  0.60562000  1.0 -0.0264105854
C  C101  1  0.60562000  0.08432000  0.51672000  1.0 -0.0264105854
C  C102  1  0.51672000  0.60562000  0.08432000  1.0 -0.0264105854
C  C103  1  0.58432000  0.10562000  0.01672000  1.0 -0.0264105854
C  C104  1  0.10562000  0.01672000  0.58432000  1.0 -0.0264105854
C  C105  1  0.01672000  0.58432000  0.10562000  1.0 -0.0264105854
C  C106  1  0.91568000  0.48328000  0.39438000  1.0 -0.0264105854
C  C107  1  0.39438000  0.91568000  0.48328000  1.0 -0.0264105854
C  C108  1  0.48328000  0.39438000  0.91568000  1.0 -0.0264105854
C  C109  1  0.47830000  0.93640000  0.92160000  1.0 -0.2055031061
C  C110  1  0.93640000  0.92160000  0.47830000  1.0 -0.2055031061
C  C111  1  0.92160000  0.47830000  0.93640000  1.0 -0.2055031061
C  C112  1  0.02170000  0.57840000  0.56360000  1.0 -0.198586955
C  C113  1  0.56360000  0.02170000  0.57840000  1.0 -0.198586955
C  C114  1  0.57840000  0.56360000  0.02170000  1.0 -0.198586955
C  C115  1  0.52170000  0.06360000  0.07840000  1.0 -0.198586955
C  C116  1  0.06360000  0.07840000  0.52170000  1.0 -0.198586955
C  C117  1  0.07840000  0.52170000  0.06360000  1.0 -0.198586955
C  C118  1  0.97830000  0.42160000  0.43640000  1.0 -0.2055031061
C  C119  1  0.43640000  0.97830000  0.42160000  1.0 -0.2055031061
C  C120  1  0.42160000  0.43640000  0.97830000  1.0 -0.2055031061
C  C121  1  0.45450000  0.02590000  0.85470000  1.0 0.1283984483
C  C122  1  0.02590000  0.85470000  0.45450000  1.0 0.1283984483
C  C123  1  0.85470000  0.45450000  0.02590000  1.0 0.1283984483
C  C124  1  0.04550000  0.64530000  0.47410000  1.0 0.1283984483
C  C125  1  0.47410000  0.04550000  0.64530000  1.0 0.1283984483
C  C126  1  0.64530000  0.47410000  0.04550000  1.0 0.1283984483
C  C127  1  0.54550000  0.97410000  0.14530000  1.0 0.1283984483
C  C128  1  0.97410000  0.14530000  0.54550000  1.0 0.1283984483
C  C129  1  0.14530000  0.54550000  0.97410000  1.0 0.1283984483
C  C130  1  0.95450000  0.35470000  0.52590000  1.0 0.1283984483
C  C131  1  0.52590000  0.95450000  0.35470000  1.0 0.1283984483
C  C132  1  0.35470000  0.52590000  0.95450000  1.0 0.1283984483
C  C133  1  0.26556000  0.89556000  0.04426000  1.0 0.6748707941
C  C134  1  0.89556000  0.04426000  0.26556000  1.0 0.6748707941
C  C135  1  0.04426000  0.26556000  0.89556000  1.0 0.6748707941
C  C136  1  0.23444000  0.45574000  0.60444000  1.0 0.675150161
C  C137  1  0.60444000  0.23444000  0.45574000  1.0 0.675150161
C  C138  1  0.45574000  0.60444000  0.23444000  1.0 0.6748707941
C  C139  1  0.73444000  0.10444000  0.95574000  1.0 0.6748707941
C  C140  1  0.10444000  0.95574000  0.73444000  1.0 0.675150161
C  C141  1  0.95574000  0.73444000  0.10444000  1.0 0.675150161
C  C142  1  0.76556000  0.54426000  0.39556000  1.0 0.675150161
C  C143  1  0.39556000  0.76556000  0.54426000  1.0 0.6748707941
C  C144  1  0.54426000  0.39556000  0.76556000  1.0 0.675150161
N  N1  1  0.27299000  0.61299000  0.24959000  1.0 -0.4257110903
N  N2  1  0.61299000  0.24959000  0.27299000  1.0 -0.4257110903
N  N3  1  0.24959000  0.27299000  0.61299000  1.0 -0.4257110903
N  N4  1  0.22701000  0.25041000  0.88701000  1.0 -0.4257110903
N  N5  1  0.88701000  0.22701000  0.25041000  1.0 -0.4257110903
N  N6  1  0.25041000  0.88701000  0.22701000  1.0 -0.4257110903
N  N7  1  0.72701000  0.38701000  0.75041000  1.0 -0.4257110903
N  N8  1  0.38701000  0.75041000  0.72701000  1.0 -0.4257110903
N  N9  1  0.75041000  0.72701000  0.38701000  1.0 -0.4257110903
N  N10  1  0.77299000  0.74959000  0.11299000  1.0 -0.4257110903
N  N11  1  0.11299000  0.77299000  0.74959000  1.0 -0.4257110903
N  N12  1  0.74959000  0.11299000  0.77299000  1.0 -0.4257110903
N  N13  1  0.37321000  0.07491000  0.84801000  1.0 -0.4457024087
N  N14  1  0.07491000  0.84801000  0.37321000  1.0 -0.4457024087
N  N15  1  0.84801000  0.37321000  0.07491000  1.0 -0.4457024087
N  N16  1  0.12679000  0.65199000  0.42509000  1.0 -0.4457024087
N  N17  1  0.42509000  0.12679000  0.65199000  1.0 -0.4457024087
N  N18  1  0.65199000  0.42509000  0.12679000  1.0 -0.4457024087
N  N19  1  0.62679000  0.92509000  0.15199000  1.0 -0.4457024087
N  N20  1  0.92509000  0.15199000  0.62679000  1.0 -0.4457024087
N  N21  1  0.15199000  0.62679000  0.92509000  1.0 -0.4457024087
N  N22  1  0.87321000  0.34801000  0.57491000  1.0 -0.4457024087
N  N23  1  0.57491000  0.87321000  0.34801000  1.0 -0.4457024087
N  N24  1  0.34801000  0.57491000  0.87321000  1.0 -0.4457024087
O  O1  1  0.11343000  0.79903000  0.08763000  1.0 -0.7120193292
O  O2  1  0.79903000  0.08763000  0.11343000  1.0 -0.7120193292
O  O3  1  0.08763000  0.11343000  0.79903000  1.0 -0.7120193292
O  O4  1  0.38657000  0.41237000  0.70097000  1.0 -0.7120193292
O  O5  1  0.70097000  0.38657000  0.41237000  1.0 -0.7120193292
O  O6  1  0.41237000  0.70097000  0.38657000  1.0 -0.7120193292
O  O7  1  0.88657000  0.20097000  0.91237000  1.0 -0.7120193292
O  O8  1  0.20097000  0.91237000  0.88657000  1.0 -0.7120193292
O  O9  1  0.91237000  0.88657000  0.20097000  1.0 -0.7120193292
O  O10  1  0.61343000  0.58763000  0.29903000  1.0 -0.7120193292
O  O11  1  0.29903000  0.61343000  0.58763000  1.0 -0.7120193292
O  O12  1  0.58763000  0.29903000  0.61343000  1.0 -0.7120193292
O  O13  1  0.17068000  0.68618000  0.05578000  1.0 -0.5989193568
O  O14  1  0.68618000  0.05578000  0.17068000  1.0 -0.5989193568
O  O15  1  0.05578000  0.17068000  0.68618000  1.0 -0.5989193568
O  O16  1  0.32932000  0.44422000  0.81382000  1.0 -0.5989193568
O  O17  1  0.81382000  0.32932000  0.44422000  1.0 -0.5989193568
O  O18  1  0.44422000  0.81382000  0.32932000  1.0 -0.5989193568
O  O19  1  0.82932000  0.31382000  0.94422000  1.0 -0.5989193568
O  O20  1  0.31382000  0.94422000  0.82932000  1.0 -0.5989193568
O  O21  1  0.94422000  0.82932000  0.31382000  1.0 -0.5989193568
O  O22  1  0.67068000  0.55578000  0.18618000  1.0 -0.5989193568
O  O23  1  0.18618000  0.67068000  0.55578000  1.0 -0.5989193568
O  O24  1  0.55578000  0.18618000  0.67068000  1.0 -0.5989193568
O  O25  1  0.15190000  0.74790000  0.22050000  1.0 -0.7289697395
O  O26  1  0.74790000  0.22050000  0.15190000  1.0 -0.7289697395
O  O27  1  0.22050000  0.15190000  0.74790000  1.0 -0.7289697395
O  O28  1  0.34810000  0.27950000  0.75210000  1.0 -0.7289697395
O  O29  1  0.75210000  0.34810000  0.27950000  1.0 -0.7289697395
O  O30  1  0.27950000  0.75210000  0.34810000  1.0 -0.7289697395
O  O31  1  0.84810000  0.25210000  0.77950000  1.0 -0.7289697395
O  O32  1  0.25210000  0.77950000  0.84810000  1.0 -0.7289697395
O  O33  1  0.77950000  0.84810000  0.25210000  1.0 -0.7289697395
O  O34  1  0.65190000  0.72050000  0.24790000  1.0 -0.7289697395
O  O35  1  0.24790000  0.65190000  0.72050000  1.0 -0.7289697395
O  O36  1  0.72050000  0.24790000  0.65190000  1.0 -0.7289697395
O  O37  1  0.19281000  0.93351000  0.03211000  1.0 -0.7289697395
O  O38  1  0.93351000  0.03211000  0.19281000  1.0 -0.7289697395
O  O39  1  0.03211000  0.19281000  0.93351000  1.0 -0.7289697395
O  O40  1  0.30719000  0.46789000  0.56649000  1.0 -0.7289697395
O  O41  1  0.56649000  0.30719000  0.46789000  1.0 -0.7289697395
O  O42  1  0.46789000  0.56649000  0.30719000  1.0 -0.7289697395
O  O43  1  0.80719000  0.06649000  0.96789000  1.0 -0.7289697395
O  O44  1  0.06649000  0.96789000  0.80719000  1.0 -0.7289697395
O  O45  1  0.96789000  0.80719000  0.06649000  1.0 -0.7289697395
O  O46  1  0.69281000  0.53211000  0.43351000  1.0 -0.7289697395
O  O47  1  0.43351000  0.69281000  0.53211000  1.0 -0.7289697395
O  O48  1  0.53211000  0.43351000  0.69281000  1.0 -0.7289697395
O  O49  1  0.28489000  0.82029000  0.10989000  1.0 -0.5989193568
O  O50  1  0.82029000  0.10989000  0.28489000  1.0 -0.5989193568
O  O51  1  0.10989000  0.28489000  0.82029000  1.0 -0.5989193568
O  O52  1  0.21511000  0.39011000  0.67971000  1.0 -0.5989193568
O  O53  1  0.67971000  0.21511000  0.39011000  1.0 -0.5989193568
O  O54  1  0.39011000  0.67971000  0.21511000  1.0 -0.5989193568
O  O55  1  0.71511000  0.17971000  0.89011000  1.0 -0.5989193568
O  O56  1  0.17971000  0.89011000  0.71511000  1.0 -0.5989193568
O  O57  1  0.89011000  0.71511000  0.17971000  1.0 -0.5989193568
O  O58  1  0.78489000  0.60989000  0.32029000  1.0 -0.5989193568
O  O59  1  0.32029000  0.78489000  0.60989000  1.0 -0.5989193568
O  O60  1  0.60989000  0.32029000  0.78489000  1.0 -0.5989193568
O  O61  1  0.23398000  0.09078000  0.89628000  1.0 -0.7289697395
O  O62  1  0.09078000  0.89628000  0.23398000  1.0 -0.7289697395
O  O63  1  0.89628000  0.23398000  0.09078000  1.0 -0.7289697395
O  O64  1  0.26602000  0.60372000  0.40922000  1.0 -0.7289697395
O  O65  1  0.40922000  0.26602000  0.60372000  1.0 -0.7289697395
O  O66  1  0.60372000  0.40922000  0.26602000  1.0 -0.7289697395
O  O67  1  0.76602000  0.90922000  0.10372000  1.0 -0.7289697395
O  O68  1  0.90922000  0.10372000  0.76602000  1.0 -0.7289697395
O  O69  1  0.10372000  0.76602000  0.90922000  1.0 -0.7289697395
O  O70  1  0.73398000  0.39628000  0.59078000  1.0 -0.7289697395
O  O71  1  0.59078000  0.73398000  0.39628000  1.0 -0.7289697395
O  O72  1  0.39628000  0.59078000  0.73398000  1.0 -0.7289697395
O  O73  1  0.02244000  0.02244000  0.02244000  1.0 -1.2578263233
O  O74  1  0.47756000  0.47756000  0.47756000  1.0 -1.2546623895
O  O75  1  0.97756000  0.97756000  0.97756000  1.0 -1.2578263233
O  O76  1  0.52244000  0.52244000  0.52244000  1.0 -1.2578263233
