# DDEC6 charges by PACMAN v1.1 (https://github.com/mtap-research/PACMAN-charge/)
data_ISUGOT_FSR_pacman
_symmetry_space_group_name_H-M   'P 1'
_cell_length_a   21.25530000
_cell_length_b   21.25530000
_cell_length_c   21.25530000
_cell_angle_alpha   47.32480000
_cell_angle_beta   47.32480000
_cell_angle_gamma   47.32480000
_symmetry_Int_Tables_number   1
_chemical_formula_structural   Eu9H37C72(N6O19)2
_chemical_formula_sum   'Eu18 H74 C144 N24 O76'
_cell_volume   4748.20794126
_cell_formula_units_Z   2
loop_
 _symmetry_equiv_pos_site_id
 _symmetry_equiv_pos_as_xyz
  1  'x, y, z'
loop_
 _atom_site_type_symbol
 _atom_site_label
 _atom_site_symmetry_multiplicity
 _atom_site_fract_x
 _atom_site_fract_y
 _atom_site_fract_z
 _atom_site_occupancy
 _atom_site_charge
Eu  Eu1  1  0.44733000  0.34505000  0.60446000  1.0 2.1253417303
Eu  Eu2  1  0.34505000  0.60446000  0.44733000  1.0 2.1253417303
Eu  Eu3  1  0.60446000  0.44733000  0.34505000  1.0 2.1253417303
Eu  Eu4  1  0.05267000  0.89554000  0.15495000  1.0 2.1246680124
Eu  Eu5  1  0.15495000  0.05267000  0.89554000  1.0 2.1246680124
Eu  Eu6  1  0.89554000  0.15495000  0.05267000  1.0 2.1253417303
Eu  Eu7  1  0.55267000  0.65495000  0.39554000  1.0 2.1253417303
Eu  Eu8  1  0.65495000  0.39554000  0.55267000  1.0 2.1253417303
Eu  Eu9  1  0.39554000  0.55267000  0.65495000  1.0 2.1253417303
Eu  Eu10  1  0.94733000  0.10446000  0.84505000  1.0 2.1246680124
Eu  Eu11  1  0.84505000  0.94733000  0.10446000  1.0 2.1253417303
Eu  Eu12  1  0.10446000  0.84505000  0.94733000  1.0 2.1253417303
Eu  Eu13  1  0.27623000  0.22377000  0.75000000  1.0 1.9459732874
Eu  Eu14  1  0.22377000  0.75000000  0.27623000  1.0 1.9435168607
Eu  Eu15  1  0.75000000  0.27623000  0.22377000  1.0 1.9459732874
Eu  Eu16  1  0.72377000  0.77623000  0.25000000  1.0 1.9459732874
Eu  Eu17  1  0.77623000  0.25000000  0.72377000  1.0 1.9459732874
Eu  Eu18  1  0.25000000  0.72377000  0.77623000  1.0 1.9459732874
H  H1  1  0.22160000  0.36280000  0.96790000  1.0 0.110007364
H  H2  1  0.36280000  0.96790000  0.22160000  1.0 0.110007364
H  H3  1  0.96790000  0.22160000  0.36280000  1.0 0.110007364
H  H4  1  0.27840000  0.53210000  0.13720000  1.0 0.110007364
H  H5  1  0.13720000  0.27840000  0.53210000  1.0 0.110007364
H  H6  1  0.53210000  0.13720000  0.27840000  1.0 0.110007364
H  H7  1  0.77840000  0.63720000  0.03210000  1.0 0.110007364
H  H8  1  0.63720000  0.03210000  0.77840000  1.0 0.110007364
H  H9  1  0.03210000  0.77840000  0.63720000  1.0 0.110007364
H  H10  1  0.72160000  0.46790000  0.86280000  1.0 0.110007364
H  H11  1  0.86280000  0.72160000  0.46790000  1.0 0.110007364
H  H12  1  0.46790000  0.86280000  0.72160000  1.0 0.110007364
H  H13  1  0.12590000  0.28530000  0.06760000  1.0 0.1277525068
H  H14  1  0.28530000  0.06760000  0.12590000  1.0 0.1277525068
H  H15  1  0.06760000  0.12590000  0.28530000  1.0 0.1277525068
H  H16  1  0.37410000  0.43240000  0.21470000  1.0 0.1277525068
H  H17  1  0.21470000  0.37410000  0.43240000  1.0 0.1277525068
H  H18  1  0.43240000  0.21470000  0.37410000  1.0 0.1277525068
H  H19  1  0.87410000  0.71470000  0.93240000  1.0 0.1277525068
H  H20  1  0.71470000  0.93240000  0.87410000  1.0 0.1277525068
H  H21  1  0.93240000  0.87410000  0.71470000  1.0 0.1277525068
H  H22  1  0.62590000  0.56760000  0.78530000  1.0 0.1277525068
H  H23  1  0.78530000  0.62590000  0.56760000  1.0 0.1277525068
H  H24  1  0.56760000  0.78530000  0.62590000  1.0 0.1277525068
H  H25  1  0.12550000  0.22330000  0.01120000  1.0 0.110007364
H  H26  1  0.22330000  0.01120000  0.12550000  1.0 0.110007364
H  H27  1  0.01120000  0.12550000  0.22330000  1.0 0.110007364
H  H28  1  0.37450000  0.48880000  0.27670000  1.0 0.110007364
H  H29  1  0.27670000  0.37450000  0.48880000  1.0 0.110007364
H  H30  1  0.48880000  0.27670000  0.37450000  1.0 0.110007364
H  H31  1  0.87450000  0.77670000  0.98880000  1.0 0.110007364
H  H32  1  0.77670000  0.98880000  0.87450000  1.0 0.110007364
H  H33  1  0.98880000  0.87450000  0.77670000  1.0 0.110007364
H  H34  1  0.62550000  0.51120000  0.72330000  1.0 0.110007364
H  H35  1  0.72330000  0.62550000  0.51120000  1.0 0.110007364
H  H36  1  0.51120000  0.72330000  0.62550000  1.0 0.110007364
H  H37  1  0.66250000  0.07470000  0.46590000  1.0 0.1277525068
H  H38  1  0.07470000  0.46590000  0.66250000  1.0 0.1277525068
H  H39  1  0.46590000  0.66250000  0.07470000  1.0 0.1277525068
H  H40  1  0.83750000  0.03410000  0.42530000  1.0 0.1277525068
H  H41  1  0.42530000  0.83750000  0.03410000  1.0 0.1277525068
H  H42  1  0.03410000  0.42530000  0.83750000  1.0 0.1277525068
H  H43  1  0.33750000  0.92530000  0.53410000  1.0 0.1277525068
H  H44  1  0.92530000  0.53410000  0.33750000  1.0 0.1277525068
H  H45  1  0.53410000  0.33750000  0.92530000  1.0 0.1277525068
H  H46  1  0.16250000  0.96590000  0.57470000  1.0 0.1277525068
H  H47  1  0.57470000  0.16250000  0.96590000  1.0 0.1277525068
H  H48  1  0.96590000  0.57470000  0.16250000  1.0 0.1277525068
H  H49  1  0.59670000  0.96230000  0.57900000  1.0 0.1277525068
H  H50  1  0.96230000  0.57900000  0.59670000  1.0 0.1277525068
H  H51  1  0.57900000  0.59670000  0.96230000  1.0 0.1277525068
H  H52  1  0.90330000  0.92100000  0.53770000  1.0 0.1277525068
H  H53  1  0.53770000  0.90330000  0.92100000  1.0 0.1277525068
H  H54  1  0.92100000  0.53770000  0.90330000  1.0 0.1277525068
H  H55  1  0.40330000  0.03770000  0.42100000  1.0 0.1277525068
H  H56  1  0.03770000  0.42100000  0.40330000  1.0 0.1277525068
H  H57  1  0.42100000  0.40330000  0.03770000  1.0 0.1277525068
H  H58  1  0.09670000  0.07900000  0.46230000  1.0 0.1277525068
H  H59  1  0.46230000  0.09670000  0.07900000  1.0 0.1277525068
H  H60  1  0.07900000  0.46230000  0.09670000  1.0 0.1277525068
H  H61  1  0.44570000  0.00510000  0.68330000  1.0 0.1154836071
H  H62  1  0.00510000  0.68330000  0.44570000  1.0 0.1154836071
H  H63  1  0.68330000  0.44570000  0.00510000  1.0 0.1154836071
H  H64  1  0.05430000  0.81670000  0.49490000  1.0 0.1154836071
H  H65  1  0.49490000  0.05430000  0.81670000  1.0 0.1154836071
H  H66  1  0.81670000  0.49490000  0.05430000  1.0 0.1154836071
H  H67  1  0.55430000  0.99490000  0.31670000  1.0 0.1154836071
H  H68  1  0.99490000  0.31670000  0.55430000  1.0 0.1154836071
H  H69  1  0.31670000  0.55430000  0.99490000  1.0 0.1154836071
H  H70  1  0.94570000  0.18330000  0.50510000  1.0 0.1154836071
H  H71  1  0.50510000  0.94570000  0.18330000  1.0 0.1154836071
H  H72  1  0.18330000  0.50510000  0.94570000  1.0 0.1154836071
H  H73  1  0.50000000  0.50000000  0.50000000  1.0 0.420082639
H  H74  1  0.00000000  0.00000000  0.00000000  1.0 0.420082639
C  C1  1  0.28871000  0.28971000  0.83021000  1.0 0.5073068642
C  C2  1  0.28971000  0.83021000  0.28871000  1.0 0.5073068642
C  C3  1  0.83021000  0.28871000  0.28971000  1.0 0.5073068642
C  C4  1  0.21129000  0.66979000  0.21029000  1.0 0.5073068642
C  C5  1  0.21029000  0.21129000  0.66979000  1.0 0.5073068642
C  C6  1  0.66979000  0.21029000  0.21129000  1.0 0.5073068642
C  C7  1  0.71129000  0.71029000  0.16979000  1.0 0.5073068642
C  C8  1  0.71029000  0.16979000  0.71129000  1.0 0.5073068642
C  C9  1  0.16979000  0.71129000  0.71029000  1.0 0.5073068642
C  C10  1  0.78871000  0.33021000  0.78971000  1.0 0.5073068642
C  C11  1  0.78971000  0.78871000  0.33021000  1.0 0.5073068642
C  C12  1  0.33021000  0.78971000  0.78871000  1.0 0.5073068642
C  C13  1  0.28406000  0.34036000  0.85516000  1.0 -0.2114710333
C  C14  1  0.34036000  0.85516000  0.28406000  1.0 -0.2114710333
C  C15  1  0.85516000  0.28406000  0.34036000  1.0 -0.2114710333
C  C16  1  0.21594000  0.64484000  0.15964000  1.0 -0.2114710333
C  C17  1  0.15964000  0.21594000  0.64484000  1.0 -0.2114710333
C  C18  1  0.64484000  0.15964000  0.21594000  1.0 -0.2114710333
C  C19  1  0.71594000  0.65964000  0.14484000  1.0 -0.2114710333
C  C20  1  0.65964000  0.14484000  0.71594000  1.0 -0.2114710333
C  C21  1  0.14484000  0.71594000  0.65964000  1.0 -0.2114710333
C  C22  1  0.78406000  0.35516000  0.84036000  1.0 -0.2114710333
C  C23  1  0.84036000  0.78406000  0.35516000  1.0 -0.2114710333
C  C24  1  0.35516000  0.84036000  0.78406000  1.0 -0.2114710333
C  C25  1  0.22300000  0.33500000  0.94690000  1.0 -0.0429286379
C  C26  1  0.33500000  0.94690000  0.22300000  1.0 -0.0429286379
C  C27  1  0.94690000  0.22300000  0.33500000  1.0 -0.0429286379
C  C28  1  0.27700000  0.55310000  0.16500000  1.0 -0.0429286379
C  C29  1  0.16500000  0.27700000  0.55310000  1.0 -0.0429286379
C  C30  1  0.55310000  0.16500000  0.27700000  1.0 -0.0429286379
C  C31  1  0.77700000  0.66500000  0.05310000  1.0 -0.0429286379
C  C32  1  0.66500000  0.05310000  0.77700000  1.0 -0.0429286379
C  C33  1  0.05310000  0.77700000  0.66500000  1.0 -0.0429286379
C  C34  1  0.72300000  0.44690000  0.83500000  1.0 -0.0429286379
C  C35  1  0.83500000  0.72300000  0.44690000  1.0 -0.0429286379
C  C36  1  0.44690000  0.83500000  0.72300000  1.0 -0.0429286379
C  C37  1  0.16530000  0.28960000  0.00650000  1.0 -0.2160204249
C  C38  1  0.28960000  0.00650000  0.16530000  1.0 -0.2160204249
C  C39  1  0.00650000  0.16530000  0.28960000  1.0 -0.2160204249
C  C40  1  0.33470000  0.49350000  0.21040000  1.0 -0.2160204249
C  C41  1  0.21040000  0.33470000  0.49350000  1.0 -0.2160204249
C  C42  1  0.49350000  0.21040000  0.33470000  1.0 -0.2160204249
C  C43  1  0.83470000  0.71040000  0.99350000  1.0 -0.2160204249
C  C44  1  0.71040000  0.99350000  0.83470000  1.0 -0.2160204249
C  C45  1  0.99350000  0.83470000  0.71040000  1.0 -0.2160204249
C  C46  1  0.66530000  0.50650000  0.78960000  1.0 -0.2160204249
C  C47  1  0.78960000  0.66530000  0.50650000  1.0 -0.2160204249
C  C48  1  0.50650000  0.78960000  0.66530000  1.0 -0.2160204249
C  C49  1  0.16754000  0.25034000  0.97284000  1.0 0.110007364
C  C50  1  0.25034000  0.97284000  0.16754000  1.0 0.110007364
C  C51  1  0.97284000  0.16754000  0.25034000  1.0 0.110007364
C  C52  1  0.33246000  0.52716000  0.24966000  1.0 0.110007364
C  C53  1  0.24966000  0.33246000  0.52716000  1.0 0.110007364
C  C54  1  0.52716000  0.24966000  0.33246000  1.0 0.110007364
C  C55  1  0.83246000  0.74966000  0.02716000  1.0 0.110007364
C  C56  1  0.74966000  0.02716000  0.83246000  1.0 0.110007364
C  C57  1  0.02716000  0.83246000  0.74966000  1.0 0.110007364
C  C58  1  0.66754000  0.47284000  0.75034000  1.0 0.110007364
C  C59  1  0.75034000  0.66754000  0.47284000  1.0 0.110007364
C  C60  1  0.47284000  0.75034000  0.66754000  1.0 0.110007364
C  C61  1  0.33635000  0.39945000  0.78875000  1.0 0.6288679047
C  C62  1  0.39945000  0.78875000  0.33635000  1.0 0.6288679047
C  C63  1  0.78875000  0.33635000  0.39945000  1.0 0.6288679047
C  C64  1  0.16365000  0.71125000  0.10055000  1.0 0.6288679047
C  C65  1  0.10055000  0.16365000  0.71125000  1.0 0.6288679047
C  C66  1  0.71125000  0.10055000  0.16365000  1.0 0.6288679047
C  C67  1  0.66365000  0.60055000  0.21125000  1.0 0.6288679047
C  C68  1  0.60055000  0.21125000  0.66365000  1.0 0.6288679047
C  C69  1  0.21125000  0.66365000  0.60055000  1.0 0.6288679047
C  C70  1  0.83635000  0.28875000  0.89945000  1.0 0.6288679047
C  C71  1  0.89945000  0.83635000  0.28875000  1.0 0.6288679047
C  C72  1  0.28875000  0.89945000  0.83635000  1.0 0.6288679047
C  C73  1  0.46539000  0.18859000  0.59139000  1.0 0.4820712312
C  C74  1  0.18859000  0.59139000  0.46539000  1.0 0.4820712312
C  C75  1  0.59139000  0.46539000  0.18859000  1.0 0.4820712312
C  C76  1  0.03461000  0.90861000  0.31141000  1.0 0.4820712312
C  C77  1  0.31141000  0.03461000  0.90861000  1.0 0.4820712312
C  C78  1  0.90861000  0.31141000  0.03461000  1.0 0.4820712312
C  C79  1  0.53461000  0.81141000  0.40861000  1.0 0.4820712312
C  C80  1  0.81141000  0.40861000  0.53461000  1.0 0.4820712312
C  C81  1  0.40861000  0.53461000  0.81141000  1.0 0.4820712312
C  C82  1  0.96539000  0.09139000  0.68859000  1.0 0.4820712312
C  C83  1  0.68859000  0.96539000  0.09139000  1.0 0.4820712312
C  C84  1  0.09139000  0.68859000  0.96539000  1.0 0.4820712312
C  C85  1  0.55832000  0.16822000  0.52252000  1.0 -0.2042458924
C  C86  1  0.16822000  0.52252000  0.55832000  1.0 -0.2042458924
C  C87  1  0.52252000  0.55832000  0.16822000  1.0 -0.2042458924
C  C88  1  0.94168000  0.97748000  0.33178000  1.0 -0.2042458924
C  C89  1  0.33178000  0.94168000  0.97748000  1.0 -0.2042458924
C  C90  1  0.97748000  0.33178000  0.94168000  1.0 -0.2042458924
C  C91  1  0.44168000  0.83178000  0.47748000  1.0 -0.2042458924
C  C92  1  0.83178000  0.47748000  0.44168000  1.0 -0.2042458924
C  C93  1  0.47748000  0.44168000  0.83178000  1.0 -0.2042458924
C  C94  1  0.05832000  0.02252000  0.66822000  1.0 -0.2042458924
C  C95  1  0.66822000  0.05832000  0.02252000  1.0 -0.2042458924
C  C96  1  0.02252000  0.66822000  0.05832000  1.0 -0.2042458924
C  C97  1  0.60410000  0.08720000  0.51450000  1.0 -0.0157266656
C  C98  1  0.08720000  0.51450000  0.60410000  1.0 -0.0157266656
C  C99  1  0.51450000  0.60410000  0.08720000  1.0 -0.0157266656
C  C100  1  0.89590000  0.98550000  0.41280000  1.0 -0.0157266656
C  C101  1  0.41280000  0.89590000  0.98550000  1.0 -0.0157266656
C  C102  1  0.98550000  0.41280000  0.89590000  1.0 -0.0157266656
C  C103  1  0.39590000  0.91280000  0.48550000  1.0 -0.0148987137
C  C104  1  0.91280000  0.48550000  0.39590000  1.0 -0.0148987137
C  C105  1  0.48550000  0.39590000  0.91280000  1.0 -0.0157266656
C  C106  1  0.10410000  0.01450000  0.58720000  1.0 -0.0157266656
C  C107  1  0.58720000  0.10410000  0.01450000  1.0 -0.0157266656
C  C108  1  0.01450000  0.58720000  0.10410000  1.0 -0.0157266656
C  C109  1  0.56330000  0.02080000  0.58000000  1.0 -0.2114710333
C  C110  1  0.02080000  0.58000000  0.56330000  1.0 -0.2114710333
C  C111  1  0.58000000  0.56330000  0.02080000  1.0 -0.2114710333
C  C112  1  0.93670000  0.92000000  0.47920000  1.0 -0.2114710333
C  C113  1  0.47920000  0.93670000  0.92000000  1.0 -0.2114710333
C  C114  1  0.92000000  0.47920000  0.93670000  1.0 -0.2114710333
C  C115  1  0.43670000  0.97920000  0.42000000  1.0 -0.2114710333
C  C116  1  0.97920000  0.42000000  0.43670000  1.0 -0.2114710333
C  C117  1  0.42000000  0.43670000  0.97920000  1.0 -0.2114710333
C  C118  1  0.06330000  0.08000000  0.52080000  1.0 -0.2114710333
C  C119  1  0.52080000  0.06330000  0.08000000  1.0 -0.2114710333
C  C120  1  0.08000000  0.52080000  0.06330000  1.0 -0.2114710333
C  C121  1  0.47450000  0.04590000  0.64340000  1.0 0.1277525068
C  C122  1  0.04590000  0.64340000  0.47450000  1.0 0.1277525068
C  C123  1  0.64340000  0.47450000  0.04590000  1.0 0.1277525068
C  C124  1  0.02550000  0.85660000  0.45410000  1.0 0.1277525068
C  C125  1  0.45410000  0.02550000  0.85660000  1.0 0.1277525068
C  C126  1  0.85660000  0.45410000  0.02550000  1.0 0.1277525068
C  C127  1  0.52550000  0.95410000  0.35660000  1.0 0.1277525068
C  C128  1  0.95410000  0.35660000  0.52550000  1.0 0.1277525068
C  C129  1  0.35660000  0.52550000  0.95410000  1.0 0.1277525068
C  C130  1  0.97450000  0.14340000  0.54590000  1.0 0.1277525068
C  C131  1  0.54590000  0.97450000  0.14340000  1.0 0.1277525068
C  C132  1  0.14340000  0.54590000  0.97450000  1.0 0.1277525068
C  C133  1  0.60434000  0.23444000  0.45594000  1.0 0.6819391055
C  C134  1  0.23444000  0.45594000  0.60434000  1.0 0.6819391055
C  C135  1  0.45594000  0.60434000  0.23444000  1.0 0.6819391055
C  C136  1  0.89566000  0.04406000  0.26556000  1.0 0.6819391055
C  C137  1  0.26556000  0.89566000  0.04406000  1.0 0.6819391055
C  C138  1  0.04406000  0.26556000  0.89566000  1.0 0.6819391055
C  C139  1  0.39566000  0.76556000  0.54406000  1.0 0.6819391055
C  C140  1  0.76556000  0.54406000  0.39566000  1.0 0.6819391055
C  C141  1  0.54406000  0.39566000  0.76556000  1.0 0.6819391055
C  C142  1  0.10434000  0.95594000  0.73444000  1.0 0.6819391055
C  C143  1  0.73444000  0.10434000  0.95594000  1.0 0.6819391055
C  C144  1  0.95594000  0.73444000  0.10434000  1.0 0.6819391055
N  N1  1  0.22816000  0.24946000  0.88646000  1.0 -0.4544522163
N  N2  1  0.24946000  0.88646000  0.22816000  1.0 -0.4544522163
N  N3  1  0.88646000  0.22816000  0.24946000  1.0 -0.4544522163
N  N4  1  0.27184000  0.61354000  0.25054000  1.0 -0.4544522163
N  N5  1  0.25054000  0.27184000  0.61354000  1.0 -0.4544522163
N  N6  1  0.61354000  0.25054000  0.27184000  1.0 -0.4544522163
N  N7  1  0.77184000  0.75054000  0.11354000  1.0 -0.4544522163
N  N8  1  0.75054000  0.11354000  0.77184000  1.0 -0.4544522163
N  N9  1  0.11354000  0.77184000  0.75054000  1.0 -0.4544522163
N  N10  1  0.72816000  0.38646000  0.74946000  1.0 -0.4544522163
N  N11  1  0.74946000  0.72816000  0.38646000  1.0 -0.4544522163
N  N12  1  0.38646000  0.74946000  0.72816000  1.0 -0.4544522163
N  N13  1  0.42590000  0.12620000  0.65160000  1.0 -0.4553845423
N  N14  1  0.12620000  0.65160000  0.42590000  1.0 -0.4553845423
N  N15  1  0.65160000  0.42590000  0.12620000  1.0 -0.4553845423
N  N16  1  0.07410000  0.84840000  0.37380000  1.0 -0.4553845423
N  N17  1  0.37380000  0.07410000  0.84840000  1.0 -0.4553845423
N  N18  1  0.84840000  0.37380000  0.07410000  1.0 -0.4553845423
N  N19  1  0.57410000  0.87380000  0.34840000  1.0 -0.4553845423
N  N20  1  0.87380000  0.34840000  0.57410000  1.0 -0.4553845423
N  N21  1  0.34840000  0.57410000  0.87380000  1.0 -0.4553845423
N  N22  1  0.92590000  0.15160000  0.62620000  1.0 -0.4553845423
N  N23  1  0.62620000  0.92590000  0.15160000  1.0 -0.4553845423
N  N24  1  0.15160000  0.62620000  0.92590000  1.0 -0.4553845423
O  O1  1  0.38606000  0.41156000  0.70176000  1.0 -0.7380669611
O  O2  1  0.41156000  0.70176000  0.38606000  1.0 -0.7380669611
O  O3  1  0.70176000  0.38606000  0.41156000  1.0 -0.7380669611
O  O4  1  0.11394000  0.79824000  0.08844000  1.0 -0.7380669611
O  O5  1  0.08844000  0.11394000  0.79824000  1.0 -0.7380669611
O  O6  1  0.79824000  0.08844000  0.11394000  1.0 -0.7380669611
O  O7  1  0.61394000  0.58844000  0.29824000  1.0 -0.7380669611
O  O8  1  0.58844000  0.29824000  0.61394000  1.0 -0.7380669611
O  O9  1  0.29824000  0.61394000  0.58844000  1.0 -0.7380669611
O  O10  1  0.88606000  0.20176000  0.91156000  1.0 -0.7380669611
O  O11  1  0.91156000  0.88606000  0.20176000  1.0 -0.7380669611
O  O12  1  0.20176000  0.91156000  0.88606000  1.0 -0.7380669611
O  O13  1  0.32871000  0.44321000  0.81461000  1.0 -0.6022783415
O  O14  1  0.44321000  0.81461000  0.32871000  1.0 -0.6022783415
O  O15  1  0.81461000  0.32871000  0.44321000  1.0 -0.6022783415
O  O16  1  0.17129000  0.68539000  0.05679000  1.0 -0.6022783415
O  O17  1  0.05679000  0.17129000  0.68539000  1.0 -0.6022783415
O  O18  1  0.68539000  0.05679000  0.17129000  1.0 -0.6022783415
O  O19  1  0.67129000  0.55679000  0.18539000  1.0 -0.6022783415
O  O20  1  0.55679000  0.18539000  0.67129000  1.0 -0.6022783415
O  O21  1  0.18539000  0.67129000  0.55679000  1.0 -0.6022783415
O  O22  1  0.82871000  0.31461000  0.94321000  1.0 -0.6022783415
O  O23  1  0.94321000  0.82871000  0.31461000  1.0 -0.6022783415
O  O24  1  0.31461000  0.94321000  0.82871000  1.0 -0.6022783415
O  O25  1  0.34760000  0.27890000  0.75300000  1.0 -0.7380669611
O  O26  1  0.27890000  0.75300000  0.34760000  1.0 -0.7380669611
O  O27  1  0.75300000  0.34760000  0.27890000  1.0 -0.7380669611
O  O28  1  0.15240000  0.74700000  0.22110000  1.0 -0.7380669611
O  O29  1  0.22110000  0.15240000  0.74700000  1.0 -0.7380669611
O  O30  1  0.74700000  0.22110000  0.15240000  1.0 -0.7380669611
O  O31  1  0.65240000  0.72110000  0.24700000  1.0 -0.7380669611
O  O32  1  0.72110000  0.24700000  0.65240000  1.0 -0.7380669611
O  O33  1  0.24700000  0.65240000  0.72110000  1.0 -0.7380669611
O  O34  1  0.84760000  0.25300000  0.77890000  1.0 -0.7380669611
O  O35  1  0.77890000  0.84760000  0.25300000  1.0 -0.7380669611
O  O36  1  0.25300000  0.77890000  0.84760000  1.0 -0.7380669611
O  O37  1  0.56600000  0.30700000  0.46810000  1.0 -0.7458969008
O  O38  1  0.30700000  0.46810000  0.56600000  1.0 -0.7458969008
O  O39  1  0.46810000  0.56600000  0.30700000  1.0 -0.7458969008
O  O40  1  0.93400000  0.03190000  0.19300000  1.0 -0.7458969008
O  O41  1  0.19300000  0.93400000  0.03190000  1.0 -0.7458969008
O  O42  1  0.03190000  0.19300000  0.93400000  1.0 -0.7458969008
O  O43  1  0.43400000  0.69300000  0.53190000  1.0 -0.7458969008
O  O44  1  0.69300000  0.53190000  0.43400000  1.0 -0.7458969008
O  O45  1  0.53190000  0.43400000  0.69300000  1.0 -0.7458969008
O  O46  1  0.06600000  0.96810000  0.80700000  1.0 -0.7458969008
O  O47  1  0.80700000  0.06600000  0.96810000  1.0 -0.7458969008
O  O48  1  0.96810000  0.80700000  0.06600000  1.0 -0.7458969008
O  O49  1  0.67943000  0.21523000  0.39043000  1.0 -0.6139867501
O  O50  1  0.21523000  0.39043000  0.67943000  1.0 -0.6139867501
O  O51  1  0.39043000  0.67943000  0.21523000  1.0 -0.6139867501
O  O52  1  0.82057000  0.10957000  0.28477000  1.0 -0.6139867501
O  O53  1  0.28477000  0.82057000  0.10957000  1.0 -0.6139867501
O  O54  1  0.10957000  0.28477000  0.82057000  1.0 -0.6139867501
O  O55  1  0.32057000  0.78477000  0.60957000  1.0 -0.6139867501
O  O56  1  0.78477000  0.60957000  0.32057000  1.0 -0.6139867501
O  O57  1  0.60957000  0.32057000  0.78477000  1.0 -0.6139867501
O  O58  1  0.17943000  0.89043000  0.71523000  1.0 -0.6139867501
O  O59  1  0.71523000  0.17943000  0.89043000  1.0 -0.6139867501
O  O60  1  0.89043000  0.71523000  0.17943000  1.0 -0.6139867501
O  O61  1  0.40951000  0.26491000  0.60461000  1.0 -0.7458969008
O  O62  1  0.26491000  0.60461000  0.40951000  1.0 -0.7458969008
O  O63  1  0.60461000  0.40951000  0.26491000  1.0 -0.7458969008
O  O64  1  0.09049000  0.89539000  0.23509000  1.0 -0.7380669611
O  O65  1  0.23509000  0.09049000  0.89539000  1.0 -0.7458969008
O  O66  1  0.89539000  0.23509000  0.09049000  1.0 -0.7380669611
O  O67  1  0.59049000  0.73509000  0.39539000  1.0 -0.7458969008
O  O68  1  0.73509000  0.39539000  0.59049000  1.0 -0.7458969008
O  O69  1  0.39539000  0.59049000  0.73509000  1.0 -0.7458969008
O  O70  1  0.90951000  0.10461000  0.76491000  1.0 -0.7458969008
O  O71  1  0.76491000  0.90951000  0.10461000  1.0 -0.7458969008
O  O72  1  0.10461000  0.76491000  0.90951000  1.0 -0.7458969008
O  O73  1  0.47761000  0.47761000  0.47761000  1.0 -1.2906587021
O  O74  1  0.02239000  0.02239000  0.02239000  1.0 -1.2906587021
O  O75  1  0.52239000  0.52239000  0.52239000  1.0 -1.2906587021
O  O76  1  0.97761000  0.97761000  0.97761000  1.0 -1.2906587021
