# DDEC6 charges by PACMAN v1.1 (https://github.com/mtap-research/PACMAN-charge/)
data_ITIPOS_FSR_pacman
_symmetry_space_group_name_H-M   'P 1'
_cell_length_a   17.69430000
_cell_length_b   17.69430000
_cell_length_c   13.29210000
_cell_angle_alpha   90.00000000
_cell_angle_beta   90.00000000
_cell_angle_gamma   120.00000000
_symmetry_Int_Tables_number   1
_chemical_formula_structural   CaCu6H27C24(N2O7)3
_chemical_formula_sum   'Ca2 Cu12 H54 C48 N12 O42'
_cell_volume   3604.05163296
_cell_formula_units_Z   2
loop_
 _symmetry_equiv_pos_site_id
 _symmetry_equiv_pos_as_xyz
  1  'x, y, z'
loop_
 _atom_site_type_symbol
 _atom_site_label
 _atom_site_symmetry_multiplicity
 _atom_site_fract_x
 _atom_site_fract_y
 _atom_site_fract_z
 _atom_site_occupancy
 _atom_site_charge
Ca  Ca1  1  0.33333333  0.66666667  0.55630000  1.0 1.4031448366
Ca  Ca2  1  0.66666667  0.33333333  0.05630000  1.0 1.4050496818
Cu  Cu1  1  0.13309000  0.57526000  0.68047000  1.0 0.8500495157
Cu  Cu2  1  0.42474000  0.55783000  0.68047000  1.0 0.8500495157
Cu  Cu3  1  0.44217000  0.86691000  0.68047000  1.0 0.8500495157
Cu  Cu4  1  0.86691000  0.42474000  0.18047000  1.0 0.8500495157
Cu  Cu5  1  0.57526000  0.44217000  0.18047000  1.0 0.8500495157
Cu  Cu6  1  0.55783000  0.13309000  0.18047000  1.0 0.8500495157
Cu  Cu7  1  0.13363000  0.58025000  0.43051000  1.0 0.8358131648
Cu  Cu8  1  0.41975000  0.55338000  0.43051000  1.0 0.8358131648
Cu  Cu9  1  0.44662000  0.86637000  0.43051000  1.0 0.8358131648
Cu  Cu10  1  0.86637000  0.41975000  0.93051000  1.0 0.8358131648
Cu  Cu11  1  0.58025000  0.44662000  0.93051000  1.0 0.8358131648
Cu  Cu12  1  0.55338000  0.13363000  0.93051000  1.0 0.8358131648
H  H1  1  0.17800000  0.68500000  0.55900000  1.0 0.3965076806
H  H2  1  0.31500000  0.49300000  0.55900000  1.0 0.3965076806
H  H3  1  0.50700000  0.82200000  0.55900000  1.0 0.3965076806
H  H4  1  0.82200000  0.31500000  0.05900000  1.0 0.3965076806
H  H5  1  0.68500000  0.50700000  0.05900000  1.0 0.3965076806
H  H6  1  0.49300000  0.17800000  0.05900000  1.0 0.3965076806
H  H7  1  0.13440000  0.42030000  0.26360000  1.0 0.1007634701
H  H8  1  0.57970000  0.71410000  0.26360000  1.0 0.1007634701
H  H9  1  0.28590000  0.86560000  0.26360000  1.0 0.1007634701
H  H10  1  0.86560000  0.57970000  0.76360000  1.0 0.1007634701
H  H11  1  0.42030000  0.28590000  0.76360000  1.0 0.1007634701
H  H12  1  0.71410000  0.13440000  0.76360000  1.0 0.1007634701
H  H13  1  0.15070000  0.51590000  0.12420000  1.0 0.1482223572
H  H14  1  0.48410000  0.63480000  0.12420000  1.0 0.1482223572
H  H15  1  0.36520000  0.84930000  0.12420000  1.0 0.1482223572
H  H16  1  0.84930000  0.48410000  0.62420000  1.0 0.1482223572
H  H17  1  0.51590000  0.36520000  0.62420000  1.0 0.1482223572
H  H18  1  0.63480000  0.15070000  0.62420000  1.0 0.1482223572
H  H19  1  0.23850000  0.51290000  0.14310000  1.0 0.139480874
H  H20  1  0.48710000  0.72560000  0.14310000  1.0 0.139480874
H  H21  1  0.27440000  0.76150000  0.14310000  1.0 0.139480874
H  H22  1  0.76150000  0.48710000  0.64310000  1.0 0.139480874
H  H23  1  0.51290000  0.27440000  0.64310000  1.0 0.139480874
H  H24  1  0.72560000  0.23850000  0.64310000  1.0 0.139480874
H  H25  1  0.23100000  0.59460000  0.18160000  1.0 0.1333006224
H  H26  1  0.40540000  0.63640000  0.18160000  1.0 0.1333006224
H  H27  1  0.36360000  0.76900000  0.18160000  1.0 0.1333006224
H  H28  1  0.76900000  0.40540000  0.68160000  1.0 0.1333006224
H  H29  1  0.59460000  0.36360000  0.68160000  1.0 0.1333006224
H  H30  1  0.63640000  0.23100000  0.68160000  1.0 0.1333006224
H  H31  1  0.93870000  0.66640000  0.35180000  1.0 0.1333006224
H  H32  1  0.33360000  0.27230000  0.35180000  1.0 0.1333006224
H  H33  1  0.72770000  0.06130000  0.35180000  1.0 0.1333006224
H  H34  1  0.06130000  0.33360000  0.85180000  1.0 0.1333006224
H  H35  1  0.66640000  0.72770000  0.85180000  1.0 0.1333006224
H  H36  1  0.27230000  0.93870000  0.85180000  1.0 0.1333006224
H  H37  1  0.84470000  0.65400000  0.32670000  1.0 0.1333006224
H  H38  1  0.34600000  0.19070000  0.32670000  1.0 0.1333006224
H  H39  1  0.80930000  0.15530000  0.32670000  1.0 0.1333006224
H  H40  1  0.15530000  0.34600000  0.82670000  1.0 0.1333006224
H  H41  1  0.65400000  0.80930000  0.82670000  1.0 0.1333006224
H  H42  1  0.19070000  0.84470000  0.82670000  1.0 0.1333006224
H  H43  1  0.90420000  0.65040000  0.23820000  1.0 0.1166139507
H  H44  1  0.34960000  0.25380000  0.23820000  1.0 0.1166139507
H  H45  1  0.74620000  0.09580000  0.23820000  1.0 0.1166139507
H  H46  1  0.09580000  0.34960000  0.73820000  1.0 0.1166139507
H  H47  1  0.65040000  0.74620000  0.73820000  1.0 0.1166139507
H  H48  1  0.25380000  0.90420000  0.73820000  1.0 0.1166139507
H  H49  1  0.82880000  0.52020000  0.39670000  1.0 0.1109263054
H  H50  1  0.47980000  0.30860000  0.39670000  1.0 0.1109263054
H  H51  1  0.69140000  0.17120000  0.39670000  1.0 0.1109263054
H  H52  1  0.17120000  0.47980000  0.89670000  1.0 0.1109263054
H  H53  1  0.52020000  0.69140000  0.89670000  1.0 0.1109263054
H  H54  1  0.30860000  0.82880000  0.89670000  1.0 0.1109263054
C  C1  1  0.02260000  0.48240000  0.27820000  1.0 0.3706842861
C  C2  1  0.51760000  0.54020000  0.27820000  1.0 0.3706842861
C  C3  1  0.45980000  0.97740000  0.27820000  1.0 0.3706842861
C  C4  1  0.97740000  0.51760000  0.77820000  1.0 0.3706842861
C  C5  1  0.48240000  0.45980000  0.77820000  1.0 0.3706842861
C  C6  1  0.54020000  0.02260000  0.77820000  1.0 0.3706842861
C  C7  1  0.97620000  0.52250000  0.33520000  1.0 0.3788513244
C  C8  1  0.47750000  0.45370000  0.33520000  1.0 0.3788513244
C  C9  1  0.54630000  0.02380000  0.33520000  1.0 0.3788513244
C  C10  1  0.02380000  0.47750000  0.83520000  1.0 0.3788513244
C  C11  1  0.52250000  0.54630000  0.83520000  1.0 0.3788513244
C  C12  1  0.45370000  0.97620000  0.83520000  1.0 0.3788513244
C  C13  1  0.16240000  0.48480000  0.27290000  1.0 0.0518958913
C  C14  1  0.51520000  0.67760000  0.27290000  1.0 0.0554407017
C  C15  1  0.32240000  0.83760000  0.27290000  1.0 0.0554407017
C  C16  1  0.83760000  0.51520000  0.77290000  1.0 0.0518958913
C  C17  1  0.48480000  0.32240000  0.77290000  1.0 0.0518958913
C  C18  1  0.67760000  0.16240000  0.77290000  1.0 0.0518958913
C  C19  1  0.23770000  0.51590000  0.35060000  1.0 0.5792576821
C  C20  1  0.48410000  0.72180000  0.35060000  1.0 0.5792576821
C  C21  1  0.27820000  0.76230000  0.35060000  1.0 0.5792576821
C  C22  1  0.76230000  0.48410000  0.85060000  1.0 0.5792576821
C  C23  1  0.51590000  0.27820000  0.85060000  1.0 0.5792576821
C  C24  1  0.72180000  0.23770000  0.85060000  1.0 0.5792576821
C  C25  1  0.19900000  0.53130000  0.17110000  1.0 -0.4103036521
C  C26  1  0.46870000  0.66770000  0.17110000  1.0 -0.4103036521
C  C27  1  0.33230000  0.80100000  0.17110000  1.0 -0.4103036521
C  C28  1  0.80100000  0.46870000  0.67110000  1.0 -0.4103036521
C  C29  1  0.53130000  0.33230000  0.67110000  1.0 -0.4103036521
C  C30  1  0.66770000  0.19900000  0.67110000  1.0 -0.4103036521
C  C31  1  0.76240000  0.48840000  0.25910000  1.0 0.5792576821
C  C32  1  0.51160000  0.27400000  0.25910000  1.0 0.5792576821
C  C33  1  0.72600000  0.23760000  0.25910000  1.0 0.5792576821
C  C34  1  0.23760000  0.51160000  0.75910000  1.0 0.5792576821
C  C35  1  0.48840000  0.72600000  0.75910000  1.0 0.5792576821
C  C36  1  0.27400000  0.76240000  0.75910000  1.0 0.5792576821
C  C37  1  0.88700000  0.63590000  0.30880000  1.0 -0.3575165668
C  C38  1  0.36410000  0.25110000  0.30880000  1.0 -0.3575165668
C  C39  1  0.74890000  0.11300000  0.30880000  1.0 -0.3575165668
C  C40  1  0.11300000  0.36410000  0.80880000  1.0 -0.3575165668
C  C41  1  0.63590000  0.74890000  0.80880000  1.0 -0.3575165668
C  C42  1  0.25110000  0.88700000  0.80880000  1.0 -0.3575165668
C  C43  1  0.84470000  0.53500000  0.32430000  1.0 0.0518958913
C  C44  1  0.46500000  0.30970000  0.32430000  1.0 0.0518958913
C  C45  1  0.69030000  0.15530000  0.32430000  1.0 0.0518958913
C  C46  1  0.15530000  0.46500000  0.82430000  1.0 0.0518958913
C  C47  1  0.53500000  0.69030000  0.82430000  1.0 0.0518958913
C  C48  1  0.30970000  0.84470000  0.82430000  1.0 0.0518958913
N  N1  1  0.90290000  0.50370000  0.29320000  1.0 -0.4316300202
N  N2  1  0.49630000  0.39920000  0.29320000  1.0 -0.4316300202
N  N3  1  0.60080000  0.09710000  0.29320000  1.0 -0.4316300202
N  N4  1  0.09710000  0.49630000  0.79320000  1.0 -0.4316300202
N  N5  1  0.50370000  0.60080000  0.79320000  1.0 -0.4316300202
N  N6  1  0.39920000  0.90290000  0.79320000  1.0 -0.4316300202
N  N7  1  0.09930000  0.50590000  0.31500000  1.0 -0.4168966213
N  N8  1  0.49410000  0.59340000  0.31500000  1.0 -0.4168966213
N  N9  1  0.40660000  0.90070000  0.31500000  1.0 -0.4168966213
N  N10  1  0.90070000  0.49410000  0.81500000  1.0 -0.4168966213
N  N11  1  0.50590000  0.40660000  0.81500000  1.0 -0.4168966213
N  N12  1  0.59340000  0.09930000  0.81500000  1.0 -0.4168966213
O  O1  1  0.17244000  0.63846000  0.55750000  1.0 -0.7981878319
O  O2  1  0.36154000  0.53398000  0.55750000  1.0 -0.7981878319
O  O3  1  0.46602000  0.82756000  0.55750000  1.0 -0.7981878319
O  O4  1  0.82756000  0.36154000  0.05750000  1.0 -0.7981878319
O  O5  1  0.63846000  0.46602000  0.05750000  1.0 -0.7981878319
O  O6  1  0.53398000  0.17244000  0.05750000  1.0 -0.7981878319
O  O7  1  0.98490000  0.43360000  0.20050000  1.0 -0.4588600247
O  O8  1  0.56640000  0.55130000  0.20050000  1.0 -0.4588600247
O  O9  1  0.44870000  0.01510000  0.20050000  1.0 -0.4588600247
O  O10  1  0.01510000  0.56640000  0.70050000  1.0 -0.4588600247
O  O11  1  0.43360000  0.44870000  0.70050000  1.0 -0.4588600247
O  O12  1  0.55130000  0.98490000  0.70050000  1.0 -0.4588600247
O  O13  1  0.69950000  0.50100000  0.27740000  1.0 -0.5422531266
O  O14  1  0.49900000  0.19850000  0.27740000  1.0 -0.5422531266
O  O15  1  0.80150000  0.30050000  0.27740000  1.0 -0.5422531266
O  O16  1  0.30050000  0.49900000  0.77740000  1.0 -0.5422531266
O  O17  1  0.50100000  0.80150000  0.77740000  1.0 -0.5422531266
O  O18  1  0.19850000  0.69950000  0.77740000  1.0 -0.5422531266
O  O19  1  0.01460000  0.57060000  0.41170000  1.0 -0.4496037363
O  O20  1  0.42940000  0.44400000  0.41170000  1.0 -0.4496037363
O  O21  1  0.55600000  0.98540000  0.41170000  1.0 -0.4496037363
O  O22  1  0.98540000  0.42940000  0.91170000  1.0 -0.4496037363
O  O23  1  0.57060000  0.55600000  0.91170000  1.0 -0.4496037363
O  O24  1  0.44400000  0.01460000  0.91170000  1.0 -0.4496037363
O  O25  1  0.29620000  0.49880000  0.33360000  1.0 -0.5269948342
O  O26  1  0.50120000  0.79740000  0.33360000  1.0 -0.5269948342
O  O27  1  0.20260000  0.70380000  0.33360000  1.0 -0.5269948342
O  O28  1  0.70380000  0.50120000  0.83360000  1.0 -0.5269948342
O  O29  1  0.49880000  0.20260000  0.83360000  1.0 -0.5269948342
O  O30  1  0.79740000  0.29620000  0.83360000  1.0 -0.5269948342
O  O31  1  0.23670000  0.56110000  0.42550000  1.0 -0.59222017
O  O32  1  0.43890000  0.67560000  0.42550000  1.0 -0.59222017
O  O33  1  0.32440000  0.76330000  0.42550000  1.0 -0.59222017
O  O34  1  0.76330000  0.43890000  0.92550000  1.0 -0.59222017
O  O35  1  0.56110000  0.32440000  0.92550000  1.0 -0.59222017
O  O36  1  0.67560000  0.23670000  0.92550000  1.0 -0.59222017
O  O37  1  0.76250000  0.44100000  0.18550000  1.0 -0.5953992246
O  O38  1  0.55900000  0.32150000  0.18550000  1.0 -0.5953992246
O  O39  1  0.67850000  0.23750000  0.18550000  1.0 -0.59222017
O  O40  1  0.23750000  0.55900000  0.68550000  1.0 -0.5953992246
O  O41  1  0.44100000  0.67850000  0.68550000  1.0 -0.5953992246
O  O42  1  0.32150000  0.76250000  0.68550000  1.0 -0.5953992246
