# DDEC6 charges by PACMAN v1.1 (https://github.com/mtap-research/PACMAN-charge/)
data_ITONAI_FSR_pacman
_symmetry_space_group_name_H-M   'P 1'
_cell_length_a   12.89570000
_cell_length_b   12.89570000
_cell_length_c   8.10658000
_cell_angle_alpha   85.19270000
_cell_angle_beta   94.80730000
_cell_angle_gamma   111.26900000
_symmetry_Int_Tables_number   1
_chemical_formula_structural   Zr3C11N2O15
_chemical_formula_sum   'Zr6 C22 N4 O30'
_cell_volume   1249.80197208
_cell_formula_units_Z   2
loop_
 _symmetry_equiv_pos_site_id
 _symmetry_equiv_pos_as_xyz
  1  'x, y, z'
loop_
 _atom_site_type_symbol
 _atom_site_label
 _atom_site_symmetry_multiplicity
 _atom_site_fract_x
 _atom_site_fract_y
 _atom_site_fract_z
 _atom_site_occupancy
 _atom_site_charge
Zr  Zr1  1  0.19763000  0.04061000  0.95948000  1.0 2.4733578617
Zr  Zr2  1  0.04061000  0.19763000  0.04052000  1.0 2.4753739292
Zr  Zr3  1  0.80237000  0.95939000  0.04052000  1.0 2.4733578617
Zr  Zr4  1  0.95939000  0.80237000  0.95948000  1.0 2.4733578617
Zr  Zr5  1  0.96334000  0.03666000  0.69324000  1.0 2.5154926235
Zr  Zr6  1  0.03666000  0.96334000  0.30676000  1.0 2.5154926235
C  C1  1  0.29365000  0.00441000  0.32096000  1.0 0.6705457026
C  C2  1  0.00441000  0.29365000  0.67904000  1.0 0.6705457026
C  C3  1  0.70635000  0.99559000  0.67904000  1.0 0.6705457026
C  C4  1  0.99559000  0.70635000  0.32096000  1.0 0.6705457026
C  C5  1  0.39874000  0.00328000  0.41577000  1.0 0.0212135031
C  C6  1  0.00328000  0.39874000  0.58423000  1.0 0.0212135031
C  C7  1  0.60126000  0.99672000  0.58423000  1.0 0.0212135031
C  C8  1  0.99672000  0.60126000  0.41577000  1.0 0.0212135031
C  C9  1  0.50104000  0.04384000  0.33751000  1.0 0.1835662404
C  C10  1  0.04384000  0.50104000  0.66249000  1.0 0.1835662404
C  C11  1  0.49896000  0.95616000  0.66249000  1.0 0.1835662404
C  C12  1  0.95616000  0.49896000  0.33751000  1.0 0.1835662404
C  C13  1  0.20510000  0.79490000  0.89420000  1.0 0.9152229482
C  C14  1  0.79490000  0.20510000  0.10580000  1.0 0.9152229482
C  C15  1  0.49559000  0.41081000  0.90820000  1.0 0.0394055091
C  C16  1  0.41081000  0.49559000  0.09180000  1.0 0.0394055091
C  C17  1  0.50441000  0.58919000  0.09180000  1.0 0.0394055091
C  C18  1  0.58919000  0.50441000  0.90820000  1.0 0.0394055091
C  C19  1  0.30360000  0.30360000  0.00000000  1.0 0.7229193503
C  C20  1  0.69640000  0.69640000  0.00000000  1.0 0.7229193503
C  C21  1  0.41160000  0.41160000  0.00000000  1.0 -0.0276171195
C  C22  1  0.58840000  0.58840000  0.00000000  1.0 -0.0276171195
N  N1  1  0.39925000  0.95889000  0.57970000  1.0 -0.1269540956
N  N2  1  0.95889000  0.39925000  0.42030000  1.0 -0.1269540956
N  N3  1  0.60075000  0.04111000  0.42030000  1.0 -0.1269540956
N  N4  1  0.04111000  0.60075000  0.57970000  1.0 -0.1269540956
O  O1  1  0.05665000  0.94335000  0.81420000  1.0 -1.0517535752
O  O2  1  0.94335000  0.05665000  0.18580000  1.0 -1.0517535752
O  O3  1  0.10300000  0.89700000  0.11570000  1.0 -1.1657947844
O  O4  1  0.89700000  0.10300000  0.88430000  1.0 -1.1657947844
O  O5  1  0.07830000  0.07830000  0.50000000  1.0 -0.7738545781
O  O6  1  0.92170000  0.92170000  0.50000000  1.0 -0.7738545781
O  O7  1  0.14492000  0.11168000  0.16680000  1.0 -1.116161043
O  O8  1  0.11168000  0.14492000  0.83320000  1.0 -1.116161043
O  O9  1  0.85508000  0.88832000  0.83320000  1.0 -1.1143167561
O  O10  1  0.88832000  0.85508000  0.16680000  1.0 -1.1143167561
O  O11  1  0.20977000  0.98727000  0.39690000  1.0 -0.4944570607
O  O12  1  0.98727000  0.20977000  0.60310000  1.0 -0.4944570607
O  O13  1  0.79023000  0.01273000  0.60310000  1.0 -0.4944570607
O  O14  1  0.01273000  0.79023000  0.39690000  1.0 -0.4944570607
O  O15  1  0.31854000  0.21404000  0.98710000  1.0 -0.5371540731
O  O16  1  0.21404000  0.31854000  0.01290000  1.0 -0.5371540731
O  O17  1  0.68146000  0.78596000  0.01290000  1.0 -0.5371540731
O  O18  1  0.78596000  0.68146000  0.98710000  1.0 -0.5371540731
O  O19  1  0.29986000  0.01334000  0.16560000  1.0 -0.5588102883
O  O20  1  0.01334000  0.29986000  0.83440000  1.0 -0.5588102883
O  O21  1  0.70014000  0.98666000  0.83440000  1.0 -0.5588102883
O  O22  1  0.98666000  0.70014000  0.16560000  1.0 -0.5588102883
O  O23  1  0.24902000  0.90170000  0.90320000  1.0 -0.598635996
O  O24  1  0.90170000  0.24902000  0.09680000  1.0 -0.598635996
O  O25  1  0.75098000  0.09830000  0.09680000  1.0 -0.598635996
O  O26  1  0.09830000  0.75098000  0.90320000  1.0 -0.598635996
O  O27  1  0.28700000  0.08360000  0.73440000  1.0 -0.5262978619
O  O28  1  0.08360000  0.28700000  0.26560000  1.0 -0.5262978619
O  O29  1  0.71300000  0.91640000  0.26560000  1.0 -0.5230018443
O  O30  1  0.91640000  0.71300000  0.73440000  1.0 -0.5230018443
