# DDEC6 charges by PACMAN v1.1 (https://github.com/mtap-research/PACMAN-charge/)
data_IVEGEV_FSR_pacman
_symmetry_space_group_name_H-M   'P 1'
_cell_length_a   23.94720000
_cell_length_b   22.80270000
_cell_length_c   13.42080000
_cell_angle_alpha   78.06150000
_cell_angle_beta   68.68720000
_cell_angle_gamma   33.25130000
_symmetry_Int_Tables_number   1
_chemical_formula_structural   Cu5H48C64(NO2)8
_chemical_formula_sum   'Cu10 H96 C128 N16 O32'
_cell_volume   3675.28955977
_cell_formula_units_Z   2
loop_
 _symmetry_equiv_pos_site_id
 _symmetry_equiv_pos_as_xyz
  1  'x, y, z'
loop_
 _atom_site_type_symbol
 _atom_site_label
 _atom_site_symmetry_multiplicity
 _atom_site_fract_x
 _atom_site_fract_y
 _atom_site_fract_z
 _atom_site_occupancy
 _atom_site_charge
Cu  Cu1  1  0.25369000  0.09275000  0.72461000  1.0 0.8122017865
Cu  Cu2  1  0.92895000  0.72461000  0.09275000  1.0 0.8122017865
Cu  Cu3  1  0.72461000  0.92895000  0.25369000  1.0 0.8122017865
Cu  Cu4  1  0.09275000  0.25369000  0.92895000  1.0 0.8122017865
Cu  Cu5  1  0.99631000  0.15725000  0.52539000  1.0 0.8122017865
Cu  Cu6  1  0.32105000  0.52539000  0.15725000  1.0 0.8122017865
Cu  Cu7  1  0.52539000  0.32105000  0.99631000  1.0 0.8122017865
Cu  Cu8  1  0.15725000  0.99631000  0.32105000  1.0 0.8122017865
Cu  Cu9  1  0.25000000  0.25000000  0.25000000  1.0 0.2778771554
Cu  Cu10  1  0.00000000  0.00000000  0.00000000  1.0 0.2748697434
H  H1  1  0.39380000  0.90360000  0.36580000  1.0 0.1275694986
H  H2  1  0.33680000  0.36580000  0.90360000  1.0 0.1275694986
H  H3  1  0.36580000  0.33680000  0.39380000  1.0 0.1275694986
H  H4  1  0.90360000  0.39380000  0.33680000  1.0 0.1275694986
H  H5  1  0.85620000  0.34640000  0.88420000  1.0 0.1275694986
H  H6  1  0.91320000  0.88420000  0.34640000  1.0 0.1275694986
H  H7  1  0.88420000  0.91320000  0.85620000  1.0 0.1275694986
H  H8  1  0.34640000  0.85620000  0.91320000  1.0 0.1275694986
H  H9  1  0.25930000  0.04390000  0.55630000  1.0 0.1397538368
H  H10  1  0.14050000  0.55630000  0.04390000  1.0 0.1397538368
H  H11  1  0.55630000  0.14050000  0.25930000  1.0 0.1397538368
H  H12  1  0.04390000  0.25930000  0.14050000  1.0 0.1397538368
H  H13  1  0.99070000  0.20610000  0.69370000  1.0 0.1397538368
H  H14  1  0.10950000  0.69370000  0.20610000  1.0 0.1397538368
H  H15  1  0.69370000  0.10950000  0.99070000  1.0 0.1397538368
H  H16  1  0.20610000  0.99070000  0.10950000  1.0 0.1397538368
H  H17  1  0.52240000  0.85540000  0.34900000  1.0 0.1275694986
H  H18  1  0.27320000  0.34900000  0.85540000  1.0 0.1275694986
H  H19  1  0.34900000  0.27320000  0.52240000  1.0 0.1275694986
H  H20  1  0.85540000  0.52240000  0.27320000  1.0 0.1275694986
H  H21  1  0.72760000  0.39460000  0.90100000  1.0 0.1275694986
H  H22  1  0.97680000  0.90100000  0.39460000  1.0 0.1275694986
H  H23  1  0.90100000  0.97680000  0.72760000  1.0 0.1275694986
H  H24  1  0.39460000  0.72760000  0.97680000  1.0 0.1275694986
H  H25  1  0.66620000  0.77260000  0.37400000  1.0 0.1187008814
H  H26  1  0.18720000  0.37400000  0.77260000  1.0 0.1187008814
H  H27  1  0.37400000  0.18720000  0.66620000  1.0 0.1187008814
H  H28  1  0.77260000  0.66620000  0.18720000  1.0 0.1187008814
H  H29  1  0.58380000  0.47740000  0.87600000  1.0 0.1187008814
H  H30  1  0.06280000  0.87600000  0.47740000  1.0 0.1187008814
H  H31  1  0.87600000  0.06280000  0.58380000  1.0 0.1187008814
H  H32  1  0.47740000  0.58380000  0.06280000  1.0 0.1187008814
H  H33  1  0.65000000  0.80400000  0.54020000  1.0 0.1275694986
H  H34  1  0.00580000  0.54020000  0.80400000  1.0 0.1275694986
H  H35  1  0.54020000  0.00580000  0.65000000  1.0 0.1275694986
H  H36  1  0.80400000  0.65000000  0.00580000  1.0 0.1275694986
H  H37  1  0.60000000  0.44600000  0.70980000  1.0 0.1275694986
H  H38  1  0.24420000  0.70980000  0.44600000  1.0 0.1275694986
H  H39  1  0.70980000  0.24420000  0.60000000  1.0 0.1275694986
H  H40  1  0.44600000  0.60000000  0.24420000  1.0 0.1275694986
H  H41  1  0.48530000  0.92770000  0.67710000  1.0 0.1187008814
H  H42  1  0.90990000  0.67710000  0.92770000  1.0 0.1187008814
H  H43  1  0.67710000  0.90990000  0.48530000  1.0 0.1187008814
H  H44  1  0.92770000  0.48530000  0.90990000  1.0 0.1187008814
H  H45  1  0.76470000  0.32230000  0.57290000  1.0 0.1187008814
H  H46  1  0.34010000  0.57290000  0.32230000  1.0 0.1187008814
H  H47  1  0.57290000  0.34010000  0.76470000  1.0 0.1187008814
H  H48  1  0.32230000  0.76470000  0.34010000  1.0 0.1187008814
H  H49  1  0.43560000  0.05660000  0.85900000  1.0 0.1187008814
H  H50  1  0.64880000  0.85900000  0.05660000  1.0 0.1187008814
H  H51  1  0.85900000  0.64880000  0.43560000  1.0 0.1187008814
H  H52  1  0.05660000  0.43560000  0.64880000  1.0 0.1187008814
H  H53  1  0.81440000  0.19340000  0.39100000  1.0 0.1187008814
H  H54  1  0.60120000  0.39100000  0.19340000  1.0 0.1187008814
H  H55  1  0.39100000  0.60120000  0.81440000  1.0 0.1187008814
H  H56  1  0.19340000  0.81440000  0.60120000  1.0 0.1187008814
H  H57  1  0.25730000  0.23890000  0.02330000  1.0 0.1187008814
H  H58  1  0.48050000  0.02330000  0.23890000  1.0 0.1187008814
H  H59  1  0.02330000  0.48050000  0.25730000  1.0 0.1187008814
H  H60  1  0.23890000  0.25730000  0.48050000  1.0 0.1187008814
H  H61  1  0.99270000  0.01110000  0.22670000  1.0 0.1187008814
H  H62  1  0.76950000  0.22670000  0.01110000  1.0 0.1187008814
H  H63  1  0.22670000  0.76950000  0.99270000  1.0 0.1187008814
H  H64  1  0.01110000  0.99270000  0.76950000  1.0 0.1187008814
H  H65  1  0.52760000  0.06040000  0.85700000  1.0 0.1187008814
H  H66  1  0.55500000  0.85700000  0.06040000  1.0 0.1187008814
H  H67  1  0.85700000  0.55500000  0.52760000  1.0 0.1187008814
H  H68  1  0.06040000  0.52760000  0.55500000  1.0 0.1187008814
H  H69  1  0.72240000  0.18960000  0.39300000  1.0 0.1187008814
H  H70  1  0.69500000  0.39300000  0.18960000  1.0 0.1187008814
H  H71  1  0.39300000  0.69500000  0.72240000  1.0 0.1187008814
H  H72  1  0.18960000  0.72240000  0.69500000  1.0 0.1187008814
H  H73  1  0.63460000  0.03180000  0.90060000  1.0 0.1141046171
H  H74  1  0.43300000  0.90060000  0.03180000  1.0 0.1141046171
H  H75  1  0.90060000  0.43300000  0.63460000  1.0 0.1141046171
H  H76  1  0.03180000  0.63460000  0.43300000  1.0 0.1141046171
H  H77  1  0.61540000  0.21820000  0.34940000  1.0 0.1141046171
H  H78  1  0.81700000  0.34940000  0.21820000  1.0 0.1141046171
H  H79  1  0.34940000  0.81700000  0.61540000  1.0 0.1141046171
H  H80  1  0.21820000  0.61540000  0.81700000  1.0 0.1141046171
H  H81  1  0.55870000  0.12930000  0.06530000  1.0 0.1397538368
H  H82  1  0.24670000  0.06530000  0.12930000  1.0 0.1397538368
H  H83  1  0.06530000  0.24670000  0.55870000  1.0 0.1397538368
H  H84  1  0.12930000  0.55870000  0.24670000  1.0 0.1397538368
H  H85  1  0.69130000  0.12070000  0.18470000  1.0 0.1397538368
H  H86  1  0.00330000  0.18470000  0.12070000  1.0 0.1397538368
H  H87  1  0.18470000  0.00330000  0.69130000  1.0 0.1397538368
H  H88  1  0.12070000  0.69130000  0.00330000  1.0 0.1397538368
H  H89  1  0.40830000  0.22010000  0.17170000  1.0 0.1275694986
H  H90  1  0.19990000  0.17170000  0.22010000  1.0 0.1275694986
H  H91  1  0.17170000  0.19990000  0.40830000  1.0 0.1275694986
H  H92  1  0.22010000  0.40830000  0.19990000  1.0 0.1275694986
H  H93  1  0.84170000  0.02990000  0.07830000  1.0 0.1275694986
H  H94  1  0.05010000  0.07830000  0.02990000  1.0 0.1275694986
H  H95  1  0.07830000  0.05010000  0.84170000  1.0 0.1275694986
H  H96  1  0.02990000  0.84170000  0.05010000  1.0 0.1275694986
C  C1  1  0.23498000  0.00118000  0.42102000  1.0 0.6152971421
C  C2  1  0.34282000  0.42102000  0.00118000  1.0 0.6152971421
C  C3  1  0.42102000  0.34282000  0.23498000  1.0 0.6152971421
C  C4  1  0.00118000  0.23498000  0.34282000  1.0 0.6152971421
C  C5  1  0.01502000  0.24882000  0.82898000  1.0 0.6152971421
C  C6  1  0.90718000  0.82898000  0.24882000  1.0 0.6152971421
C  C7  1  0.82898000  0.90718000  0.01502000  1.0 0.6152971421
C  C8  1  0.24882000  0.01502000  0.90718000  1.0 0.6152971421
C  C9  1  0.32830000  0.95710000  0.42430000  1.0 -0.1919380094
C  C10  1  0.29030000  0.42430000  0.95710000  1.0 -0.1919380094
C  C11  1  0.42430000  0.29030000  0.32830000  1.0 -0.1919380094
C  C12  1  0.95710000  0.32830000  0.29030000  1.0 -0.1919380094
C  C13  1  0.92170000  0.29290000  0.82570000  1.0 -0.1919380094
C  C14  1  0.95970000  0.82570000  0.29290000  1.0 -0.1919380094
C  C15  1  0.82570000  0.95970000  0.92170000  1.0 -0.1919380094
C  C16  1  0.29290000  0.92170000  0.95970000  1.0 -0.1919380094
C  C17  1  0.32571000  0.98671000  0.50029000  1.0 -0.1405367296
C  C18  1  0.18729000  0.50029000  0.98671000  1.0 -0.1405367296
C  C19  1  0.50029000  0.18729000  0.32571000  1.0 -0.1405367296
C  C20  1  0.98671000  0.32571000  0.18729000  1.0 -0.1405367296
C  C21  1  0.92429000  0.26329000  0.74971000  1.0 -0.1405367296
C  C22  1  0.06271000  0.74971000  0.26329000  1.0 -0.1405367296
C  C23  1  0.74971000  0.06271000  0.92429000  1.0 -0.1405367296
C  C24  1  0.26329000  0.92429000  0.06271000  1.0 -0.1405367296
C  C25  1  0.41821000  0.93761000  0.50479000  1.0 0.2502042089
C  C26  1  0.13939000  0.50479000  0.93761000  1.0 0.2502042089
C  C27  1  0.50479000  0.13939000  0.41821000  1.0 0.2502042089
C  C28  1  0.93761000  0.41821000  0.13939000  1.0 0.2502042089
C  C29  1  0.83179000  0.31239000  0.74521000  1.0 0.2502042089
C  C30  1  0.11061000  0.74521000  0.31239000  1.0 0.2502042089
C  C31  1  0.74521000  0.11061000  0.83179000  1.0 0.2502042089
C  C32  1  0.31239000  0.83179000  0.11061000  1.0 0.2502042089
C  C33  1  0.51560000  0.86840000  0.41680000  1.0 -0.1717430617
C  C34  1  0.19920000  0.41680000  0.86840000  1.0 -0.1717430617
C  C35  1  0.41680000  0.19920000  0.51560000  1.0 -0.1717430617
C  C36  1  0.86840000  0.51560000  0.19920000  1.0 -0.1717430617
C  C37  1  0.73440000  0.38160000  0.83320000  1.0 -0.1717430617
C  C38  1  0.05080000  0.83320000  0.38160000  1.0 -0.1717430617
C  C39  1  0.83320000  0.05080000  0.73440000  1.0 -0.1717430617
C  C40  1  0.38160000  0.73440000  0.05080000  1.0 -0.1717430617
C  C41  1  0.60040000  0.82000000  0.43200000  1.0 -0.0436829145
C  C42  1  0.14760000  0.43200000  0.82000000  1.0 -0.0436829145
C  C43  1  0.43200000  0.14760000  0.60040000  1.0 -0.0436829145
C  C44  1  0.82000000  0.60040000  0.14760000  1.0 -0.0436829145
C  C45  1  0.64960000  0.43000000  0.81800000  1.0 -0.0436829145
C  C46  1  0.10240000  0.81800000  0.43000000  1.0 -0.0436829145
C  C47  1  0.81800000  0.10240000  0.64960000  1.0 -0.0436829145
C  C48  1  0.43000000  0.64960000  0.10240000  1.0 -0.0436829145
C  C49  1  0.59100000  0.83940000  0.52920000  1.0 -0.15768851
C  C50  1  0.04040000  0.52920000  0.83940000  1.0 -0.15768851
C  C51  1  0.52920000  0.04040000  0.59100000  1.0 -0.15768851
C  C52  1  0.83940000  0.59100000  0.04040000  1.0 -0.15768851
C  C53  1  0.65900000  0.41060000  0.72080000  1.0 -0.15768851
C  C54  1  0.20960000  0.72080000  0.41060000  1.0 -0.15768851
C  C55  1  0.72080000  0.20960000  0.65900000  1.0 -0.15768851
C  C56  1  0.41060000  0.65900000  0.20960000  1.0 -0.15768851
C  C57  1  0.49290000  0.91210000  0.61050000  1.0 0.0865055981
C  C58  1  0.98450000  0.61050000  0.91210000  1.0 0.0865055981
C  C59  1  0.61050000  0.98450000  0.49290000  1.0 0.0865055981
C  C60  1  0.91210000  0.49290000  0.98450000  1.0 0.0865055981
C  C61  1  0.75710000  0.33790000  0.63950000  1.0 0.0865055981
C  C62  1  0.26550000  0.63950000  0.33790000  1.0 0.0865055981
C  C63  1  0.63950000  0.26550000  0.75710000  1.0 0.0865055981
C  C64  1  0.33790000  0.75710000  0.26550000  1.0 0.0865055981
C  C65  1  0.28424000  0.14564000  0.88416000  1.0 0.6029972468
C  C66  1  0.68596000  0.88416000  0.14564000  1.0 0.6029972468
C  C67  1  0.88416000  0.68596000  0.28424000  1.0 0.6029972468
C  C68  1  0.14564000  0.28424000  0.68596000  1.0 0.6029972468
C  C69  1  0.96576000  0.10436000  0.36584000  1.0 0.6029972468
C  C70  1  0.56404000  0.36584000  0.10436000  1.0 0.6029972468
C  C71  1  0.36584000  0.56404000  0.96576000  1.0 0.6029972468
C  C72  1  0.10436000  0.96576000  0.56404000  1.0 0.6029972468
C  C73  1  0.36230000  0.11830000  0.90210000  1.0 -0.2246654149
C  C74  1  0.61730000  0.90210000  0.11830000  1.0 -0.2255700942
C  C75  1  0.90210000  0.61730000  0.36230000  1.0 -0.2246654149
C  C76  1  0.11830000  0.36230000  0.61730000  1.0 -0.2246654149
C  C77  1  0.88770000  0.13170000  0.34790000  1.0 -0.2246654149
C  C78  1  0.63270000  0.34790000  0.13170000  1.0 -0.2246654149
C  C79  1  0.34790000  0.63270000  0.88770000  1.0 -0.2246654149
C  C80  1  0.13170000  0.88770000  0.63270000  1.0 -0.2255700942
C  C81  1  0.33030000  0.17930000  0.97850000  1.0 -0.1405367296
C  C82  1  0.51190000  0.97850000  0.17930000  1.0 -0.1405367296
C  C83  1  0.97850000  0.51190000  0.33030000  1.0 -0.1405367296
C  C84  1  0.17930000  0.33030000  0.51190000  1.0 -0.1405367296
C  C85  1  0.91970000  0.07070000  0.27150000  1.0 -0.1405367296
C  C86  1  0.73810000  0.27150000  0.07070000  1.0 -0.1405367296
C  C87  1  0.27150000  0.73810000  0.91970000  1.0 -0.1405367296
C  C88  1  0.07070000  0.91970000  0.73810000  1.0 -0.1405367296
C  C89  1  0.50190000  0.09410000  0.92370000  1.0 -0.2034382786
C  C90  1  0.48030000  0.92370000  0.09410000  1.0 -0.2034382786
C  C91  1  0.92370000  0.48030000  0.50190000  1.0 -0.2034382786
C  C92  1  0.09410000  0.50190000  0.48030000  1.0 -0.2034382786
C  C93  1  0.74810000  0.15590000  0.32630000  1.0 -0.2034382786
C  C94  1  0.76970000  0.32630000  0.15590000  1.0 -0.2034382786
C  C95  1  0.32630000  0.76970000  0.74810000  1.0 -0.2034382786
C  C96  1  0.15590000  0.74810000  0.76970000  1.0 -0.2034382786
C  C97  1  0.56500000  0.07840000  0.94880000  1.0 -0.0571638237
C  C98  1  0.40780000  0.94880000  0.07840000  1.0 -0.0571638237
C  C99  1  0.94880000  0.40780000  0.56500000  1.0 -0.0571638237
C  C100  1  0.07840000  0.56500000  0.40780000  1.0 -0.0571638237
C  C101  1  0.68500000  0.17160000  0.30120000  1.0 -0.0571638237
C  C102  1  0.84220000  0.30120000  0.17160000  1.0 -0.0571638237
C  C103  1  0.30120000  0.84220000  0.68500000  1.0 -0.0571638237
C  C104  1  0.17160000  0.68500000  0.84220000  1.0 -0.0571638237
C  C105  1  0.40490000  0.15750000  0.99610000  1.0 0.2301013653
C  C106  1  0.44150000  0.99610000  0.15750000  1.0 0.2301013653
C  C107  1  0.99610000  0.44150000  0.40490000  1.0 0.2301013653
C  C108  1  0.15750000  0.40490000  0.44150000  1.0 0.2301013653
C  C109  1  0.84510000  0.09250000  0.25390000  1.0 0.2301013653
C  C110  1  0.80850000  0.25390000  0.09250000  1.0 0.2301013653
C  C111  1  0.25390000  0.80850000  0.84510000  1.0 0.2301013653
C  C112  1  0.09250000  0.84510000  0.80850000  1.0 0.2301013653
C  C113  1  0.52230000  0.13310000  0.04610000  1.0 -0.1085991006
C  C114  1  0.29850000  0.04610000  0.13310000  1.0 -0.1085991006
C  C115  1  0.04610000  0.29850000  0.52230000  1.0 -0.1085991006
C  C116  1  0.13310000  0.52230000  0.29850000  1.0 -0.1085991006
C  C117  1  0.72770000  0.11690000  0.20390000  1.0 -0.1085991006
C  C118  1  0.95150000  0.20390000  0.11690000  1.0 -0.1085991006
C  C119  1  0.20390000  0.95150000  0.72770000  1.0 -0.1085991006
C  C120  1  0.11690000  0.72770000  0.95150000  1.0 -0.1085991006
C  C121  1  0.43460000  0.18620000  0.10460000  1.0 0.0152620372
C  C122  1  0.27460000  0.10460000  0.18620000  1.0 0.0152620372
C  C123  1  0.10460000  0.27460000  0.43460000  1.0 0.0152620372
C  C124  1  0.18620000  0.43460000  0.27460000  1.0 0.0152620372
C  C125  1  0.81540000  0.06380000  0.14540000  1.0 0.0152620372
C  C126  1  0.97540000  0.14540000  0.06380000  1.0 0.0152620372
C  C127  1  0.14540000  0.97540000  0.81540000  1.0 0.0152620372
C  C128  1  0.06380000  0.81540000  0.97540000  1.0 0.0152620372
N  N1  1  0.36700000  0.20580000  0.09060000  1.0 -0.2837620418
N  N2  1  0.33660000  0.09060000  0.20580000  1.0 -0.2837620418
N  N3  1  0.09060000  0.33660000  0.36700000  1.0 -0.2837620418
N  N4  1  0.20580000  0.36700000  0.33660000  1.0 -0.2837620418
N  N5  1  0.88300000  0.04420000  0.15940000  1.0 -0.2837620418
N  N6  1  0.91340000  0.15940000  0.04420000  1.0 -0.2837620418
N  N7  1  0.15940000  0.91340000  0.88300000  1.0 -0.2837620418
N  N8  1  0.04420000  0.88300000  0.91340000  1.0 -0.2837620418
N  N9  1  0.40655000  0.96275000  0.60065000  1.0 -0.261906315
N  N10  1  0.03005000  0.60065000  0.96275000  1.0 -0.261906315
N  N11  1  0.60065000  0.03005000  0.40655000  1.0 -0.261906315
N  N12  1  0.96275000  0.40655000  0.03005000  1.0 -0.261906315
N  N13  1  0.84345000  0.28725000  0.64935000  1.0 -0.261906315
N  N14  1  0.21995000  0.64935000  0.28725000  1.0 -0.261906315
N  N15  1  0.64935000  0.21995000  0.84345000  1.0 -0.261906315
N  N16  1  0.28725000  0.84345000  0.21995000  1.0 -0.261906315
O  O1  1  0.14167000  0.07867000  0.49853000  1.0 -0.5830682258
O  O2  1  0.28113000  0.49853000  0.07867000  1.0 -0.5830682258
O  O3  1  0.49853000  0.28113000  0.14167000  1.0 -0.5830682258
O  O4  1  0.07867000  0.14167000  0.28113000  1.0 -0.5830682258
O  O5  1  0.10833000  0.17133000  0.75147000  1.0 -0.5830682258
O  O6  1  0.96887000  0.75147000  0.17133000  1.0 -0.5830682258
O  O7  1  0.75147000  0.96887000  0.10833000  1.0 -0.5830682258
O  O8  1  0.17133000  0.10833000  0.96887000  1.0 -0.5830682258
O  O9  1  0.25947000  0.95687000  0.33953000  1.0 -0.5043211843
O  O10  1  0.44413000  0.33953000  0.95687000  1.0 -0.5043211843
O  O11  1  0.33953000  0.44413000  0.25947000  1.0 -0.5043211843
O  O12  1  0.95687000  0.25947000  0.44413000  1.0 -0.5043211843
O  O13  1  0.99053000  0.29313000  0.91047000  1.0 -0.5043211843
O  O14  1  0.80587000  0.91047000  0.29313000  1.0 -0.5043211843
O  O15  1  0.91047000  0.80587000  0.99053000  1.0 -0.5043211843
O  O16  1  0.29313000  0.99053000  0.80587000  1.0 -0.5043211843
O  O17  1  0.31959000  0.09459000  0.80161000  1.0 -0.5855092447
O  O18  1  0.78421000  0.80161000  0.09459000  1.0 -0.5855092447
O  O19  1  0.80161000  0.78421000  0.31959000  1.0 -0.5855092447
O  O20  1  0.09459000  0.31959000  0.78421000  1.0 -0.5855092447
O  O21  1  0.93041000  0.15541000  0.44839000  1.0 -0.5855092447
O  O22  1  0.46579000  0.44839000  0.15541000  1.0 -0.5855092447
O  O23  1  0.44839000  0.46579000  0.93041000  1.0 -0.5855092447
O  O24  1  0.15541000  0.93041000  0.46579000  1.0 -0.5855092447
O  O25  1  0.19018000  0.21798000  0.95682000  1.0 -0.5202716853
O  O26  1  0.63502000  0.95682000  0.21798000  1.0 -0.5202716853
O  O27  1  0.95682000  0.63502000  0.19018000  1.0 -0.5202716853
O  O28  1  0.21798000  0.19018000  0.63502000  1.0 -0.5202716853
O  O29  1  0.05982000  0.03202000  0.29318000  1.0 -0.5202716853
O  O30  1  0.61498000  0.29318000  0.03202000  1.0 -0.5202716853
O  O31  1  0.29318000  0.61498000  0.05982000  1.0 -0.5202716853
O  O32  1  0.03202000  0.05982000  0.61498000  1.0 -0.5202716853
