# DDEC6 charges by PACMAN v1.1 (https://github.com/mtap-research/PACMAN-charge/)
data_IVEQEG_ASR_pacman
_symmetry_space_group_name_H-M   'P 1'
_cell_length_a   10.08470000
_cell_length_b   10.08470000
_cell_length_c   11.29500000
_cell_angle_alpha   89.57730000
_cell_angle_beta   90.42270000
_cell_angle_gamma   139.89900000
_symmetry_Int_Tables_number   1
_chemical_formula_structural   AlP2C8N3O7
_chemical_formula_sum   'Al2 P4 C16 N6 O14'
_cell_volume   739.90683889
_cell_formula_units_Z   2
loop_
 _symmetry_equiv_pos_site_id
 _symmetry_equiv_pos_as_xyz
  1  'x, y, z'
loop_
 _atom_site_type_symbol
 _atom_site_label
 _atom_site_symmetry_multiplicity
 _atom_site_fract_x
 _atom_site_fract_y
 _atom_site_fract_z
 _atom_site_occupancy
 _atom_site_charge
Al  Al1  1  0.50000000  0.00000000  0.50000000  1.0 1.784937305
Al  Al2  1  0.00000000  0.50000000  0.50000000  1.0 1.784937305
P  P1  1  0.66800000  0.33200000  0.29500000  1.0 1.2821460791
P  P2  1  0.33200000  0.66800000  0.70500000  1.0 1.2821460791
P  P3  1  0.66000000  0.34000000  0.69500000  1.0 1.2852330633
P  P4  1  0.34000000  0.66000000  0.30500000  1.0 1.2852330633
C  C1  1  0.35500000  0.29300000  0.54500000  1.0 0.1727912366
C  C2  1  0.29300000  0.35500000  0.45500000  1.0 0.1727912366
C  C3  1  0.64500000  0.70700000  0.45500000  1.0 0.1727912366
C  C4  1  0.70700000  0.64500000  0.54500000  1.0 0.1727912366
C  C5  1  0.56900000  0.43100000  0.73800000  1.0 -0.250299143
C  C6  1  0.43100000  0.56900000  0.26200000  1.0 -0.250299143
C  C7  1  0.74900000  0.25100000  0.20600000  1.0 0.0183825713
C  C8  1  0.25100000  0.74900000  0.79400000  1.0 0.0183825713
C  C9  1  0.48200000  0.11600000  0.05400000  1.0 0.0395428535
C  C10  1  0.11600000  0.48200000  0.94600000  1.0 0.0395428535
C  C11  1  0.51800000  0.88400000  0.94600000  1.0 0.0395428535
C  C12  1  0.88400000  0.51800000  0.05400000  1.0 0.0395428535
C  C13  1  0.67200000  0.04400000  0.03400000  1.0 0.08834183
C  C14  1  0.04400000  0.67200000  0.96600000  1.0 0.08834183
C  C15  1  0.32800000  0.95600000  0.96600000  1.0 0.08834183
C  C16  1  0.95600000  0.32800000  0.03400000  1.0 0.08834183
N  N1  1  0.52600000  0.47400000  0.62200000  1.0 0.0791965217
N  N2  1  0.47400000  0.52600000  0.37800000  1.0 0.0791965217
N  N3  1  0.59800000  0.09400000  0.11500000  1.0 0.062816871
N  N4  1  0.09400000  0.59800000  0.88500000  1.0 0.062816871
N  N5  1  0.40200000  0.90600000  0.88500000  1.0 0.062816871
N  N6  1  0.90600000  0.40200000  0.11500000  1.0 0.062816871
O  O1  1  0.78500000  0.21500000  0.45900000  1.0 -0.9311329894
O  O2  1  0.21500000  0.78500000  0.54100000  1.0 -0.9311329894
O  O3  1  0.50300000  0.14700000  0.38000000  1.0 -0.7038589887
O  O4  1  0.14700000  0.50300000  0.62000000  1.0 -0.7038589887
O  O5  1  0.49700000  0.85300000  0.62000000  1.0 -0.7038589887
O  O6  1  0.85300000  0.49700000  0.38000000  1.0 -0.7038589887
O  O7  1  0.52400000  0.15200000  0.63500000  1.0 -0.6472211055
O  O8  1  0.15200000  0.52400000  0.36500000  1.0 -0.6472211055
O  O9  1  0.47600000  0.84800000  0.36500000  1.0 -0.6472211055
O  O10  1  0.84800000  0.47600000  0.63500000  1.0 -0.6472211055
O  O11  1  0.58900000  0.41100000  0.27000000  1.0 -0.6283530764
O  O12  1  0.41100000  0.58900000  0.73000000  1.0 -0.6283530764
O  O13  1  0.70000000  0.30000000  0.80700000  1.0 -0.6649357252
O  O14  1  0.30000000  0.70000000  0.19300000  1.0 -0.6649357252
