# DDEC6 charges by PACMAN v1.1 (https://github.com/mtap-research/PACMAN-charge/)
data_IVEQAC_ASR_pacman
_symmetry_space_group_name_H-M   'P 1'
_cell_length_a   10.33130000
_cell_length_b   10.33130000
_cell_length_c   11.48300000
_cell_angle_alpha   87.38800000
_cell_angle_beta   92.61200000
_cell_angle_gamma   139.97600000
_symmetry_Int_Tables_number   1
_chemical_formula_structural   TiP2C8N3O7
_chemical_formula_sum   'Ti2 P4 C16 N6 O14'
_cell_volume   787.29612761
_cell_formula_units_Z   2
loop_
 _symmetry_equiv_pos_site_id
 _symmetry_equiv_pos_as_xyz
  1  'x, y, z'
loop_
 _atom_site_type_symbol
 _atom_site_label
 _atom_site_symmetry_multiplicity
 _atom_site_fract_x
 _atom_site_fract_y
 _atom_site_fract_z
 _atom_site_occupancy
 _atom_site_charge
Ti  Ti1  1  0.50000000  0.00000000  0.50000000  1.0 2.2086639051
Ti  Ti2  1  0.00000000  0.50000000  0.50000000  1.0 2.2086639051
P  P1  1  0.65700000  0.34300000  0.29900000  1.0 1.3325210457
P  P2  1  0.34300000  0.65700000  0.70100000  1.0 1.3325210457
P  P3  1  0.68000000  0.32000000  0.70300000  1.0 1.3488893156
P  P4  1  0.32000000  0.68000000  0.29700000  1.0 1.3488893156
C  C1  1  0.31800000  0.32600000  0.56700000  1.0 0.2039236222
C  C2  1  0.32600000  0.31800000  0.43300000  1.0 0.2039236222
C  C3  1  0.68200000  0.67400000  0.43300000  1.0 0.2039236222
C  C4  1  0.67400000  0.68200000  0.56700000  1.0 0.2039236222
C  C5  1  0.58900000  0.41100000  0.72700000  1.0 -0.2645888979
C  C6  1  0.41100000  0.58900000  0.27300000  1.0 -0.2645888979
C  C7  1  0.70600000  0.29400000  0.17300000  1.0 -0.100890031
C  C8  1  0.29400000  0.70600000  0.82700000  1.0 -0.100890031
C  C9  1  0.41000000  0.05000000  0.04100000  1.0 0.0697818995
C  C10  1  0.05000000  0.41000000  0.95900000  1.0 0.0697818995
C  C11  1  0.59000000  0.95000000  0.95900000  1.0 0.0697818995
C  C12  1  0.95000000  0.59000000  0.04100000  1.0 0.0697818995
C  C13  1  0.68700000  0.09100000  0.05100000  1.0 0.098319268
C  C14  1  0.09100000  0.68700000  0.94900000  1.0 0.098319268
C  C15  1  0.31300000  0.90900000  0.94900000  1.0 0.098319268
C  C16  1  0.90900000  0.31300000  0.05100000  1.0 0.098319268
N  N1  1  0.53100000  0.46900000  0.61900000  1.0 0.1354644989
N  N2  1  0.46900000  0.53100000  0.38100000  1.0 0.1354644989
N  N3  1  0.54400000  0.06600000  0.12200000  1.0 0.0821427909
N  N4  1  0.06600000  0.54400000  0.87800000  1.0 0.0821427909
N  N5  1  0.45600000  0.93400000  0.87800000  1.0 0.0821427909
N  N6  1  0.93400000  0.45600000  0.12200000  1.0 0.0821427909
O  O1  1  0.77700000  0.22300000  0.46800000  1.0 -1.1035287137
O  O2  1  0.22300000  0.77700000  0.53200000  1.0 -1.1035287137
O  O3  1  0.48700000  0.14900000  0.37100000  1.0 -0.8023372496
O  O4  1  0.14900000  0.48700000  0.62900000  1.0 -0.8023372496
O  O5  1  0.51300000  0.85100000  0.62900000  1.0 -0.8023372496
O  O6  1  0.85100000  0.51300000  0.37100000  1.0 -0.8023372496
O  O7  1  0.53800000  0.14600000  0.63300000  1.0 -0.7809939588
O  O8  1  0.14600000  0.53800000  0.36700000  1.0 -0.7809939588
O  O9  1  0.46200000  0.85400000  0.36700000  1.0 -0.7809939588
O  O10  1  0.85400000  0.46200000  0.63300000  1.0 -0.7809939588
O  O11  1  0.58100000  0.41900000  0.26000000  1.0 -0.6256586666
O  O12  1  0.41900000  0.58100000  0.74000000  1.0 -0.6256586666
O  O13  1  0.71300000  0.28700000  0.82500000  1.0 -0.6725452002
O  O14  1  0.28700000  0.71300000  0.17500000  1.0 -0.6725452002
