# DDEC6 charges by PACMAN v1.1 (https://github.com/mtap-research/PACMAN-charge/)
data_IVEQEG01_ASR_pacman
_symmetry_space_group_name_H-M   'P 1'
_cell_length_a   6.92140000
_cell_length_b   10.05340000
_cell_length_c   11.27830000
_cell_angle_alpha   90.31800000
_cell_angle_beta   89.91410000
_cell_angle_gamma   109.90300000
_symmetry_Int_Tables_number   1
_chemical_formula_structural   AlP2C6N2O7
_chemical_formula_sum   'Al2 P4 C12 N4 O14'
_cell_volume   737.89836340
_cell_formula_units_Z   2
loop_
 _symmetry_equiv_pos_site_id
 _symmetry_equiv_pos_as_xyz
  1  'x, y, z'
loop_
 _atom_site_type_symbol
 _atom_site_label
 _atom_site_symmetry_multiplicity
 _atom_site_fract_x
 _atom_site_fract_y
 _atom_site_fract_z
 _atom_site_occupancy
 _atom_site_charge
Al  Al1  1  0.00000000  0.50000000  0.50000000  1.0 1.7424838662
Al  Al2  1  0.50000000  0.50000000  0.50000000  1.0 1.7424838662
P  P1  1  0.67070000  0.33400000  0.30742000  1.0 1.3111334562
P  P2  1  0.67170000  0.34000000  0.69250000  1.0 1.3006590128
P  P3  1  0.32930000  0.66600000  0.69258000  1.0 1.3111334562
P  P4  1  0.32830000  0.66000000  0.30750000  1.0 1.3006590128
C  C1  1  0.71430000  0.47480000  0.18780000  1.0 -0.0824814674
C  C2  1  0.89570000  0.36080000  0.04580000  1.0 0.2284608006
C  C3  1  0.90620000  0.60310000  0.02210000  1.0 0.2128192678
C  C4  1  0.57090000  0.14450000  0.72820000  1.0 -0.1425245657
C  C5  1  0.70990000  0.05140000  0.54720000  1.0 0.1886277765
C  C6  1  0.64640000  0.93990000  0.45230000  1.0 0.1759935215
C  C7  1  0.28570000  0.52520000  0.81220000  1.0 -0.0824814674
C  C8  1  0.10430000  0.63920000  0.95420000  1.0 0.2243768543
C  C9  1  0.09380000  0.39690000  0.97790000  1.0 0.2128192678
C  C10  1  0.42910000  0.85550000  0.27180000  1.0 -0.1425245657
C  C11  1  0.29010000  0.94860000  0.45280000  1.0 0.1886277765
C  C12  1  0.35360000  0.06010000  0.54770000  1.0 0.1759935215
N  N1  1  0.90440000  0.49180000  0.11340000  1.0 0.0423140943
N  N2  1  0.52500000  0.04420000  0.62360000  1.0 0.0493663271
N  N3  1  0.09560000  0.50820000  0.88660000  1.0 0.0493663271
N  N4  1  0.47500000  0.95580000  0.37640000  1.0 0.0493663271
O  O1  1  0.79310000  0.58360000  0.49930000  1.0 -0.7884117544
O  O2  1  0.86920000  0.36610000  0.37640000  1.0 -0.721382887
O  O3  1  0.50470000  0.36020000  0.38230000  1.0 -0.721382887
O  O4  1  0.60140000  0.18440000  0.24990000  1.0 -0.6697331846
O  O5  1  0.85180000  0.35770000  0.61130000  1.0 -0.721382887
O  O6  1  0.50360000  0.37100000  0.62610000  1.0 -0.721382887
O  O7  1  0.72460000  0.41900000  0.81010000  1.0 -0.6825904727
O  O8  1  0.20690000  0.41640000  0.50070000  1.0 -0.7884117544
O  O9  1  0.13080000  0.63390000  0.62360000  1.0 -0.721382887
O  O10  1  0.49530000  0.63980000  0.61770000  1.0 -0.721382887
O  O11  1  0.39860000  0.81560000  0.75010000  1.0 -0.6697331846
O  O12  1  0.14820000  0.64230000  0.38870000  1.0 -0.7255214334
O  O13  1  0.49640000  0.62900000  0.37390000  1.0 -0.721382887
O  O14  1  0.27540000  0.58100000  0.18990000  1.0 -0.6825904727
