# DDEC6 charges by PACMAN v1.1 (https://github.com/mtap-research/PACMAN-charge/)
data_IVIWAO_FSR_pacman
_symmetry_space_group_name_H-M   'P 1'
_cell_length_a   10.36440000
_cell_length_b   33.68860000
_cell_length_c   15.34620000
_cell_angle_alpha   90.00000000
_cell_angle_beta   106.10400000
_cell_angle_gamma   90.00000000
_symmetry_Int_Tables_number   1
_chemical_formula_structural   Cu3H34(C19O5)2
_chemical_formula_sum   'Cu12 H136 C152 O40'
_cell_volume   5148.05054326
_cell_formula_units_Z   4
loop_
 _symmetry_equiv_pos_site_id
 _symmetry_equiv_pos_as_xyz
  1  'x, y, z'
loop_
 _atom_site_type_symbol
 _atom_site_label
 _atom_site_symmetry_multiplicity
 _atom_site_fract_x
 _atom_site_fract_y
 _atom_site_fract_z
 _atom_site_occupancy
 _atom_site_charge
Cu  Cu1  1  0.45786000  0.22114000  0.93660000  1.0 0.9102202978
Cu  Cu2  1  0.20595000  0.27503000  0.85861000  1.0 0.8963237133
Cu  Cu3  1  0.69384000  0.28124000  0.01147000  1.0 0.9102202978
Cu  Cu4  1  0.04214000  0.72114000  0.06340000  1.0 0.9102202978
Cu  Cu5  1  0.29405000  0.77503000  0.14139000  1.0 0.8963237133
Cu  Cu6  1  0.80616000  0.78124000  0.98853000  1.0 0.9102202978
Cu  Cu7  1  0.54214000  0.77886000  0.06340000  1.0 0.9102202978
Cu  Cu8  1  0.79405000  0.72497000  0.14139000  1.0 0.8963237133
Cu  Cu9  1  0.30616000  0.71876000  0.98853000  1.0 0.9102202978
Cu  Cu10  1  0.95786000  0.27886000  0.93660000  1.0 0.9102202978
Cu  Cu11  1  0.70595000  0.22497000  0.85861000  1.0 0.8963237133
Cu  Cu12  1  0.19384000  0.21876000  0.01147000  1.0 0.9102202978
H  H1  1  0.67900000  0.21410000  0.99790000  1.0 0.3432709229
H  H2  1  0.24000000  0.20310000  0.87600000  1.0 0.3777109933
H  H3  1  0.38376000  0.20548000  0.19878000  1.0 0.1199814821
H  H4  1  0.34933000  0.20698000  0.34047000  1.0 0.1199814821
H  H5  1  0.60656000  0.30426000  0.25998000  1.0 0.1284499215
H  H6  1  0.53985000  0.33253000  0.44914000  1.0 0.1284499215
H  H7  1  0.65372000  0.33485000  0.40011000  1.0 0.1284499215
H  H8  1  0.66560000  0.30472000  0.47980000  1.0 0.1284499215
H  H9  1  0.53564000  0.20842000  0.52068000  1.0 0.1199814821
H  H10  1  0.51216000  0.20830000  0.66699000  1.0 0.1199814821
H  H11  1  0.27036000  0.30281000  0.60306000  1.0 0.1284499215
H  H12  1  0.32923000  0.33333333  0.41709000  1.0 0.1284499215
H  H13  1  0.20751000  0.33022000  0.45871000  1.0 0.1284499215
H  H14  1  0.21518000  0.30223000  0.37869000  1.0 0.1284499215
H  H15  1  0.84280000  0.39298000  0.13784000  1.0 0.1284499215
H  H16  1  0.64613000  0.42858000  0.88986000  1.0 0.1373434484
H  H17  1  0.98827000  0.43541000  0.23513000  1.0 0.1373434484
H  H18  1  0.90184000  0.47122000  0.25223000  1.0 0.1373434484
H  H19  1  0.01337000  0.47811000  0.20263000  1.0 0.1284499215
H  H20  1  0.72294000  0.60560000  0.15305000  1.0 0.0997109698
H  H21  1  0.07439000  0.59128000  0.09733000  1.0 0.0818629074
H  H22  1  0.02806000  0.52373000  0.07492000  1.0 0.0700326318
H  H23  1  0.56326000  0.52618000  0.06713000  1.0 0.0883248549
H  H24  1  0.58066000  0.55057000  0.15666000  1.0 0.0700326318
H  H25  1  0.64357000  0.50806000  0.16052000  1.0 0.0997109698
H  H26  1  0.75762000  0.60218000  0.18910000  1.0 0.0997109698
H  H27  1  0.00134000  0.59679000  0.02585000  1.0 0.0818629074
H  H28  1  0.94399000  0.53109000  0.99703000  1.0 0.0700326318
H  H29  1  0.71562000  0.51489000  0.24038000  1.0 0.0818629074
H  H30  1  0.61102000  0.51101000  0.14491000  1.0 0.0883248549
H  H31  1  0.61662000  0.54991000  0.20191000  1.0 0.0700326318
H  H32  1  0.64419000  0.52549000  0.90584000  1.0 0.1373434484
H  H33  1  0.66061000  0.49213000  0.83850000  1.0 0.1284499215
H  H34  1  0.78613000  0.51642000  0.89298000  1.0 0.1199814821
H  H35  1  0.82100000  0.71410000  0.00210000  1.0 0.3432709229
H  H36  1  0.26000000  0.70310000  0.12400000  1.0 0.3777109933
H  H37  1  0.11624000  0.70548000  0.80122000  1.0 0.1199814821
H  H38  1  0.15067000  0.70698000  0.65953000  1.0 0.1199814821
H  H39  1  0.89344000  0.80426000  0.74002000  1.0 0.1284499215
H  H40  1  0.96015000  0.83253000  0.55086000  1.0 0.1284499215
H  H41  1  0.84628000  0.83485000  0.59989000  1.0 0.1284499215
H  H42  1  0.83440000  0.80472000  0.52020000  1.0 0.1284499215
H  H43  1  0.96436000  0.70842000  0.47932000  1.0 0.1199814821
H  H44  1  0.98784000  0.70830000  0.33301000  1.0 0.1199814821
H  H45  1  0.22964000  0.80281000  0.39694000  1.0 0.1284499215
H  H46  1  0.17077000  0.83333000  0.58291000  1.0 0.1284499215
H  H47  1  0.29249000  0.83022000  0.54129000  1.0 0.1284499215
H  H48  1  0.28482000  0.80223000  0.62131000  1.0 0.1284499215
H  H49  1  0.65720000  0.89298000  0.86216000  1.0 0.1284499215
H  H50  1  0.85387000  0.92858000  0.11014000  1.0 0.1373434484
H  H51  1  0.51173000  0.93541000  0.76487000  1.0 0.1373434484
H  H52  1  0.59816000  0.97122000  0.74777000  1.0 0.1373434484
H  H53  1  0.48663000  0.97811000  0.79737000  1.0 0.1284499215
H  H54  1  0.77706000  0.10560000  0.84695000  1.0 0.0997109698
H  H55  1  0.42561000  0.09128000  0.90267000  1.0 0.0818629074
H  H56  1  0.47194000  0.02373000  0.92508000  1.0 0.0700326318
H  H57  1  0.93674000  0.02618000  0.93287000  1.0 0.0883248549
H  H58  1  0.91934000  0.05057000  0.84334000  1.0 0.0700326318
H  H59  1  0.85643000  0.00806000  0.83948000  1.0 0.0997109698
H  H60  1  0.74238000  0.10218000  0.81090000  1.0 0.0997109698
H  H61  1  0.49866000  0.09679000  0.97415000  1.0 0.0818629074
H  H62  1  0.55601000  0.03109000  0.00297000  1.0 0.0700326318
H  H63  1  0.78438000  0.01489000  0.75962000  1.0 0.0818629074
H  H64  1  0.88898000  0.01101000  0.85509000  1.0 0.0997109698
H  H65  1  0.88338000  0.04991000  0.79809000  1.0 0.0700326318
H  H66  1  0.85581000  0.02549000  0.09416000  1.0 0.1373434484
H  H67  1  0.83939000  0.99213000  0.16150000  1.0 0.1284499215
H  H68  1  0.71387000  0.01642000  0.10702000  1.0 0.1199814821
H  H69  1  0.32100000  0.78590000  0.00210000  1.0 0.3432709229
H  H70  1  0.76000000  0.79690000  0.12400000  1.0 0.3777109933
H  H71  1  0.61624000  0.79452000  0.80122000  1.0 0.1199814821
H  H72  1  0.65067000  0.79302000  0.65953000  1.0 0.1199814821
H  H73  1  0.39344000  0.69574000  0.74002000  1.0 0.1284499215
H  H74  1  0.46015000  0.66747000  0.55086000  1.0 0.1284499215
H  H75  1  0.34628000  0.66515000  0.59989000  1.0 0.1284499215
H  H76  1  0.33440000  0.69528000  0.52020000  1.0 0.1284499215
H  H77  1  0.46436000  0.79158000  0.47932000  1.0 0.1199814821
H  H78  1  0.48784000  0.79170000  0.33301000  1.0 0.1199814821
H  H79  1  0.72964000  0.69719000  0.39694000  1.0 0.1284499215
H  H80  1  0.67077000  0.66666667  0.58291000  1.0 0.1284499215
H  H81  1  0.79249000  0.66978000  0.54129000  1.0 0.1284499215
H  H82  1  0.78482000  0.69777000  0.62131000  1.0 0.1284499215
H  H83  1  0.15720000  0.60702000  0.86216000  1.0 0.1284499215
H  H84  1  0.35387000  0.57142000  0.11014000  1.0 0.1373434484
H  H85  1  0.01173000  0.56459000  0.76487000  1.0 0.1373434484
H  H86  1  0.09816000  0.52878000  0.74777000  1.0 0.1373434484
H  H87  1  0.98663000  0.52189000  0.79737000  1.0 0.1284499215
H  H88  1  0.27706000  0.39440000  0.84695000  1.0 0.0997109698
H  H89  1  0.92561000  0.40872000  0.90267000  1.0 0.0818629074
H  H90  1  0.97194000  0.47627000  0.92508000  1.0 0.0700326318
H  H91  1  0.43674000  0.47382000  0.93287000  1.0 0.0883248549
H  H92  1  0.41934000  0.44943000  0.84334000  1.0 0.0700326318
H  H93  1  0.35643000  0.49194000  0.83948000  1.0 0.0997109698
H  H94  1  0.24238000  0.39782000  0.81090000  1.0 0.0997109698
H  H95  1  0.99866000  0.40321000  0.97415000  1.0 0.0818629074
H  H96  1  0.05601000  0.46891000  0.00297000  1.0 0.0700326318
H  H97  1  0.28438000  0.48511000  0.75962000  1.0 0.0818629074
H  H98  1  0.38898000  0.48899000  0.85509000  1.0 0.0883248549
H  H99  1  0.38338000  0.45009000  0.79809000  1.0 0.0700326318
H  H100  1  0.35581000  0.47451000  0.09416000  1.0 0.1373434484
H  H101  1  0.33939000  0.50787000  0.16150000  1.0 0.1284499215
H  H102  1  0.21387000  0.48358000  0.10702000  1.0 0.1199814821
H  H103  1  0.17900000  0.28590000  0.99790000  1.0 0.3432709229
H  H104  1  0.74000000  0.29690000  0.87600000  1.0 0.3777109933
H  H105  1  0.88376000  0.29452000  0.19878000  1.0 0.1199814821
H  H106  1  0.84933000  0.29302000  0.34047000  1.0 0.1199814821
H  H107  1  0.10656000  0.19574000  0.25998000  1.0 0.1284499215
H  H108  1  0.03985000  0.16747000  0.44914000  1.0 0.1284499215
H  H109  1  0.15372000  0.16515000  0.40011000  1.0 0.1284499215
H  H110  1  0.16560000  0.19528000  0.47980000  1.0 0.1284499215
H  H111  1  0.03564000  0.29158000  0.52068000  1.0 0.1199814821
H  H112  1  0.01216000  0.29170000  0.66699000  1.0 0.1199814821
H  H113  1  0.77036000  0.19719000  0.60306000  1.0 0.1284499215
H  H114  1  0.82923000  0.16667000  0.41709000  1.0 0.1284499215
H  H115  1  0.70751000  0.16978000  0.45871000  1.0 0.1284499215
H  H116  1  0.71518000  0.19777000  0.37869000  1.0 0.1284499215
H  H117  1  0.34280000  0.10702000  0.13784000  1.0 0.1284499215
H  H118  1  0.14613000  0.07142000  0.88986000  1.0 0.1373434484
H  H119  1  0.48827000  0.06459000  0.23513000  1.0 0.1373434484
H  H120  1  0.40184000  0.02878000  0.25223000  1.0 0.1373434484
H  H121  1  0.51337000  0.02189000  0.20263000  1.0 0.1284499215
H  H122  1  0.22294000  0.89440000  0.15305000  1.0 0.0997109698
H  H123  1  0.57439000  0.90872000  0.09733000  1.0 0.0883248549
H  H124  1  0.52806000  0.97627000  0.07492000  1.0 0.0700326318
H  H125  1  0.06326000  0.97382000  0.06713000  1.0 0.0883248549
H  H126  1  0.08066000  0.94943000  0.15666000  1.0 0.0700326318
H  H127  1  0.14357000  0.99194000  0.16052000  1.0 0.0997109698
H  H128  1  0.25762000  0.89782000  0.18910000  1.0 0.0997109698
H  H129  1  0.50134000  0.90321000  0.02585000  1.0 0.0818629074
H  H130  1  0.44399000  0.96891000  0.99703000  1.0 0.0700326318
H  H131  1  0.21562000  0.98511000  0.24038000  1.0 0.0818629074
H  H132  1  0.11102000  0.98899000  0.14491000  1.0 0.0883248549
H  H133  1  0.11662000  0.95009000  0.20191000  1.0 0.0700326318
H  H134  1  0.14419000  0.97451000  0.90584000  1.0 0.1373434484
H  H135  1  0.16061000  0.00787000  0.83850000  1.0 0.1284499215
H  H136  1  0.28613000  0.98358000  0.89298000  1.0 0.1199814821
C  C1  1  0.52400000  0.25463000  0.12361000  1.0 0.5826301452
C  C2  1  0.49760000  0.25524000  0.21447000  1.0 -0.0337509955
C  C3  1  0.42070000  0.22577000  0.23909000  1.0 -0.1098545689
C  C4  1  0.39980000  0.22693000  0.32383000  1.0 -0.1494485318
C  C5  1  0.45240000  0.25720000  0.38537000  1.0 0.019297246
C  C6  1  0.53310000  0.28639000  0.36181000  1.0 0.1199814821
C  C7  1  0.55370000  0.28489000  0.27634000  1.0 -0.1784899357
C  C8  1  0.60460000  0.31745000  0.42880000  1.0 -0.4500103765
C  C9  1  0.42550000  0.25715000  0.47665000  1.0 0.019297246
C  C10  1  0.48470000  0.22807000  0.53799000  1.0 -0.1494485318
C  C11  1  0.46970000  0.22760000  0.62560000  1.0 -0.1098545689
C  C12  1  0.39070000  0.25624000  0.64989000  1.0 -0.0217536028
C  C13  1  0.32600000  0.28425000  0.58685000  1.0 -0.1784899357
C  C14  1  0.34220000  0.28533000  0.49954000  1.0 0.1199814821
C  C15  1  0.26670000  0.31551000  0.43240000  1.0 -0.4500103765
C  C16  1  0.37240000  0.25643000  0.74388000  1.0 0.5898804244
C  C17  1  0.69700000  0.36202000  0.98162000  1.0 0.5357082214
C  C18  1  0.73630000  0.40412000  0.01020000  1.0 -0.0048653661
C  C19  1  0.81280000  0.41329000  0.09610000  1.0 -0.173125093
C  C20  1  0.84640000  0.45242000  0.12210000  1.0 0.0883248549
C  C21  1  0.80110000  0.48290000  0.06110000  1.0 -0.0974561564
C  C22  1  0.72800000  0.47395000  0.97330000  1.0 0.0294400163
C  C23  1  0.69580000  0.43444000  0.94880000  1.0 -0.2329440538
C  C24  1  0.83450000  0.52552000  0.08580000  1.0 0.0047693018
C  C25  1  0.89400000  0.60578000  0.11790000  1.0 0.0094775472
C  C26  1  0.92130000  0.64960000  0.12832000  1.0 0.5343178985
C  C27  1  0.94630000  0.46000000  0.21090000  1.0 -0.4500103765
C  C28  1  0.74730000  0.54950000  0.11470000  1.0 0.0883248549
C  C29  1  0.78030000  0.58950000  0.13160000  1.0 -0.1605196867
C  C30  1  0.99210000  0.58110000  0.09970000  1.0 -0.0337509955
C  C31  1  0.96330000  0.54080000  0.08510000  1.0 -0.0432999381
C  C32  1  0.62290000  0.53210000  0.12570000  1.0 -0.1947868589
C  C33  1  0.77290000  0.54700000  0.14120000  1.0 0.0997109698
C  C34  1  0.80140000  0.58740000  0.15480000  1.0 -0.1605196867
C  C35  1  0.94570000  0.58430000  0.05570000  1.0 -0.0432999381
C  C36  1  0.91290000  0.54490000  0.03960000  1.0 -0.0524756901
C  C37  1  0.66910000  0.52900000  0.18640000  1.0 -0.1986085597
C  C38  1  0.70230000  0.50500000  0.89520000  1.0 -0.5007259372
C  C39  1  0.97600000  0.75463000  0.87639000  1.0 0.5826301452
C  C40  1  0.00240000  0.75524000  0.78553000  1.0 -0.0337509955
C  C41  1  0.07930000  0.72577000  0.76091000  1.0 -0.1098545689
C  C42  1  0.10020000  0.72693000  0.67617000  1.0 -0.1494485318
C  C43  1  0.04760000  0.75720000  0.61463000  1.0 0.0294400163
C  C44  1  0.96690000  0.78639000  0.63819000  1.0 0.1199814821
C  C45  1  0.94630000  0.78489000  0.72366000  1.0 -0.1784899357
C  C46  1  0.89540000  0.81745000  0.57120000  1.0 -0.4500103765
C  C47  1  0.07450000  0.75715000  0.52335000  1.0 0.019297246
C  C48  1  0.01530000  0.72807000  0.46201000  1.0 -0.1494485318
C  C49  1  0.03030000  0.72760000  0.37440000  1.0 -0.1098545689
C  C50  1  0.10930000  0.75624000  0.35011000  1.0 -0.0217536028
C  C51  1  0.17400000  0.78425000  0.41315000  1.0 -0.1784899357
C  C52  1  0.15780000  0.78533000  0.50046000  1.0 0.1199814821
C  C53  1  0.23330000  0.81551000  0.56760000  1.0 -0.4500103765
C  C54  1  0.12760000  0.75643000  0.25612000  1.0 0.5898804244
C  C55  1  0.80300000  0.86202000  0.01838000  1.0 0.5357082214
C  C56  1  0.76370000  0.90412000  0.98980000  1.0 -0.0051140277
C  C57  1  0.68720000  0.91329000  0.90390000  1.0 -0.173125093
C  C58  1  0.65360000  0.95242000  0.87790000  1.0 0.0883248549
C  C59  1  0.69890000  0.98290000  0.93890000  1.0 -0.0974561564
C  C60  1  0.77200000  0.97395000  0.02670000  1.0 0.0294400163
C  C61  1  0.80420000  0.93444000  0.05120000  1.0 -0.2329440538
C  C62  1  0.66550000  0.02552000  0.91420000  1.0 0.0047693018
C  C63  1  0.60600000  0.10578000  0.88210000  1.0 0.0094775472
C  C64  1  0.57870000  0.14960000  0.87168000  1.0 0.5343178985
C  C65  1  0.55370000  0.96000000  0.78910000  1.0 -0.4500103765
C  C66  1  0.75270000  0.04950000  0.88530000  1.0 0.0883248549
C  C67  1  0.71970000  0.08950000  0.86840000  1.0 -0.1605196867
C  C68  1  0.50790000  0.08110000  0.90030000  1.0 -0.0337509955
C  C69  1  0.53670000  0.04080000  0.91490000  1.0 -0.0432999381
C  C70  1  0.87710000  0.03210000  0.87430000  1.0 -0.1947868589
C  C71  1  0.72710000  0.04700000  0.85880000  1.0 0.0997109698
C  C72  1  0.69860000  0.08740000  0.84520000  1.0 -0.1605196867
C  C73  1  0.55430000  0.08430000  0.94430000  1.0 -0.0432999381
C  C74  1  0.58710000  0.04490000  0.96040000  1.0 -0.0524756901
C  C75  1  0.83090000  0.02900000  0.81360000  1.0 -0.1986085597
C  C76  1  0.79770000  0.00500000  0.10480000  1.0 -0.5007259372
C  C77  1  0.47600000  0.74537000  0.87639000  1.0 0.5826301452
C  C78  1  0.50240000  0.74476000  0.78553000  1.0 -0.0337509955
C  C79  1  0.57930000  0.77423000  0.76091000  1.0 -0.1098545689
C  C80  1  0.60020000  0.77307000  0.67617000  1.0 -0.1494485318
C  C81  1  0.54760000  0.74280000  0.61463000  1.0 0.019297246
C  C82  1  0.46690000  0.71361000  0.63819000  1.0 0.1199814821
C  C83  1  0.44630000  0.71511000  0.72366000  1.0 -0.1784899357
C  C84  1  0.39540000  0.68255000  0.57120000  1.0 -0.4500103765
C  C85  1  0.57450000  0.74285000  0.52335000  1.0 0.019297246
C  C86  1  0.51530000  0.77193000  0.46201000  1.0 -0.1494485318
C  C87  1  0.53030000  0.77240000  0.37440000  1.0 -0.1098545689
C  C88  1  0.60930000  0.74376000  0.35011000  1.0 -0.0217536028
C  C89  1  0.67400000  0.71575000  0.41315000  1.0 -0.1784899357
C  C90  1  0.65780000  0.71467000  0.50046000  1.0 0.1199814821
C  C91  1  0.73330000  0.68449000  0.56760000  1.0 -0.4500103765
C  C92  1  0.62760000  0.74357000  0.25612000  1.0 0.5898804244
C  C93  1  0.30300000  0.63798000  0.01838000  1.0 0.5357082214
C  C94  1  0.26370000  0.59588000  0.98980000  1.0 -0.0048653661
C  C95  1  0.18720000  0.58671000  0.90390000  1.0 -0.173125093
C  C96  1  0.15360000  0.54758000  0.87790000  1.0 0.0883248549
C  C97  1  0.19890000  0.51710000  0.93890000  1.0 -0.0974561564
C  C98  1  0.27200000  0.52605000  0.02670000  1.0 0.0294400163
C  C99  1  0.30420000  0.56556000  0.05120000  1.0 -0.2329440538
C  C100  1  0.16550000  0.47448000  0.91420000  1.0 0.0047693018
C  C101  1  0.10600000  0.39422000  0.88210000  1.0 0.0094775472
C  C102  1  0.07870000  0.35040000  0.87168000  1.0 0.5343178985
C  C103  1  0.05370000  0.54000000  0.78910000  1.0 -0.4500103765
C  C104  1  0.25270000  0.45050000  0.88530000  1.0 0.0883248549
C  C105  1  0.21970000  0.41050000  0.86840000  1.0 -0.1605196867
C  C106  1  0.00790000  0.41890000  0.90030000  1.0 -0.0432999381
C  C107  1  0.03670000  0.45920000  0.91490000  1.0 -0.0432999381
C  C108  1  0.37710000  0.46790000  0.87430000  1.0 -0.1986085597
C  C109  1  0.22710000  0.45300000  0.85880000  1.0 0.0997109698
C  C110  1  0.19860000  0.41260000  0.84520000  1.0 -0.1605196867
C  C111  1  0.05430000  0.41570000  0.94430000  1.0 -0.0432999381
C  C112  1  0.08710000  0.45510000  0.96040000  1.0 -0.0524756901
C  C113  1  0.33090000  0.47100000  0.81360000  1.0 -0.1986085597
C  C114  1  0.29770000  0.49500000  0.10480000  1.0 -0.5007259372
C  C115  1  0.02400000  0.24537000  0.12361000  1.0 0.5826301452
C  C116  1  0.99760000  0.24476000  0.21447000  1.0 -0.0337509955
C  C117  1  0.92070000  0.27423000  0.23909000  1.0 -0.1098545689
C  C118  1  0.89980000  0.27307000  0.32383000  1.0 -0.1494485318
C  C119  1  0.95240000  0.24280000  0.38537000  1.0 0.0294400163
C  C120  1  0.03310000  0.21361000  0.36181000  1.0 0.1199814821
C  C121  1  0.05370000  0.21511000  0.27634000  1.0 -0.1784899357
C  C122  1  0.10460000  0.18255000  0.42880000  1.0 -0.4500103765
C  C123  1  0.92550000  0.24285000  0.47665000  1.0 0.019297246
C  C124  1  0.98470000  0.27193000  0.53799000  1.0 -0.1494485318
C  C125  1  0.96970000  0.27240000  0.62560000  1.0 -0.1098545689
C  C126  1  0.89070000  0.24376000  0.64989000  1.0 -0.0217536028
C  C127  1  0.82600000  0.21575000  0.58685000  1.0 -0.1784899357
C  C128  1  0.84220000  0.21467000  0.49954000  1.0 0.1199814821
C  C129  1  0.76670000  0.18449000  0.43240000  1.0 -0.4500103765
C  C130  1  0.87240000  0.24357000  0.74388000  1.0 0.5898804244
C  C131  1  0.19700000  0.13798000  0.98162000  1.0 0.5357082214
C  C132  1  0.23630000  0.09588000  0.01020000  1.0 -0.0048653661
C  C133  1  0.31280000  0.08671000  0.09610000  1.0 -0.173125093
C  C134  1  0.34640000  0.04758000  0.12210000  1.0 0.0883248549
C  C135  1  0.30110000  0.01710000  0.06110000  1.0 -0.0974561564
C  C136  1  0.22800000  0.02605000  0.97330000  1.0 0.0294400163
C  C137  1  0.19580000  0.06556000  0.94880000  1.0 -0.2329440538
C  C138  1  0.33450000  0.97448000  0.08580000  1.0 0.0047693018
C  C139  1  0.39400000  0.89422000  0.11790000  1.0 0.0094775472
C  C140  1  0.42130000  0.85040000  0.12832000  1.0 0.5343178985
C  C141  1  0.44630000  0.04000000  0.21090000  1.0 -0.4500103765
C  C142  1  0.24730000  0.95050000  0.11470000  1.0 0.0883248549
C  C143  1  0.28030000  0.91050000  0.13160000  1.0 -0.1605196867
C  C144  1  0.49210000  0.91890000  0.09970000  1.0 -0.0337509955
C  C145  1  0.46330000  0.95920000  0.08510000  1.0 -0.0432999381
C  C146  1  0.12290000  0.96790000  0.12570000  1.0 -0.1986085597
C  C147  1  0.27290000  0.95300000  0.14120000  1.0 0.0997109698
C  C148  1  0.30140000  0.91260000  0.15480000  1.0 -0.1605196867
C  C149  1  0.44570000  0.91570000  0.05570000  1.0 -0.0432999381
C  C150  1  0.41290000  0.95510000  0.03960000  1.0 -0.0524756901
C  C151  1  0.16910000  0.97100000  0.18640000  1.0 -0.1986085597
C  C152  1  0.20230000  0.99500000  0.89520000  1.0 -0.5007259372
O  O1  1  0.65070000  0.22713000  0.97085000  1.0 -0.6686786685
O  O2  1  0.26388000  0.21998000  0.90238000  1.0 -0.6926429245
O  O3  1  0.26491000  0.27191000  0.75078000  1.0 -0.5264007199
O  O4  1  0.46287000  0.24128000  0.80692000  1.0 -0.6024511132
O  O5  1  0.73857000  0.33573000  0.04178000  1.0 -0.5264007199
O  O6  1  0.62750000  0.35520000  0.90324000  1.0 -0.5206622455
O  O7  1  0.62210000  0.27498000  0.11513000  1.0 -0.5206622455
O  O8  1  0.44688000  0.23349000  0.06228000  1.0 -0.5910066936
O  O9  1  0.01484000  0.66266000  0.09983000  1.0 -0.5206622455
O  O10  1  0.84555000  0.66944000  0.16403000  1.0 -0.5007259372
O  O11  1  0.84930000  0.72713000  0.02915000  1.0 -0.6686786685
O  O12  1  0.23612000  0.71998000  0.09762000  1.0 -0.6926429245
O  O13  1  0.23509000  0.77191000  0.24922000  1.0 -0.5264007199
O  O14  1  0.03713000  0.74128000  0.19308000  1.0 -0.6024511132
O  O15  1  0.76143000  0.83573000  0.95822000  1.0 -0.5264007199
O  O16  1  0.87250000  0.85520000  0.09676000  1.0 -0.5206622455
O  O17  1  0.87790000  0.77498000  0.88487000  1.0 -0.5206622455
O  O18  1  0.05312000  0.73349000  0.93772000  1.0 -0.5910066936
O  O19  1  0.48516000  0.16266000  0.90017000  1.0 -0.5206622455
O  O20  1  0.65445000  0.16944000  0.83597000  1.0 -0.5007259372
O  O21  1  0.34930000  0.77287000  0.02915000  1.0 -0.6686786685
O  O22  1  0.73612000  0.78002000  0.09762000  1.0 -0.6926429245
O  O23  1  0.73509000  0.72809000  0.24922000  1.0 -0.5264007199
O  O24  1  0.53713000  0.75872000  0.19308000  1.0 -0.6024511132
O  O25  1  0.26143000  0.66427000  0.95822000  1.0 -0.5264007199
O  O26  1  0.37250000  0.64480000  0.09676000  1.0 -0.5206622455
O  O27  1  0.37790000  0.72502000  0.88487000  1.0 -0.5206622455
O  O28  1  0.55312000  0.76651000  0.93772000  1.0 -0.5910066936
O  O29  1  0.98516000  0.33734000  0.90017000  1.0 -0.5206622455
O  O30  1  0.15445000  0.33056000  0.83597000  1.0 -0.5007259372
O  O31  1  0.15070000  0.27287000  0.97085000  1.0 -0.6686786685
O  O32  1  0.76388000  0.28002000  0.90238000  1.0 -0.6926429245
O  O33  1  0.76491000  0.22809000  0.75078000  1.0 -0.5264007199
O  O34  1  0.96287000  0.25872000  0.80692000  1.0 -0.6024511132
O  O35  1  0.23857000  0.16427000  0.04178000  1.0 -0.5264007199
O  O36  1  0.12750000  0.14480000  0.90324000  1.0 -0.5206622455
O  O37  1  0.12210000  0.22502000  0.11513000  1.0 -0.5206622455
O  O38  1  0.94688000  0.26651000  0.06228000  1.0 -0.5910066936
O  O39  1  0.51484000  0.83734000  0.09983000  1.0 -0.5206622455
O  O40  1  0.34555000  0.83056000  0.16403000  1.0 -0.5007259372
