# DDEC6 charges by PACMAN v1.1 (https://github.com/mtap-research/PACMAN-charge/)
data_IVIXIW_FSR_pacman
_symmetry_space_group_name_H-M   'P 1'
_cell_length_a   3.80830000
_cell_length_b   12.47600000
_cell_length_c   13.09000000
_cell_angle_alpha   76.75700000
_cell_angle_beta   84.64900000
_cell_angle_gamma   86.80900000
_symmetry_Int_Tables_number   1
_chemical_formula_structural   AgH9C13(NO)2
_chemical_formula_sum   'Ag2 H18 C26 N4 O4'
_cell_volume   602.38175801
_cell_formula_units_Z   2
loop_
 _symmetry_equiv_pos_site_id
 _symmetry_equiv_pos_as_xyz
  1  'x, y, z'
loop_
 _atom_site_type_symbol
 _atom_site_label
 _atom_site_symmetry_multiplicity
 _atom_site_fract_x
 _atom_site_fract_y
 _atom_site_fract_z
 _atom_site_occupancy
 _atom_site_charge
Ag  Ag1  1  0.16161000  0.91878000  0.59541000  1.0 0.4369253895
Ag  Ag2  1  0.83839000  0.08122000  0.40459000  1.0 0.4369253895
H  H1  1  0.61550000  0.99450000  0.22230000  1.0 0.1205227614
H  H2  1  0.38450000  0.00550000  0.77770000  1.0 0.1205227614
H  H3  1  0.13630000  0.79440000  0.05410000  1.0 0.107596167
H  H4  1  0.86370000  0.20560000  0.94590000  1.0 0.107596167
H  H5  1  0.03150000  0.64700000  0.19290000  1.0 0.1003408643
H  H6  1  0.96850000  0.35300000  0.80710000  1.0 0.1003408643
H  H7  1  0.72080000  0.67040000  0.34790000  1.0 0.1205227614
H  H8  1  0.27920000  0.32960000  0.65210000  1.0 0.1205227614
H  H9  1  0.92480000  0.84820000  0.84200000  1.0 0.1003408643
H  H10  1  0.07520000  0.15180000  0.15800000  1.0 0.1003408643
H  H11  1  0.71180000  0.70450000  0.96830000  1.0 0.1288337788
H  H12  1  0.28820000  0.29550000  0.03170000  1.0 0.1288337788
H  H13  1  0.57620000  0.54770000  0.74050000  1.0 0.1387342966
H  H14  1  0.42380000  0.45230000  0.25950000  1.0 0.1387342966
H  H15  1  0.79740000  0.69730000  0.62000000  1.0 0.1205227614
H  H16  1  0.20260000  0.30270000  0.38000000  1.0 0.1205227614
H  H17  1  0.40120000  0.45420000  0.92260000  1.0 0.1205227614
H  H18  1  0.59880000  0.54580000  0.07740000  1.0 0.1205227614
C  C1  1  0.63710000  0.83510000  0.30180000  1.0 -0.0046990145
C  C2  1  0.36290000  0.16490000  0.69820000  1.0 -0.0046990145
C  C3  1  0.69790000  0.92430000  0.21670000  1.0 -0.1715251984
C  C4  1  0.30210000  0.07570000  0.78330000  1.0 -0.1715251984
C  C5  1  0.88010000  0.90940000  0.12390000  1.0 0.1596588126
C  C6  1  0.11990000  0.09060000  0.87610000  1.0 0.1596588126
C  C7  1  0.00950000  0.80460000  0.11560000  1.0 -0.1715251984
C  C8  1  0.99050000  0.19540000  0.88440000  1.0 -0.1715251984
C  C9  1  0.94790000  0.71710000  0.19870000  1.0 -0.098870776
C  C10  1  0.05210000  0.28290000  0.80130000  1.0 -0.098870776
C  C11  1  0.76150000  0.73090000  0.29220000  1.0 -0.0944378892
C  C12  1  0.23850000  0.26910000  0.70780000  1.0 -0.0944378892
C  C13  1  0.44320000  0.85190000  0.40250000  1.0 0.5606127611
C  C14  1  0.55680000  0.14810000  0.59750000  1.0 0.5606127611
C  C15  1  0.85530000  0.78660000  0.82140000  1.0 0.0591589963
C  C16  1  0.14470000  0.21340000  0.17860000  1.0 0.0591589963
C  C17  1  0.72870000  0.70030000  0.89790000  1.0 -0.19134435
C  C18  1  0.27130000  0.29970000  0.10210000  1.0 -0.19134435
C  C19  1  0.62510000  0.60590000  0.87030000  1.0 0.1596588126
C  C20  1  0.37490000  0.39410000  0.12970000  1.0 0.1596588126
C  C21  1  0.64870000  0.60750000  0.76340000  1.0 -0.2030067661
C  C22  1  0.35130000  0.39250000  0.23660000  1.0 -0.2030067661
C  C23  1  0.78090000  0.69860000  0.69100000  1.0 0.094579958
C  C24  1  0.21910000  0.30140000  0.30900000  1.0 0.094579958
C  C25  1  0.49660000  0.50870000  0.94840000  1.0 -0.1602264041
C  C26  1  0.50340000  0.49130000  0.05160000  1.0 -0.1602264041
N  N1  1  0.92670000  0.00760000  0.04250000  1.0 -0.1283275852
N  N2  1  0.07330000  0.99240000  0.95750000  1.0 -0.1283275852
N  N3  1  0.88500000  0.78750000  0.71780000  1.0 -0.2214394429
N  N4  1  0.11500000  0.21250000  0.28220000  1.0 -0.2214394429
O  O1  1  0.39790000  0.95120000  0.41330000  1.0 -0.5544298062
O  O2  1  0.60210000  0.04880000  0.58670000  1.0 -0.5544298062
O  O3  1  0.33480000  0.77180000  0.47070000  1.0 -0.5286993155
O  O4  1  0.66520000  0.22820000  0.52930000  1.0 -0.5286993155
