# DDEC6 charges by PACMAN v1.1 (https://github.com/mtap-research/PACMAN-charge/)
data_IVOLIQ_FSR_pacman
_symmetry_space_group_name_H-M   'P 1'
_cell_length_a   12.65560000
_cell_length_b   12.65560000
_cell_length_c   10.17600000
_cell_angle_alpha   87.48900000
_cell_angle_beta   92.51100000
_cell_angle_gamma   63.85620000
_symmetry_Int_Tables_number   1
_chemical_formula_structural   CdH12C18SO6
_chemical_formula_sum   'Cd4 H48 C72 S4 O24'
_cell_volume   1458.05560672
_cell_formula_units_Z   4
loop_
 _symmetry_equiv_pos_site_id
 _symmetry_equiv_pos_as_xyz
  1  'x, y, z'
loop_
 _atom_site_type_symbol
 _atom_site_label
 _atom_site_symmetry_multiplicity
 _atom_site_fract_x
 _atom_site_fract_y
 _atom_site_fract_z
 _atom_site_occupancy
 _atom_site_charge
Cd  Cd1  1  0.91168000  0.94212000  0.58100000  1.0 1.0603526055
Cd  Cd2  1  0.94212000  0.91168000  0.91900000  1.0 1.0603526055
Cd  Cd3  1  0.08832000  0.05788000  0.41900000  1.0 1.0603526055
Cd  Cd4  1  0.05788000  0.08832000  0.08100000  1.0 1.0603526055
H  H1  1  0.34740000  0.11260000  0.95290000  1.0 0.0886835144
H  H2  1  0.11260000  0.34740000  0.54710000  1.0 0.0886835144
H  H3  1  0.65260000  0.88740000  0.04710000  1.0 0.0886835144
H  H4  1  0.88740000  0.65260000  0.45290000  1.0 0.0886835144
H  H5  1  0.55050000  0.05610000  0.95410000  1.0 0.0886835144
H  H6  1  0.05610000  0.55050000  0.54590000  1.0 0.0886835144
H  H7  1  0.44950000  0.94390000  0.04590000  1.0 0.0886835144
H  H8  1  0.94390000  0.44950000  0.45410000  1.0 0.0886835144
H  H9  1  0.53220000  0.05480000  0.55670000  1.0 0.0825852408
H  H10  1  0.05480000  0.53220000  0.94330000  1.0 0.0825852408
H  H11  1  0.46780000  0.94520000  0.44330000  1.0 0.0825852408
H  H12  1  0.94520000  0.46780000  0.05670000  1.0 0.0825852408
H  H13  1  0.32880000  0.11340000  0.55370000  1.0 0.0886835144
H  H14  1  0.11340000  0.32880000  0.94630000  1.0 0.0886835144
H  H15  1  0.67120000  0.88660000  0.44630000  1.0 0.0886835144
H  H16  1  0.88660000  0.67120000  0.05370000  1.0 0.0886835144
H  H17  1  0.51790000  0.72590000  0.53260000  1.0 0.1190762563
H  H18  1  0.72590000  0.51790000  0.96740000  1.0 0.1190762563
H  H19  1  0.48210000  0.27410000  0.46740000  1.0 0.1190762563
H  H20  1  0.27410000  0.48210000  0.03260000  1.0 0.1190762563
H  H21  1  0.31180000  0.80660000  0.50970000  1.0 0.1317589029
H  H22  1  0.80660000  0.31180000  0.99030000  1.0 0.1317589029
H  H23  1  0.68820000  0.19340000  0.49030000  1.0 0.1317589029
H  H24  1  0.19340000  0.68820000  0.00970000  1.0 0.1317589029
H  H25  1  0.29870000  0.84230000  0.90420000  1.0 0.1317589029
H  H26  1  0.84230000  0.29870000  0.59580000  1.0 0.1317589029
H  H27  1  0.70130000  0.15770000  0.09580000  1.0 0.1317589029
H  H28  1  0.15770000  0.70130000  0.40420000  1.0 0.1317589029
H  H29  1  0.50420000  0.76320000  0.92700000  1.0 0.1190762563
H  H30  1  0.76320000  0.50420000  0.57300000  1.0 0.1190762563
H  H31  1  0.49580000  0.23680000  0.07300000  1.0 0.1190762563
H  H32  1  0.23680000  0.49580000  0.42700000  1.0 0.1190762563
H  H33  1  0.33960000  0.19700000  0.92040000  1.0 0.0825852408
H  H34  1  0.19700000  0.33960000  0.57960000  1.0 0.0825852408
H  H35  1  0.66040000  0.80300000  0.07960000  1.0 0.0825852408
H  H36  1  0.80300000  0.66040000  0.42040000  1.0 0.0825852408
H  H37  1  0.54540000  0.13000000  0.91670000  1.0 0.0886835144
H  H38  1  0.13000000  0.54540000  0.58330000  1.0 0.0886835144
H  H39  1  0.45460000  0.87000000  0.08330000  1.0 0.0886835144
H  H40  1  0.87000000  0.45460000  0.41670000  1.0 0.0886835144
H  H41  1  0.55120000  0.95300000  0.59570000  1.0 0.0886835144
H  H42  1  0.95300000  0.55120000  0.90430000  1.0 0.0825852408
H  H43  1  0.44880000  0.04700000  0.40430000  1.0 0.0825852408
H  H44  1  0.04700000  0.44880000  0.09570000  1.0 0.0825852408
H  H45  1  0.34630000  0.02290000  0.59030000  1.0 0.0825852408
H  H46  1  0.02290000  0.34630000  0.90970000  1.0 0.0825852408
H  H47  1  0.65370000  0.97710000  0.40970000  1.0 0.0825852408
H  H48  1  0.97710000  0.65370000  0.09030000  1.0 0.0825852408
C  C1  1  0.32284000  0.11630000  0.75346000  1.0 -0.0463023319
C  C2  1  0.11630000  0.32284000  0.74654000  1.0 -0.0463023319
C  C3  1  0.67716000  0.88370000  0.24654000  1.0 -0.0463023319
C  C4  1  0.88370000  0.67716000  0.25346000  1.0 -0.0463023319
C  C5  1  0.38570000  0.10010000  0.87280000  1.0 -0.020016223
C  C6  1  0.10010000  0.38570000  0.62720000  1.0 -0.020016223
C  C7  1  0.61430000  0.89990000  0.12720000  1.0 -0.020016223
C  C8  1  0.89990000  0.61430000  0.37280000  1.0 -0.020016223
C  C9  1  0.50620000  0.06520000  0.87310000  1.0 -0.020016223
C  C10  1  0.06520000  0.50620000  0.62690000  1.0 -0.0290366847
C  C11  1  0.49380000  0.93480000  0.12690000  1.0 -0.0290366847
C  C12  1  0.93480000  0.49380000  0.37310000  1.0 -0.0290366847
C  C13  1  0.56288000  0.04320000  0.75521000  1.0 -0.0108094984
C  C14  1  0.04320000  0.56288000  0.74479000  1.0 -0.0108094984
C  C15  1  0.43712000  0.95680000  0.24479000  1.0 -0.0108094984
C  C16  1  0.95680000  0.43712000  0.25521000  1.0 -0.0108094984
C  C17  1  0.49513000  0.06473000  0.63750000  1.0 -0.020016223
C  C18  1  0.06473000  0.49513000  0.86250000  1.0 -0.020016223
C  C19  1  0.50487000  0.93527000  0.36250000  1.0 -0.020016223
C  C20  1  0.93527000  0.50487000  0.13750000  1.0 -0.020016223
C  C21  1  0.37436000  0.10036000  0.63470000  1.0 -0.020016223
C  C22  1  0.10036000  0.37436000  0.86530000  1.0 -0.020016223
C  C23  1  0.62564000  0.89964000  0.36530000  1.0 -0.020016223
C  C24  1  0.89964000  0.62564000  0.13470000  1.0 -0.020016223
C  C25  1  0.69468000  0.99954000  0.75375000  1.0 0.5268771468
C  C26  1  0.99954000  0.69468000  0.74625000  1.0 0.5268771468
C  C27  1  0.30532000  0.00046000  0.24625000  1.0 0.5268771468
C  C28  1  0.00046000  0.30532000  0.25375000  1.0 0.5268771468
C  C29  1  0.52900000  0.73938000  0.73156000  1.0 -0.0463023319
C  C30  1  0.73938000  0.52900000  0.76844000  1.0 -0.0463023319
C  C31  1  0.47100000  0.26062000  0.26844000  1.0 -0.0463023319
C  C32  1  0.26062000  0.47100000  0.23156000  1.0 -0.0463023319
C  C33  1  0.47300000  0.75050000  0.60746000  1.0 -0.1319092916
C  C34  1  0.75050000  0.47300000  0.89254000  1.0 -0.1319092916
C  C35  1  0.52700000  0.24950000  0.39254000  1.0 -0.1319092916
C  C36  1  0.24950000  0.52700000  0.10746000  1.0 -0.1319092916
C  C37  1  0.35107000  0.79771000  0.59414000  1.0 -0.09729928
C  C38  1  0.79771000  0.35107000  0.90586000  1.0 -0.09729928
C  C39  1  0.64893000  0.20229000  0.40586000  1.0 -0.09729928
C  C40  1  0.20229000  0.64893000  0.09414000  1.0 -0.09729928
C  C41  1  0.28608000  0.83224000  0.70493000  1.0 -0.020016223
C  C42  1  0.83224000  0.28608000  0.79507000  1.0 -0.020016223
C  C43  1  0.71392000  0.16776000  0.29507000  1.0 -0.020016223
C  C44  1  0.16776000  0.71392000  0.20493000  1.0 -0.020016223
C  C45  1  0.34328000  0.81914000  0.82893000  1.0 -0.09729928
C  C46  1  0.81914000  0.34328000  0.67107000  1.0 -0.09729928
C  C47  1  0.65672000  0.18086000  0.17107000  1.0 -0.09729928
C  C48  1  0.18086000  0.65672000  0.32893000  1.0 -0.09729928
C  C49  1  0.46484000  0.77254000  0.84260000  1.0 -0.1524647766
C  C50  1  0.77254000  0.46484000  0.65740000  1.0 -0.1524647766
C  C51  1  0.53516000  0.22746000  0.15740000  1.0 -0.1524647766
C  C52  1  0.22746000  0.53516000  0.34260000  1.0 -0.1524647766
C  C53  1  0.15387000  0.88037000  0.69367000  1.0 0.6174430171
C  C54  1  0.88037000  0.15387000  0.80633000  1.0 0.6174430171
C  C55  1  0.84613000  0.11963000  0.30633000  1.0 0.6174430171
C  C56  1  0.11963000  0.84613000  0.19367000  1.0 0.6174430171
C  C57  1  0.38180000  0.14920000  0.85320000  1.0 -0.0290366847
C  C58  1  0.14920000  0.38180000  0.64680000  1.0 -0.0290366847
C  C59  1  0.61820000  0.85080000  0.14680000  1.0 -0.0290366847
C  C60  1  0.85080000  0.61820000  0.35320000  1.0 -0.0290366847
C  C61  1  0.50400000  0.10940000  0.85020000  1.0 -0.0108094984
C  C62  1  0.10940000  0.50400000  0.64980000  1.0 -0.0108094984
C  C63  1  0.49600000  0.89060000  0.14980000  1.0 -0.0108094984
C  C64  1  0.89060000  0.49600000  0.35020000  1.0 -0.0108094984
C  C65  1  0.50680000  0.00500000  0.65870000  1.0 -0.0108094984
C  C66  1  0.00500000  0.50680000  0.84130000  1.0 -0.0108094984
C  C67  1  0.49320000  0.99500000  0.34130000  1.0 -0.0108094984
C  C68  1  0.99500000  0.49320000  0.15870000  1.0 -0.0108094984
C  C69  1  0.38610000  0.04470000  0.65720000  1.0 -0.020016223
C  C70  1  0.04470000  0.38610000  0.84280000  1.0 -0.020016223
C  C71  1  0.61390000  0.95530000  0.34280000  1.0 -0.020016223
C  C72  1  0.95530000  0.61390000  0.15720000  1.0 -0.0108094984
S  S1  1  0.16845000  0.16845000  0.75000000  1.0 0.4826910614
S  S2  1  0.83155000  0.83155000  0.25000000  1.0 0.4826910614
S  S3  1  0.68425000  0.68425000  0.75000000  1.0 0.6174430171
S  S4  1  0.31575000  0.31575000  0.25000000  1.0 0.6174430171
O  O1  1  0.12944000  0.13824000  0.62786000  1.0 -0.5113986016
O  O2  1  0.13824000  0.12944000  0.87214000  1.0 -0.5113986016
O  O3  1  0.87056000  0.86176000  0.37214000  1.0 -0.5113986016
O  O4  1  0.86176000  0.87056000  0.12786000  1.0 -0.5113986016
O  O5  1  0.74961000  0.99091000  0.86257000  1.0 -0.5113986016
O  O6  1  0.99091000  0.74961000  0.63743000  1.0 -0.5113986016
O  O7  1  0.25039000  0.00909000  0.13743000  1.0 -0.5113986016
O  O8  1  0.00909000  0.25039000  0.36257000  1.0 -0.5113986016
O  O9  1  0.73666000  0.97638000  0.64280000  1.0 -0.5225499229
O  O10  1  0.97638000  0.73666000  0.85720000  1.0 -0.5225499229
O  O11  1  0.26334000  0.02362000  0.35720000  1.0 -0.5225499229
O  O12  1  0.02362000  0.26334000  0.14280000  1.0 -0.5225499229
O  O13  1  0.71266000  0.72250000  0.87192000  1.0 -0.5225499229
O  O14  1  0.72250000  0.71266000  0.62808000  1.0 -0.5225499229
O  O15  1  0.28734000  0.27750000  0.12808000  1.0 -0.5225499229
O  O16  1  0.27750000  0.28734000  0.37192000  1.0 -0.5225499229
O  O17  1  0.09986000  0.91870000  0.57897000  1.0 -0.576135415
O  O18  1  0.91870000  0.09986000  0.92103000  1.0 -0.576135415
O  O19  1  0.90014000  0.08130000  0.42103000  1.0 -0.576135415
O  O20  1  0.08130000  0.90014000  0.07897000  1.0 -0.576135415
O  O21  1  0.10465000  0.87683000  0.79509000  1.0 -0.5413737775
O  O22  1  0.87683000  0.10465000  0.70491000  1.0 -0.5413737775
O  O23  1  0.89535000  0.12317000  0.20491000  1.0 -0.5413737775
O  O24  1  0.12317000  0.89535000  0.29509000  1.0 -0.5413737775
