# DDEC6 charges by PACMAN v1.1 (https://github.com/mtap-research/PACMAN-charge/)
data_IVOLEM_ASR_pacman
_symmetry_space_group_name_H-M   'P 1'
_cell_length_a   12.64340000
_cell_length_b   12.64340000
_cell_length_c   10.17580000
_cell_angle_alpha   87.37570000
_cell_angle_beta   92.62430000
_cell_angle_gamma   63.95220000
_symmetry_Int_Tables_number   1
_chemical_formula_structural   CdH12C18SO6
_chemical_formula_sum   'Cd4 H48 C72 S4 O24'
_cell_volume   1455.96262973
_cell_formula_units_Z   4
loop_
 _symmetry_equiv_pos_site_id
 _symmetry_equiv_pos_as_xyz
  1  'x, y, z'
loop_
 _atom_site_type_symbol
 _atom_site_label
 _atom_site_symmetry_multiplicity
 _atom_site_fract_x
 _atom_site_fract_y
 _atom_site_fract_z
 _atom_site_occupancy
 _atom_site_charge
Cd  Cd1  1  0.91145000  0.94233000  0.58092000  1.0 1.0573033618
Cd  Cd2  1  0.94233000  0.91145000  0.91908000  1.0 1.0573033618
Cd  Cd3  1  0.08855000  0.05767000  0.41908000  1.0 1.0573033618
Cd  Cd4  1  0.05767000  0.08855000  0.08092000  1.0 1.0573033618
H  H1  1  0.34750000  0.11250000  0.95280000  1.0 0.0874151683
H  H2  1  0.11250000  0.34750000  0.54720000  1.0 0.0874151683
H  H3  1  0.65250000  0.88750000  0.04720000  1.0 0.0874151683
H  H4  1  0.88750000  0.65250000  0.45280000  1.0 0.0874151683
H  H5  1  0.55140000  0.05400000  0.95420000  1.0 0.0874151683
H  H6  1  0.05400000  0.55140000  0.54580000  1.0 0.0874151683
H  H7  1  0.44860000  0.94600000  0.04580000  1.0 0.0874151683
H  H8  1  0.94600000  0.44860000  0.45420000  1.0 0.0874151683
H  H9  1  0.53140000  0.05820000  0.55590000  1.0 0.0826275276
H  H10  1  0.05820000  0.53140000  0.94410000  1.0 0.0826275276
H  H11  1  0.46860000  0.94180000  0.44410000  1.0 0.0826275276
H  H12  1  0.94180000  0.46860000  0.05590000  1.0 0.0826275276
H  H13  1  0.32820000  0.11480000  0.55280000  1.0 0.0874151683
H  H14  1  0.11480000  0.32820000  0.94720000  1.0 0.0874151683
H  H15  1  0.67180000  0.88520000  0.44720000  1.0 0.0874151683
H  H16  1  0.88520000  0.67180000  0.05280000  1.0 0.0874151683
H  H17  1  0.51800000  0.72500000  0.53300000  1.0 0.1197044889
H  H18  1  0.72500000  0.51800000  0.96700000  1.0 0.1197044889
H  H19  1  0.48200000  0.27500000  0.46700000  1.0 0.1197044889
H  H20  1  0.27500000  0.48200000  0.03300000  1.0 0.1197044889
H  H21  1  0.31120000  0.80540000  0.50990000  1.0 0.1330087149
H  H22  1  0.80540000  0.31120000  0.99010000  1.0 0.1330087149
H  H23  1  0.68880000  0.19460000  0.49010000  1.0 0.1330087149
H  H24  1  0.19460000  0.68880000  0.00990000  1.0 0.1330087149
H  H25  1  0.29930000  0.84250000  0.90450000  1.0 0.1330087149
H  H26  1  0.84250000  0.29930000  0.59550000  1.0 0.1330087149
H  H27  1  0.70070000  0.15750000  0.09550000  1.0 0.1330087149
H  H28  1  0.15750000  0.70070000  0.40450000  1.0 0.1330087149
H  H29  1  0.50490000  0.76390000  0.92740000  1.0 0.1197044889
H  H30  1  0.76390000  0.50490000  0.57260000  1.0 0.1197044889
H  H31  1  0.49510000  0.23610000  0.07260000  1.0 0.1197044889
H  H32  1  0.23610000  0.49510000  0.42740000  1.0 0.1197044889
H  H33  1  0.34070000  0.19730000  0.91870000  1.0 0.0874151683
H  H34  1  0.19730000  0.34070000  0.58130000  1.0 0.0874151683
H  H35  1  0.65930000  0.80270000  0.08130000  1.0 0.0874151683
H  H36  1  0.80270000  0.65930000  0.41870000  1.0 0.0874151683
H  H37  1  0.54610000  0.12770000  0.91790000  1.0 0.0965478348
H  H38  1  0.12770000  0.54610000  0.58210000  1.0 0.0965478348
H  H39  1  0.45390000  0.87230000  0.08210000  1.0 0.0965478348
H  H40  1  0.87230000  0.45390000  0.41790000  1.0 0.0965478348
H  H41  1  0.55030000  0.95630000  0.59340000  1.0 0.0874151683
H  H42  1  0.95630000  0.55030000  0.90660000  1.0 0.0874151683
H  H43  1  0.44970000  0.04370000  0.40660000  1.0 0.0874151683
H  H44  1  0.04370000  0.44970000  0.09340000  1.0 0.0874151683
H  H45  1  0.34480000  0.02600000  0.58920000  1.0 0.0826275276
H  H46  1  0.02600000  0.34480000  0.91080000  1.0 0.0826275276
H  H47  1  0.65520000  0.97400000  0.41080000  1.0 0.0826275276
H  H48  1  0.97400000  0.65520000  0.08920000  1.0 0.0826275276
C  C1  1  0.32270000  0.11686000  0.75308000  1.0 -0.044041367
C  C2  1  0.11686000  0.32270000  0.74692000  1.0 -0.044041367
C  C3  1  0.67730000  0.88314000  0.24692000  1.0 -0.044041367
C  C4  1  0.88314000  0.67730000  0.25308000  1.0 -0.044041367
C  C5  1  0.38563000  0.10003000  0.87270000  1.0 -0.0224978064
C  C6  1  0.10003000  0.38563000  0.62730000  1.0 -0.0224978064
C  C7  1  0.61437000  0.89997000  0.12730000  1.0 -0.0224978064
C  C8  1  0.89997000  0.61437000  0.37270000  1.0 -0.0224978064
C  C9  1  0.50654000  0.06434000  0.87310000  1.0 -0.0224978064
C  C10  1  0.06434000  0.50654000  0.62690000  1.0 -0.0224978064
C  C11  1  0.49346000  0.93566000  0.12690000  1.0 -0.0224978064
C  C12  1  0.93566000  0.49346000  0.37310000  1.0 -0.0224978064
C  C13  1  0.56306000  0.04328000  0.75457000  1.0 -0.0109157111
C  C14  1  0.04328000  0.56306000  0.74543000  1.0 -0.0109157111
C  C15  1  0.43694000  0.95672000  0.24543000  1.0 -0.0109157111
C  C16  1  0.95672000  0.43694000  0.25457000  1.0 -0.0109157111
C  C17  1  0.49472000  0.06650000  0.63671000  1.0 -0.0224978064
C  C18  1  0.06650000  0.49472000  0.86329000  1.0 -0.0224978064
C  C19  1  0.50528000  0.93350000  0.36329000  1.0 -0.0224978064
C  C20  1  0.93350000  0.50528000  0.13671000  1.0 -0.0224978064
C  C21  1  0.37397000  0.10163000  0.63385000  1.0 -0.0109157111
C  C22  1  0.10163000  0.37397000  0.86615000  1.0 -0.0109157111
C  C23  1  0.62603000  0.89837000  0.36615000  1.0 -0.0109157111
C  C24  1  0.89837000  0.62603000  0.13385000  1.0 -0.0109157111
C  C25  1  0.69484000  0.99980000  0.75328000  1.0 0.5196192192
C  C26  1  0.99980000  0.69484000  0.74672000  1.0 0.5196192192
C  C27  1  0.30516000  0.00020000  0.24672000  1.0 0.5196192192
C  C28  1  0.00020000  0.30516000  0.25328000  1.0 0.5196192192
C  C29  1  0.52911000  0.73887000  0.73172000  1.0 -0.0462302936
C  C30  1  0.73887000  0.52911000  0.76828000  1.0 -0.0462302936
C  C31  1  0.47089000  0.26113000  0.26828000  1.0 -0.0462302936
C  C32  1  0.26113000  0.47089000  0.23172000  1.0 -0.0462302936
C  C33  1  0.47314000  0.74968000  0.60768000  1.0 -0.1346717996
C  C34  1  0.74968000  0.47314000  0.89232000  1.0 -0.1346717996
C  C35  1  0.52686000  0.25032000  0.39232000  1.0 -0.1346717996
C  C36  1  0.25032000  0.52686000  0.10768000  1.0 -0.1346717996
C  C37  1  0.35063000  0.79699000  0.59424000  1.0 -0.0953349618
C  C38  1  0.79699000  0.35063000  0.90576000  1.0 -0.0953349618
C  C39  1  0.64937000  0.20301000  0.40576000  1.0 -0.0953349618
C  C40  1  0.20301000  0.64937000  0.09424000  1.0 -0.0953349618
C  C41  1  0.28588000  0.83210000  0.70519000  1.0 -0.0224978064
C  C42  1  0.83210000  0.28588000  0.79481000  1.0 -0.0224978064
C  C43  1  0.71412000  0.16790000  0.29481000  1.0 -0.0224978064
C  C44  1  0.16790000  0.71412000  0.20519000  1.0 -0.0224978064
C  C45  1  0.34369000  0.81919000  0.82930000  1.0 -0.0953349618
C  C46  1  0.81919000  0.34369000  0.67070000  1.0 -0.0953349618
C  C47  1  0.65631000  0.18081000  0.17070000  1.0 -0.0953349618
C  C48  1  0.18081000  0.65631000  0.32930000  1.0 -0.0953349618
C  C49  1  0.46525000  0.77271000  0.84306000  1.0 -0.1552577538
C  C50  1  0.77271000  0.46525000  0.65694000  1.0 -0.1552577538
C  C51  1  0.53475000  0.22729000  0.15694000  1.0 -0.1552577538
C  C52  1  0.22729000  0.53475000  0.34306000  1.0 -0.1552577538
C  C53  1  0.15404000  0.88024000  0.69406000  1.0 0.6152189004
C  C54  1  0.88024000  0.15404000  0.80594000  1.0 0.6152189004
C  C55  1  0.84596000  0.11976000  0.30594000  1.0 0.6152189004
C  C56  1  0.11976000  0.84596000  0.19406000  1.0 0.6152189004
C  C57  1  0.38260000  0.14900000  0.85200000  1.0 -0.0318880768
C  C58  1  0.14900000  0.38260000  0.64800000  1.0 -0.0318880768
C  C59  1  0.61740000  0.85100000  0.14800000  1.0 -0.0318880768
C  C60  1  0.85100000  0.61740000  0.35200000  1.0 -0.0318880768
C  C61  1  0.50440000  0.10860000  0.85030000  1.0 -0.0109157111
C  C62  1  0.10860000  0.50440000  0.64970000  1.0 -0.0109157111
C  C63  1  0.49560000  0.89140000  0.14970000  1.0 -0.0109157111
C  C64  1  0.89140000  0.49560000  0.35030000  1.0 -0.0109157111
C  C65  1  0.50650000  0.00710000  0.65740000  1.0 -0.0109157111
C  C66  1  0.00710000  0.50650000  0.84260000  1.0 -0.0109157111
C  C67  1  0.49350000  0.99290000  0.34260000  1.0 -0.0109157111
C  C68  1  0.99290000  0.49350000  0.15740000  1.0 -0.0109157111
C  C69  1  0.38510000  0.04690000  0.65650000  1.0 -0.0109157111
C  C70  1  0.04690000  0.38510000  0.84350000  1.0 -0.0109157111
C  C71  1  0.61490000  0.95310000  0.34350000  1.0 -0.0109157111
C  C72  1  0.95310000  0.61490000  0.15650000  1.0 -0.0109157111
S  S1  1  0.16854000  0.16854000  0.75000000  1.0 0.4798112439
S  S2  1  0.83146000  0.83146000  0.25000000  1.0 0.4798112439
S  S3  1  0.68430000  0.68430000  0.75000000  1.0 0.6056677031
S  S4  1  0.31570000  0.31570000  0.25000000  1.0 0.6056677031
O  O1  1  0.12914000  0.13866000  0.62790000  1.0 -0.5108080504
O  O2  1  0.13866000  0.12914000  0.87210000  1.0 -0.5108080504
O  O3  1  0.87086000  0.86134000  0.37210000  1.0 -0.5108080504
O  O4  1  0.86134000  0.87086000  0.12790000  1.0 -0.5108080504
O  O5  1  0.74981000  0.99075000  0.86209000  1.0 -0.5108080504
O  O6  1  0.99075000  0.74981000  0.63791000  1.0 -0.5108080504
O  O7  1  0.25019000  0.00925000  0.13791000  1.0 -0.5108080504
O  O8  1  0.00925000  0.25019000  0.36209000  1.0 -0.5108080504
O  O9  1  0.73653000  0.97649000  0.64194000  1.0 -0.5280307306
O  O10  1  0.97649000  0.73653000  0.85806000  1.0 -0.5280307306
O  O11  1  0.26347000  0.02351000  0.35806000  1.0 -0.5280307306
O  O12  1  0.02351000  0.26347000  0.14194000  1.0 -0.5280307306
O  O13  1  0.71310000  0.72230000  0.87179000  1.0 -0.524674244
O  O14  1  0.72230000  0.71310000  0.62821000  1.0 -0.524674244
O  O15  1  0.28690000  0.27770000  0.12821000  1.0 -0.524674244
O  O16  1  0.27770000  0.28690000  0.37179000  1.0 -0.524674244
O  O17  1  0.09974000  0.91880000  0.57947000  1.0 -0.5752102209
O  O18  1  0.91880000  0.09974000  0.92053000  1.0 -0.5752102209
O  O19  1  0.90026000  0.08120000  0.42053000  1.0 -0.5752102209
O  O20  1  0.08120000  0.90026000  0.07947000  1.0 -0.5752102209
O  O21  1  0.10499000  0.87673000  0.79552000  1.0 -0.5423258019
O  O22  1  0.87673000  0.10499000  0.70448000  1.0 -0.5423258019
O  O23  1  0.89501000  0.12327000  0.20448000  1.0 -0.5423258019
O  O24  1  0.12327000  0.89501000  0.29552000  1.0 -0.5423258019
