# DDEC6 charges by PACMAN v1.1 (https://github.com/mtap-research/PACMAN-charge/)
data_IWAHIZ_ASR_pacman
_symmetry_space_group_name_H-M   'P 1'
_cell_length_a   9.06420000
_cell_length_b   9.45070000
_cell_length_c   19.85800000
_cell_angle_alpha   89.34600000
_cell_angle_beta   79.49500000
_cell_angle_gamma   86.02800000
_symmetry_Int_Tables_number   1
_chemical_formula_structural   Al6P7HO28
_chemical_formula_sum   'Al12 P14 H2 O56'
_cell_volume   1668.56567635
_cell_formula_units_Z   2
loop_
 _symmetry_equiv_pos_site_id
 _symmetry_equiv_pos_as_xyz
  1  'x, y, z'
loop_
 _atom_site_type_symbol
 _atom_site_label
 _atom_site_symmetry_multiplicity
 _atom_site_fract_x
 _atom_site_fract_y
 _atom_site_fract_z
 _atom_site_occupancy
 _atom_site_charge
Al  Al1  1  0.73546000  0.61045000  0.50850000  1.0 1.7919278372
Al  Al2  1  0.26454000  0.38955000  0.49150000  1.0 1.7919278372
Al  Al3  1  0.85005000  0.17680000  0.54498000  1.0 1.7402751911
Al  Al4  1  0.14995000  0.82320000  0.45502000  1.0 1.7402751911
Al  Al5  1  0.14837000  0.33914000  0.29463000  1.0 1.7402751911
Al  Al6  1  0.85163000  0.66086000  0.70537000  1.0 1.7402751911
Al  Al7  1  0.29406000  0.56239000  0.09949000  1.0 1.7487370003
Al  Al8  1  0.70594000  0.43761000  0.90051000  1.0 1.7487370003
Al  Al9  1  0.72351000  0.37631000  0.11103000  1.0 1.7634809244
Al  Al10  1  0.27649000  0.62369000  0.88897000  1.0 1.7634809244
Al  Al11  1  0.15998000  0.13254000  0.02635000  1.0 1.7487370003
Al  Al12  1  0.84002000  0.86746000  0.97365000  1.0 1.7402751911
P  P1  1  0.55672000  0.34583000  0.56552000  1.0 1.533020082
P  P2  1  0.44328000  0.65417000  0.43448000  1.0 1.533020082
P  P3  1  0.13290000  0.14336000  0.42478000  1.0 1.5391488302
P  P4  1  0.86710000  0.85664000  0.57522000  1.0 1.5391488302
P  P5  1  0.03132000  0.56216000  0.39983000  1.0 1.5492762852
P  P6  1  0.96868000  0.43784000  0.60017000  1.0 1.5492762852
P  P7  1  0.04206000  0.33376000  0.15426000  1.0 1.5185641873
P  P8  1  0.95794000  0.66624000  0.84574000  1.0 1.5185641873
P  P9  1  0.44894000  0.44748000  0.22010000  1.0 1.5185641873
P  P10  1  0.55106000  0.55252000  0.77990000  1.0 1.5185641873
P  P11  1  0.62349000  0.64237000  0.03098000  1.0 1.5492762852
P  P12  1  0.37651000  0.35763000  0.96902000  1.0 1.5492762852
P  P13  1  0.84330000  0.18795000  0.97936000  1.0 1.533020082
P  P14  1  0.15670000  0.81205000  0.02064000  1.0 1.5391488302
H  H1  1  0.50396000  0.37912000  0.68404000  1.0 0.4947513271
H  H2  1  0.49604000  0.62088000  0.31596000  1.0 0.495720737
O  O1  1  0.54429000  0.30380000  0.64136000  1.0 -0.6060945761
O  O2  1  0.45571000  0.69620000  0.35864000  1.0 -0.6060945761
O  O3  1  0.40890000  0.32820000  0.54095000  1.0 -0.7490661513
O  O4  1  0.59110000  0.67180000  0.45905000  1.0 -0.7490661513
O  O5  1  0.59702000  0.50305000  0.55722000  1.0 -0.7815684449
O  O6  1  0.40298000  0.49695000  0.44278000  1.0 -0.7815684449
O  O7  1  0.68297000  0.25009000  0.52276000  1.0 -0.7815684449
O  O8  1  0.31703000  0.74991000  0.47724000  1.0 -0.7901037704
O  O9  1  0.86458000  0.55215000  0.43159000  1.0 -0.7720147832
O  O10  1  0.13542000  0.44785000  0.56841000  1.0 -0.7720147832
O  O11  1  0.97262000  0.16082000  0.46642000  1.0 -0.8184311659
O  O12  1  0.02738000  0.83918000  0.53358000  1.0 -0.8184311659
O  O13  1  0.18298000  0.98564000  0.41574000  1.0 -0.7720147832
O  O14  1  0.81702000  0.01436000  0.58426000  1.0 -0.7720147832
O  O15  1  0.24413000  0.21673000  0.46051000  1.0 -0.7815684449
O  O16  1  0.75587000  0.78327000  0.53949000  1.0 -0.7815684449
O  O17  1  0.12875000  0.20239000  0.35306000  1.0 -0.7720147832
O  O18  1  0.87125000  0.79761000  0.64694000  1.0 -0.7720147832
O  O19  1  0.13041000  0.47121000  0.44073000  1.0 -0.8184311659
O  O20  1  0.86959000  0.52879000  0.55927000  1.0 -0.8184311659
O  O21  1  0.07531000  0.71675000  0.39866000  1.0 -0.8023629856
O  O22  1  0.92469000  0.28325000  0.60134000  1.0 -0.8023629856
O  O23  1  0.05961000  0.50312000  0.32625000  1.0 -0.7815684449
O  O24  1  0.94039000  0.49688000  0.67375000  1.0 -0.7815684449
O  O25  1  0.06283000  0.29548000  0.22700000  1.0 -0.7720147832
O  O26  1  0.93717000  0.70452000  0.77300000  1.0 -0.7815684449
O  O27  1  0.10324000  0.20563000  0.10805000  1.0 -0.8292662647
O  O28  1  0.89676000  0.79437000  0.89195000  1.0 -0.8292662647
O  O29  1  0.12447000  0.46651000  0.13052000  1.0 -0.7720147832
O  O30  1  0.87553000  0.53349000  0.86948000  1.0 -0.7720147832
O  O31  1  0.34260000  0.34993000  0.26603000  1.0 -0.7901037704
O  O32  1  0.65740000  0.65007000  0.73397000  1.0 -0.7901037704
O  O33  1  0.53691000  0.53211000  0.26168000  1.0 -0.6508233916
O  O34  1  0.46309000  0.46789000  0.73832000  1.0 -0.6508233916
O  O35  1  0.34639000  0.54766000  0.18261000  1.0 -0.7901037704
O  O36  1  0.65361000  0.45234000  0.81739000  1.0 -0.7901037704
O  O37  1  0.55447000  0.35158000  0.16692000  1.0 -0.7815684449
O  O38  1  0.44553000  0.64842000  0.83308000  1.0 -0.7815684449
O  O39  1  0.46103000  0.66467000  0.06977000  1.0 -0.7644784522
O  O40  1  0.53897000  0.33533000  0.93023000  1.0 -0.7644784522
O  O41  1  0.62867000  0.57892000  0.95937000  1.0 -0.8292662647
O  O42  1  0.37133000  0.42108000  0.04063000  1.0 -0.8292662647
O  O43  1  0.68804000  0.78828000  0.02267000  1.0 -0.7720147832
O  O44  1  0.31196000  0.21172000  0.97733000  1.0 -0.7720147832
O  O45  1  0.71681000  0.54470000  0.07244000  1.0 -0.8292662647
O  O46  1  0.28319000  0.45530000  0.92756000  1.0 -0.8292662647
O  O47  1  0.87390000  0.36598000  0.15522000  1.0 -0.7815684449
O  O48  1  0.12610000  0.63402000  0.84478000  1.0 -0.7815684449
O  O49  1  0.75521000  0.24397000  0.04847000  1.0 -0.8184311659
O  O50  1  0.24479000  0.75603000  0.95153000  1.0 -0.8184311659
O  O51  1  0.78359000  0.04562000  0.96464000  1.0 -0.7720147832
O  O52  1  0.21641000  0.95438000  0.03536000  1.0 -0.7720147832
O  O53  1  0.82603000  0.29360000  0.92193000  1.0 -0.7404222857
O  O54  1  0.17397000  0.70640000  0.07807000  1.0 -0.7404222857
O  O55  1  0.01205000  0.16439000  0.98158000  1.0 -0.8292662647
O  O56  1  0.98795000  0.83561000  0.01842000  1.0 -0.8292662647
