# DDEC6 charges by PACMAN v1.1 (https://github.com/mtap-research/PACMAN-charge/)
data_IWAYAG_ion_pacman
_symmetry_space_group_name_H-M   'P 1'
_cell_length_a   12.83220000
_cell_length_b   12.83220000
_cell_length_c   12.83220000
_cell_angle_alpha   109.47100000
_cell_angle_beta   109.47100000
_cell_angle_gamma   109.47100000
_symmetry_Int_Tables_number   1
_chemical_formula_structural   K3Ca3H24C10(N4O7)3
_chemical_formula_sum   'K6 Ca6 H48 C20 N24 O42'
_cell_volume   1626.61591174
_cell_formula_units_Z   2
loop_
 _symmetry_equiv_pos_site_id
 _symmetry_equiv_pos_as_xyz
  1  'x, y, z'
loop_
 _atom_site_type_symbol
 _atom_site_label
 _atom_site_symmetry_multiplicity
 _atom_site_fract_x
 _atom_site_fract_y
 _atom_site_fract_z
 _atom_site_occupancy
 _atom_site_charge
K  K1  1  0.43750000  0.43750000  0.00000000  1.0 0.5555275078
K  K2  1  0.00000000  0.43750000  0.43750000  1.0 0.5555275078
K  K3  1  0.43750000  0.00000000  0.43750000  1.0 0.5555275078
K  K4  1  0.56250000  0.56250000  0.00000000  1.0 0.5555275078
K  K5  1  0.56250000  0.00000000  0.56250000  1.0 0.5555275078
K  K6  1  0.00000000  0.56250000  0.56250000  1.0 0.5555275078
Ca  Ca1  1  0.50000000  0.75000000  0.25000000  1.0 1.2913700536
Ca  Ca2  1  0.25000000  0.50000000  0.75000000  1.0 1.2913700536
Ca  Ca3  1  0.75000000  0.25000000  0.50000000  1.0 1.2913700536
Ca  Ca4  1  0.75000000  0.50000000  0.25000000  1.0 1.2913700536
Ca  Ca5  1  0.50000000  0.25000000  0.75000000  1.0 1.2913700536
Ca  Ca6  1  0.25000000  0.75000000  0.50000000  1.0 1.2913700536
H  H1  1  0.56400000  0.63370000  0.74570000  1.0 0.3264996305
H  H2  1  0.74570000  0.56400000  0.63370000  1.0 0.3264996305
H  H3  1  0.63370000  0.74570000  0.56400000  1.0 0.3264996305
H  H4  1  0.63370000  0.56400000  0.74570000  1.0 0.3264996305
H  H5  1  0.56400000  0.74570000  0.63370000  1.0 0.3264996305
H  H6  1  0.74570000  0.63370000  0.56400000  1.0 0.3264996305
H  H7  1  0.56400000  0.93030000  0.81830000  1.0 0.3264996305
H  H8  1  0.74570000  0.18170000  0.11200000  1.0 0.3264996305
H  H9  1  0.63370000  0.88800000  0.06970000  1.0 0.3264996305
H  H10  1  0.63370000  0.06970000  0.88800000  1.0 0.3264996305
H  H11  1  0.56400000  0.81830000  0.93030000  1.0 0.3264996305
H  H12  1  0.74570000  0.11200000  0.18170000  1.0 0.3264996305
H  H13  1  0.36630000  0.43600000  0.25430000  1.0 0.3264996305
H  H14  1  0.43600000  0.25430000  0.36630000  1.0 0.3264996305
H  H15  1  0.25430000  0.36630000  0.43600000  1.0 0.3264996305
H  H16  1  0.43600000  0.36630000  0.25430000  1.0 0.3264996305
H  H17  1  0.25430000  0.43600000  0.36630000  1.0 0.3264996305
H  H18  1  0.36630000  0.25430000  0.43600000  1.0 0.3264996305
H  H19  1  0.18170000  0.11200000  0.74570000  1.0 0.3264996305
H  H20  1  0.93030000  0.81830000  0.56400000  1.0 0.3264996305
H  H21  1  0.88800000  0.06970000  0.63370000  1.0 0.3264996305
H  H22  1  0.06970000  0.88800000  0.63370000  1.0 0.3264996305
H  H23  1  0.11200000  0.18170000  0.74570000  1.0 0.3264996305
H  H24  1  0.81830000  0.93030000  0.56400000  1.0 0.3264996305
H  H25  1  0.81830000  0.56400000  0.93030000  1.0 0.3264996305
H  H26  1  0.11200000  0.74570000  0.18170000  1.0 0.3264996305
H  H27  1  0.06970000  0.63370000  0.88800000  1.0 0.3264996305
H  H28  1  0.88800000  0.63370000  0.06970000  1.0 0.3264996305
H  H29  1  0.93030000  0.56400000  0.81830000  1.0 0.3264996305
H  H30  1  0.18170000  0.74570000  0.11200000  1.0 0.3264996305
H  H31  1  0.36630000  0.93030000  0.11200000  1.0 0.3264996305
H  H32  1  0.43600000  0.18170000  0.06970000  1.0 0.3264996305
H  H33  1  0.25430000  0.88800000  0.81830000  1.0 0.3264996305
H  H34  1  0.43600000  0.06970000  0.18170000  1.0 0.3264996305
H  H35  1  0.25430000  0.81830000  0.88800000  1.0 0.3264996305
H  H36  1  0.36630000  0.11200000  0.93030000  1.0 0.3264996305
H  H37  1  0.93030000  0.11200000  0.36630000  1.0 0.3264996305
H  H38  1  0.88800000  0.81830000  0.25430000  1.0 0.3264996305
H  H39  1  0.18170000  0.06970000  0.43600000  1.0 0.3264996305
H  H40  1  0.81830000  0.88800000  0.25430000  1.0 0.3264996305
H  H41  1  0.06970000  0.18170000  0.43600000  1.0 0.3264996305
H  H42  1  0.11200000  0.93030000  0.36630000  1.0 0.3264996305
H  H43  1  0.11200000  0.36630000  0.93030000  1.0 0.3264996305
H  H44  1  0.06970000  0.43600000  0.18170000  1.0 0.3264996305
H  H45  1  0.81830000  0.25430000  0.88800000  1.0 0.3264996305
H  H46  1  0.18170000  0.43600000  0.06970000  1.0 0.3264996305
H  H47  1  0.88800000  0.25430000  0.81830000  1.0 0.3264996305
H  H48  1  0.93030000  0.36630000  0.11200000  1.0 0.3264996305
C  C1  1  0.31900000  0.63800000  0.31900000  1.0 0.806984146
C  C2  1  0.31900000  0.31900000  0.63800000  1.0 0.806984146
C  C3  1  0.63800000  0.31900000  0.31900000  1.0 0.806984146
C  C4  1  0.00000000  0.68100000  0.31900000  1.0 0.806984146
C  C5  1  0.00000000  0.31900000  0.68100000  1.0 0.806984146
C  C6  1  0.31900000  0.68100000  0.00000000  1.0 0.806984146
C  C7  1  0.68100000  0.31900000  0.00000000  1.0 0.806984146
C  C8  1  0.68100000  0.00000000  0.31900000  1.0 0.806984146
C  C9  1  0.31900000  0.00000000  0.68100000  1.0 0.806984146
C  C10  1  0.68100000  0.36200000  0.68100000  1.0 0.806984146
C  C11  1  0.68100000  0.68100000  0.36200000  1.0 0.806984146
C  C12  1  0.36200000  0.68100000  0.68100000  1.0 0.806984146
C  C13  1  0.63960000  0.63960000  0.63960000  1.0 0.6775041715
C  C14  1  0.63960000  0.00000000  0.00000000  1.0 0.6775041715
C  C15  1  0.36040000  0.36040000  0.36040000  1.0 0.6775041715
C  C16  1  0.00000000  0.00000000  0.63960000  1.0 0.6775041715
C  C17  1  0.00000000  0.63960000  0.00000000  1.0 0.6775041715
C  C18  1  0.36040000  0.00000000  0.00000000  1.0 0.6775041715
C  C19  1  0.00000000  0.00000000  0.36040000  1.0 0.6775041715
C  C20  1  0.00000000  0.36040000  0.00000000  1.0 0.6775041715
N  N1  1  0.60550000  0.60550000  0.71500000  1.0 -0.6245899887
N  N2  1  0.71500000  0.60550000  0.60550000  1.0 -0.6245899887
N  N3  1  0.60550000  0.71500000  0.60550000  1.0 -0.6245899887
N  N4  1  0.60550000  0.00000000  0.89050000  1.0 -0.6245899887
N  N5  1  0.71500000  0.10950000  0.10950000  1.0 -0.6245899887
N  N6  1  0.60550000  0.89050000  0.00000000  1.0 -0.6245899887
N  N7  1  0.39450000  0.39450000  0.28500000  1.0 -0.6245899887
N  N8  1  0.39450000  0.28500000  0.39450000  1.0 -0.6245899887
N  N9  1  0.28500000  0.39450000  0.39450000  1.0 -0.6245899887
N  N10  1  0.10950000  0.10950000  0.71500000  1.0 -0.6245899887
N  N11  1  0.00000000  0.89050000  0.60550000  1.0 -0.6254360482
N  N12  1  0.89050000  0.00000000  0.60550000  1.0 -0.6245899887
N  N13  1  0.89050000  0.60550000  0.00000000  1.0 -0.6245899887
N  N14  1  0.10950000  0.71500000  0.10950000  1.0 -0.6245899887
N  N15  1  0.00000000  0.60550000  0.89050000  1.0 -0.6245899887
N  N16  1  0.39450000  0.00000000  0.10950000  1.0 -0.6245899887
N  N17  1  0.39450000  0.10950000  0.00000000  1.0 -0.6245899887
N  N18  1  0.28500000  0.89050000  0.89050000  1.0 -0.6245899887
N  N19  1  0.00000000  0.10950000  0.39450000  1.0 -0.6245899887
N  N20  1  0.89050000  0.89050000  0.28500000  1.0 -0.6245899887
N  N21  1  0.10950000  0.00000000  0.39450000  1.0 -0.6245899887
N  N22  1  0.10950000  0.39450000  0.00000000  1.0 -0.6245899887
N  N23  1  0.00000000  0.39450000  0.10950000  1.0 -0.6245899887
N  N24  1  0.89050000  0.28500000  0.89050000  1.0 -0.6245899887
O  O1  1  0.36100000  0.36100000  0.00000000  1.0 -0.3535753642
O  O2  1  0.00000000  0.36100000  0.36100000  1.0 -0.3535753642
O  O3  1  0.36100000  0.00000000  0.36100000  1.0 -0.3535753642
O  O4  1  0.63900000  0.63900000  0.00000000  1.0 -0.3535753642
O  O5  1  0.63900000  0.00000000  0.63900000  1.0 -0.3535753642
O  O6  1  0.00000000  0.63900000  0.63900000  1.0 -0.3535753642
O  O7  1  0.34220000  0.57780000  0.23560000  1.0 -0.6732672408
O  O8  1  0.23560000  0.34220000  0.57780000  1.0 -0.6732672408
O  O9  1  0.57780000  0.23560000  0.34220000  1.0 -0.6732672408
O  O10  1  0.89340000  0.65780000  0.23560000  1.0 -0.6732672408
O  O11  1  0.10660000  0.34220000  0.76440000  1.0 -0.6732672408
O  O12  1  0.57780000  0.34220000  0.23560000  1.0 -0.6732672408
O  O13  1  0.34220000  0.23560000  0.57780000  1.0 -0.6732672408
O  O14  1  0.34220000  0.76440000  0.10660000  1.0 -0.6732672408
O  O15  1  0.65780000  0.23560000  0.89340000  1.0 -0.6732672408
O  O16  1  0.76440000  0.10660000  0.34220000  1.0 -0.6732672408
O  O17  1  0.23560000  0.57780000  0.34220000  1.0 -0.6732672408
O  O18  1  0.23560000  0.89340000  0.65780000  1.0 -0.6732672408
O  O19  1  0.34220000  0.10660000  0.76440000  1.0 -0.6732672408
O  O20  1  0.65780000  0.42220000  0.76440000  1.0 -0.6732672408
O  O21  1  0.65780000  0.89340000  0.23560000  1.0 -0.6732672408
O  O22  1  0.76440000  0.34220000  0.10660000  1.0 -0.6732672408
O  O23  1  0.76440000  0.65780000  0.42220000  1.0 -0.6732672408
O  O24  1  0.23560000  0.65780000  0.89340000  1.0 -0.6732672408
O  O25  1  0.10660000  0.76440000  0.34220000  1.0 -0.6732672408
O  O26  1  0.42220000  0.76440000  0.65780000  1.0 -0.6732672408
O  O27  1  0.89340000  0.23560000  0.65780000  1.0 -0.6732672408
O  O28  1  0.42220000  0.65780000  0.76440000  1.0 -0.6732672408
O  O29  1  0.65780000  0.76440000  0.42220000  1.0 -0.6732672408
O  O30  1  0.76440000  0.42220000  0.65780000  1.0 -0.6732672408
O  O31  1  0.38030000  0.76060000  0.38030000  1.0 -0.7155282502
O  O32  1  0.38030000  0.38030000  0.76060000  1.0 -0.7155282502
O  O33  1  0.76060000  0.38030000  0.38030000  1.0 -0.7155282502
O  O34  1  0.00000000  0.61970000  0.38030000  1.0 -0.7155282502
O  O35  1  0.00000000  0.38030000  0.61970000  1.0 -0.7155282502
O  O36  1  0.38030000  0.61970000  0.00000000  1.0 -0.7155282502
O  O37  1  0.61970000  0.38030000  0.00000000  1.0 -0.7155282502
O  O38  1  0.61970000  0.00000000  0.38030000  1.0 -0.7155282502
O  O39  1  0.38030000  0.00000000  0.61970000  1.0 -0.7155282502
O  O40  1  0.61970000  0.23940000  0.61970000  1.0 -0.7155282502
O  O41  1  0.61970000  0.61970000  0.23940000  1.0 -0.7155282502
O  O42  1  0.23940000  0.61970000  0.61970000  1.0 -0.7155282502
