# DDEC6 charges by PACMAN v1.1 (https://github.com/mtap-research/PACMAN-charge/)
data_IWAYEK_ion_pacman
_symmetry_space_group_name_H-M   'P 1'
_cell_length_a   12.61470000
_cell_length_b   12.61470000
_cell_length_c   12.61470000
_cell_angle_alpha   109.47100000
_cell_angle_beta   109.47100000
_cell_angle_gamma   109.47100000
_symmetry_Int_Tables_number   1
_chemical_formula_structural   Na3Mn6H48C20(N4O7)6
_chemical_formula_sum   'Na3 Mn6 H48 C20 N24 O42'
_cell_volume   1545.29869164
_cell_formula_units_Z   1
loop_
 _symmetry_equiv_pos_site_id
 _symmetry_equiv_pos_as_xyz
  1  'x, y, z'
loop_
 _atom_site_type_symbol
 _atom_site_label
 _atom_site_symmetry_multiplicity
 _atom_site_fract_x
 _atom_site_fract_y
 _atom_site_fract_z
 _atom_site_occupancy
 _atom_site_charge
Na  Na1  1  0.50000000  0.00000000  0.50000000  1.0 0.9362384627
Na  Na2  1  0.50000000  0.50000000  0.00000000  1.0 0.9328347693
Na  Na3  1  0.00000000  0.50000000  0.50000000  1.0 0.9328347693
Mn  Mn1  1  0.75000000  0.25000000  0.50000000  1.0 0.9701784998
Mn  Mn2  1  0.50000000  0.75000000  0.25000000  1.0 0.9701784998
Mn  Mn3  1  0.25000000  0.50000000  0.75000000  1.0 0.9701784998
Mn  Mn4  1  0.25000000  0.75000000  0.50000000  1.0 0.9701784998
Mn  Mn5  1  0.75000000  0.50000000  0.25000000  1.0 0.9701784998
Mn  Mn6  1  0.50000000  0.25000000  0.75000000  1.0 0.9701784998
H  H1  1  0.74600000  0.56000000  0.62200000  1.0 0.2703073676
H  H2  1  0.62200000  0.74600000  0.56000000  1.0 0.2703073676
H  H3  1  0.56000000  0.62200000  0.74600000  1.0 0.2703073676
H  H4  1  0.56000000  0.74600000  0.62200000  1.0 0.2703073676
H  H5  1  0.74600000  0.62200000  0.56000000  1.0 0.2703073676
H  H6  1  0.62200000  0.56000000  0.74600000  1.0 0.2703073676
H  H7  1  0.93800000  0.81400000  0.56000000  1.0 0.2703073676
H  H8  1  0.18600000  0.12400000  0.74600000  1.0 0.2703073676
H  H9  1  0.87600000  0.06200000  0.62200000  1.0 0.2703073676
H  H10  1  0.06200000  0.87600000  0.62200000  1.0 0.2703073676
H  H11  1  0.81400000  0.93800000  0.56000000  1.0 0.2703073676
H  H12  1  0.12400000  0.18600000  0.74600000  1.0 0.2703073676
H  H13  1  0.12400000  0.74600000  0.18600000  1.0 0.2703073676
H  H14  1  0.81400000  0.56000000  0.93800000  1.0 0.2703073676
H  H15  1  0.06200000  0.62200000  0.87600000  1.0 0.2703073676
H  H16  1  0.87600000  0.62200000  0.06200000  1.0 0.2703073676
H  H17  1  0.93800000  0.56000000  0.81400000  1.0 0.2703073676
H  H18  1  0.18600000  0.74600000  0.12400000  1.0 0.2703073676
H  H19  1  0.56000000  0.93800000  0.81400000  1.0 0.2703073676
H  H20  1  0.74600000  0.18600000  0.12400000  1.0 0.2703073676
H  H21  1  0.62200000  0.87600000  0.06200000  1.0 0.2703073676
H  H22  1  0.62200000  0.06200000  0.87600000  1.0 0.2703073676
H  H23  1  0.74600000  0.12400000  0.18600000  1.0 0.2703073676
H  H24  1  0.56000000  0.81400000  0.93800000  1.0 0.2703073676
H  H25  1  0.44000000  0.25400000  0.37800000  1.0 0.2703073676
H  H26  1  0.25400000  0.37800000  0.44000000  1.0 0.2703073676
H  H27  1  0.37800000  0.44000000  0.25400000  1.0 0.2703073676
H  H28  1  0.25400000  0.44000000  0.37800000  1.0 0.2703073676
H  H29  1  0.37800000  0.25400000  0.44000000  1.0 0.2703073676
H  H30  1  0.44000000  0.37800000  0.25400000  1.0 0.2703073676
H  H31  1  0.12400000  0.37800000  0.93800000  1.0 0.2703073676
H  H32  1  0.06200000  0.44000000  0.18600000  1.0 0.2703073676
H  H33  1  0.81400000  0.25400000  0.87600000  1.0 0.2703073676
H  H34  1  0.87600000  0.25400000  0.81400000  1.0 0.2703073676
H  H35  1  0.18600000  0.44000000  0.06200000  1.0 0.2703073676
H  H36  1  0.93800000  0.37800000  0.12400000  1.0 0.2703073676
H  H37  1  0.37800000  0.93800000  0.12400000  1.0 0.2703073676
H  H38  1  0.25400000  0.87600000  0.81400000  1.0 0.2703073676
H  H39  1  0.44000000  0.18600000  0.06200000  1.0 0.2703073676
H  H40  1  0.44000000  0.06200000  0.18600000  1.0 0.2703073676
H  H41  1  0.25400000  0.81400000  0.87600000  1.0 0.2703073676
H  H42  1  0.37800000  0.12400000  0.93800000  1.0 0.2703073676
H  H43  1  0.93800000  0.12400000  0.37800000  1.0 0.2703073676
H  H44  1  0.18600000  0.06200000  0.44000000  1.0 0.2703073676
H  H45  1  0.87600000  0.81400000  0.25400000  1.0 0.2703073676
H  H46  1  0.06200000  0.18600000  0.44000000  1.0 0.2703073676
H  H47  1  0.81400000  0.87600000  0.25400000  1.0 0.2703073676
H  H48  1  0.12400000  0.93800000  0.37800000  1.0 0.2703073676
C  C1  1  0.67300000  0.00000000  0.32700000  1.0 0.796456034
C  C2  1  0.32700000  0.67300000  0.00000000  1.0 0.796456034
C  C3  1  0.00000000  0.32700000  0.67300000  1.0 0.796456034
C  C4  1  0.65400000  0.32700000  0.32700000  1.0 0.796456034
C  C5  1  0.34600000  0.67300000  0.67300000  1.0 0.796456034
C  C6  1  0.00000000  0.67300000  0.32700000  1.0 0.796456034
C  C7  1  0.67300000  0.32700000  0.00000000  1.0 0.796456034
C  C8  1  0.67300000  0.67300000  0.34600000  1.0 0.796456034
C  C9  1  0.32700000  0.32700000  0.65400000  1.0 0.796456034
C  C10  1  0.67300000  0.34600000  0.67300000  1.0 0.796456034
C  C11  1  0.32700000  0.00000000  0.67300000  1.0 0.796456034
C  C12  1  0.32700000  0.65400000  0.32700000  1.0 0.796456034
C  C13  1  0.63440000  0.63440000  0.63440000  1.0 0.6407005513
C  C14  1  0.00000000  0.00000000  0.63440000  1.0 0.6407005513
C  C15  1  0.00000000  0.63440000  0.00000000  1.0 0.6407005513
C  C16  1  0.63440000  0.00000000  0.00000000  1.0 0.6407005513
C  C17  1  0.36560000  0.36560000  0.36560000  1.0 0.6407005513
C  C18  1  0.00000000  0.36560000  0.00000000  1.0 0.6407005513
C  C19  1  0.36560000  0.00000000  0.00000000  1.0 0.6407005513
C  C20  1  0.00000000  0.00000000  0.36560000  1.0 0.6407005513
N  N1  1  0.71040000  0.59840000  0.59840000  1.0 -0.5330980545
N  N2  1  0.59840000  0.71040000  0.59840000  1.0 -0.5330980545
N  N3  1  0.59840000  0.59840000  0.71040000  1.0 -0.5330980545
N  N4  1  0.00000000  0.88800000  0.59840000  1.0 -0.5330980545
N  N5  1  0.11200000  0.11200000  0.71040000  1.0 -0.5330980545
N  N6  1  0.88800000  0.00000000  0.59840000  1.0 -0.5330980545
N  N7  1  0.11200000  0.71040000  0.11200000  1.0 -0.5330980545
N  N8  1  0.88800000  0.59840000  0.00000000  1.0 -0.5330980545
N  N9  1  0.00000000  0.59840000  0.88800000  1.0 -0.5330980545
N  N10  1  0.59840000  0.00000000  0.88800000  1.0 -0.5330980545
N  N11  1  0.71040000  0.11200000  0.11200000  1.0 -0.5330980545
N  N12  1  0.59840000  0.88800000  0.00000000  1.0 -0.5330980545
N  N13  1  0.40160000  0.28960000  0.40160000  1.0 -0.5330980545
N  N14  1  0.28960000  0.40160000  0.40160000  1.0 -0.5330980545
N  N15  1  0.40160000  0.40160000  0.28960000  1.0 -0.5330980545
N  N16  1  0.11200000  0.40160000  0.00000000  1.0 -0.5330980545
N  N17  1  0.00000000  0.40160000  0.11200000  1.0 -0.5330980545
N  N18  1  0.88800000  0.28960000  0.88800000  1.0 -0.5330980545
N  N19  1  0.40160000  0.00000000  0.11200000  1.0 -0.5330980545
N  N20  1  0.28960000  0.88800000  0.88800000  1.0 -0.5330980545
N  N21  1  0.40160000  0.11200000  0.00000000  1.0 -0.5330980545
N  N22  1  0.00000000  0.11200000  0.40160000  1.0 -0.5330980545
N  N23  1  0.11200000  0.00000000  0.40160000  1.0 -0.5330980545
N  N24  1  0.88800000  0.88800000  0.28960000  1.0 -0.5330980545
O  O1  1  0.75820000  0.10880000  0.35060000  1.0 -0.5775084694
O  O2  1  0.35060000  0.75820000  0.10880000  1.0 -0.5775084694
O  O3  1  0.10880000  0.35060000  0.75820000  1.0 -0.5775084694
O  O4  1  0.59240000  0.24180000  0.35060000  1.0 -0.5775084694
O  O5  1  0.40760000  0.75820000  0.64940000  1.0 -0.5775084694
O  O6  1  0.10880000  0.75820000  0.35060000  1.0 -0.5775084694
O  O7  1  0.75820000  0.35060000  0.10880000  1.0 -0.5775084694
O  O8  1  0.75820000  0.64940000  0.40760000  1.0 -0.5775084694
O  O9  1  0.24180000  0.35060000  0.59240000  1.0 -0.5775084694
O  O10  1  0.64940000  0.40760000  0.75820000  1.0 -0.5775084694
O  O11  1  0.35060000  0.10880000  0.75820000  1.0 -0.5775084694
O  O12  1  0.35060000  0.59240000  0.24180000  1.0 -0.5775084694
O  O13  1  0.75820000  0.40760000  0.64940000  1.0 -0.5775084694
O  O14  1  0.24180000  0.89120000  0.64940000  1.0 -0.5775084694
O  O15  1  0.24180000  0.59240000  0.35060000  1.0 -0.5775084694
O  O16  1  0.64940000  0.75820000  0.40760000  1.0 -0.5775084694
O  O17  1  0.64940000  0.24180000  0.89120000  1.0 -0.5775084694
O  O18  1  0.35060000  0.24180000  0.59240000  1.0 -0.5775084694
O  O19  1  0.40760000  0.64940000  0.75820000  1.0 -0.5775084694
O  O20  1  0.89120000  0.64940000  0.24180000  1.0 -0.5775084694
O  O21  1  0.59240000  0.35060000  0.24180000  1.0 -0.5775084694
O  O22  1  0.89120000  0.24180000  0.64940000  1.0 -0.5775084694
O  O23  1  0.24180000  0.64940000  0.89120000  1.0 -0.5775084694
O  O24  1  0.64940000  0.89120000  0.24180000  1.0 -0.5775084694
O  O25  1  0.61080000  0.00000000  0.38920000  1.0 -0.6228155543
O  O26  1  0.38920000  0.61080000  0.00000000  1.0 -0.6228155543
O  O27  1  0.00000000  0.38920000  0.61080000  1.0 -0.6228155543
O  O28  1  0.77840000  0.38920000  0.38920000  1.0 -0.6228155543
O  O29  1  0.22160000  0.61080000  0.61080000  1.0 -0.6228155543
O  O30  1  0.00000000  0.61080000  0.38920000  1.0 -0.6228155543
O  O31  1  0.61080000  0.38920000  0.00000000  1.0 -0.6228155543
O  O32  1  0.61080000  0.61080000  0.22160000  1.0 -0.6228155543
O  O33  1  0.38920000  0.38920000  0.77840000  1.0 -0.6228155543
O  O34  1  0.61080000  0.22160000  0.61080000  1.0 -0.6228155543
O  O35  1  0.38920000  0.00000000  0.61080000  1.0 -0.6228155543
O  O36  1  0.38920000  0.77840000  0.38920000  1.0 -0.6228155543
O  O37  1  0.35300000  0.00000000  0.35300000  1.0 -0.3587443729
O  O38  1  0.35300000  0.35300000  0.00000000  1.0 -0.3587443729
O  O39  1  0.00000000  0.35300000  0.35300000  1.0 -0.3587443729
O  O40  1  0.00000000  0.64700000  0.64700000  1.0 -0.3587443729
O  O41  1  0.64700000  0.64700000  0.00000000  1.0 -0.3587443729
O  O42  1  0.64700000  0.00000000  0.64700000  1.0 -0.3587443729
