# DDEC6 charges by PACMAN v1.1 (https://github.com/mtap-research/PACMAN-charge/)
data_IWEVAJ_ASR_pacman
_symmetry_space_group_name_H-M   'P 1'
_cell_length_a   29.08120000
_cell_length_b   29.08120000
_cell_length_c   29.08120000
_cell_angle_alpha   126.41600000
_cell_angle_beta   126.41600000
_cell_angle_gamma   79.20590000
_symmetry_Int_Tables_number   1
_chemical_formula_structural   Cu7C48(NO4)6
_chemical_formula_sum   'Cu28 C192 N24 O96'
_cell_volume   15400.52914492
_cell_formula_units_Z   4
loop_
 _symmetry_equiv_pos_site_id
 _symmetry_equiv_pos_as_xyz
  1  'x, y, z'
loop_
 _atom_site_type_symbol
 _atom_site_label
 _atom_site_symmetry_multiplicity
 _atom_site_fract_x
 _atom_site_fract_y
 _atom_site_fract_z
 _atom_site_occupancy
 _atom_site_charge
Cu  Cu1  1  0.71324000  0.71324000  0.42648000  1.0 0.8881422231
Cu  Cu2  1  0.71324000  0.28676000  0.00000000  1.0 0.8881422231
Cu  Cu3  1  0.28676000  0.71324000  0.00000000  1.0 0.8881422231
Cu  Cu4  1  0.28676000  0.28676000  0.57352000  1.0 0.8881422231
Cu  Cu5  1  0.78471000  0.78471000  0.56942000  1.0 0.8881422231
Cu  Cu6  1  0.78471000  0.21529000  0.00000000  1.0 0.8881422231
Cu  Cu7  1  0.21529000  0.78471000  0.00000000  1.0 0.8881422231
Cu  Cu8  1  0.21529000  0.21529000  0.43058000  1.0 0.8881422231
Cu  Cu9  1  0.87413000  0.65868000  0.78455000  1.0 0.8617787841
Cu  Cu10  1  0.65868000  0.87413000  0.78455000  1.0 0.8617787841
Cu  Cu11  1  0.08958000  0.87413000  0.21545000  1.0 0.8617787841
Cu  Cu12  1  0.12587000  0.91042000  0.78455000  1.0 0.8617787841
Cu  Cu13  1  0.12587000  0.34132000  0.21545000  1.0 0.8617787841
Cu  Cu14  1  0.87413000  0.08958000  0.21545000  1.0 0.8617787841
Cu  Cu15  1  0.91042000  0.12587000  0.78455000  1.0 0.8617787841
Cu  Cu16  1  0.34132000  0.12587000  0.21545000  1.0 0.8617787841
Cu  Cu17  1  0.83255000  0.54568000  0.71313000  1.0 0.8683936291
Cu  Cu18  1  0.54568000  0.83255000  0.71313000  1.0 0.8617787841
Cu  Cu19  1  0.11942000  0.83255000  0.28687000  1.0 0.8683936291
Cu  Cu20  1  0.16745000  0.88058000  0.71313000  1.0 0.8683936291
Cu  Cu21  1  0.16745000  0.45432000  0.28687000  1.0 0.8683936291
Cu  Cu22  1  0.83255000  0.11942000  0.28687000  1.0 0.8683936291
Cu  Cu23  1  0.88058000  0.16745000  0.71313000  1.0 0.8683936291
Cu  Cu24  1  0.45432000  0.16745000  0.28687000  1.0 0.8683936291
Cu  Cu25  1  0.50000000  0.50000000  0.50000000  1.0 0.7822139809
Cu  Cu26  1  0.50000000  0.00000000  0.00000000  1.0 0.7978185961
Cu  Cu27  1  0.00000000  0.50000000  0.00000000  1.0 0.7933137963
Cu  Cu28  1  0.00000000  0.00000000  0.50000000  1.0 0.7822139809
C  C1  1  0.81190000  0.58420000  0.63570000  1.0 0.6004466625
C  C2  1  0.58420000  0.94850000  0.77230000  1.0 0.6004466625
C  C3  1  0.17620000  0.81190000  0.22770000  1.0 0.6004466625
C  C4  1  0.18810000  0.82380000  0.77230000  1.0 0.6004466625
C  C5  1  0.05150000  0.41580000  0.22770000  1.0 0.6004466625
C  C6  1  0.94850000  0.17620000  0.36430000  1.0 0.6004466625
C  C7  1  0.82380000  0.05150000  0.63570000  1.0 0.6004466625
C  C8  1  0.41580000  0.18810000  0.36430000  1.0 0.6004466625
C  C9  1  0.18810000  0.41580000  0.36430000  1.0 0.6004466625
C  C10  1  0.41580000  0.05150000  0.22770000  1.0 0.6004466625
C  C11  1  0.82380000  0.18810000  0.77230000  1.0 0.6004466625
C  C12  1  0.81190000  0.17620000  0.22770000  1.0 0.6004466625
C  C13  1  0.94850000  0.58420000  0.77230000  1.0 0.6004466625
C  C14  1  0.05150000  0.82380000  0.63570000  1.0 0.6004466625
C  C15  1  0.17620000  0.94850000  0.36430000  1.0 0.6004466625
C  C16  1  0.58420000  0.81190000  0.63570000  1.0 0.6004466625
C  C17  1  0.75569000  0.66349000  0.49880000  1.0 0.6157920353
C  C18  1  0.66349000  0.16469000  0.90780000  1.0 0.6157920353
C  C19  1  0.25689000  0.75569000  0.09220000  1.0 0.6157920353
C  C20  1  0.24431000  0.74311000  0.90780000  1.0 0.6157920353
C  C21  1  0.83531000  0.33651000  0.09220000  1.0 0.6157920353
C  C22  1  0.16469000  0.25689000  0.50120000  1.0 0.6157920353
C  C23  1  0.74311000  0.83531000  0.49880000  1.0 0.6090731968
C  C24  1  0.33651000  0.24431000  0.50120000  1.0 0.6157920353
C  C25  1  0.24431000  0.33651000  0.50120000  1.0 0.6157920353
C  C26  1  0.33651000  0.83531000  0.09220000  1.0 0.6157920353
C  C27  1  0.74311000  0.24431000  0.90780000  1.0 0.6157920353
C  C28  1  0.75569000  0.25689000  0.09220000  1.0 0.6090731968
C  C29  1  0.16469000  0.66349000  0.90780000  1.0 0.6157920353
C  C30  1  0.83531000  0.74311000  0.49880000  1.0 0.6157920353
C  C31  1  0.25689000  0.16469000  0.50120000  1.0 0.6157920353
C  C32  1  0.66349000  0.75569000  0.49880000  1.0 0.6157920353
C  C33  1  0.68930000  0.68930000  0.72860000  1.0 0.1287401492
C  C34  1  0.68930000  0.96070000  0.00000000  1.0 0.1287401492
C  C35  1  0.96070000  0.68930000  0.00000000  1.0 0.1287401492
C  C36  1  0.31070000  0.03930000  0.00000000  1.0 0.1287401492
C  C37  1  0.03930000  0.31070000  0.00000000  1.0 0.1287401492
C  C38  1  0.96070000  0.96070000  0.27140000  1.0 0.1287401492
C  C39  1  0.03930000  0.03930000  0.72860000  1.0 0.1242509136
C  C40  1  0.31070000  0.31070000  0.27140000  1.0 0.1242509136
C  C41  1  0.75763000  0.62053000  0.72450000  1.0 0.6090731968
C  C42  1  0.62053000  0.89603000  0.86290000  1.0 0.6090731968
C  C43  1  0.03313000  0.75763000  0.13710000  1.0 0.6090731968
C  C44  1  0.24237000  0.96687000  0.86290000  1.0 0.6090731968
C  C45  1  0.10397000  0.37947000  0.13710000  1.0 0.6090731968
C  C46  1  0.89603000  0.03313000  0.27550000  1.0 0.6090731968
C  C47  1  0.96687000  0.10397000  0.72450000  1.0 0.6090731968
C  C48  1  0.37947000  0.24237000  0.27550000  1.0 0.6090731968
C  C49  1  0.24237000  0.37947000  0.27550000  1.0 0.6090731968
C  C50  1  0.37947000  0.10397000  0.13710000  1.0 0.6090731968
C  C51  1  0.96687000  0.24237000  0.86290000  1.0 0.6090731968
C  C52  1  0.75763000  0.03313000  0.13710000  1.0 0.6090731968
C  C53  1  0.89603000  0.62053000  0.86290000  1.0 0.6090731968
C  C54  1  0.10397000  0.96687000  0.72450000  1.0 0.6090731968
C  C55  1  0.03313000  0.89603000  0.27550000  1.0 0.6090731968
C  C56  1  0.62053000  0.75763000  0.72450000  1.0 0.6090731968
C  C57  1  0.59660000  0.59660000  0.65300000  1.0 0.2199048896
C  C58  1  0.59660000  0.94360000  0.00000000  1.0 0.2364732812
C  C59  1  0.94360000  0.59660000  0.00000000  1.0 0.2364732812
C  C60  1  0.40340000  0.05640000  0.00000000  1.0 0.2364732812
C  C61  1  0.05640000  0.40340000  0.00000000  1.0 0.2364732812
C  C62  1  0.94360000  0.94360000  0.34700000  1.0 0.2364732812
C  C63  1  0.05640000  0.05640000  0.65300000  1.0 0.2257480422
C  C64  1  0.40340000  0.40340000  0.34700000  1.0 0.2199048896
C  C65  1  0.65110000  0.58720000  0.66990000  1.0 -0.0114439589
C  C66  1  0.58720000  0.91730000  0.93610000  1.0 -0.0114439589
C  C67  1  0.98120000  0.65110000  0.06390000  1.0 -0.0203257855
C  C68  1  0.34890000  0.01880000  0.93610000  1.0 -0.0203257855
C  C69  1  0.08270000  0.41280000  0.06390000  1.0 -0.0203257855
C  C70  1  0.91730000  0.98120000  0.33010000  1.0 -0.0203257855
C  C71  1  0.01880000  0.08270000  0.66990000  1.0 -0.0114439589
C  C72  1  0.41280000  0.34890000  0.33010000  1.0 -0.0114439589
C  C73  1  0.34890000  0.41280000  0.33010000  1.0 -0.0114439589
C  C74  1  0.41280000  0.08270000  0.06390000  1.0 -0.0203257855
C  C75  1  0.01880000  0.34890000  0.93610000  1.0 -0.0203257855
C  C76  1  0.65110000  0.98120000  0.06390000  1.0 -0.0203257855
C  C77  1  0.91730000  0.58720000  0.93610000  1.0 -0.0203257855
C  C78  1  0.08270000  0.01880000  0.66990000  1.0 -0.0114439589
C  C79  1  0.98120000  0.91730000  0.33010000  1.0 -0.0203257855
C  C80  1  0.58720000  0.65110000  0.66990000  1.0 -0.0114439589
C  C81  1  0.78825000  0.62295000  0.56750000  1.0 0.1034581711
C  C82  1  0.62295000  0.05545000  0.83470000  1.0 0.1074525263
C  C83  1  0.22075000  0.78825000  0.16530000  1.0 0.1034581711
C  C84  1  0.21175000  0.77925000  0.83470000  1.0 0.1074525263
C  C85  1  0.94455000  0.37705000  0.16530000  1.0 0.1034581711
C  C86  1  0.05545000  0.22075000  0.43250000  1.0 0.1074525263
C  C87  1  0.77925000  0.94455000  0.56750000  1.0 0.1074525263
C  C88  1  0.37705000  0.21175000  0.43250000  1.0 0.1074525263
C  C89  1  0.21175000  0.37705000  0.43250000  1.0 0.1074525263
C  C90  1  0.37705000  0.94455000  0.16530000  1.0 0.1074525263
C  C91  1  0.77925000  0.21175000  0.83470000  1.0 0.1074525263
C  C92  1  0.78825000  0.22075000  0.16530000  1.0 0.1074525263
C  C93  1  0.05545000  0.62295000  0.83470000  1.0 0.1074525263
C  C94  1  0.94455000  0.77925000  0.56750000  1.0 0.1074525263
C  C95  1  0.22075000  0.05545000  0.43250000  1.0 0.1074525263
C  C96  1  0.62295000  0.78825000  0.56750000  1.0 0.1074525263
C  C97  1  0.72610000  0.55310000  0.43280000  1.0 0.0610791971
C  C98  1  0.55310000  0.12030000  0.82700000  1.0 0.0610791971
C  C99  1  0.29330000  0.72610000  0.17300000  1.0 0.0610791971
C  C100  1  0.27390000  0.70670000  0.82700000  1.0 0.0610791971
C  C101  1  0.87970000  0.44690000  0.17300000  1.0 0.0610791971
C  C102  1  0.12030000  0.29330000  0.56720000  1.0 0.0610791971
C  C103  1  0.70670000  0.87970000  0.43280000  1.0 0.0610791971
C  C104  1  0.44690000  0.27390000  0.56720000  1.0 0.0610791971
C  C105  1  0.27390000  0.44690000  0.56720000  1.0 0.0610791971
C  C106  1  0.44690000  0.87970000  0.17300000  1.0 0.049277241
C  C107  1  0.70670000  0.27390000  0.82700000  1.0 0.0610791971
C  C108  1  0.72610000  0.29330000  0.17300000  1.0 0.0610791971
C  C109  1  0.12030000  0.55310000  0.82700000  1.0 0.0610791971
C  C110  1  0.87970000  0.70670000  0.43280000  1.0 0.049277241
C  C111  1  0.29330000  0.12030000  0.56720000  1.0 0.0610791971
C  C112  1  0.55310000  0.72610000  0.43280000  1.0 0.0610791971
C  C113  1  0.78460000  0.57520000  0.56620000  1.0 -0.0978062389
C  C114  1  0.57520000  0.00900000  0.79060000  1.0 -0.0978062389
C  C115  1  0.21840000  0.78460000  0.20940000  1.0 -0.0978062389
C  C116  1  0.21540000  0.78160000  0.79060000  1.0 -0.0933401396
C  C117  1  0.99100000  0.42480000  0.20940000  1.0 -0.0933401396
C  C118  1  0.00900000  0.21840000  0.43380000  1.0 -0.0978062389
C  C119  1  0.78160000  0.99100000  0.56620000  1.0 -0.0978062389
C  C120  1  0.42480000  0.21540000  0.43380000  1.0 -0.0978062389
C  C121  1  0.21540000  0.42480000  0.43380000  1.0 -0.0978062389
C  C122  1  0.42480000  0.99100000  0.20940000  1.0 -0.0933401396
C  C123  1  0.78160000  0.21540000  0.79060000  1.0 -0.0978062389
C  C124  1  0.78460000  0.21840000  0.20940000  1.0 -0.0933401396
C  C125  1  0.00900000  0.57520000  0.79060000  1.0 -0.0978062389
C  C126  1  0.99100000  0.78160000  0.56620000  1.0 -0.0933401396
C  C127  1  0.21840000  0.00900000  0.43380000  1.0 -0.0978062389
C  C128  1  0.57520000  0.78460000  0.56620000  1.0 -0.0978062389
C  C129  1  0.75220000  0.51320000  0.49780000  1.0 0.0707494517
C  C130  1  0.51320000  0.01540000  0.76100000  1.0 0.0707494517
C  C131  1  0.25440000  0.75220000  0.23900000  1.0 0.0707494517
C  C132  1  0.24780000  0.74560000  0.76100000  1.0 0.0707494517
C  C133  1  0.98460000  0.48680000  0.23900000  1.0 0.0707494517
C  C134  1  0.01540000  0.25440000  0.50220000  1.0 0.0707494517
C  C135  1  0.74560000  0.98460000  0.49780000  1.0 0.0707494517
C  C136  1  0.48680000  0.24780000  0.50220000  1.0 0.0707494517
C  C137  1  0.24780000  0.48680000  0.50220000  1.0 0.0707494517
C  C138  1  0.48680000  0.98460000  0.23900000  1.0 0.0610791971
C  C139  1  0.74560000  0.24780000  0.76100000  1.0 0.0707494517
C  C140  1  0.75220000  0.25440000  0.23900000  1.0 0.0707494517
C  C141  1  0.01540000  0.51320000  0.76100000  1.0 0.0707494517
C  C142  1  0.98460000  0.74560000  0.49780000  1.0 0.0707494517
C  C143  1  0.25440000  0.01540000  0.50220000  1.0 0.0707494517
C  C144  1  0.51320000  0.75220000  0.49780000  1.0 0.0707494517
C  C145  1  0.75735000  0.61055000  0.49920000  1.0 -0.1081830813
C  C146  1  0.61055000  0.11135000  0.85320000  1.0 -0.1081830813
C  C147  1  0.25815000  0.75735000  0.14680000  1.0 -0.1081830813
C  C148  1  0.24265000  0.74185000  0.85320000  1.0 -0.1081830813
C  C149  1  0.88865000  0.38945000  0.14680000  1.0 -0.1081830813
C  C150  1  0.11135000  0.25815000  0.50080000  1.0 -0.1081830813
C  C151  1  0.74185000  0.88865000  0.49920000  1.0 -0.1081830813
C  C152  1  0.38945000  0.24265000  0.50080000  1.0 -0.1081830813
C  C153  1  0.24265000  0.38945000  0.50080000  1.0 -0.1081830813
C  C154  1  0.38945000  0.88865000  0.14680000  1.0 -0.0978062389
C  C155  1  0.74185000  0.24265000  0.85320000  1.0 -0.1081830813
C  C156  1  0.75735000  0.25815000  0.14680000  1.0 -0.1081830813
C  C157  1  0.11135000  0.61055000  0.85320000  1.0 -0.1081830813
C  C158  1  0.88865000  0.74185000  0.49920000  1.0 -0.0978062389
C  C159  1  0.25815000  0.11135000  0.50080000  1.0 -0.1081830813
C  C160  1  0.61055000  0.75735000  0.49920000  1.0 -0.1081830813
C  C161  1  0.72300000  0.50470000  0.43310000  1.0 0.2199048896
C  C162  1  0.50470000  0.07160000  0.78170000  1.0 0.2199048896
C  C163  1  0.28990000  0.72300000  0.21830000  1.0 0.2199048896
C  C164  1  0.27700000  0.71010000  0.78170000  1.0 0.2199048896
C  C165  1  0.92840000  0.49530000  0.21830000  1.0 0.2199048896
C  C166  1  0.07160000  0.28990000  0.56690000  1.0 0.2199048896
C  C167  1  0.71010000  0.92840000  0.43310000  1.0 0.2199048896
C  C168  1  0.49530000  0.27700000  0.56690000  1.0 0.2199048896
C  C169  1  0.27700000  0.49530000  0.56690000  1.0 0.2199048896
C  C170  1  0.49530000  0.92840000  0.21830000  1.0 0.2199048896
C  C171  1  0.71010000  0.27700000  0.78170000  1.0 0.2199048896
C  C172  1  0.72300000  0.28990000  0.21830000  1.0 0.2199048896
C  C173  1  0.07160000  0.50470000  0.78170000  1.0 0.2199048896
C  C174  1  0.92840000  0.71010000  0.43310000  1.0 0.2199048896
C  C175  1  0.28990000  0.07160000  0.56690000  1.0 0.2199048896
C  C176  1  0.50470000  0.72300000  0.43310000  1.0 0.2199048896
C  C177  1  0.69726000  0.63276000  0.70850000  1.0 -0.0933401396
C  C178  1  0.63276000  0.92426000  0.93550000  1.0 -0.0978062389
C  C179  1  0.98876000  0.69726000  0.06450000  1.0 -0.0933401396
C  C180  1  0.30274000  0.01124000  0.93550000  1.0 -0.0933401396
C  C181  1  0.07574000  0.36724000  0.06450000  1.0 -0.0933401396
C  C182  1  0.92426000  0.98876000  0.29150000  1.0 -0.0933401396
C  C183  1  0.01124000  0.07574000  0.70850000  1.0 -0.0933401396
C  C184  1  0.36724000  0.30274000  0.29150000  1.0 -0.0933401396
C  C185  1  0.30274000  0.36724000  0.29150000  1.0 -0.0933401396
C  C186  1  0.36724000  0.07574000  0.06450000  1.0 -0.0933401396
C  C187  1  0.01124000  0.30274000  0.93550000  1.0 -0.0933401396
C  C188  1  0.69726000  0.98876000  0.06450000  1.0 -0.0933401396
C  C189  1  0.92426000  0.63276000  0.93550000  1.0 -0.0933401396
C  C190  1  0.07574000  0.01124000  0.70850000  1.0 -0.0933401396
C  C191  1  0.98876000  0.92426000  0.29150000  1.0 -0.0933401396
C  C192  1  0.63276000  0.69726000  0.70850000  1.0 -0.0933401396
N  N1  1  0.54690000  0.54690000  0.60660000  1.0 -0.6510806283
N  N2  1  0.54690000  0.94030000  0.00000000  1.0 -0.6564561625
N  N3  1  0.94030000  0.54690000  0.00000000  1.0 -0.6564561625
N  N4  1  0.45310000  0.05970000  0.00000000  1.0 -0.6564561625
N  N5  1  0.05970000  0.45310000  0.00000000  1.0 -0.6564561625
N  N6  1  0.94030000  0.94030000  0.39340000  1.0 -0.6510806283
N  N7  1  0.05970000  0.05970000  0.60660000  1.0 -0.6510806283
N  N8  1  0.45310000  0.45310000  0.39340000  1.0 -0.6510806283
N  N9  1  0.68740000  0.44290000  0.36570000  1.0 -0.293715929
N  N10  1  0.44290000  0.07720000  0.75550000  1.0 -0.293715929
N  N11  1  0.32170000  0.68740000  0.24450000  1.0 -0.2967947942
N  N12  1  0.31260000  0.67830000  0.75550000  1.0 -0.293715929
N  N13  1  0.92280000  0.55710000  0.24450000  1.0 -0.293715929
N  N14  1  0.07720000  0.32170000  0.63430000  1.0 -0.2967947942
N  N15  1  0.67830000  0.92280000  0.36570000  1.0 -0.293715929
N  N16  1  0.55710000  0.31260000  0.63430000  1.0 -0.2967947942
N  N17  1  0.31260000  0.55710000  0.63430000  1.0 -0.2967947942
N  N18  1  0.55710000  0.92280000  0.24450000  1.0 -0.279951637
N  N19  1  0.67830000  0.31260000  0.75550000  1.0 -0.2967947942
N  N20  1  0.68740000  0.32170000  0.24450000  1.0 -0.3093797614
N  N21  1  0.07720000  0.44290000  0.75550000  1.0 -0.2967947942
N  N22  1  0.92280000  0.67830000  0.36570000  1.0 -0.279951637
N  N23  1  0.32170000  0.07720000  0.63430000  1.0 -0.2967947942
N  N24  1  0.44290000  0.68740000  0.36570000  1.0 -0.293715929
O  O1  1  0.72496000  0.65116000  0.43740000  1.0 -0.5194548604
O  O2  1  0.65116000  0.21376000  0.92620000  1.0 -0.5194548604
O  O3  1  0.28756000  0.72496000  0.07380000  1.0 -0.5194548604
O  O4  1  0.27504000  0.71244000  0.92620000  1.0 -0.5194548604
O  O5  1  0.78624000  0.34884000  0.07380000  1.0 -0.5194548604
O  O6  1  0.21376000  0.28756000  0.56260000  1.0 -0.5194548604
O  O7  1  0.71244000  0.78624000  0.43740000  1.0 -0.5194548604
O  O8  1  0.34884000  0.27504000  0.56260000  1.0 -0.5194548604
O  O9  1  0.27504000  0.34884000  0.56260000  1.0 -0.5194548604
O  O10  1  0.34884000  0.78624000  0.07380000  1.0 -0.5194548604
O  O11  1  0.71244000  0.27504000  0.92620000  1.0 -0.5194548604
O  O12  1  0.72496000  0.28756000  0.07380000  1.0 -0.5194548604
O  O13  1  0.21376000  0.65116000  0.92620000  1.0 -0.5194548604
O  O14  1  0.78624000  0.71244000  0.43740000  1.0 -0.5194548604
O  O15  1  0.28756000  0.21376000  0.56260000  1.0 -0.5194548604
O  O16  1  0.65116000  0.72496000  0.43740000  1.0 -0.5194548604
O  O17  1  0.80544000  0.53870000  0.62854000  1.0 -0.5079336448
O  O18  1  0.53870000  0.91016000  0.73326000  1.0 -0.5079336448
O  O19  1  0.17690000  0.80544000  0.26674000  1.0 -0.5079336448
O  O20  1  0.19456000  0.82310000  0.73326000  1.0 -0.5079336448
O  O21  1  0.08984000  0.46130000  0.26674000  1.0 -0.5079336448
O  O22  1  0.91016000  0.17690000  0.37146000  1.0 -0.5079336448
O  O23  1  0.82310000  0.08984000  0.62854000  1.0 -0.5079336448
O  O24  1  0.46130000  0.19456000  0.37146000  1.0 -0.5079336448
O  O25  1  0.19456000  0.46130000  0.37146000  1.0 -0.5079336448
O  O26  1  0.46130000  0.08984000  0.26674000  1.0 -0.5079336448
O  O27  1  0.82310000  0.19456000  0.73326000  1.0 -0.5079336448
O  O28  1  0.80544000  0.17690000  0.26674000  1.0 -0.5079336448
O  O29  1  0.91016000  0.53870000  0.73326000  1.0 -0.5079336448
O  O30  1  0.08984000  0.82310000  0.62854000  1.0 -0.4998320519
O  O31  1  0.17690000  0.91016000  0.37146000  1.0 -0.5079336448
O  O32  1  0.53870000  0.80544000  0.62854000  1.0 -0.5079336448
O  O33  1  0.78548000  0.71233000  0.55815000  1.0 -0.4998320519
O  O34  1  0.71233000  0.15418000  0.92685000  1.0 -0.4998320519
O  O35  1  0.22733000  0.78548000  0.07315000  1.0 -0.4998320519
O  O36  1  0.21452000  0.77267000  0.92685000  1.0 -0.4998320519
O  O37  1  0.84582000  0.28767000  0.07315000  1.0 -0.4998320519
O  O38  1  0.15418000  0.22733000  0.44185000  1.0 -0.4998320519
O  O39  1  0.77267000  0.84582000  0.55815000  1.0 -0.4998320519
O  O40  1  0.28767000  0.21452000  0.44185000  1.0 -0.4998320519
O  O41  1  0.21452000  0.28767000  0.44185000  1.0 -0.4998320519
O  O42  1  0.28767000  0.84582000  0.07315000  1.0 -0.4873660717
O  O43  1  0.77267000  0.21452000  0.92685000  1.0 -0.4998320519
O  O44  1  0.78548000  0.22733000  0.07315000  1.0 -0.4998320519
O  O45  1  0.15418000  0.71233000  0.92685000  1.0 -0.4998320519
O  O46  1  0.84582000  0.77267000  0.55815000  1.0 -0.4873660717
O  O47  1  0.22733000  0.15418000  0.44185000  1.0 -0.4998320519
O  O48  1  0.71233000  0.78548000  0.55815000  1.0 -0.4998320519
O  O49  1  0.76079000  0.56917000  0.70262000  1.0 -0.4998320519
O  O50  1  0.56917000  0.86655000  0.80838000  1.0 -0.4998320519
O  O51  1  0.05817000  0.76079000  0.19162000  1.0 -0.4998320519
O  O52  1  0.23921000  0.94183000  0.80838000  1.0 -0.4998320519
O  O53  1  0.13345000  0.43083000  0.19162000  1.0 -0.4998320519
O  O54  1  0.86655000  0.05817000  0.29738000  1.0 -0.4998320519
O  O55  1  0.94183000  0.13345000  0.70262000  1.0 -0.4998320519
O  O56  1  0.43083000  0.23921000  0.29738000  1.0 -0.5079336448
O  O57  1  0.23921000  0.43083000  0.29738000  1.0 -0.5079336448
O  O58  1  0.43083000  0.13345000  0.19162000  1.0 -0.4998320519
O  O59  1  0.94183000  0.23921000  0.80838000  1.0 -0.4998320519
O  O60  1  0.76079000  0.05817000  0.19162000  1.0 -0.4998320519
O  O61  1  0.86655000  0.56917000  0.80838000  1.0 -0.4998320519
O  O62  1  0.13345000  0.94183000  0.70262000  1.0 -0.4998320519
O  O63  1  0.05817000  0.86655000  0.29738000  1.0 -0.5079336448
O  O64  1  0.56917000  0.76079000  0.70262000  1.0 -0.4998320519
O  O65  1  0.79646000  0.66624000  0.76250000  1.0 -0.5194548604
O  O66  1  0.66624000  0.90374000  0.86978000  1.0 -0.5194548604
O  O67  1  0.03396000  0.79646000  0.13022000  1.0 -0.5194548604
O  O68  1  0.20354000  0.96604000  0.86978000  1.0 -0.5194548604
O  O69  1  0.09626000  0.33376000  0.13022000  1.0 -0.5194548604
O  O70  1  0.90374000  0.03396000  0.23750000  1.0 -0.5194548604
O  O71  1  0.96604000  0.09626000  0.76250000  1.0 -0.5194548604
O  O72  1  0.33376000  0.20354000  0.23750000  1.0 -0.5194548604
O  O73  1  0.20354000  0.33376000  0.23750000  1.0 -0.5194548604
O  O74  1  0.33376000  0.09626000  0.13022000  1.0 -0.5194548604
O  O75  1  0.96604000  0.20354000  0.86978000  1.0 -0.5194548604
O  O76  1  0.79646000  0.03396000  0.13022000  1.0 -0.5194548604
O  O77  1  0.90374000  0.66624000  0.86978000  1.0 -0.5194548604
O  O78  1  0.09626000  0.96604000  0.76250000  1.0 -0.5194548604
O  O79  1  0.03396000  0.90374000  0.23750000  1.0 -0.5194548604
O  O80  1  0.66624000  0.79646000  0.76250000  1.0 -0.5194548604
O  O81  1  0.84044000  0.63483000  0.68921000  1.0 -0.4873660717
O  O82  1  0.63483000  0.94562000  0.79439000  1.0 -0.4832763168
O  O83  1  0.15123000  0.84044000  0.20561000  1.0 -0.4832763168
O  O84  1  0.15956000  0.84877000  0.79439000  1.0 -0.4832763168
O  O85  1  0.05438000  0.36517000  0.20561000  1.0 -0.4832763168
O  O86  1  0.94562000  0.15123000  0.31079000  1.0 -0.4873660717
O  O87  1  0.84877000  0.05438000  0.68921000  1.0 -0.4873660717
O  O88  1  0.36517000  0.15956000  0.31079000  1.0 -0.4873660717
O  O89  1  0.15956000  0.36517000  0.31079000  1.0 -0.4873660717
O  O90  1  0.36517000  0.05438000  0.20561000  1.0 -0.4832763168
O  O91  1  0.84877000  0.15956000  0.79439000  1.0 -0.4873660717
O  O92  1  0.84044000  0.15123000  0.20561000  1.0 -0.4873660717
O  O93  1  0.94562000  0.63483000  0.79439000  1.0 -0.4873660717
O  O94  1  0.05438000  0.84877000  0.68921000  1.0 -0.4832763168
O  O95  1  0.15123000  0.94562000  0.31079000  1.0 -0.4873660717
O  O96  1  0.63483000  0.84044000  0.68921000  1.0 -0.4832763168
