# DDEC6 charges by PACMAN v1.1 (https://github.com/mtap-research/PACMAN-charge/)
data_IWEWIS_FSR_pacman
_symmetry_space_group_name_H-M   'P 1'
_cell_length_a   18.76600000
_cell_length_b   18.76600000
_cell_length_c   29.89400000
_cell_angle_alpha   81.46570000
_cell_angle_beta   98.53430000
_cell_angle_gamma   133.16000000
_symmetry_Int_Tables_number   1
_chemical_formula_structural   Zn5H24C36(I5N4)3
_chemical_formula_sum   'Zn20 H96 C144 I60 N48'
_cell_volume   7578.19428498
_cell_formula_units_Z   4
loop_
 _symmetry_equiv_pos_site_id
 _symmetry_equiv_pos_as_xyz
  1  'x, y, z'
loop_
 _atom_site_type_symbol
 _atom_site_label
 _atom_site_symmetry_multiplicity
 _atom_site_fract_x
 _atom_site_fract_y
 _atom_site_fract_z
 _atom_site_occupancy
 _atom_site_charge
Zn  Zn1  1  0.76915000  0.05205000  0.96370000  1.0 0.0398552496
Zn  Zn2  1  0.94795000  0.23085000  0.46370000  1.0 0.0398552496
Zn  Zn3  1  0.30830000  0.96510000  0.76830000  1.0 0.2494683629
Zn  Zn4  1  0.03490000  0.69170000  0.26830000  1.0 0.2494683629
Zn  Zn5  1  0.45074000  0.28972000  0.59563000  1.0 0.3524228698
Zn  Zn6  1  0.71028000  0.54926000  0.09563000  1.0 0.3524228698
Zn  Zn7  1  0.77322000  0.02478000  0.93833000  1.0 0.229047644
Zn  Zn8  1  0.97522000  0.22678000  0.43833000  1.0 0.229047644
Zn  Zn9  1  0.31070000  0.95450000  0.78050000  1.0 0.3680121964
Zn  Zn10  1  0.04550000  0.68930000  0.28050000  1.0 0.3680121964
Zn  Zn11  1  0.05205000  0.76915000  0.53630000  1.0 0.0398552496
Zn  Zn12  1  0.23085000  0.94795000  0.03630000  1.0 0.0398552496
Zn  Zn13  1  0.96510000  0.30830000  0.73170000  1.0 0.2494683629
Zn  Zn14  1  0.69170000  0.03490000  0.23170000  1.0 0.2494683629
Zn  Zn15  1  0.28972000  0.45074000  0.90437000  1.0 0.3524228698
Zn  Zn16  1  0.54926000  0.71028000  0.40437000  1.0 0.3524228698
Zn  Zn17  1  0.02478000  0.77322000  0.56167000  1.0 0.229047644
Zn  Zn18  1  0.22678000  0.97522000  0.06167000  1.0 0.229047644
Zn  Zn19  1  0.95450000  0.31070000  0.71950000  1.0 0.3680121964
Zn  Zn20  1  0.68930000  0.04550000  0.21950000  1.0 0.3680121964
H  H1  1  0.67440000  0.04880000  0.85970000  1.0 0.081799615
H  H2  1  0.95120000  0.32560000  0.35970000  1.0 0.081799615
H  H3  1  0.69560000  0.16760000  0.81130000  1.0 0.1189926891
H  H4  1  0.83240000  0.30440000  0.31130000  1.0 0.1189926891
H  H5  1  0.94250000  0.37390000  0.88370000  1.0 0.1123708664
H  H6  1  0.62610000  0.05750000  0.38370000  1.0 0.1123708664
H  H7  1  0.91660000  0.24920000  0.93000000  1.0 0.081799615
H  H8  1  0.75080000  0.08340000  0.43000000  1.0 0.081799615
H  H9  1  0.23590000  0.77650000  0.82410000  1.0 0.0714975376
H  H10  1  0.22350000  0.76410000  0.32410000  1.0 0.0714975376
H  H11  1  0.09600000  0.61160000  0.83180000  1.0 0.1314456897
H  H12  1  0.38840000  0.90400000  0.33180000  1.0 0.1314456897
H  H13  1  0.96050000  0.66930000  0.73730000  1.0 0.1314456897
H  H14  1  0.33070000  0.03950000  0.23730000  1.0 0.1314456897
H  H15  1  0.10530000  0.83010000  0.73220000  1.0 0.081799615
H  H16  1  0.16990000  0.89470000  0.23220000  1.0 0.081799615
H  H17  1  0.49130000  0.18530000  0.66580000  1.0 0.081799615
H  H18  1  0.81470000  0.50870000  0.16580000  1.0 0.081799615
H  H19  1  0.60310000  0.22210000  0.72680000  1.0 0.1189926891
H  H20  1  0.77790000  0.39690000  0.22680000  1.0 0.1189926891
H  H21  1  0.76780000  0.50400000  0.68700000  1.0 0.1123708664
H  H22  1  0.49600000  0.23220000  0.18700000  1.0 0.1123708664
H  H23  1  0.65400000  0.46080000  0.62640000  1.0 0.0905803731
H  H24  1  0.53920000  0.34600000  0.12640000  1.0 0.0905803731
H  H25  1  0.94490000  0.10610000  0.01640000  1.0 0.0905803731
H  H26  1  0.89390000  0.05510000  0.51640000  1.0 0.0905803731
H  H27  1  0.09540000  0.14640000  0.01610000  1.0 0.1314456897
H  H28  1  0.85360000  0.90460000  0.51610000  1.0 0.1314456897
H  H29  1  0.03280000  0.09040000  0.88780000  1.0 0.1314456897
H  H30  1  0.90960000  0.96720000  0.38780000  1.0 0.1314456897
H  H31  1  0.89380000  0.05820000  0.88800000  1.0 0.1021087943
H  H32  1  0.94180000  0.10620000  0.38800000  1.0 0.1021087943
H  H33  1  0.50150000  0.47150000  0.07320000  1.0 0.1021087943
H  H34  1  0.52850000  0.49850000  0.57320000  1.0 0.1021087943
H  H35  1  0.36130000  0.35410000  0.03020000  1.0 0.1357685304
H  H36  1  0.64590000  0.63870000  0.53020000  1.0 0.1357685304
H  H37  1  0.50890000  0.30650000  0.97960000  1.0 0.1314456897
H  H38  1  0.69350000  0.49110000  0.47960000  1.0 0.1314456897
H  H39  1  0.64780000  0.43080000  0.02130000  1.0 0.0905803731
H  H40  1  0.56920000  0.35220000  0.52130000  1.0 0.0905803731
H  H41  1  0.42420000  0.09280000  0.84910000  1.0 0.0714975376
H  H42  1  0.90720000  0.57580000  0.34910000  1.0 0.0714975376
H  H43  1  0.41150000  0.15610000  0.90620000  1.0 0.1189926891
H  H44  1  0.84390000  0.58850000  0.40620000  1.0 0.1189926891
H  H45  1  0.13650000  0.00590000  0.85300000  1.0 0.1189926891
H  H46  1  0.99410000  0.86350000  0.35300000  1.0 0.1189926891
H  H47  1  0.15540000  0.95060000  0.80170000  1.0 0.0905803731
H  H48  1  0.04940000  0.84460000  0.30170000  1.0 0.0905803731
H  H49  1  0.04880000  0.67440000  0.64030000  1.0 0.081799615
H  H50  1  0.32560000  0.95120000  0.14030000  1.0 0.081799615
H  H51  1  0.16760000  0.69560000  0.68870000  1.0 0.1189926891
H  H52  1  0.30440000  0.83240000  0.18870000  1.0 0.1189926891
H  H53  1  0.37390000  0.94250000  0.61630000  1.0 0.1123708664
H  H54  1  0.05750000  0.62610000  0.11630000  1.0 0.1123708664
H  H55  1  0.24920000  0.91660000  0.57000000  1.0 0.081799615
H  H56  1  0.08340000  0.75080000  0.07000000  1.0 0.081799615
H  H57  1  0.77650000  0.23590000  0.67590000  1.0 0.0714975376
H  H58  1  0.76410000  0.22350000  0.17590000  1.0 0.0714975376
H  H59  1  0.61160000  0.09600000  0.66820000  1.0 0.1314456897
H  H60  1  0.90400000  0.38840000  0.16820000  1.0 0.1314456897
H  H61  1  0.66930000  0.96050000  0.76270000  1.0 0.1314456897
H  H62  1  0.03950000  0.33070000  0.26270000  1.0 0.1314456897
H  H63  1  0.83010000  0.10530000  0.76780000  1.0 0.081799615
H  H64  1  0.89470000  0.16990000  0.26780000  1.0 0.081799615
H  H65  1  0.18530000  0.49130000  0.83420000  1.0 0.081799615
H  H66  1  0.50870000  0.81470000  0.33420000  1.0 0.081799615
H  H67  1  0.22210000  0.60310000  0.77320000  1.0 0.1189926891
H  H68  1  0.39690000  0.77790000  0.27320000  1.0 0.1189926891
H  H69  1  0.50400000  0.76780000  0.81300000  1.0 0.1123708664
H  H70  1  0.23220000  0.49600000  0.31300000  1.0 0.1123708664
H  H71  1  0.46080000  0.65400000  0.87360000  1.0 0.0905803731
H  H72  1  0.34600000  0.53920000  0.37360000  1.0 0.0905803731
H  H73  1  0.10610000  0.94490000  0.48360000  1.0 0.0905803731
H  H74  1  0.05510000  0.89390000  0.98360000  1.0 0.0905803731
H  H75  1  0.14640000  0.09540000  0.48390000  1.0 0.1314456897
H  H76  1  0.90460000  0.85360000  0.98390000  1.0 0.1314456897
H  H77  1  0.09040000  0.03280000  0.61220000  1.0 0.1314456897
H  H78  1  0.96720000  0.90960000  0.11220000  1.0 0.1314456897
H  H79  1  0.05820000  0.89380000  0.61200000  1.0 0.1021087943
H  H80  1  0.10620000  0.94180000  0.11200000  1.0 0.1021087943
H  H81  1  0.47150000  0.50150000  0.42680000  1.0 0.1021087943
H  H82  1  0.49850000  0.52850000  0.92680000  1.0 0.1021087943
H  H83  1  0.35410000  0.36130000  0.46980000  1.0 0.1357685304
H  H84  1  0.63870000  0.64590000  0.96980000  1.0 0.1357685304
H  H85  1  0.30650000  0.50890000  0.52040000  1.0 0.1314456897
H  H86  1  0.49110000  0.69350000  0.02040000  1.0 0.1357685304
H  H87  1  0.43080000  0.64780000  0.47870000  1.0 0.0905803731
H  H88  1  0.35220000  0.56920000  0.97870000  1.0 0.0905803731
H  H89  1  0.09280000  0.42420000  0.65090000  1.0 0.0714975376
H  H90  1  0.57580000  0.90720000  0.15090000  1.0 0.0714975376
H  H91  1  0.15610000  0.41150000  0.59380000  1.0 0.1189926891
H  H92  1  0.58850000  0.84390000  0.09380000  1.0 0.1189926891
H  H93  1  0.00590000  0.13650000  0.64700000  1.0 0.1189926891
H  H94  1  0.86350000  0.99410000  0.14700000  1.0 0.1189926891
H  H95  1  0.95060000  0.15540000  0.69830000  1.0 0.0905803731
H  H96  1  0.84460000  0.04940000  0.19830000  1.0 0.0905803731
C  C1  1  0.72950000  0.11570000  0.86480000  1.0 -0.0080538124
C  C2  1  0.88430000  0.27050000  0.36480000  1.0 -0.0080538124
C  C3  1  0.74230000  0.18610000  0.83600000  1.0 -0.1403223173
C  C4  1  0.81390000  0.25770000  0.33600000  1.0 -0.1403223173
C  C5  1  0.82060000  0.28260000  0.84170000  1.0 0.0300682299
C  C6  1  0.71740000  0.17940000  0.34170000  1.0 0.0300682299
C  C7  1  0.88700000  0.30740000  0.87800000  1.0 -0.1494337106
C  C8  1  0.69260000  0.11300000  0.37800000  1.0 -0.1494337106
C  C9  1  0.86990000  0.23230000  0.90560000  1.0 0.0398552496
C  C10  1  0.76770000  0.13010000  0.40560000  1.0 0.0398552496
C  C11  1  0.83390000  0.35810000  0.80980000  1.0 0.3524228698
C  C12  1  0.64190000  0.16610000  0.30980000  1.0 0.3524228698
C  C13  1  0.77380000  0.39640000  0.74970000  1.0 0.3770748144
C  C14  1  0.60360000  0.22620000  0.24970000  1.0 0.3770748144
C  C15  1  0.91960000  0.51440000  0.78430000  1.0 0.337282021
C  C16  1  0.48560000  0.08040000  0.28430000  1.0 0.337282021
C  C17  1  0.17860000  0.75340000  0.80570000  1.0 0.049725437
C  C18  1  0.24660000  0.82140000  0.30570000  1.0 0.049725437
C  C19  1  0.09470000  0.65410000  0.81100000  1.0 -0.1307169343
C  C20  1  0.34590000  0.90530000  0.31100000  1.0 -0.1307169343
C  C21  1  0.01010000  0.61890000  0.78550000  1.0 0.0398552496
C  C22  1  0.38110000  0.98990000  0.28550000  1.0 0.0398552496
C  C23  1  0.01670000  0.68890000  0.75560000  1.0 -0.1307169343
C  C24  1  0.31110000  0.98330000  0.25560000  1.0 -0.1307169343
C  C25  1  0.10280000  0.78460000  0.75260000  1.0 0.0066517904
C  C26  1  0.21540000  0.89720000  0.25260000  1.0 0.0066517904
C  C27  1  0.54800000  0.25180000  0.67060000  1.0 0.0398552496
C  C28  1  0.74820000  0.45200000  0.17060000  1.0 0.0398552496
C  C29  1  0.61520000  0.27300000  0.70650000  1.0 -0.1494337106
C  C30  1  0.72700000  0.38480000  0.20650000  1.0 -0.1494337106
C  C31  1  0.69780000  0.36720000  0.71180000  1.0 0.0398552496
C  C32  1  0.63280000  0.30220000  0.21180000  1.0 0.0398552496
C  C33  1  0.71110000  0.43690000  0.68310000  1.0 -0.1494337106
C  C34  1  0.56310000  0.28890000  0.18310000  1.0 -0.1494337106
C  C35  1  0.64180000  0.41120000  0.64780000  1.0 0.081799615
C  C36  1  0.58880000  0.35820000  0.14780000  1.0 0.081799615
C  C37  1  0.96270000  0.10210000  0.98940000  1.0 0.049725437
C  C38  1  0.89790000  0.03730000  0.48940000  1.0 0.049725437
C  C39  1  0.05370000  0.12690000  0.98920000  1.0 -0.1403223173
C  C40  1  0.87310000  0.94630000  0.48920000  1.0 -0.1403223173
C  C41  1  0.07900000  0.12300000  0.95260000  1.0 0.0195877562
C  C42  1  0.87700000  0.92100000  0.45260000  1.0 0.0195877562
C  C43  1  0.01630000  0.09490000  0.91510000  1.0 -0.1307169343
C  C44  1  0.90510000  0.98370000  0.41510000  1.0 -0.1307169343
C  C45  1  0.93290000  0.07370000  0.91560000  1.0 0.0398552496
C  C46  1  0.92630000  0.06710000  0.41560000  1.0 0.0398552496
C  C47  1  0.17120000  0.14700000  0.95150000  1.0 0.3524228698
C  C48  1  0.85300000  0.82880000  0.45150000  1.0 0.3524228698
C  C49  1  0.33180000  0.24100000  0.97220000  1.0 0.337282021
C  C50  1  0.75900000  0.66820000  0.47220000  1.0 0.337282021
C  C51  1  0.26380000  0.13620000  0.91780000  1.0 0.337282021
C  C52  1  0.86380000  0.73620000  0.41780000  1.0 0.337282021
C  C53  1  0.50350000  0.43790000  0.05330000  1.0 0.0572461551
C  C54  1  0.56210000  0.49650000  0.55330000  1.0 0.0572461551
C  C55  1  0.41970000  0.36790000  0.02790000  1.0 -0.1403223173
C  C56  1  0.63210000  0.58030000  0.52790000  1.0 -0.1403223173
C  C57  1  0.42100000  0.31940000  0.99970000  1.0 0.0398552496
C  C58  1  0.68060000  0.57900000  0.49970000  1.0 0.0398552496
C  C59  1  0.50570000  0.34110000  0.99820000  1.0 -0.1494337106
C  C60  1  0.65890000  0.49430000  0.49820000  1.0 -0.1494337106
C  C61  1  0.58820000  0.41440000  0.02410000  1.0 0.0714975376
C  C62  1  0.58560000  0.41180000  0.52410000  1.0 0.0714975376
C  C63  1  0.36390000  0.07630000  0.85030000  1.0 0.049725437
C  C64  1  0.92370000  0.63610000  0.35030000  1.0 0.049725437
C  C65  1  0.35840000  0.11680000  0.88440000  1.0 -0.1307169343
C  C66  1  0.88320000  0.64160000  0.38440000  1.0 -0.1307169343
C  C67  1  0.27420000  0.09700000  0.88490000  1.0 0.0300682299
C  C68  1  0.90300000  0.72580000  0.38490000  1.0 0.0300682299
C  C69  1  0.19940000  0.02800000  0.85220000  1.0 -0.1403223173
C  C70  1  0.97200000  0.80060000  0.35220000  1.0 -0.1403223173
C  C71  1  0.20920000  0.99380000  0.82240000  1.0 0.0300682299
C  C72  1  0.00620000  0.79080000  0.32240000  1.0 0.0300682299
C  C73  1  0.11570000  0.72950000  0.63520000  1.0 -0.0080538124
C  C74  1  0.27050000  0.88430000  0.13520000  1.0 -0.0080538124
C  C75  1  0.18610000  0.74230000  0.66400000  1.0 -0.1403223173
C  C76  1  0.25770000  0.81390000  0.16400000  1.0 -0.1403223173
C  C77  1  0.28260000  0.82060000  0.65830000  1.0 0.0300682299
C  C78  1  0.17940000  0.71740000  0.15830000  1.0 0.0300682299
C  C79  1  0.30740000  0.88700000  0.62200000  1.0 -0.1494337106
C  C80  1  0.11300000  0.69260000  0.12200000  1.0 -0.1494337106
C  C81  1  0.23230000  0.86990000  0.59440000  1.0 0.0398552496
C  C82  1  0.13010000  0.76770000  0.09440000  1.0 0.0398552496
C  C83  1  0.35810000  0.83390000  0.69020000  1.0 0.3524228698
C  C84  1  0.16610000  0.64190000  0.19020000  1.0 0.3524228698
C  C85  1  0.39640000  0.77380000  0.75030000  1.0 0.3770748144
C  C86  1  0.22620000  0.60360000  0.25030000  1.0 0.3770748144
C  C87  1  0.51440000  0.91960000  0.71570000  1.0 0.337282021
C  C88  1  0.08040000  0.48560000  0.21570000  1.0 0.337282021
C  C89  1  0.75340000  0.17860000  0.69430000  1.0 0.049725437
C  C90  1  0.82140000  0.24660000  0.19430000  1.0 0.049725437
C  C91  1  0.65410000  0.09470000  0.68900000  1.0 -0.1307169343
C  C92  1  0.90530000  0.34590000  0.18900000  1.0 -0.1307169343
C  C93  1  0.61890000  0.01010000  0.71450000  1.0 0.0398552496
C  C94  1  0.98990000  0.38110000  0.21450000  1.0 0.0398552496
C  C95  1  0.68890000  0.01670000  0.74440000  1.0 -0.1307169343
C  C96  1  0.98330000  0.31110000  0.24440000  1.0 -0.1307169343
C  C97  1  0.78460000  0.10280000  0.74740000  1.0 0.0066517904
C  C98  1  0.89720000  0.21540000  0.24740000  1.0 0.0066517904
C  C99  1  0.25180000  0.54800000  0.82940000  1.0 0.0398552496
C  C100  1  0.45200000  0.74820000  0.32940000  1.0 0.0398552496
C  C101  1  0.27300000  0.61520000  0.79350000  1.0 -0.1494337106
C  C102  1  0.38480000  0.72700000  0.29350000  1.0 -0.1494337106
C  C103  1  0.36720000  0.69780000  0.78820000  1.0 0.0398552496
C  C104  1  0.30220000  0.63280000  0.28820000  1.0 0.0398552496
C  C105  1  0.43690000  0.71110000  0.81690000  1.0 -0.1494337106
C  C106  1  0.28890000  0.56310000  0.31690000  1.0 -0.1494337106
C  C107  1  0.41120000  0.64180000  0.85220000  1.0 0.081799615
C  C108  1  0.35820000  0.58880000  0.35220000  1.0 0.081799615
C  C109  1  0.10210000  0.96270000  0.51060000  1.0 0.049725437
C  C110  1  0.03730000  0.89790000  0.01060000  1.0 0.049725437
C  C111  1  0.12690000  0.05370000  0.51080000  1.0 -0.1403223173
C  C112  1  0.94630000  0.87310000  0.01080000  1.0 -0.1403223173
C  C113  1  0.12300000  0.07900000  0.54740000  1.0 0.0195877562
C  C114  1  0.92100000  0.87700000  0.04740000  1.0 0.0195877562
C  C115  1  0.09490000  0.01630000  0.58490000  1.0 -0.1307169343
C  C116  1  0.98370000  0.90510000  0.08490000  1.0 -0.1307169343
C  C117  1  0.07370000  0.93290000  0.58440000  1.0 0.0398552496
C  C118  1  0.06710000  0.92630000  0.08440000  1.0 0.0398552496
C  C119  1  0.14700000  0.17120000  0.54850000  1.0 0.3524228698
C  C120  1  0.82880000  0.85300000  0.04850000  1.0 0.3524228698
C  C121  1  0.24100000  0.33180000  0.52780000  1.0 0.337282021
C  C122  1  0.66820000  0.75900000  0.02780000  1.0 0.337282021
C  C123  1  0.13620000  0.26380000  0.58220000  1.0 0.337282021
C  C124  1  0.73620000  0.86380000  0.08220000  1.0 0.337282021
C  C125  1  0.43790000  0.50350000  0.44670000  1.0 0.0572461551
C  C126  1  0.49650000  0.56210000  0.94670000  1.0 0.0572461551
C  C127  1  0.36790000  0.41970000  0.47210000  1.0 -0.1403223173
C  C128  1  0.58030000  0.63210000  0.97210000  1.0 -0.1403223173
C  C129  1  0.31940000  0.42100000  0.50030000  1.0 0.0398552496
C  C130  1  0.57900000  0.68060000  0.00030000  1.0 0.0398552496
C  C131  1  0.34110000  0.50570000  0.50180000  1.0 -0.1494337106
C  C132  1  0.49430000  0.65890000  0.00180000  1.0 -0.1494337106
C  C133  1  0.41440000  0.58820000  0.47590000  1.0 0.0714975376
C  C134  1  0.41180000  0.58560000  0.97590000  1.0 0.0714975376
C  C135  1  0.07630000  0.36390000  0.64970000  1.0 0.049725437
C  C136  1  0.63610000  0.92370000  0.14970000  1.0 0.049725437
C  C137  1  0.11680000  0.35840000  0.61560000  1.0 -0.1307169343
C  C138  1  0.64160000  0.88320000  0.11560000  1.0 -0.1307169343
C  C139  1  0.09700000  0.27420000  0.61510000  1.0 0.0300682299
C  C140  1  0.72580000  0.90300000  0.11510000  1.0 0.0300682299
C  C141  1  0.02800000  0.19940000  0.64780000  1.0 -0.1403223173
C  C142  1  0.80060000  0.97200000  0.14780000  1.0 -0.1403223173
C  C143  1  0.99380000  0.20920000  0.67760000  1.0 0.0300682299
C  C144  1  0.79080000  0.00620000  0.17760000  1.0 0.0300682299
I  I1  1  0.77257000  0.10763000  0.03530000  1.0 0.0300682299
I  I2  1  0.89237000  0.22743000  0.53530000  1.0 0.0300682299
I  I3  1  0.46496000  0.99684000  0.78890000  1.0 -0.0980328023
I  I4  1  0.00316000  0.53504000  0.28890000  1.0 -0.0980328023
I  I5  1  0.27828000  0.02354000  0.69295000  1.0 -0.0390522875
I  I6  1  0.97646000  0.72172000  0.19295000  1.0 -0.0390522875
I  I7  1  0.38065000  0.14155000  0.55211000  1.0 0.0195877562
I  I8  1  0.85845000  0.61935000  0.05211000  1.0 0.0195877562
I  I9  1  0.35927000  0.31357000  0.63581000  1.0 -0.4178896034
I  I10  1  0.68643000  0.64073000  0.13581000  1.0 -0.4178896034
I  I11  1  0.63440000  0.88120000  0.92830000  1.0 -0.0719477264
I  I12  1  0.11880000  0.36560000  0.42830000  1.0 -0.0719477264
I  I13  1  0.74161000  0.04479000  0.01220000  1.0 -0.0980328023
I  I14  1  0.95521000  0.25839000  0.51220000  1.0 -0.0980328023
I  I15  1  0.62510000  0.89990000  0.95360000  1.0 -0.0390522875
I  I16  1  0.10010000  0.37490000  0.45360000  1.0 -0.0390522875
I  I17  1  0.45230000  0.98530000  0.80740000  1.0 -0.0584167698
I  I18  1  0.01470000  0.54770000  0.30740000  1.0 -0.0584167698
I  I19  1  0.45910000  0.95430000  0.83170000  1.0 -0.0207708318
I  I20  1  0.04570000  0.54090000  0.33170000  1.0 -0.0207708318
I  I21  1  0.31270000  0.02330000  0.70400000  1.0 -0.0584167698
I  I22  1  0.97670000  0.68730000  0.20400000  1.0 -0.0584167698
I  I23  1  0.36260000  0.02540000  0.71510000  1.0 -0.0830933535
I  I24  1  0.97460000  0.63740000  0.21510000  1.0 -0.0830933535
I  I25  1  0.36950000  0.14830000  0.56520000  1.0 -0.0012814449
I  I26  1  0.85170000  0.63050000  0.06520000  1.0 0.0004338343
I  I27  1  0.36240000  0.31060000  0.63690000  1.0 -0.4024258949
I  I28  1  0.68940000  0.63760000  0.13690000  1.0 -0.4024258949
I  I29  1  0.65836000  0.86652000  0.89816000  1.0 -0.0207708318
I  I30  1  0.13348000  0.34164000  0.39816000  1.0 -0.0207708318
I  I31  1  0.10763000  0.77257000  0.46470000  1.0 0.0300682299
I  I32  1  0.22743000  0.89237000  0.96470000  1.0 0.0300682299
I  I33  1  0.99684000  0.46496000  0.71110000  1.0 -0.0980328023
I  I34  1  0.53504000  0.00316000  0.21110000  1.0 -0.0980328023
I  I35  1  0.02354000  0.27828000  0.80705000  1.0 -0.0390522875
I  I36  1  0.72172000  0.97646000  0.30705000  1.0 -0.0390522875
I  I37  1  0.14155000  0.38065000  0.94789000  1.0 0.0195877562
I  I38  1  0.61935000  0.85845000  0.44789000  1.0 0.0195877562
I  I39  1  0.31357000  0.35927000  0.86419000  1.0 -0.4178896034
I  I40  1  0.64073000  0.68643000  0.36419000  1.0 -0.4178896034
I  I41  1  0.88120000  0.63440000  0.57170000  1.0 -0.0719477264
I  I42  1  0.36560000  0.11880000  0.07170000  1.0 -0.0719477264
I  I43  1  0.04479000  0.74161000  0.48780000  1.0 -0.0980328023
I  I44  1  0.25839000  0.95521000  0.98780000  1.0 -0.0980328023
I  I45  1  0.89990000  0.62510000  0.54640000  1.0 -0.0390522875
I  I46  1  0.37490000  0.10010000  0.04640000  1.0 -0.0390522875
I  I47  1  0.98530000  0.45230000  0.69260000  1.0 -0.0584167698
I  I48  1  0.54770000  0.01470000  0.19260000  1.0 -0.0584167698
I  I49  1  0.95430000  0.45910000  0.66830000  1.0 -0.0207708318
I  I50  1  0.54090000  0.04570000  0.16830000  1.0 -0.0207708318
I  I51  1  0.02330000  0.31270000  0.79600000  1.0 -0.0584167698
I  I52  1  0.68730000  0.97670000  0.29600000  1.0 -0.0584167698
I  I53  1  0.02540000  0.36260000  0.78490000  1.0 -0.0830933535
I  I54  1  0.63740000  0.97460000  0.28490000  1.0 -0.0830933535
I  I55  1  0.14830000  0.36950000  0.93480000  1.0 -0.0012814449
I  I56  1  0.63050000  0.85170000  0.43480000  1.0 0.0004338343
I  I57  1  0.31060000  0.36240000  0.86310000  1.0 -0.4024258949
I  I58  1  0.63760000  0.68940000  0.36310000  1.0 -0.4024258949
I  I59  1  0.86652000  0.65836000  0.60184000  1.0 -0.0207708318
I  I60  1  0.34164000  0.13348000  0.10184000  1.0 -0.0207708318
N  N1  1  0.79420000  0.13940000  0.90080000  1.0 -0.1686203265
N  N2  1  0.86060000  0.20580000  0.40080000  1.0 -0.1686203265
N  N3  1  0.76230000  0.32590000  0.77680000  1.0 -0.411136912
N  N4  1  0.67410000  0.23770000  0.27680000  1.0 -0.411136912
N  N5  1  0.85100000  0.49240000  0.75220000  1.0 -0.4024258949
N  N6  1  0.50760000  0.14900000  0.25220000  1.0 -0.4024258949
N  N7  1  0.91410000  0.45150000  0.81450000  1.0 -0.411136912
N  N8  1  0.54850000  0.08590000  0.31450000  1.0 -0.411136912
N  N9  1  0.18420000  0.81580000  0.77790000  1.0 -0.2176268184
N  N10  1  0.18420000  0.81580000  0.27790000  1.0 -0.2176268184
N  N11  1  0.56030000  0.32050000  0.64320000  1.0 -0.1553321266
N  N12  1  0.67950000  0.43970000  0.14320000  1.0 -0.1553321266
N  N13  1  0.90270000  0.07330000  0.95220000  1.0 -0.187787787
N  N14  1  0.92670000  0.09730000  0.45220000  1.0 -0.187787787
N  N15  1  0.24750000  0.21530000  0.97950000  1.0 -0.4024258949
N  N16  1  0.78470000  0.75250000  0.47950000  1.0 -0.4024258949
N  N17  1  0.34610000  0.20470000  0.94140000  1.0 -0.3926617736
N  N18  1  0.79530000  0.65390000  0.44140000  1.0 -0.3926617736
N  N19  1  0.17860000  0.10740000  0.92030000  1.0 -0.3769179666
N  N20  1  0.89260000  0.82140000  0.42030000  1.0 -0.3769179666
N  N21  1  0.58850000  0.46070000  0.05120000  1.0 -0.187787787
N  N22  1  0.53930000  0.41150000  0.55120000  1.0 -0.187787787
N  N23  1  0.29280000  0.01740000  0.81980000  1.0 -0.2176268184
N  N24  1  0.98260000  0.70720000  0.31980000  1.0 -0.2147977734
N  N25  1  0.13940000  0.79420000  0.59920000  1.0 -0.1686203265
N  N26  1  0.20580000  0.86060000  0.09920000  1.0 -0.1686203265
N  N27  1  0.32590000  0.76230000  0.72320000  1.0 -0.411136912
N  N28  1  0.23770000  0.67410000  0.22320000  1.0 -0.411136912
N  N29  1  0.49240000  0.85100000  0.74780000  1.0 -0.411136912
N  N30  1  0.14900000  0.50760000  0.24780000  1.0 -0.4024258949
N  N31  1  0.45150000  0.91410000  0.68550000  1.0 -0.411136912
N  N32  1  0.08590000  0.54850000  0.18550000  1.0 -0.411136912
N  N33  1  0.81580000  0.18420000  0.72210000  1.0 -0.2176268184
N  N34  1  0.81580000  0.18420000  0.22210000  1.0 -0.2176268184
N  N35  1  0.32050000  0.56030000  0.85680000  1.0 -0.1553321266
N  N36  1  0.43970000  0.67950000  0.35680000  1.0 -0.1494337106
N  N37  1  0.07330000  0.90270000  0.54780000  1.0 -0.187787787
N  N38  1  0.09730000  0.92670000  0.04780000  1.0 -0.187787787
N  N39  1  0.21530000  0.24750000  0.52050000  1.0 -0.4024258949
N  N40  1  0.75250000  0.78470000  0.02050000  1.0 -0.4024258949
N  N41  1  0.20470000  0.34610000  0.55860000  1.0 -0.3926617736
N  N42  1  0.65390000  0.79530000  0.05860000  1.0 -0.3926617736
N  N43  1  0.10740000  0.17860000  0.57970000  1.0 -0.3769179666
N  N44  1  0.82140000  0.89260000  0.07970000  1.0 -0.3769179666
N  N45  1  0.46070000  0.58850000  0.44880000  1.0 -0.187787787
N  N46  1  0.41150000  0.53930000  0.94880000  1.0 -0.187787787
N  N47  1  0.01740000  0.29280000  0.68020000  1.0 -0.2176268184
N  N48  1  0.70720000  0.98260000  0.18020000  1.0 -0.2147977734
