# DDEC6 charges by PACMAN v1.1 (https://github.com/mtap-research/PACMAN-charge/)
data_IWEWEO_FSR_pacman
_symmetry_space_group_name_H-M   'P 1'
_cell_length_a   18.94230000
_cell_length_b   18.94230000
_cell_length_c   31.03510000
_cell_angle_alpha   79.10420000
_cell_angle_beta   100.89600000
_cell_angle_gamma   133.81700000
_symmetry_Int_Tables_number   1
_chemical_formula_structural   Zn5H24C36I11N12
_chemical_formula_sum   'Zn20 H96 C144 I44 N48'
_cell_volume   7863.56519201
_cell_formula_units_Z   4
loop_
 _symmetry_equiv_pos_site_id
 _symmetry_equiv_pos_as_xyz
  1  'x, y, z'
loop_
 _atom_site_type_symbol
 _atom_site_label
 _atom_site_symmetry_multiplicity
 _atom_site_fract_x
 _atom_site_fract_y
 _atom_site_fract_z
 _atom_site_occupancy
 _atom_site_charge
Zn  Zn1  1  0.96970000  0.31750000  0.22940000  1.0 0.2861266537
Zn  Zn2  1  0.68250000  0.03030000  0.72940000  1.0 0.2861266537
Zn  Zn3  1  0.02000000  0.77280000  0.06750000  1.0 0.3328052422
Zn  Zn4  1  0.22720000  0.98000000  0.56750000  1.0 0.3386884336
Zn  Zn5  1  0.54140000  0.70020000  0.90544000  1.0 0.3589209041
Zn  Zn6  1  0.29980000  0.45860000  0.40544000  1.0 0.3589209041
Zn  Zn7  1  0.97070000  0.33150000  0.21990000  1.0 0.2861266537
Zn  Zn8  1  0.66850000  0.02930000  0.71990000  1.0 0.2861266537
Zn  Zn9  1  0.03000000  0.77420000  0.05720000  1.0 0.3001800543
Zn  Zn10  1  0.22580000  0.97000000  0.55720000  1.0 0.3001800543
Zn  Zn11  1  0.31750000  0.96970000  0.27060000  1.0 0.2861266537
Zn  Zn12  1  0.03030000  0.68250000  0.77060000  1.0 0.2861266537
Zn  Zn13  1  0.77280000  0.02000000  0.43250000  1.0 0.3386884336
Zn  Zn14  1  0.98000000  0.22720000  0.93250000  1.0 0.3386884336
Zn  Zn15  1  0.70020000  0.54140000  0.59456000  1.0 0.3589209041
Zn  Zn16  1  0.45860000  0.29980000  0.09456000  1.0 0.3589209041
Zn  Zn17  1  0.33150000  0.97070000  0.28010000  1.0 0.2861266537
Zn  Zn18  1  0.02930000  0.66850000  0.78010000  1.0 0.2861266537
Zn  Zn19  1  0.77420000  0.03000000  0.44280000  1.0 0.3001800543
Zn  Zn20  1  0.97000000  0.22580000  0.94280000  1.0 0.3001800543
H  H1  1  0.83780000  0.11960000  0.26820000  1.0 0.0594877696
H  H2  1  0.88040000  0.16220000  0.76820000  1.0 0.0594877696
H  H3  1  0.67470000  0.97330000  0.26740000  1.0 0.1217919664
H  H4  1  0.02670000  0.32530000  0.76740000  1.0 0.1217919664
H  H5  1  0.61590000  0.09990000  0.16610000  1.0 0.1262684008
H  H6  1  0.90010000  0.38410000  0.66610000  1.0 0.1262684008
H  H7  1  0.78180000  0.24280000  0.17170000  1.0 0.0679852819
H  H8  1  0.75720000  0.21820000  0.67170000  1.0 0.0679852819
H  H9  1  0.46960000  0.63100000  0.35680000  1.0 0.0806365824
H  H10  1  0.36900000  0.53040000  0.85680000  1.0 0.0806365824
H  H11  1  0.51370000  0.75490000  0.30170000  1.0 0.1082355768
H  H12  1  0.24510000  0.48630000  0.80170000  1.0 0.1082355768
H  H13  1  0.23280000  0.62980000  0.28510000  1.0 0.1082355768
H  H14  1  0.37020000  0.76720000  0.78510000  1.0 0.1082355768
H  H15  1  0.19670000  0.51390000  0.34260000  1.0 0.0594877696
H  H16  1  0.48610000  0.80330000  0.84260000  1.0 0.0594877696
H  H17  1  0.24200000  0.92520000  0.07870000  1.0 0.0594877696
H  H18  1  0.07480000  0.75800000  0.57870000  1.0 0.0594877696
H  H19  1  0.36910000  0.95530000  0.12470000  1.0 0.1082355768
H  H20  1  0.04470000  0.63090000  0.62470000  1.0 0.1082355768
H  H21  1  0.16950000  0.69730000  0.19310000  1.0 0.0971339709
H  H22  1  0.30270000  0.83050000  0.69310000  1.0 0.0971339709
H  H23  1  0.04710000  0.67730000  0.14670000  1.0 0.0594877696
H  H24  1  0.32270000  0.95290000  0.64670000  1.0 0.0594877696
H  H25  1  0.06100000  0.41980000  0.13950000  1.0 0.0594877696
H  H26  1  0.58020000  0.93900000  0.63950000  1.0 0.0594877696
H  H27  1  0.12800000  0.40800000  0.08860000  1.0 0.1217919664
H  H28  1  0.59200000  0.87200000  0.58860000  1.0 0.1217919664
H  H29  1  0.05880000  0.17040000  0.16340000  1.0 0.1217919664
H  H30  1  0.82960000  0.94120000  0.66340000  1.0 0.1217919664
H  H31  1  0.99800000  0.19360000  0.21270000  1.0 0.0679852819
H  H32  1  0.80640000  0.00200000  0.71270000  1.0 0.0679852819
H  H33  1  0.15350000  0.10410000  0.99740000  1.0 0.1217919664
H  H34  1  0.89590000  0.84650000  0.49740000  1.0 0.1217919664
H  H35  1  0.10810000  0.95530000  0.00080000  1.0 0.0679852819
H  H36  1  0.04470000  0.89190000  0.50080000  1.0 0.0679852819
H  H37  1  0.04610000  0.02110000  0.11630000  1.0 0.1217919664
H  H38  1  0.97890000  0.95390000  0.61630000  1.0 0.1217919664
H  H39  1  0.01060000  0.87700000  0.11630000  1.0 0.0679852819
H  H40  1  0.12300000  0.98940000  0.61630000  1.0 0.0679852819
H  H41  1  0.45770000  0.49370000  0.93450000  1.0 0.0883638701
H  H42  1  0.50630000  0.54230000  0.43450000  1.0 0.0883638701
H  H43  1  0.33890000  0.35570000  0.97860000  1.0 0.1217919664
H  H44  1  0.64430000  0.66110000  0.47860000  1.0 0.1217919664
H  H45  1  0.30010000  0.51530000  0.01970000  1.0 0.1217919664
H  H46  1  0.48470000  0.69990000  0.51970000  1.0 0.1217919664
H  H47  1  0.42000000  0.64840000  0.97460000  1.0 0.0679852819
H  H48  1  0.35160000  0.58000000  0.47460000  1.0 0.0679852819
H  H49  1  0.11960000  0.83780000  0.23180000  1.0 0.0594877696
H  H50  1  0.16220000  0.88040000  0.73180000  1.0 0.0594877696
H  H51  1  0.97330000  0.67470000  0.23260000  1.0 0.1217919664
H  H52  1  0.32530000  0.02670000  0.73260000  1.0 0.1217919664
H  H53  1  0.09990000  0.61590000  0.33390000  1.0 0.1262684008
H  H54  1  0.38410000  0.90010000  0.83390000  1.0 0.1262684008
H  H55  1  0.24280000  0.78180000  0.32830000  1.0 0.0679852819
H  H56  1  0.21820000  0.75720000  0.82830000  1.0 0.0679852819
H  H57  1  0.63100000  0.46960000  0.14320000  1.0 0.0806365824
H  H58  1  0.53040000  0.36900000  0.64320000  1.0 0.0806365824
H  H59  1  0.75490000  0.51370000  0.19830000  1.0 0.1082355768
H  H60  1  0.48630000  0.24510000  0.69830000  1.0 0.1082355768
H  H61  1  0.62980000  0.23280000  0.21490000  1.0 0.1082355768
H  H62  1  0.76720000  0.37020000  0.71490000  1.0 0.1082355768
H  H63  1  0.51390000  0.19670000  0.15740000  1.0 0.0594877696
H  H64  1  0.80330000  0.48610000  0.65740000  1.0 0.0594877696
H  H65  1  0.92520000  0.24200000  0.42130000  1.0 0.0594877696
H  H66  1  0.75800000  0.07480000  0.92130000  1.0 0.0594877696
H  H67  1  0.95530000  0.36910000  0.37530000  1.0 0.1082355768
H  H68  1  0.63090000  0.04470000  0.87530000  1.0 0.1082355768
H  H69  1  0.69730000  0.16950000  0.30690000  1.0 0.0971339709
H  H70  1  0.83050000  0.30270000  0.80690000  1.0 0.0971339709
H  H71  1  0.67730000  0.04710000  0.35330000  1.0 0.0594877696
H  H72  1  0.95290000  0.32270000  0.85330000  1.0 0.0594877696
H  H73  1  0.41980000  0.06100000  0.36050000  1.0 0.0594877696
H  H74  1  0.93900000  0.58020000  0.86050000  1.0 0.0594877696
H  H75  1  0.40800000  0.12800000  0.41140000  1.0 0.1217919664
H  H76  1  0.87200000  0.59200000  0.91140000  1.0 0.1217919664
H  H77  1  0.17040000  0.05880000  0.33660000  1.0 0.1217919664
H  H78  1  0.94120000  0.82960000  0.83660000  1.0 0.1217919664
H  H79  1  0.19360000  0.99800000  0.28730000  1.0 0.0679852819
H  H80  1  0.00200000  0.80640000  0.78730000  1.0 0.0679852819
H  H81  1  0.10410000  0.15350000  0.50260000  1.0 0.1217919664
H  H82  1  0.84650000  0.89590000  0.00260000  1.0 0.1217919664
H  H83  1  0.95530000  0.10810000  0.49920000  1.0 0.0679852819
H  H84  1  0.89190000  0.04470000  0.99920000  1.0 0.0679852819
H  H85  1  0.02110000  0.04610000  0.38370000  1.0 0.1217919664
H  H86  1  0.95390000  0.97890000  0.88370000  1.0 0.1217919664
H  H87  1  0.87700000  0.01060000  0.38370000  1.0 0.0679852819
H  H88  1  0.98940000  0.12300000  0.88370000  1.0 0.0679852819
H  H89  1  0.49370000  0.45770000  0.56550000  1.0 0.0883638701
H  H90  1  0.54230000  0.50630000  0.06550000  1.0 0.0883638701
H  H91  1  0.35570000  0.33890000  0.52140000  1.0 0.1217919664
H  H92  1  0.66110000  0.64430000  0.02140000  1.0 0.1217919664
H  H93  1  0.51530000  0.30010000  0.48030000  1.0 0.1217919664
H  H94  1  0.69990000  0.48470000  0.98030000  1.0 0.1217919664
H  H95  1  0.64840000  0.42000000  0.52540000  1.0 0.0679852819
H  H96  1  0.58000000  0.35160000  0.02540000  1.0 0.0679852819
C  C1  1  0.79130000  0.11550000  0.24760000  1.0 0.0494626583
C  C2  1  0.88450000  0.20870000  0.74760000  1.0 0.0494626583
C  C3  1  0.69430000  0.02750000  0.24710000  1.0 -0.1709578873
C  C4  1  0.97250000  0.30570000  0.74710000  1.0 -0.1709578873
C  C5  1  0.62660000  0.02000000  0.21650000  1.0 0.0594877696
C  C6  1  0.98000000  0.37340000  0.71650000  1.0 0.0594877696
C  C7  1  0.65990000  0.10190000  0.18780000  1.0 -0.1709578873
C  C8  1  0.89810000  0.34010000  0.68780000  1.0 -0.1709578873
C  C9  1  0.75900000  0.18700000  0.19150000  1.0 0.0494626583
C  C10  1  0.81300000  0.24100000  0.69150000  1.0 0.0494626583
C  C11  1  0.52060000  0.92820000  0.21660000  1.0 0.3328052422
C  C12  1  0.07180000  0.47940000  0.71660000  1.0 0.3328052422
C  C13  1  0.40460000  0.78100000  0.25090000  1.0 0.3589209041
C  C14  1  0.21900000  0.59540000  0.75090000  1.0 0.3513986852
C  C15  1  0.36160000  0.84160000  0.19440000  1.0 0.3386884336
C  C16  1  0.15840000  0.63840000  0.69440000  1.0 0.3386884336
C  C17  1  0.42140000  0.63240000  0.34270000  1.0 0.0594877696
C  C18  1  0.36760000  0.57860000  0.84270000  1.0 0.0594877696
C  C19  1  0.44780000  0.70520000  0.30930000  1.0 -0.1613541981
C  C20  1  0.29480000  0.55220000  0.80930000  1.0 -0.1613541981
C  C21  1  0.37790000  0.70410000  0.28780000  1.0 0.0494626583
C  C22  1  0.29590000  0.62210000  0.78780000  1.0 0.0494626583
C  C23  1  0.28300000  0.63200000  0.30000000  1.0 -0.1856105784
C  C24  1  0.36800000  0.71700000  0.80000000  1.0 -0.1856105784
C  C25  1  0.26200000  0.56340000  0.33420000  1.0 0.0424572816
C  C26  1  0.43660000  0.73800000  0.83420000  1.0 0.0424572816
C  C27  1  0.22710000  0.87830000  0.10270000  1.0 0.0329893166
C  C28  1  0.12170000  0.77290000  0.60270000  1.0 0.0329893166
C  C29  1  0.30350000  0.89630000  0.12960000  1.0 -0.1709578873
C  C30  1  0.10370000  0.69650000  0.62960000  1.0 -0.1709578873
C  C31  1  0.28490000  0.82930000  0.16370000  1.0 0.0494626583
C  C32  1  0.17070000  0.71510000  0.66370000  1.0 0.0494626583
C  C33  1  0.18620000  0.74580000  0.16970000  1.0 -0.1613541981
C  C34  1  0.25420000  0.81380000  0.66970000  1.0 -0.1613541981
C  C35  1  0.11370000  0.73390000  0.14180000  1.0 0.0221793796
C  C36  1  0.26610000  0.88630000  0.64180000  1.0 0.0221793796
C  C37  1  0.06080000  0.36860000  0.14420000  1.0 0.0424572816
C  C38  1  0.63140000  0.93920000  0.64420000  1.0 0.0424572816
C  C39  1  0.10050000  0.36210000  0.11370000  1.0 -0.1613541981
C  C40  1  0.63790000  0.89950000  0.61370000  1.0 -0.1613541981
C  C41  1  0.09880000  0.28620000  0.12070000  1.0 0.0594877696
C  C42  1  0.71380000  0.90120000  0.62070000  1.0 0.0594877696
C  C43  1  0.06040000  0.22260000  0.15770000  1.0 -0.1613541981
C  C44  1  0.77740000  0.93960000  0.65770000  1.0 -0.1613541981
C  C45  1  0.02350000  0.23670000  0.18670000  1.0 0.0594877696
C  C46  1  0.76330000  0.97650000  0.68670000  1.0 0.0594877696
C  C47  1  0.13740000  0.27360000  0.08850000  1.0 0.3386884336
C  C48  1  0.72640000  0.86260000  0.58850000  1.0 0.3386884336
C  C49  1  0.23230000  0.33610000  0.03320000  1.0 0.3513986852
C  C50  1  0.66390000  0.76770000  0.53320000  1.0 0.3513986852
C  C51  1  0.14010000  0.17790000  0.05810000  1.0 0.3513986852
C  C52  1  0.82210000  0.85990000  0.55810000  1.0 0.3513986852
C  C53  1  0.12500000  0.05900000  0.02270000  1.0 -0.1709578873
C  C54  1  0.94100000  0.87500000  0.52270000  1.0 -0.1709578873
C  C55  1  0.09810000  0.97070000  0.02500000  1.0 0.0221793796
C  C56  1  0.02930000  0.90190000  0.52500000  1.0 0.0221793796
C  C57  1  0.10980000  0.08200000  0.05780000  1.0 0.0594877696
C  C58  1  0.91800000  0.89020000  0.55780000  1.0 0.0594877696
C  C59  1  0.06260000  0.01080000  0.09260000  1.0 -0.1613541981
C  C60  1  0.98920000  0.93740000  0.59260000  1.0 -0.1613541981
C  C61  1  0.04060000  0.92460000  0.09190000  1.0 0.0494626583
C  C62  1  0.07540000  0.95940000  0.59190000  1.0 0.0494626583
C  C63  1  0.42500000  0.49800000  0.95200000  1.0 0.0594877696
C  C64  1  0.50200000  0.57500000  0.45200000  1.0 0.0594877696
C  C65  1  0.35460000  0.41540000  0.97840000  1.0 -0.1818941394
C  C66  1  0.58460000  0.64540000  0.47840000  1.0 -0.1818941394
C  C67  1  0.30850000  0.42230000  0.00400000  1.0 0.0494626583
C  C68  1  0.57770000  0.69150000  0.50400000  1.0 0.0494626583
C  C69  1  0.33190000  0.50910000  0.00250000  1.0 -0.1613541981
C  C70  1  0.49090000  0.66810000  0.50250000  1.0 -0.1613541981
C  C71  1  0.40300000  0.58780000  0.97530000  1.0 0.0594877696
C  C72  1  0.41220000  0.59700000  0.47530000  1.0 0.0594877696
C  C73  1  0.11550000  0.79130000  0.25240000  1.0 0.0494626583
C  C74  1  0.20870000  0.88450000  0.75240000  1.0 0.0494626583
C  C75  1  0.02750000  0.69430000  0.25290000  1.0 -0.1709578873
C  C76  1  0.30570000  0.97250000  0.75290000  1.0 -0.1709578873
C  C77  1  0.02000000  0.62660000  0.28350000  1.0 0.0594877696
C  C78  1  0.37340000  0.98000000  0.78350000  1.0 0.0594877696
C  C79  1  0.10190000  0.65990000  0.31220000  1.0 -0.1709578873
C  C80  1  0.34010000  0.89810000  0.81220000  1.0 -0.1709578873
C  C81  1  0.18700000  0.75900000  0.30850000  1.0 0.0494626583
C  C82  1  0.24100000  0.81300000  0.80850000  1.0 0.0494626583
C  C83  1  0.92820000  0.52060000  0.28340000  1.0 0.3328052422
C  C84  1  0.47940000  0.07180000  0.78340000  1.0 0.3328052422
C  C85  1  0.78100000  0.40460000  0.24910000  1.0 0.3513986852
C  C86  1  0.59540000  0.21900000  0.74910000  1.0 0.3513986852
C  C87  1  0.84160000  0.36160000  0.30560000  1.0 0.3386884336
C  C88  1  0.63840000  0.15840000  0.80560000  1.0 0.3386884336
C  C89  1  0.63240000  0.42140000  0.15730000  1.0 0.0594877696
C  C90  1  0.57860000  0.36760000  0.65730000  1.0 0.0594877696
C  C91  1  0.70520000  0.44780000  0.19070000  1.0 -0.1613541981
C  C92  1  0.55220000  0.29480000  0.69070000  1.0 -0.1613541981
C  C93  1  0.70410000  0.37790000  0.21220000  1.0 0.0494626583
C  C94  1  0.62210000  0.29590000  0.71220000  1.0 0.0494626583
C  C95  1  0.63200000  0.28300000  0.20000000  1.0 -0.1856105784
C  C96  1  0.71700000  0.36800000  0.70000000  1.0 -0.1856105784
C  C97  1  0.56340000  0.26200000  0.16580000  1.0 0.0424572816
C  C98  1  0.73800000  0.43660000  0.66580000  1.0 0.0424572816
C  C99  1  0.87830000  0.22710000  0.39730000  1.0 0.0329893166
C  C100  1  0.77290000  0.12170000  0.89730000  1.0 0.0329893166
C  C101  1  0.89630000  0.30350000  0.37040000  1.0 -0.1709578873
C  C102  1  0.69650000  0.10370000  0.87040000  1.0 -0.1709578873
C  C103  1  0.82930000  0.28490000  0.33630000  1.0 0.0494626583
C  C104  1  0.71510000  0.17070000  0.83630000  1.0 0.0494626583
C  C105  1  0.74580000  0.18620000  0.33030000  1.0 -0.1613541981
C  C106  1  0.81380000  0.25420000  0.83030000  1.0 -0.1613541981
C  C107  1  0.73390000  0.11370000  0.35820000  1.0 0.0221793796
C  C108  1  0.88630000  0.26610000  0.85820000  1.0 0.0221793796
C  C109  1  0.36860000  0.06080000  0.35580000  1.0 0.0424572816
C  C110  1  0.93920000  0.63140000  0.85580000  1.0 0.0424572816
C  C111  1  0.36210000  0.10050000  0.38630000  1.0 -0.1613541981
C  C112  1  0.89950000  0.63790000  0.88630000  1.0 -0.1613541981
C  C113  1  0.28620000  0.09880000  0.37930000  1.0 0.0594877696
C  C114  1  0.90120000  0.71380000  0.87930000  1.0 0.0594877696
C  C115  1  0.22260000  0.06040000  0.34230000  1.0 -0.1613541981
C  C116  1  0.93960000  0.77740000  0.84230000  1.0 -0.1613541981
C  C117  1  0.23670000  0.02350000  0.31330000  1.0 0.0494626583
C  C118  1  0.97650000  0.76330000  0.81330000  1.0 0.0494626583
C  C119  1  0.27360000  0.13740000  0.41150000  1.0 0.3386884336
C  C120  1  0.86260000  0.72640000  0.91150000  1.0 0.3386884336
C  C121  1  0.33610000  0.23230000  0.46680000  1.0 0.3513986852
C  C122  1  0.76770000  0.66390000  0.96680000  1.0 0.3513986852
C  C123  1  0.17790000  0.14010000  0.44190000  1.0 0.3513986852
C  C124  1  0.85990000  0.82210000  0.94190000  1.0 0.3513986852
C  C125  1  0.05900000  0.12500000  0.47730000  1.0 -0.1709578873
C  C126  1  0.87500000  0.94100000  0.97730000  1.0 -0.1709578873
C  C127  1  0.97070000  0.09810000  0.47500000  1.0 0.0221793796
C  C128  1  0.90190000  0.02930000  0.97500000  1.0 0.0221793796
C  C129  1  0.08200000  0.10980000  0.44220000  1.0 0.0594877696
C  C130  1  0.89020000  0.91800000  0.94220000  1.0 0.0594877696
C  C131  1  0.01080000  0.06260000  0.40740000  1.0 -0.1613541981
C  C132  1  0.93740000  0.98920000  0.90740000  1.0 -0.1613541981
C  C133  1  0.92460000  0.04060000  0.40810000  1.0 0.0494626583
C  C134  1  0.95940000  0.07540000  0.90810000  1.0 0.0494626583
C  C135  1  0.49800000  0.42500000  0.54800000  1.0 0.0594877696
C  C136  1  0.57500000  0.50200000  0.04800000  1.0 0.0494626583
C  C137  1  0.41540000  0.35460000  0.52160000  1.0 -0.1818941394
C  C138  1  0.64540000  0.58460000  0.02160000  1.0 -0.1818941394
C  C139  1  0.42230000  0.30850000  0.49600000  1.0 0.0494626583
C  C140  1  0.69150000  0.57770000  0.99600000  1.0 0.0494626583
C  C141  1  0.50910000  0.33190000  0.49750000  1.0 -0.1613541981
C  C142  1  0.66810000  0.49090000  0.99750000  1.0 -0.1613541981
C  C143  1  0.58780000  0.40300000  0.52470000  1.0 0.0594877696
C  C144  1  0.59700000  0.41220000  0.02470000  1.0 0.0594877696
I  I1  1  0.04057000  0.29743000  0.30341000  1.0 0.0120450328
I  I2  1  0.70257000  0.95943000  0.80341000  1.0 0.0120450328
I  I3  1  0.99562000  0.46938000  0.20295000  1.0 -0.027385954
I  I4  1  0.53062000  0.00438000  0.70295000  1.0 -0.020698031
I  I5  1  0.86301000  0.64773000  0.10669000  1.0 -0.0029817661
I  I6  1  0.35227000  0.13699000  0.60669000  1.0 -0.0029817661
I  I7  1  0.04648000  0.75592000  0.99434000  1.0 -0.0617084676
I  I8  1  0.24408000  0.95352000  0.49434000  1.0 -0.0617084676
I  I9  1  0.62437000  0.66411000  0.87197000  1.0 -0.4499988751
I  I10  1  0.33589000  0.37563000  0.37197000  1.0 -0.4499988751
I  I11  1  0.61043000  0.85257000  0.93640000  1.0 -0.1403939137
I  I12  1  0.14743000  0.38957000  0.43640000  1.0 -0.1403939137
I  I13  1  0.04520000  0.32680000  0.29660000  1.0 -0.020698031
I  I14  1  0.67320000  0.95480000  0.79660000  1.0 -0.020698031
I  I15  1  0.97020000  0.46560000  0.18920000  1.0 0.0329893166
I  I16  1  0.53440000  0.02980000  0.68920000  1.0 0.0329893166
I  I17  1  0.86711000  0.63349000  0.09128000  1.0 -0.0617084676
I  I18  1  0.36651000  0.13289000  0.59128000  1.0 -0.0533970355
I  I19  1  0.06857000  0.77223000  0.98365000  1.0 0.004381198
I  I20  1  0.22777000  0.93143000  0.48365000  1.0 0.004381198
I  I21  1  0.62590000  0.85470000  0.94293000  1.0 -0.1403939137
I  I22  1  0.14530000  0.37410000  0.44293000  1.0 -0.1403939137
I  I23  1  0.29743000  0.04057000  0.19659000  1.0 0.0120450328
I  I24  1  0.95943000  0.70257000  0.69659000  1.0 0.0120450328
I  I25  1  0.46938000  0.99562000  0.29705000  1.0 -0.027385954
I  I26  1  0.00438000  0.53062000  0.79705000  1.0 -0.020698031
I  I27  1  0.64773000  0.86301000  0.39331000  1.0 -0.0029817661
I  I28  1  0.13699000  0.35227000  0.89331000  1.0 -0.0029817661
I  I29  1  0.75592000  0.04648000  0.50566000  1.0 -0.0617084676
I  I30  1  0.95352000  0.24408000  0.00566000  1.0 -0.0617084676
I  I31  1  0.66411000  0.62437000  0.62803000  1.0 -0.4499988751
I  I32  1  0.37563000  0.33589000  0.12803000  1.0 -0.4499988751
I  I33  1  0.85257000  0.61043000  0.56360000  1.0 -0.1403939137
I  I34  1  0.38957000  0.14743000  0.06360000  1.0 -0.1403939137
I  I35  1  0.32680000  0.04520000  0.20340000  1.0 -0.020698031
I  I36  1  0.95480000  0.67320000  0.70340000  1.0 -0.020698031
I  I37  1  0.46560000  0.97020000  0.31080000  1.0 0.0329893166
I  I38  1  0.02980000  0.53440000  0.81080000  1.0 0.0329893166
I  I39  1  0.63349000  0.86711000  0.40872000  1.0 -0.0533970355
I  I40  1  0.13289000  0.36651000  0.90872000  1.0 -0.0533970355
I  I41  1  0.77223000  0.06857000  0.51635000  1.0 0.004381198
I  I42  1  0.93143000  0.22777000  0.01635000  1.0 0.004381198
I  I43  1  0.85470000  0.62590000  0.55707000  1.0 -0.1403939137
I  I44  1  0.37410000  0.14530000  0.05707000  1.0 -0.1403939137
N  N1  1  0.82250000  0.19350000  0.22140000  1.0 -0.2124234931
N  N2  1  0.80650000  0.17750000  0.72140000  1.0 -0.2124234931
N  N3  1  0.50003000  0.85797000  0.24770000  1.0 -0.4499988751
N  N4  1  0.14203000  0.49997000  0.74770000  1.0 -0.4499988751
N  N5  1  0.33316000  0.77024000  0.22630000  1.0 -0.4315142492
N  N6  1  0.22976000  0.66684000  0.72630000  1.0 -0.4315142492
N  N7  1  0.45589000  0.92331000  0.18830000  1.0 -0.4390947064
N  N8  1  0.07669000  0.54411000  0.68830000  1.0 -0.4390947064
N  N9  1  0.33020000  0.56420000  0.35580000  1.0 -0.1709578873
N  N10  1  0.43580000  0.66980000  0.85580000  1.0 -0.1709578873
N  N11  1  0.13339000  0.79901000  0.10820000  1.0 -0.200508465
N  N12  1  0.20099000  0.86661000  0.60820000  1.0 -0.200508465
N  N13  1  0.02230000  0.30630000  0.17970000  1.0 -0.200508465
N  N14  1  0.69370000  0.97770000  0.67970000  1.0 -0.200508465
N  N15  1  0.20080000  0.35240000  0.06180000  1.0 -0.4390947064
N  N16  1  0.64760000  0.79920000  0.56180000  1.0 -0.4390947064
N  N17  1  0.20120000  0.24900000  0.02864000  1.0 -0.4390947064
N  N18  1  0.75100000  0.79880000  0.52864000  1.0 -0.4390947064
N  N19  1  0.10604000  0.18536000  0.08910000  1.0 -0.4390947064
N  N20  1  0.81464000  0.89396000  0.58910000  1.0 -0.4390947064
N  N21  1  0.05860000  0.90460000  0.05960000  1.0 -0.2212468544
N  N22  1  0.09540000  0.94140000  0.55960000  1.0 -0.2212468544
N  N23  1  0.44820000  0.58260000  0.95030000  1.0 -0.200508465
N  N24  1  0.41740000  0.55180000  0.45030000  1.0 -0.200508465
N  N25  1  0.19350000  0.82250000  0.27860000  1.0 -0.2124234931
N  N26  1  0.17750000  0.80650000  0.77860000  1.0 -0.2124234931
N  N27  1  0.85797000  0.50003000  0.25230000  1.0 -0.4499988751
N  N28  1  0.49997000  0.14203000  0.75230000  1.0 -0.4499988751
N  N29  1  0.77024000  0.33316000  0.27370000  1.0 -0.4315142492
N  N30  1  0.66684000  0.22976000  0.77370000  1.0 -0.4315142492
N  N31  1  0.92331000  0.45589000  0.31170000  1.0 -0.4390947064
N  N32  1  0.54411000  0.07669000  0.81170000  1.0 -0.4390947064
N  N33  1  0.56420000  0.33020000  0.14420000  1.0 -0.1709578873
N  N34  1  0.66980000  0.43580000  0.64420000  1.0 -0.1709578873
N  N35  1  0.79901000  0.13339000  0.39180000  1.0 -0.200508465
N  N36  1  0.86661000  0.20099000  0.89180000  1.0 -0.200508465
N  N37  1  0.30630000  0.02230000  0.32030000  1.0 -0.200508465
N  N38  1  0.97770000  0.69370000  0.82030000  1.0 -0.200508465
N  N39  1  0.35240000  0.20080000  0.43820000  1.0 -0.4390947064
N  N40  1  0.79920000  0.64760000  0.93820000  1.0 -0.4390947064
N  N41  1  0.24900000  0.20120000  0.47136000  1.0 -0.4390947064
N  N42  1  0.79880000  0.75100000  0.97136000  1.0 -0.4390947064
N  N43  1  0.18536000  0.10604000  0.41090000  1.0 -0.4390947064
N  N44  1  0.89396000  0.81464000  0.91090000  1.0 -0.4390947064
N  N45  1  0.90460000  0.05860000  0.44040000  1.0 -0.2212468544
N  N46  1  0.94140000  0.09540000  0.94040000  1.0 -0.2212468544
N  N47  1  0.58260000  0.44820000  0.54970000  1.0 -0.200508465
N  N48  1  0.55180000  0.41740000  0.04970000  1.0 -0.200508465
