# DDEC6 charges by PACMAN v1.1 (https://github.com/mtap-research/PACMAN-charge/)
data_IWEWAK_FSR_pacman
_symmetry_space_group_name_H-M   'P 1'
_cell_length_a   19.06110000
_cell_length_b   19.06110000
_cell_length_c   30.30990000
_cell_angle_alpha   79.44630000
_cell_angle_beta   100.55400000
_cell_angle_gamma   133.76800000
_symmetry_Int_Tables_number   1
_chemical_formula_structural   Zn5H24C36I13N12
_chemical_formula_sum   'Zn20 H96 C144 I52 N48'
_cell_volume   7793.24433027
_cell_formula_units_Z   4
loop_
 _symmetry_equiv_pos_site_id
 _symmetry_equiv_pos_as_xyz
  1  'x, y, z'
loop_
 _atom_site_type_symbol
 _atom_site_label
 _atom_site_symmetry_multiplicity
 _atom_site_fract_x
 _atom_site_fract_y
 _atom_site_fract_z
 _atom_site_occupancy
 _atom_site_charge
Zn  Zn1  1  0.77857000  0.03431000  0.94379000  1.0 0.2487548517
Zn  Zn2  1  0.96569000  0.22143000  0.44379000  1.0 0.2487548517
Zn  Zn3  1  0.45440000  0.29342000  0.59246000  1.0 0.291632414
Zn  Zn4  1  0.70658000  0.54560000  0.09246000  1.0 0.291632414
Zn  Zn5  1  0.31080000  0.96800000  0.76990000  1.0 0.3723845385
Zn  Zn6  1  0.03200000  0.68920000  0.26990000  1.0 0.3723845385
Zn  Zn7  1  0.77060000  0.05220000  0.96090000  1.0 -0.0376903161
Zn  Zn8  1  0.94780000  0.22940000  0.46090000  1.0 -0.0376903161
Zn  Zn9  1  0.31680000  0.96160000  0.77940000  1.0 0.3807186486
Zn  Zn10  1  0.03840000  0.68320000  0.27940000  1.0 0.3807186486
Zn  Zn11  1  0.03431000  0.77857000  0.55621000  1.0 0.2487548517
Zn  Zn12  1  0.22143000  0.96569000  0.05621000  1.0 0.2487548517
Zn  Zn13  1  0.29342000  0.45440000  0.90754000  1.0 0.291632414
Zn  Zn14  1  0.54560000  0.70658000  0.40754000  1.0 0.291632414
Zn  Zn15  1  0.96800000  0.31080000  0.73010000  1.0 0.3807186486
Zn  Zn16  1  0.68920000  0.03200000  0.23010000  1.0 0.3723845385
Zn  Zn17  1  0.05220000  0.77060000  0.53910000  1.0 -0.0376903161
Zn  Zn18  1  0.22940000  0.94780000  0.03910000  1.0 -0.0376903161
Zn  Zn19  1  0.96160000  0.31680000  0.72060000  1.0 0.3866229804
Zn  Zn20  1  0.68320000  0.03840000  0.22060000  1.0 0.3866229804
H  H1  1  0.67020000  0.05180000  0.86310000  1.0 0.0701076026
H  H2  1  0.94820000  0.32980000  0.36310000  1.0 0.0701076026
H  H3  1  0.92610000  0.24810000  0.92480000  1.0 0.0701076026
H  H4  1  0.75190000  0.07390000  0.42480000  1.0 0.0701076026
H  H5  1  0.69030000  0.16790000  0.81200000  1.0 0.0908084774
H  H6  1  0.83210000  0.30970000  0.31200000  1.0 0.0908084774
H  H7  1  0.95630000  0.37150000  0.87420000  1.0 0.1080956411
H  H8  1  0.62850000  0.04370000  0.37420000  1.0 0.1080956411
H  H9  1  0.61630000  0.22470000  0.71860000  1.0 0.1080956411
H  H10  1  0.77530000  0.38370000  0.21860000  1.0 0.1080956411
H  H11  1  0.77150000  0.51010000  0.68310000  1.0 0.1080956411
H  H12  1  0.48990000  0.22850000  0.18310000  1.0 0.1080956411
H  H13  1  0.97360000  0.66800000  0.72800000  1.0 0.1271848191
H  H14  1  0.33200000  0.02640000  0.22800000  1.0 0.1271848191
H  H15  1  0.09480000  0.61340000  0.83380000  1.0 0.1271848191
H  H16  1  0.38660000  0.90520000  0.33380000  1.0 0.1271848191
H  H17  1  0.50570000  0.19070000  0.65740000  1.0 0.0594131762
H  H18  1  0.80930000  0.49430000  0.15740000  1.0 0.0594131762
H  H19  1  0.65060000  0.46640000  0.62860000  1.0 0.0701076026
H  H20  1  0.53360000  0.34940000  0.12860000  1.0 0.0701076026
H  H21  1  0.11540000  0.83000000  0.72770000  1.0 0.0701076026
H  H22  1  0.17000000  0.88460000  0.22770000  1.0 0.0701076026
H  H23  1  0.23570000  0.77570000  0.82710000  1.0 0.0701076026
H  H24  1  0.22430000  0.76430000  0.32710000  1.0 0.0701076026
H  H25  1  0.17610000  0.98090000  0.78980000  1.0 0.0701076026
H  H26  1  0.01910000  0.82390000  0.28980000  1.0 0.0701076026
H  H27  1  0.41350000  0.06410000  0.85990000  1.0 0.0594131762
H  H28  1  0.93590000  0.58650000  0.35990000  1.0 0.0594131762
H  H29  1  0.15400000  0.04160000  0.84030000  1.0 0.1209452899
H  H30  1  0.95840000  0.84600000  0.34030000  1.0 0.1209452899
H  H31  1  0.40320000  0.13500000  0.90990000  1.0 0.1271848191
H  H32  1  0.86500000  0.59680000  0.40990000  1.0 0.1271848191
H  H33  1  0.51870000  0.32670000  0.96720000  1.0 0.1271848191
H  H34  1  0.67330000  0.48130000  0.46720000  1.0 0.1271848191
H  H35  1  0.35790000  0.34110000  0.02710000  1.0 0.1271848191
H  H36  1  0.65890000  0.64210000  0.52710000  1.0 0.1271848191
H  H37  1  0.03270000  0.08330000  0.88210000  1.0 0.1271848191
H  H38  1  0.91670000  0.96730000  0.38210000  1.0 0.1271848191
H  H39  1  0.10120000  0.14840000  0.01060000  1.0 0.1271848191
H  H40  1  0.85160000  0.89880000  0.51060000  1.0 0.1271848191
H  H41  1  0.65320000  0.44380000  0.01310000  1.0 0.0806353708
H  H42  1  0.55620000  0.34680000  0.51310000  1.0 0.0806353708
H  H43  1  0.49750000  0.46010000  0.07000000  1.0 0.0806353708
H  H44  1  0.53990000  0.50250000  0.57000000  1.0 0.0806353708
H  H45  1  0.89210000  0.04770000  0.88280000  1.0 0.0701076026
H  H46  1  0.95230000  0.10790000  0.38280000  1.0 0.0701076026
H  H47  1  0.95510000  0.10630000  0.00930000  1.0 0.0806353708
H  H48  1  0.89370000  0.04490000  0.50930000  1.0 0.0806353708
H  H49  1  0.05180000  0.67020000  0.63690000  1.0 0.0701076026
H  H50  1  0.32980000  0.94820000  0.13690000  1.0 0.0701076026
H  H51  1  0.24810000  0.92610000  0.57520000  1.0 0.0701076026
H  H52  1  0.07390000  0.75190000  0.07520000  1.0 0.0701076026
H  H53  1  0.16790000  0.69030000  0.68800000  1.0 0.0908084774
H  H54  1  0.30970000  0.83210000  0.18800000  1.0 0.0908084774
H  H55  1  0.37150000  0.95630000  0.62580000  1.0 0.1080956411
H  H56  1  0.04370000  0.62850000  0.12580000  1.0 0.1080956411
H  H57  1  0.22470000  0.61630000  0.78140000  1.0 0.1080956411
H  H58  1  0.38370000  0.77530000  0.28140000  1.0 0.1080956411
H  H59  1  0.51010000  0.77150000  0.81690000  1.0 0.1080956411
H  H60  1  0.22850000  0.48990000  0.31690000  1.0 0.1080956411
H  H61  1  0.66800000  0.97360000  0.77200000  1.0 0.1271848191
H  H62  1  0.02640000  0.33200000  0.27200000  1.0 0.1271848191
H  H63  1  0.61340000  0.09480000  0.66620000  1.0 0.1271848191
H  H64  1  0.90520000  0.38660000  0.16620000  1.0 0.1271848191
H  H65  1  0.19070000  0.50570000  0.84260000  1.0 0.0594131762
H  H66  1  0.49430000  0.80930000  0.34260000  1.0 0.0594131762
H  H67  1  0.46640000  0.65060000  0.87140000  1.0 0.0701076026
H  H68  1  0.34940000  0.53360000  0.37140000  1.0 0.0701076026
H  H69  1  0.83000000  0.11540000  0.77230000  1.0 0.0701076026
H  H70  1  0.88460000  0.17000000  0.27230000  1.0 0.0701076026
H  H71  1  0.77570000  0.23570000  0.67290000  1.0 0.0701076026
H  H72  1  0.76430000  0.22430000  0.17290000  1.0 0.0701076026
H  H73  1  0.98090000  0.17610000  0.71020000  1.0 0.0701076026
H  H74  1  0.82390000  0.01910000  0.21020000  1.0 0.0701076026
H  H75  1  0.06410000  0.41350000  0.64010000  1.0 0.0594131762
H  H76  1  0.58650000  0.93590000  0.14010000  1.0 0.0594131762
H  H77  1  0.04160000  0.15400000  0.65970000  1.0 0.1209452899
H  H78  1  0.84600000  0.95840000  0.15970000  1.0 0.1209452899
H  H79  1  0.13500000  0.40320000  0.59010000  1.0 0.1271848191
H  H80  1  0.59680000  0.86500000  0.09010000  1.0 0.1271848191
H  H81  1  0.32670000  0.51870000  0.53280000  1.0 0.1271848191
H  H82  1  0.48130000  0.67330000  0.03280000  1.0 0.1271848191
H  H83  1  0.34110000  0.35790000  0.47290000  1.0 0.1271848191
H  H84  1  0.64210000  0.65890000  0.97290000  1.0 0.1271848191
H  H85  1  0.08330000  0.03270000  0.61790000  1.0 0.1271848191
H  H86  1  0.96730000  0.91670000  0.11790000  1.0 0.1271848191
H  H87  1  0.14840000  0.10120000  0.48940000  1.0 0.1271848191
H  H88  1  0.89880000  0.85160000  0.98940000  1.0 0.1271848191
H  H89  1  0.44380000  0.65320000  0.48690000  1.0 0.0806353708
H  H90  1  0.34680000  0.55620000  0.98690000  1.0 0.0806353708
H  H91  1  0.46010000  0.49750000  0.43000000  1.0 0.0806353708
H  H92  1  0.50250000  0.53990000  0.93000000  1.0 0.0806353708
H  H93  1  0.04770000  0.89210000  0.61720000  1.0 0.0701076026
H  H94  1  0.10790000  0.95230000  0.11720000  1.0 0.0701076026
H  H95  1  0.10630000  0.95510000  0.49070000  1.0 0.0806353708
H  H96  1  0.04490000  0.89370000  0.99070000  1.0 0.0806353708
C  C1  1  0.72970000  0.11790000  0.86500000  1.0 0.0164249271
C  C2  1  0.88210000  0.27030000  0.36500000  1.0 0.0164249271
C  C3  1  0.87850000  0.23170000  0.90070000  1.0 0.0400650522
C  C4  1  0.76830000  0.12150000  0.40070000  1.0 0.0400650522
C  C5  1  0.74060000  0.18660000  0.83500000  1.0 -0.1694753384
C  C6  1  0.81340000  0.25940000  0.33500000  1.0 -0.1694753384
C  C7  1  0.89610000  0.30610000  0.87130000  1.0 -0.1780885409
C  C8  1  0.69390000  0.10390000  0.37130000  1.0 -0.1780885409
C  C9  1  0.82600000  0.28480000  0.83780000  1.0 0.0400650522
C  C10  1  0.71520000  0.17400000  0.33780000  1.0 0.0301128429
C  C11  1  0.83870000  0.35970000  0.80590000  1.0 0.3389859052
C  C12  1  0.64030000  0.16130000  0.30590000  1.0 0.3389859052
C  C13  1  0.78050000  0.40010000  0.74580000  1.0 0.3526925968
C  C14  1  0.59990000  0.21950000  0.24580000  1.0 0.3526925968
C  C15  1  0.92620000  0.51740000  0.78120000  1.0 0.3526925968
C  C16  1  0.48260000  0.07380000  0.28120000  1.0 0.3526925968
C  C17  1  0.70633000  0.37307000  0.70820000  1.0 0.0501299791
C  C18  1  0.62693000  0.29367000  0.20820000  1.0 0.0501299791
C  C19  1  0.01780000  0.62300000  0.78160000  1.0 0.0501299791
C  C20  1  0.37700000  0.98220000  0.28160000  1.0 0.0501299791
C  C21  1  0.62560000  0.27620000  0.70000000  1.0 -0.1780885409
C  C22  1  0.72380000  0.37440000  0.20000000  1.0 -0.1780885409
C  C23  1  0.71550000  0.44310000  0.67980000  1.0 -0.1570442764
C  C24  1  0.55690000  0.28450000  0.17980000  1.0 -0.1498242679
C  C25  1  0.02620000  0.68860000  0.74970000  1.0 -0.1498242679
C  C26  1  0.31140000  0.97380000  0.24970000  1.0 -0.1498242679
C  C27  1  0.09720000  0.65640000  0.81100000  1.0 -0.1570442764
C  C28  1  0.34360000  0.90280000  0.31100000  1.0 -0.1570442764
C  C29  1  0.55910000  0.25670000  0.66390000  1.0 0.0594131762
C  C30  1  0.74330000  0.44090000  0.16390000  1.0 0.0594131762
C  C31  1  0.64450000  0.41650000  0.64690000  1.0 0.0400650522
C  C32  1  0.58350000  0.35550000  0.14690000  1.0 0.0400650522
C  C33  1  0.11180000  0.78480000  0.74930000  1.0 0.0400650522
C  C34  1  0.21520000  0.88820000  0.24930000  1.0 0.0400650522
C  C35  1  0.18050000  0.75350000  0.80700000  1.0 0.0301128429
C  C36  1  0.24650000  0.81950000  0.30700000  1.0 0.0301128429
C  C37  1  0.22230000  0.01150000  0.81490000  1.0 0.0594131762
C  C38  1  0.98850000  0.77770000  0.31490000  1.0 0.0594131762
C  C39  1  0.36090000  0.06110000  0.85550000  1.0 0.0301128429
C  C40  1  0.93890000  0.63910000  0.35550000  1.0 0.0301128429
C  C41  1  0.20960000  0.04920000  0.84450000  1.0 -0.1498242679
C  C42  1  0.95080000  0.79040000  0.34450000  1.0 -0.1498242679
C  C43  1  0.35470000  0.10290000  0.88560000  1.0 -0.1435584648
C  C44  1  0.89710000  0.64530000  0.38560000  1.0 -0.1435584648
C  C45  1  0.27880000  0.09800000  0.88040000  1.0 0.0400650522
C  C46  1  0.90200000  0.72120000  0.38040000  1.0 0.0400650522
C  C47  1  0.26830000  0.13850000  0.91210000  1.0 0.3325125912
C  C48  1  0.86150000  0.73170000  0.41210000  1.0 0.3325125912
C  C49  1  0.33420000  0.23940000  0.96660000  1.0 0.3325125912
C  C50  1  0.76060000  0.66580000  0.46660000  1.0 0.3325125912
C  C51  1  0.17660000  0.14640000  0.94470000  1.0 0.3389859052
C  C52  1  0.85360000  0.82340000  0.44470000  1.0 0.3389859052
C  C53  1  0.42340000  0.31820000  0.99450000  1.0 0.0501299791
C  C54  1  0.68180000  0.57660000  0.49450000  1.0 0.0501299791
C  C55  1  0.08270000  0.11770000  0.94580000  1.0 0.0400650522
C  C56  1  0.88230000  0.91730000  0.44580000  1.0 0.0400650522
C  C57  1  0.51200000  0.35140000  0.98910000  1.0 -0.1498242679
C  C58  1  0.64860000  0.48800000  0.48910000  1.0 -0.1498242679
C  C59  1  0.41800000  0.36020000  0.02400000  1.0 -0.1694753384
C  C60  1  0.63980000  0.58200000  0.52400000  1.0 -0.1694753384
C  C61  1  0.01830000  0.08850000  0.90900000  1.0 -0.1694753384
C  C62  1  0.91150000  0.98170000  0.40900000  1.0 -0.1694753384
C  C63  1  0.05800000  0.12600000  0.98410000  1.0 -0.1694753384
C  C64  1  0.87400000  0.94200000  0.48410000  1.0 -0.1694753384
C  C65  1  0.59190000  0.42190000  0.01620000  1.0 0.0594131762
C  C66  1  0.57810000  0.40810000  0.51620000  1.0 0.0594131762
C  C67  1  0.50150000  0.43110000  0.04940000  1.0 0.0501299791
C  C68  1  0.56890000  0.49850000  0.54940000  1.0 0.0501299791
C  C69  1  0.93430000  0.06670000  0.90960000  1.0 0.0400650522
C  C70  1  0.93330000  0.06570000  0.40960000  1.0 0.0400650522
C  C71  1  0.97140000  0.10140000  0.98300000  1.0 0.0301128429
C  C72  1  0.89860000  0.02860000  0.48300000  1.0 0.0301128429
C  C73  1  0.11790000  0.72970000  0.63500000  1.0 0.0164249271
C  C74  1  0.27030000  0.88210000  0.13500000  1.0 0.0164249271
C  C75  1  0.23170000  0.87850000  0.59930000  1.0 0.0400650522
C  C76  1  0.12150000  0.76830000  0.09930000  1.0 0.0400650522
C  C77  1  0.18660000  0.74060000  0.66500000  1.0 -0.1694753384
C  C78  1  0.25940000  0.81340000  0.16500000  1.0 -0.1694753384
C  C79  1  0.30610000  0.89610000  0.62870000  1.0 -0.1780885409
C  C80  1  0.10390000  0.69390000  0.12870000  1.0 -0.1780885409
C  C81  1  0.28480000  0.82600000  0.66220000  1.0 0.0400650522
C  C82  1  0.17400000  0.71520000  0.16220000  1.0 0.0301128429
C  C83  1  0.35970000  0.83870000  0.69410000  1.0 0.3389859052
C  C84  1  0.16130000  0.64030000  0.19410000  1.0 0.3389859052
C  C85  1  0.40010000  0.78050000  0.75420000  1.0 0.3526925968
C  C86  1  0.21950000  0.59990000  0.25420000  1.0 0.3526925968
C  C87  1  0.51740000  0.92620000  0.71880000  1.0 0.3526925968
C  C88  1  0.07380000  0.48260000  0.21880000  1.0 0.3526925968
C  C89  1  0.37307000  0.70633000  0.79180000  1.0 0.0501299791
C  C90  1  0.29367000  0.62693000  0.29180000  1.0 0.0501299791
C  C91  1  0.62300000  0.01780000  0.71840000  1.0 0.0501299791
C  C92  1  0.98220000  0.37700000  0.21840000  1.0 0.0501299791
C  C93  1  0.27620000  0.62560000  0.80000000  1.0 -0.1780885409
C  C94  1  0.37440000  0.72380000  0.30000000  1.0 -0.1780885409
C  C95  1  0.44310000  0.71550000  0.82020000  1.0 -0.1570442764
C  C96  1  0.28450000  0.55690000  0.32020000  1.0 -0.1498242679
C  C97  1  0.68860000  0.02620000  0.75030000  1.0 -0.1498242679
C  C98  1  0.97380000  0.31140000  0.25030000  1.0 -0.1498242679
C  C99  1  0.65640000  0.09720000  0.68900000  1.0 -0.1570442764
C  C100  1  0.90280000  0.34360000  0.18900000  1.0 -0.1570442764
C  C101  1  0.25670000  0.55910000  0.83610000  1.0 0.0594131762
C  C102  1  0.44090000  0.74330000  0.33610000  1.0 0.0594131762
C  C103  1  0.41650000  0.64450000  0.85310000  1.0 0.0400650522
C  C104  1  0.35550000  0.58350000  0.35310000  1.0 0.0400650522
C  C105  1  0.78480000  0.11180000  0.75070000  1.0 0.0400650522
C  C106  1  0.88820000  0.21520000  0.25070000  1.0 0.0400650522
C  C107  1  0.75350000  0.18050000  0.69300000  1.0 0.0301128429
C  C108  1  0.81950000  0.24650000  0.19300000  1.0 0.0301128429
C  C109  1  0.01150000  0.22230000  0.68510000  1.0 0.0594131762
C  C110  1  0.77770000  0.98850000  0.18510000  1.0 0.0594131762
C  C111  1  0.06110000  0.36090000  0.64450000  1.0 0.0301128429
C  C112  1  0.63910000  0.93890000  0.14450000  1.0 0.0301128429
C  C113  1  0.04920000  0.20960000  0.65550000  1.0 -0.1498242679
C  C114  1  0.79040000  0.95080000  0.15550000  1.0 -0.1498242679
C  C115  1  0.10290000  0.35470000  0.61440000  1.0 -0.1435584648
C  C116  1  0.64530000  0.89710000  0.11440000  1.0 -0.1435584648
C  C117  1  0.09800000  0.27880000  0.61960000  1.0 0.0400650522
C  C118  1  0.72120000  0.90200000  0.11960000  1.0 0.0400650522
C  C119  1  0.13850000  0.26830000  0.58790000  1.0 0.3325125912
C  C120  1  0.73170000  0.86150000  0.08790000  1.0 0.3325125912
C  C121  1  0.23940000  0.33420000  0.53340000  1.0 0.3325125912
C  C122  1  0.66580000  0.76060000  0.03340000  1.0 0.3325125912
C  C123  1  0.14640000  0.17660000  0.55530000  1.0 0.3389859052
C  C124  1  0.82340000  0.85360000  0.05530000  1.0 0.3389859052
C  C125  1  0.31820000  0.42340000  0.50550000  1.0 0.0501299791
C  C126  1  0.57660000  0.68180000  0.00550000  1.0 0.0501299791
C  C127  1  0.11770000  0.08270000  0.55420000  1.0 0.0400650522
C  C128  1  0.91730000  0.88230000  0.05420000  1.0 0.0400650522
C  C129  1  0.35140000  0.51200000  0.51090000  1.0 -0.1498242679
C  C130  1  0.48800000  0.64860000  0.01090000  1.0 -0.1498242679
C  C131  1  0.36020000  0.41800000  0.47600000  1.0 -0.1694753384
C  C132  1  0.58200000  0.63980000  0.97600000  1.0 -0.1694753384
C  C133  1  0.08850000  0.01830000  0.59100000  1.0 -0.1694753384
C  C134  1  0.98170000  0.91150000  0.09100000  1.0 -0.1570442764
C  C135  1  0.12600000  0.05800000  0.51590000  1.0 -0.1694753384
C  C136  1  0.94200000  0.87400000  0.01590000  1.0 -0.1694753384
C  C137  1  0.42190000  0.59190000  0.48380000  1.0 0.0594131762
C  C138  1  0.40810000  0.57810000  0.98380000  1.0 0.0594131762
C  C139  1  0.43110000  0.50150000  0.45060000  1.0 0.0501299791
C  C140  1  0.49850000  0.56890000  0.95060000  1.0 0.0501299791
C  C141  1  0.06670000  0.93430000  0.59040000  1.0 0.0400650522
C  C142  1  0.06570000  0.93330000  0.09040000  1.0 0.0400650522
C  C143  1  0.10140000  0.97140000  0.51700000  1.0 0.0301128429
C  C144  1  0.02860000  0.89860000  0.01700000  1.0 0.0301128429
I  I1  1  0.76588000  0.06032000  0.01617000  1.0 -0.0985358087
I  I2  1  0.93968000  0.23412000  0.51617000  1.0 -0.0985358087
I  I3  1  0.64996000  0.87744000  0.91507000  1.0 0.0301128429
I  I4  1  0.12256000  0.35004000  0.41507000  1.0 0.0301128429
I  I5  1  0.37102000  0.32088000  0.63411000  1.0 -0.1780885409
I  I6  1  0.67912000  0.62898000  0.13411000  1.0 -0.1780885409
I  I7  1  0.37241000  0.14559000  0.55450000  1.0 -0.0985358087
I  I8  1  0.85441000  0.62759000  0.05450000  1.0 -0.1117723185
I  I9  1  0.46400000  0.98680000  0.80360000  1.0 -0.030390462
I  I10  1  0.01320000  0.53600000  0.30360000  1.0 -0.030390462
I  I11  1  0.28824000  0.03496000  0.69357000  1.0 0.0123897104
I  I12  1  0.96504000  0.71176000  0.19357000  1.0 0.0123897104
I  I13  1  0.78340000  0.09820000  0.02460000  1.0 -0.030390462
I  I14  1  0.90180000  0.21660000  0.52460000  1.0 -0.0376903161
I  I15  1  0.65200000  0.86800000  0.90180000  1.0 0.0806353708
I  I16  1  0.13200000  0.34800000  0.40180000  1.0 0.0806353708
I  I17  1  0.37380000  0.31300000  0.62820000  1.0 -0.1278199589
I  I18  1  0.68700000  0.62620000  0.12820000  1.0 -0.1278199589
I  I19  1  0.38620000  0.14360000  0.55350000  1.0 -0.1278199589
I  I20  1  0.85640000  0.61380000  0.05350000  1.0 -0.1117723185
I  I21  1  0.46500000  0.00100000  0.79378000  1.0 -0.0683134606
I  I22  1  0.99900000  0.53500000  0.29378000  1.0 -0.0683134606
I  I23  1  0.44780000  0.96980000  0.81900000  1.0 -0.063258345
I  I24  1  0.03020000  0.55220000  0.31900000  1.0 -0.063258345
I  I25  1  0.30710000  0.03550000  0.70130000  1.0 -0.0096304404
I  I26  1  0.96450000  0.69290000  0.20130000  1.0 -0.0096304404
I  I27  1  0.06032000  0.76588000  0.48383000  1.0 -0.0985358087
I  I28  1  0.23412000  0.93968000  0.98383000  1.0 -0.094759926
I  I29  1  0.87744000  0.64996000  0.58493000  1.0 0.0301128429
I  I30  1  0.35004000  0.12256000  0.08493000  1.0 0.0301128429
I  I31  1  0.32088000  0.37102000  0.86589000  1.0 -0.1780885409
I  I32  1  0.62898000  0.67912000  0.36589000  1.0 -0.1694753384
I  I33  1  0.14559000  0.37241000  0.94550000  1.0 -0.0985358087
I  I34  1  0.62759000  0.85441000  0.44550000  1.0 -0.1117723185
I  I35  1  0.98680000  0.46400000  0.69640000  1.0 -0.030390462
I  I36  1  0.53600000  0.01320000  0.19640000  1.0 -0.030390462
I  I37  1  0.03496000  0.28824000  0.80643000  1.0 0.0123897104
I  I38  1  0.71176000  0.96504000  0.30643000  1.0 0.0123897104
I  I39  1  0.09820000  0.78340000  0.47540000  1.0 -0.030390462
I  I40  1  0.21660000  0.90180000  0.97540000  1.0 -0.0376903161
I  I41  1  0.86800000  0.65200000  0.59820000  1.0 0.0806353708
I  I42  1  0.34800000  0.13200000  0.09820000  1.0 0.0806353708
I  I43  1  0.31300000  0.37380000  0.87180000  1.0 -0.1278199589
I  I44  1  0.62620000  0.68700000  0.37180000  1.0 -0.1278199589
I  I45  1  0.14360000  0.38620000  0.94650000  1.0 -0.1278199589
I  I46  1  0.61380000  0.85640000  0.44650000  1.0 -0.1240046097
I  I47  1  0.00100000  0.46500000  0.70622000  1.0 -0.0683134606
I  I48  1  0.53500000  0.99900000  0.20622000  1.0 -0.063258345
I  I49  1  0.96980000  0.44780000  0.68100000  1.0 -0.063258345
I  I50  1  0.55220000  0.03020000  0.18100000  1.0 -0.0683134606
I  I51  1  0.03550000  0.30710000  0.79870000  1.0 -0.0096304404
I  I52  1  0.69290000  0.96450000  0.29870000  1.0 -0.0096304404
N  N1  1  0.79860000  0.13880000  0.89690000  1.0 -0.1881554125
N  N2  1  0.86120000  0.20140000  0.39690000  1.0 -0.1881554125
N  N3  1  0.90840000  0.07080000  0.94640000  1.0 -0.2166626452
N  N4  1  0.92920000  0.09160000  0.44640000  1.0 -0.2166626452
N  N5  1  0.76823000  0.32917000  0.77280000  1.0 -0.4196218418
N  N6  1  0.67083000  0.23177000  0.27280000  1.0 -0.4196218418
N  N7  1  0.92073000  0.45407000  0.81150000  1.0 -0.4260669423
N  N8  1  0.54593000  0.07927000  0.31150000  1.0 -0.4260669423
N  N9  1  0.85763000  0.49557000  0.74900000  1.0 -0.4260669423
N  N10  1  0.50443000  0.14237000  0.24900000  1.0 -0.4260669423
N  N11  1  0.56631000  0.32409000  0.63861000  1.0 -0.1694753384
N  N12  1  0.67591000  0.43369000  0.13861000  1.0 -0.1694753384
N  N13  1  0.18870000  0.81790000  0.77700000  1.0 -0.2106114214
N  N14  1  0.18210000  0.81130000  0.27700000  1.0 -0.2106114214
N  N15  1  0.53961000  0.41299000  0.54638000  1.0 -0.1780885409
N  N16  1  0.58701000  0.46039000  0.04638000  1.0 -0.1780885409
N  N17  1  0.29540000  0.01660000  0.82030000  1.0 -0.2106114214
N  N18  1  0.98340000  0.70460000  0.32030000  1.0 -0.2106114214
N  N19  1  0.34850000  0.20570000  0.93770000  1.0 -0.4196218418
N  N20  1  0.79430000  0.65150000  0.43770000  1.0 -0.4196218418
N  N21  1  0.18020000  0.10780000  0.91390000  1.0 -0.4196218418
N  N22  1  0.89220000  0.81980000  0.41390000  1.0 -0.4196218418
N  N23  1  0.24979000  0.20981000  0.97283000  1.0 -0.4196218418
N  N24  1  0.79019000  0.75021000  0.47283000  1.0 -0.4196218418
N  N25  1  0.13880000  0.79860000  0.60310000  1.0 -0.1881554125
N  N26  1  0.20140000  0.86120000  0.10310000  1.0 -0.1780885409
N  N27  1  0.07080000  0.90840000  0.55360000  1.0 -0.2166626452
N  N28  1  0.09160000  0.92920000  0.05360000  1.0 -0.2166626452
N  N29  1  0.32917000  0.76823000  0.72720000  1.0 -0.4196218418
N  N30  1  0.23177000  0.67083000  0.22720000  1.0 -0.4196218418
N  N31  1  0.45407000  0.92073000  0.68850000  1.0 -0.4260669423
N  N32  1  0.07927000  0.54593000  0.18850000  1.0 -0.4260669423
N  N33  1  0.49557000  0.85763000  0.75100000  1.0 -0.4260669423
N  N34  1  0.14237000  0.50443000  0.25100000  1.0 -0.4260669423
N  N35  1  0.32409000  0.56631000  0.86139000  1.0 -0.1694753384
N  N36  1  0.43369000  0.67591000  0.36139000  1.0 -0.1694753384
N  N37  1  0.81790000  0.18870000  0.72300000  1.0 -0.2106114214
N  N38  1  0.81130000  0.18210000  0.22300000  1.0 -0.2106114214
N  N39  1  0.41299000  0.53961000  0.95362000  1.0 -0.1780885409
N  N40  1  0.46039000  0.58701000  0.45362000  1.0 -0.1780885409
N  N41  1  0.01660000  0.29540000  0.67970000  1.0 -0.2106114214
N  N42  1  0.70460000  0.98340000  0.17970000  1.0 -0.2106114214
N  N43  1  0.20570000  0.34850000  0.56230000  1.0 -0.4196218418
N  N44  1  0.65150000  0.79430000  0.06230000  1.0 -0.4196218418
N  N45  1  0.10780000  0.18020000  0.58610000  1.0 -0.4196218418
N  N46  1  0.81980000  0.89220000  0.08610000  1.0 -0.4196218418
N  N47  1  0.20981000  0.24979000  0.52717000  1.0 -0.4196218418
N  N48  1  0.75021000  0.79019000  0.02717000  1.0 -0.4196218418
