# DDEC6 charges by PACMAN v1.1 (https://github.com/mtap-research/PACMAN-charge/)
data_IXECET_ASR_pacman
_symmetry_space_group_name_H-M   'P 1'
_cell_length_a   18.68420000
_cell_length_b   18.68420000
_cell_length_c   9.40800000
_cell_angle_alpha   90.00000000
_cell_angle_beta   90.00000000
_cell_angle_gamma   90.00000000
_symmetry_Int_Tables_number   1
_chemical_formula_structural   AlPO4
_chemical_formula_sum   'Al24 P24 O96'
_cell_volume   3284.32649325
_cell_formula_units_Z   24
loop_
 _symmetry_equiv_pos_site_id
 _symmetry_equiv_pos_as_xyz
  1  'x, y, z'
loop_
 _atom_site_type_symbol
 _atom_site_label
 _atom_site_symmetry_multiplicity
 _atom_site_fract_x
 _atom_site_fract_y
 _atom_site_fract_z
 _atom_site_occupancy
 _atom_site_charge
Al  Al1  1  0.79424000  0.41453000  0.15671000  1.0 1.7476929045
Al  Al2  1  0.91453000  0.70576000  0.15671000  1.0 1.7476929045
Al  Al3  1  0.08547000  0.29424000  0.15671000  1.0 1.7476929045
Al  Al4  1  0.29424000  0.91453000  0.84329000  1.0 1.7476929045
Al  Al5  1  0.70576000  0.08547000  0.84329000  1.0 1.7476929045
Al  Al6  1  0.58547000  0.79424000  0.84329000  1.0 1.7476929045
Al  Al7  1  0.41453000  0.20576000  0.84329000  1.0 1.7476929045
Al  Al8  1  0.20576000  0.58547000  0.15671000  1.0 1.7476929045
Al  Al9  1  0.58414000  0.31542000  0.08060000  1.0 1.7260228412
Al  Al10  1  0.81542000  0.91586000  0.08060000  1.0 1.7203428039
Al  Al11  1  0.18458000  0.08414000  0.08060000  1.0 1.7260228412
Al  Al12  1  0.08414000  0.81542000  0.91940000  1.0 1.7203428039
Al  Al13  1  0.91586000  0.18458000  0.91940000  1.0 1.7203428039
Al  Al14  1  0.68458000  0.58414000  0.91940000  1.0 1.7203428039
Al  Al15  1  0.31542000  0.41586000  0.91940000  1.0 1.7203428039
Al  Al16  1  0.41586000  0.68458000  0.08060000  1.0 1.7260228412
Al  Al17  1  0.68361000  0.30063000  0.66453000  1.0 1.7203428039
Al  Al18  1  0.80063000  0.81639000  0.66453000  1.0 1.7203428039
Al  Al19  1  0.19937000  0.18361000  0.66453000  1.0 1.7203428039
Al  Al20  1  0.18361000  0.80063000  0.33547000  1.0 1.7203428039
Al  Al21  1  0.81639000  0.19937000  0.33547000  1.0 1.714482627
Al  Al22  1  0.69937000  0.68361000  0.33547000  1.0 1.714482627
Al  Al23  1  0.30063000  0.31639000  0.33547000  1.0 1.7203428039
Al  Al24  1  0.31639000  0.69937000  0.66453000  1.0 1.7203428039
P  P1  1  0.69340000  0.31421000  0.33485000  1.0 1.4314717774
P  P2  1  0.81421000  0.80660000  0.33485000  1.0 1.4314717774
P  P3  1  0.18579000  0.19340000  0.33485000  1.0 1.436982693
P  P4  1  0.19340000  0.81421000  0.66515000  1.0 1.436982693
P  P5  1  0.80660000  0.18579000  0.66515000  1.0 1.436982693
P  P6  1  0.68579000  0.69340000  0.66515000  1.0 1.4314717774
P  P7  1  0.31421000  0.30660000  0.66515000  1.0 1.436982693
P  P8  1  0.30660000  0.68579000  0.33485000  1.0 1.436982693
P  P9  1  0.80057000  0.58333000  0.16026000  1.0 1.4238109446
P  P10  1  0.08333000  0.69943000  0.16026000  1.0 1.4314717774
P  P11  1  0.91667000  0.30057000  0.16026000  1.0 1.4238109446
P  P12  1  0.30057000  0.08333000  0.83974000  1.0 1.4314717774
P  P13  1  0.69943000  0.91667000  0.83974000  1.0 1.4238109446
P  P14  1  0.41667000  0.80057000  0.83974000  1.0 1.4238109446
P  P15  1  0.58333000  0.19943000  0.83974000  1.0 1.4238109446
P  P16  1  0.19943000  0.41667000  0.16026000  1.0 1.4314717774
P  P17  1  0.68222000  0.41652000  0.90426000  1.0 1.4314717774
P  P18  1  0.91652000  0.81778000  0.90426000  1.0 1.4314717774
P  P19  1  0.08348000  0.18222000  0.90426000  1.0 1.436982693
P  P20  1  0.18222000  0.91652000  0.09574000  1.0 1.4314717774
P  P21  1  0.81778000  0.08348000  0.09574000  1.0 1.4314717774
P  P22  1  0.58348000  0.68222000  0.09574000  1.0 1.4314717774
P  P23  1  0.41652000  0.31778000  0.09574000  1.0 1.4314717774
P  P24  1  0.31778000  0.58348000  0.90426000  1.0 1.4314717774
O  O1  1  0.66880000  0.32340000  0.48710000  1.0 -0.7593027659
O  O2  1  0.82340000  0.83120000  0.48710000  1.0 -0.7593027659
O  O3  1  0.17660000  0.16880000  0.48710000  1.0 -0.7593027659
O  O4  1  0.16880000  0.82340000  0.51290000  1.0 -0.7593027659
O  O5  1  0.83120000  0.17660000  0.51290000  1.0 -0.7593027659
O  O6  1  0.67660000  0.66880000  0.51290000  1.0 -0.7593027659
O  O7  1  0.32340000  0.33120000  0.51290000  1.0 -0.7593027659
O  O8  1  0.33120000  0.67660000  0.48710000  1.0 -0.7593027659
O  O9  1  0.62680000  0.30840000  0.24230000  1.0 -0.7593027659
O  O10  1  0.80840000  0.87320000  0.24230000  1.0 -0.7593027659
O  O11  1  0.19160000  0.12680000  0.24230000  1.0 -0.7593027659
O  O12  1  0.12680000  0.80840000  0.75770000  1.0 -0.7593027659
O  O13  1  0.87320000  0.19160000  0.75770000  1.0 -0.7593027659
O  O14  1  0.69160000  0.62680000  0.75770000  1.0 -0.7593027659
O  O15  1  0.30840000  0.37320000  0.75770000  1.0 -0.7593027659
O  O16  1  0.37320000  0.69160000  0.24230000  1.0 -0.7593027659
O  O17  1  0.73880000  0.37860000  0.29330000  1.0 -0.8304129214
O  O18  1  0.87860000  0.76120000  0.29330000  1.0 -0.8304129214
O  O19  1  0.12140000  0.23880000  0.29330000  1.0 -0.8304129214
O  O20  1  0.23880000  0.87860000  0.70670000  1.0 -0.8304129214
O  O21  1  0.76120000  0.12140000  0.70670000  1.0 -0.8304129214
O  O22  1  0.62140000  0.73880000  0.70670000  1.0 -0.8304129214
O  O23  1  0.37860000  0.26120000  0.70670000  1.0 -0.8304129214
O  O24  1  0.26120000  0.62140000  0.29330000  1.0 -0.8304129214
O  O25  1  0.73490000  0.24510000  0.32170000  1.0 -0.8124113166
O  O26  1  0.74510000  0.76510000  0.32170000  1.0 -0.8124113166
O  O27  1  0.25490000  0.23490000  0.32170000  1.0 -0.8124113166
O  O28  1  0.23490000  0.74510000  0.67830000  1.0 -0.8124113166
O  O29  1  0.76510000  0.25490000  0.67830000  1.0 -0.8124113166
O  O30  1  0.75490000  0.73490000  0.67830000  1.0 -0.8124113166
O  O31  1  0.24510000  0.26510000  0.67830000  1.0 -0.8124113166
O  O32  1  0.26510000  0.75490000  0.32170000  1.0 -0.8124113166
O  O33  1  0.74930000  0.40530000  0.98860000  1.0 -0.8304129214
O  O34  1  0.90530000  0.75070000  0.98860000  1.0 -0.8304129214
O  O35  1  0.09470000  0.24930000  0.98860000  1.0 -0.8304129214
O  O36  1  0.24930000  0.90530000  0.01140000  1.0 -0.8304129214
O  O37  1  0.75070000  0.09470000  0.01140000  1.0 -0.8304129214
O  O38  1  0.59470000  0.74930000  0.01140000  1.0 -0.8304129214
O  O39  1  0.40530000  0.25070000  0.01140000  1.0 -0.8304129214
O  O40  1  0.25070000  0.59470000  0.98860000  1.0 -0.8304129214
O  O41  1  0.81290000  0.50600000  0.19170000  1.0 -0.7674296581
O  O42  1  0.00600000  0.68710000  0.19170000  1.0 -0.7674296581
O  O43  1  0.99400000  0.31290000  0.19170000  1.0 -0.7674296581
O  O44  1  0.31290000  0.00600000  0.80830000  1.0 -0.7674296581
O  O45  1  0.68710000  0.99400000  0.80830000  1.0 -0.7674296581
O  O46  1  0.49400000  0.81290000  0.80830000  1.0 -0.7674296581
O  O47  1  0.50600000  0.18710000  0.80830000  1.0 -0.7674296581
O  O48  1  0.18710000  0.49400000  0.19170000  1.0 -0.7674296581
O  O49  1  0.87170000  0.62330000  0.15550000  1.0 -0.7593027659
O  O50  1  0.12330000  0.62830000  0.15550000  1.0 -0.7593027659
O  O51  1  0.87670000  0.37170000  0.15550000  1.0 -0.7593027659
O  O52  1  0.37170000  0.12330000  0.84450000  1.0 -0.7593027659
O  O53  1  0.62830000  0.87670000  0.84450000  1.0 -0.7593027659
O  O54  1  0.37670000  0.87170000  0.84450000  1.0 -0.7593027659
O  O55  1  0.62330000  0.12830000  0.84450000  1.0 -0.7593027659
O  O56  1  0.12830000  0.37670000  0.15550000  1.0 -0.7593027659
O  O57  1  0.76400000  0.59220000  0.01730000  1.0 -0.8166060084
O  O58  1  0.09220000  0.73600000  0.01730000  1.0 -0.8166060084
O  O59  1  0.90780000  0.26400000  0.01730000  1.0 -0.8166060084
O  O60  1  0.26400000  0.09220000  0.98270000  1.0 -0.8166060084
O  O61  1  0.73600000  0.90780000  0.98270000  1.0 -0.8166060084
O  O62  1  0.40780000  0.76400000  0.98270000  1.0 -0.8166060084
O  O63  1  0.59220000  0.23600000  0.98270000  1.0 -0.8166060084
O  O64  1  0.23600000  0.40780000  0.01730000  1.0 -0.8166060084
O  O65  1  0.75480000  0.61380000  0.27810000  1.0 -0.8124113166
O  O66  1  0.11380000  0.74520000  0.27810000  1.0 -0.8124113166
O  O67  1  0.88620000  0.25480000  0.27810000  1.0 -0.8124113166
O  O68  1  0.25480000  0.11380000  0.72190000  1.0 -0.8124113166
O  O69  1  0.74520000  0.88620000  0.72190000  1.0 -0.8124113166
O  O70  1  0.38620000  0.75480000  0.72190000  1.0 -0.8124113166
O  O71  1  0.61380000  0.24520000  0.72190000  1.0 -0.8124113166
O  O72  1  0.24520000  0.38620000  0.27810000  1.0 -0.8124113166
O  O73  1  0.61650000  0.38760000  0.98270000  1.0 -0.8166060084
O  O74  1  0.88760000  0.88350000  0.98270000  1.0 -0.8166060084
O  O75  1  0.11240000  0.11650000  0.98270000  1.0 -0.8166060084
O  O76  1  0.11650000  0.88760000  0.01730000  1.0 -0.8166060084
O  O77  1  0.88350000  0.11240000  0.01730000  1.0 -0.8166060084
O  O78  1  0.61240000  0.61650000  0.01730000  1.0 -0.8166060084
O  O79  1  0.38760000  0.38350000  0.01730000  1.0 -0.8166060084
O  O80  1  0.38350000  0.61240000  0.98270000  1.0 -0.8166060084
O  O81  1  0.66940000  0.49460000  0.87720000  1.0 -0.7593027659
O  O82  1  0.99460000  0.83060000  0.87720000  1.0 -0.7593027659
O  O83  1  0.00540000  0.16940000  0.87720000  1.0 -0.7593027659
O  O84  1  0.16940000  0.99460000  0.12280000  1.0 -0.7593027659
O  O85  1  0.83060000  0.00540000  0.12280000  1.0 -0.7593027659
O  O86  1  0.50540000  0.66940000  0.12280000  1.0 -0.7593027659
O  O87  1  0.49460000  0.33060000  0.12280000  1.0 -0.7593027659
O  O88  1  0.33060000  0.50540000  0.87720000  1.0 -0.7593027659
O  O89  1  0.68990000  0.37970000  0.76050000  1.0 -0.7593027659
O  O90  1  0.87970000  0.81010000  0.76050000  1.0 -0.7593027659
O  O91  1  0.12030000  0.18990000  0.76050000  1.0 -0.7593027659
O  O92  1  0.18990000  0.87970000  0.23950000  1.0 -0.7593027659
O  O93  1  0.81010000  0.12030000  0.23950000  1.0 -0.7593027659
O  O94  1  0.62030000  0.68990000  0.23950000  1.0 -0.7593027659
O  O95  1  0.37970000  0.31010000  0.23950000  1.0 -0.7593027659
O  O96  1  0.31010000  0.62030000  0.76050000  1.0 -0.7593027659
