# DDEC6 charges by PACMAN v1.1 (https://github.com/mtap-research/PACMAN-charge/)
data_IXIKOR_ASR_pacman
_symmetry_space_group_name_H-M   'P 1'
_cell_length_a   12.48010000
_cell_length_b   12.48010000
_cell_length_c   26.09000000
_cell_angle_alpha   82.97850000
_cell_angle_beta   97.02150000
_cell_angle_gamma   134.40200000
_symmetry_Int_Tables_number   1
_chemical_formula_structural   ZnH28C40N4O5
_chemical_formula_sum   'Zn4 H112 C160 N16 O20'
_cell_volume   2877.58964007
_cell_formula_units_Z   4
loop_
 _symmetry_equiv_pos_site_id
 _symmetry_equiv_pos_as_xyz
  1  'x, y, z'
loop_
 _atom_site_type_symbol
 _atom_site_label
 _atom_site_symmetry_multiplicity
 _atom_site_fract_x
 _atom_site_fract_y
 _atom_site_fract_z
 _atom_site_occupancy
 _atom_site_charge
Zn  Zn1  1  0.66323000  0.09331000  0.01095000  1.0 0.7544845801
Zn  Zn2  1  0.09331000  0.66323000  0.48905000  1.0 0.7544845801
Zn  Zn3  1  0.33677000  0.90669000  0.98905000  1.0 0.7544845801
Zn  Zn4  1  0.90669000  0.33677000  0.51095000  1.0 0.7544845801
H  H1  1  0.00570000  0.85630000  0.07390000  1.0 0.0992272755
H  H2  1  0.85630000  0.00570000  0.42610000  1.0 0.0992272755
H  H3  1  0.99430000  0.14370000  0.92610000  1.0 0.0992272755
H  H4  1  0.14370000  0.99430000  0.57390000  1.0 0.0992272755
H  H5  1  0.83440000  0.64580000  0.12720000  1.0 0.1082394457
H  H6  1  0.64580000  0.83440000  0.37280000  1.0 0.1082394457
H  H7  1  0.16560000  0.35420000  0.87280000  1.0 0.1082394457
H  H8  1  0.35420000  0.16560000  0.62720000  1.0 0.1082394457
H  H9  1  0.58100000  0.51220000  0.11570000  1.0 0.1203685023
H  H10  1  0.51220000  0.58100000  0.38430000  1.0 0.1203685023
H  H11  1  0.41900000  0.48780000  0.88430000  1.0 0.1203685023
H  H12  1  0.48780000  0.41900000  0.61570000  1.0 0.1203685023
H  H13  1  0.67030000  0.79970000  0.99770000  1.0 0.0716032332
H  H14  1  0.79970000  0.67030000  0.50230000  1.0 0.0716032332
H  H15  1  0.32970000  0.20030000  0.00230000  1.0 0.0716032332
H  H16  1  0.20030000  0.32970000  0.49770000  1.0 0.0716032332
H  H17  1  0.42530000  0.60750000  0.02190000  1.0 0.0992272755
H  H18  1  0.60750000  0.42530000  0.47810000  1.0 0.0992272755
H  H19  1  0.57470000  0.39250000  0.97810000  1.0 0.0992272755
H  H20  1  0.39250000  0.57470000  0.52190000  1.0 0.0992272755
H  H21  1  0.23020000  0.51760000  0.99410000  1.0 0.0908116492
H  H22  1  0.51760000  0.23020000  0.50590000  1.0 0.0908116492
H  H23  1  0.76980000  0.48240000  0.00590000  1.0 0.0908116492
H  H24  1  0.48240000  0.76980000  0.49410000  1.0 0.0908116492
H  H25  1  0.98440000  0.39620000  0.96910000  1.0 0.0908116492
H  H26  1  0.39620000  0.98440000  0.53090000  1.0 0.0908116492
H  H27  1  0.01560000  0.60380000  0.03090000  1.0 0.0908116492
H  H28  1  0.60380000  0.01560000  0.46910000  1.0 0.0908116492
H  H29  1  0.83620000  0.07640000  0.08190000  1.0 0.0610795088
H  H30  1  0.07640000  0.83620000  0.41810000  1.0 0.0610795088
H  H31  1  0.16380000  0.92360000  0.91810000  1.0 0.0610795088
H  H32  1  0.92360000  0.16380000  0.58190000  1.0 0.0610795088
H  H33  1  0.08210000  0.19770000  0.10690000  1.0 0.0908116492
H  H34  1  0.19770000  0.08210000  0.39310000  1.0 0.0908116492
H  H35  1  0.91790000  0.80230000  0.89310000  1.0 0.0908116492
H  H36  1  0.80230000  0.91790000  0.60690000  1.0 0.0908116492
H  H37  1  0.34970000  0.40130000  0.09710000  1.0 0.0908116492
H  H38  1  0.40130000  0.34970000  0.40290000  1.0 0.0908116492
H  H39  1  0.65030000  0.59870000  0.90290000  1.0 0.0908116492
H  H40  1  0.59870000  0.65030000  0.59710000  1.0 0.0908116492
H  H41  1  0.79630000  0.38050000  0.87560000  1.0 0.1203685023
H  H42  1  0.38050000  0.79630000  0.62440000  1.0 0.1203685023
H  H43  1  0.20370000  0.61950000  0.12440000  1.0 0.1203685023
H  H44  1  0.61950000  0.20370000  0.37560000  1.0 0.1203685023
H  H45  1  0.85470000  0.52970000  0.80280000  1.0 0.140669645
H  H46  1  0.52970000  0.85470000  0.69720000  1.0 0.140669645
H  H47  1  0.14530000  0.47030000  0.19720000  1.0 0.140669645
H  H48  1  0.47030000  0.14530000  0.30280000  1.0 0.140669645
H  H49  1  0.42820000  0.33420000  0.78350000  1.0 0.140669645
H  H50  1  0.33420000  0.42820000  0.71650000  1.0 0.140669645
H  H51  1  0.57180000  0.66580000  0.21650000  1.0 0.140669645
H  H52  1  0.66580000  0.57180000  0.28350000  1.0 0.140669645
H  H53  1  0.37280000  0.18280000  0.85670000  1.0 0.1082394457
H  H54  1  0.18280000  0.37280000  0.64330000  1.0 0.1082394457
H  H55  1  0.62720000  0.81720000  0.14330000  1.0 0.1082394457
H  H56  1  0.81720000  0.62720000  0.35670000  1.0 0.1082394457
H  H57  1  0.62240000  0.30680000  0.71370000  1.0 0.1203685023
H  H58  1  0.30680000  0.62240000  0.78630000  1.0 0.1203685023
H  H59  1  0.37760000  0.69320000  0.28630000  1.0 0.1203685023
H  H60  1  0.69320000  0.37760000  0.21370000  1.0 0.1203685023
H  H61  1  0.69880000  0.29640000  0.64070000  1.0 0.1203685023
H  H62  1  0.29640000  0.69880000  0.85930000  1.0 0.1203685023
H  H63  1  0.30120000  0.70360000  0.35930000  1.0 0.1203685023
H  H64  1  0.70360000  0.30120000  0.14070000  1.0 0.1203685023
H  H65  1  0.89830000  0.71410000  0.59630000  1.0 0.1082394457
H  H66  1  0.71410000  0.89830000  0.90370000  1.0 0.1082394457
H  H67  1  0.10170000  0.28590000  0.40370000  1.0 0.1082394457
H  H68  1  0.28590000  0.10170000  0.09630000  1.0 0.1082394457
H  H69  1  0.81940000  0.72760000  0.66980000  1.0 0.128325687
H  H70  1  0.72760000  0.81940000  0.83020000  1.0 0.128325687
H  H71  1  0.18060000  0.27240000  0.33020000  1.0 0.128325687
H  H72  1  0.27240000  0.18060000  0.16980000  1.0 0.128325687
H  H73  1  0.02590000  0.85190000  0.09930000  1.0 0.0716032332
H  H74  1  0.85190000  0.02590000  0.40070000  1.0 0.0716032332
H  H75  1  0.97410000  0.14810000  0.90070000  1.0 0.0716032332
H  H76  1  0.14810000  0.97410000  0.59930000  1.0 0.0716032332
H  H77  1  0.84320000  0.63340000  0.14750000  1.0 0.079605789
H  H78  1  0.63340000  0.84320000  0.35250000  1.0 0.079605789
H  H79  1  0.15680000  0.36660000  0.85250000  1.0 0.079605789
H  H80  1  0.36660000  0.15680000  0.64750000  1.0 0.079605789
H  H81  1  0.59120000  0.49640000  0.12730000  1.0 0.0908116492
H  H82  1  0.49640000  0.59120000  0.37270000  1.0 0.0908116492
H  H83  1  0.40880000  0.50360000  0.87270000  1.0 0.0908116492
H  H84  1  0.50360000  0.40880000  0.62730000  1.0 0.0908116492
H  H85  1  0.70490000  0.79670000  0.01060000  1.0 0.0908116492
H  H86  1  0.79670000  0.70490000  0.48940000  1.0 0.0908116492
H  H87  1  0.29510000  0.20330000  0.98940000  1.0 0.0908116492
H  H88  1  0.20330000  0.29510000  0.51060000  1.0 0.0908116492
H  H89  1  0.40890000  0.45690000  0.07610000  1.0 0.0992272755
H  H90  1  0.45690000  0.40890000  0.42390000  1.0 0.0992272755
H  H91  1  0.59110000  0.54310000  0.92390000  1.0 0.0992272755
H  H92  1  0.54310000  0.59110000  0.57610000  1.0 0.0992272755
H  H93  1  0.17590000  0.53330000  0.96750000  1.0 0.0908116492
H  H94  1  0.53330000  0.17590000  0.53250000  1.0 0.0908116492
H  H95  1  0.82410000  0.46670000  0.03250000  1.0 0.0908116492
H  H96  1  0.46670000  0.82410000  0.46750000  1.0 0.0908116492
H  H97  1  0.91630000  0.36710000  0.96590000  1.0 0.0610795088
H  H98  1  0.36710000  0.91630000  0.53410000  1.0 0.0610795088
H  H99  1  0.08370000  0.63290000  0.03410000  1.0 0.0610795088
H  H100  1  0.63290000  0.08370000  0.46590000  1.0 0.0610795088
H  H101  1  0.90430000  0.12050000  0.08410000  1.0 0.0908116492
H  H102  1  0.12050000  0.90430000  0.41590000  1.0 0.0908116492
H  H103  1  0.09570000  0.87950000  0.91590000  1.0 0.0908116492
H  H104  1  0.87950000  0.09570000  0.58410000  1.0 0.0908116492
H  H105  1  0.16390000  0.28670000  0.08570000  1.0 0.0908116492
H  H106  1  0.28670000  0.16390000  0.41430000  1.0 0.0908116492
H  H107  1  0.83610000  0.71330000  0.91430000  1.0 0.0908116492
H  H108  1  0.71330000  0.83610000  0.58570000  1.0 0.0908116492
H  H109  1  0.40220000  0.61100000  0.00230000  1.0 0.0716032332
H  H110  1  0.61100000  0.40220000  0.49770000  1.0 0.0716032332
H  H111  1  0.59780000  0.38900000  0.99770000  1.0 0.0716032332
H  H112  1  0.38900000  0.59780000  0.50230000  1.0 0.0716032332
C  C1  1  0.85490000  0.84890000  0.03050000  1.0 0.0610795088
C  C2  1  0.84890000  0.85490000  0.46950000  1.0 0.0610795088
C  C3  1  0.14510000  0.15110000  0.96950000  1.0 0.0610795088
C  C4  1  0.15110000  0.14510000  0.53050000  1.0 0.0610795088
C  C5  1  0.90420000  0.80280000  0.06930000  1.0 -0.0296625531
C  C6  1  0.80280000  0.90420000  0.43070000  1.0 -0.0296625531
C  C7  1  0.09580000  0.19720000  0.93070000  1.0 -0.0296625531
C  C8  1  0.19720000  0.09580000  0.56930000  1.0 -0.0296625531
C  C9  1  0.80150000  0.67670000  0.10120000  1.0 -0.0296625531
C  C10  1  0.67670000  0.80150000  0.39880000  1.0 -0.0296625531
C  C11  1  0.19850000  0.32330000  0.89880000  1.0 -0.0296625531
C  C12  1  0.32330000  0.19850000  0.60120000  1.0 -0.0296625531
C  C13  1  0.64960000  0.59660000  0.09440000  1.0 -0.0573248186
C  C14  1  0.59660000  0.64960000  0.40560000  1.0 -0.0573248186
C  C15  1  0.35040000  0.40340000  0.90560000  1.0 -0.0573248186
C  C16  1  0.40340000  0.35040000  0.59440000  1.0 -0.0573248186
C  C17  1  0.60050000  0.64270000  0.05560000  1.0 0.010164873
C  C18  1  0.64270000  0.60050000  0.44440000  1.0 0.010164873
C  C19  1  0.39950000  0.35730000  0.94440000  1.0 0.010164873
C  C20  1  0.35730000  0.39950000  0.55560000  1.0 0.010164873
C  C21  1  0.70310000  0.76890000  0.02360000  1.0 -0.0740095646
C  C22  1  0.76890000  0.70310000  0.47640000  1.0 -0.0740095646
C  C23  1  0.29690000  0.23110000  0.97640000  1.0 -0.0740095646
C  C24  1  0.23110000  0.29690000  0.52360000  1.0 -0.0740095646
C  C25  1  0.44630000  0.56430000  0.04720000  1.0 -0.0807795439
C  C26  1  0.56430000  0.44630000  0.45280000  1.0 -0.0807795439
C  C27  1  0.55370000  0.43570000  0.95280000  1.0 -0.0807795439
C  C28  1  0.43570000  0.55370000  0.54720000  1.0 -0.0807795439
C  C29  1  0.18050000  0.36970000  0.05300000  1.0 0.0338551003
C  C30  1  0.36970000  0.18050000  0.44700000  1.0 0.0338551003
C  C31  1  0.81950000  0.63030000  0.94700000  1.0 0.0338551003
C  C32  1  0.63030000  0.81950000  0.55300000  1.0 0.0338551003
C  C33  1  0.15120000  0.42920000  0.01170000  1.0 0.010164873
C  C34  1  0.42920000  0.15120000  0.48830000  1.0 0.010164873
C  C35  1  0.84880000  0.57080000  0.98830000  1.0 0.010164873
C  C36  1  0.57080000  0.84880000  0.51170000  1.0 0.010164873
C  C37  1  0.00390000  0.35650000  0.99670000  1.0 0.0610795088
C  C38  1  0.35650000  0.00390000  0.50330000  1.0 0.0610795088
C  C39  1  0.99610000  0.64350000  0.00330000  1.0 0.0610795088
C  C40  1  0.64350000  0.99610000  0.49670000  1.0 0.0610795088
C  C41  1  0.91520000  0.16480000  0.06430000  1.0 0.0390058962
C  C42  1  0.16480000  0.91520000  0.43570000  1.0 0.0390058962
C  C43  1  0.08480000  0.83520000  0.93570000  1.0 0.0390058962
C  C44  1  0.83520000  0.08480000  0.56430000  1.0 0.0390058962
C  C45  1  0.06250000  0.23750000  0.07930000  1.0 -0.1196010363
C  C46  1  0.23750000  0.06250000  0.42070000  1.0 -0.1196010363
C  C47  1  0.93750000  0.76250000  0.92070000  1.0 -0.1196010363
C  C48  1  0.76250000  0.93750000  0.57930000  1.0 -0.1196010363
C  C49  1  0.33400000  0.44400000  0.06940000  1.0 -0.1110096004
C  C50  1  0.44400000  0.33400000  0.43060000  1.0 -0.1110096004
C  C51  1  0.66600000  0.55600000  0.93060000  1.0 -0.1110096004
C  C52  1  0.55600000  0.66600000  0.56940000  1.0 -0.1110096004
C  C53  1  0.54730000  0.17210000  0.92270000  1.0 0.5384686004
C  C54  1  0.17210000  0.54730000  0.57730000  1.0 0.5384686004
C  C55  1  0.45270000  0.82790000  0.07730000  1.0 0.5384686004
C  C56  1  0.82790000  0.45270000  0.42270000  1.0 0.5384686004
C  C57  1  0.58250000  0.26970000  0.87370000  1.0 -0.0207340203
C  C58  1  0.26970000  0.58250000  0.62630000  1.0 -0.0207340203
C  C59  1  0.41750000  0.73030000  0.12630000  1.0 -0.0207340203
C  C60  1  0.73030000  0.41750000  0.37370000  1.0 -0.0207340203
C  C61  1  0.72160000  0.37100000  0.85700000  1.0 -0.1196010363
C  C62  1  0.37100000  0.72160000  0.64300000  1.0 -0.1196010363
C  C63  1  0.27840000  0.62900000  0.14300000  1.0 -0.1196010363
C  C64  1  0.62900000  0.27840000  0.35700000  1.0 -0.1196010363
C  C65  1  0.75700000  0.45980000  0.81380000  1.0 -0.1837678392
C  C66  1  0.45980000  0.75700000  0.68620000  1.0 -0.1837678392
C  C67  1  0.24300000  0.54020000  0.18620000  1.0 -0.1837678392
C  C68  1  0.54020000  0.24300000  0.31380000  1.0 -0.1837678392
C  C69  1  0.64520000  0.44520000  0.78580000  1.0 0.243717746
C  C70  1  0.44520000  0.64520000  0.71420000  1.0 0.243717746
C  C71  1  0.35480000  0.55480000  0.21420000  1.0 0.243717746
C  C72  1  0.55480000  0.35480000  0.28580000  1.0 0.243717746
C  C73  1  0.50280000  0.34340000  0.80190000  1.0 -0.2120313913
C  C74  1  0.34340000  0.50280000  0.69810000  1.0 -0.2120313913
C  C75  1  0.49720000  0.65660000  0.19810000  1.0 -0.2120313913
C  C76  1  0.65660000  0.49720000  0.30190000  1.0 -0.2120313913
C  C77  1  0.47040000  0.25420000  0.84570000  1.0 -0.1733904023
C  C78  1  0.25420000  0.47040000  0.65430000  1.0 -0.1733904023
C  C79  1  0.52960000  0.74580000  0.15430000  1.0 -0.1733904023
C  C80  1  0.74580000  0.52960000  0.34570000  1.0 -0.1733904023
C  C81  1  0.71570000  0.51950000  0.69910000  1.0 0.2527290445
C  C82  1  0.51950000  0.71570000  0.80090000  1.0 0.2527290445
C  C83  1  0.28430000  0.48050000  0.30090000  1.0 0.2527290445
C  C84  1  0.48050000  0.28430000  0.19910000  1.0 0.2527290445
C  C85  1  0.67800000  0.38920000  0.69030000  1.0 -0.2120313913
C  C86  1  0.38920000  0.67800000  0.80970000  1.0 -0.2120313913
C  C87  1  0.32200000  0.61080000  0.30970000  1.0 -0.2120313913
C  C88  1  0.61080000  0.32200000  0.19030000  1.0 -0.2120313913
C  C89  1  0.72360000  0.38360000  0.64670000  1.0 -0.1110096004
C  C90  1  0.38360000  0.72360000  0.85330000  1.0 -0.1110096004
C  C91  1  0.27640000  0.61640000  0.35330000  1.0 -0.1110096004
C  C92  1  0.61640000  0.27640000  0.14670000  1.0 -0.1110096004
C  C93  1  0.80590000  0.50490000  0.61120000  1.0 -0.0518913398
C  C94  1  0.50490000  0.80590000  0.88880000  1.0 -0.0518913398
C  C95  1  0.19410000  0.49510000  0.38880000  1.0 -0.0518913398
C  C96  1  0.49510000  0.19410000  0.11120000  1.0 -0.0518913398
C  C97  1  0.84220000  0.63200000  0.61990000  1.0 -0.2726927419
C  C98  1  0.63200000  0.84220000  0.88010000  1.0 -0.2795365122
C  C99  1  0.15780000  0.36800000  0.38010000  1.0 -0.2795365122
C  C100  1  0.36800000  0.15780000  0.11990000  1.0 -0.2795365122
C  C101  1  0.79600000  0.64100000  0.66410000  1.0 -0.2579737146
C  C102  1  0.64100000  0.79600000  0.83590000  1.0 -0.2579737146
C  C103  1  0.20400000  0.35900000  0.33590000  1.0 -0.2579737146
C  C104  1  0.35900000  0.20400000  0.16410000  1.0 -0.2579737146
C  C105  1  0.86140000  0.49840000  0.56540000  1.0 0.5158284764
C  C106  1  0.49840000  0.86140000  0.93460000  1.0 0.5158284764
C  C107  1  0.13860000  0.50160000  0.43460000  1.0 0.5158284764
C  C108  1  0.50160000  0.13860000  0.06540000  1.0 0.5158284764
C  C109  1  0.88350000  0.84590000  0.05010000  1.0 0.0716032332
C  C110  1  0.84590000  0.88350000  0.44990000  1.0 0.0716032332
C  C111  1  0.11650000  0.15410000  0.94990000  1.0 0.0716032332
C  C112  1  0.15410000  0.11650000  0.55010000  1.0 0.0716032332
C  C113  1  0.92500000  0.79700000  0.09110000  1.0 -0.0895533421
C  C114  1  0.79700000  0.92500000  0.40890000  1.0 -0.0895533421
C  C115  1  0.07500000  0.20300000  0.90890000  1.0 -0.0895533421
C  C116  1  0.20300000  0.07500000  0.59110000  1.0 -0.0895533421
C  C117  1  0.81550000  0.66610000  0.12000000  1.0 -0.0378794203
C  C118  1  0.66610000  0.81550000  0.38000000  1.0 -0.0378794203
C  C119  1  0.18450000  0.33390000  0.88000000  1.0 -0.0378794203
C  C120  1  0.33390000  0.18450000  0.62000000  1.0 -0.0378794203
C  C121  1  0.66450000  0.58410000  0.10790000  1.0 -0.1041928742
C  C122  1  0.58410000  0.66450000  0.39210000  1.0 -0.1041928742
C  C123  1  0.33550000  0.41590000  0.89210000  1.0 -0.1041928742
C  C124  1  0.41590000  0.33550000  0.60790000  1.0 -0.1041928742
C  C125  1  0.62300000  0.63300000  0.06690000  1.0 0.0716032332
C  C126  1  0.63300000  0.62300000  0.43310000  1.0 0.0716032332
C  C127  1  0.37700000  0.36700000  0.93310000  1.0 0.0716032332
C  C128  1  0.36700000  0.37700000  0.56690000  1.0 0.0716032332
C  C129  1  0.73250000  0.76390000  0.03800000  1.0 -0.0573248186
C  C130  1  0.76390000  0.73250000  0.46200000  1.0 -0.0573248186
C  C131  1  0.26750000  0.23610000  0.96200000  1.0 -0.0573248186
C  C132  1  0.23610000  0.26750000  0.53800000  1.0 -0.0573248186
C  C133  1  0.46110000  0.54370000  0.05460000  1.0 -0.0895533421
C  C134  1  0.54370000  0.46110000  0.44540000  1.0 -0.0895533421
C  C135  1  0.53890000  0.45630000  0.94540000  1.0 -0.0895533421
C  C136  1  0.45630000  0.53890000  0.55460000  1.0 -0.0895533421
C  C137  1  0.19560000  0.42660000  0.02680000  1.0 0.0390058962
C  C138  1  0.42660000  0.19560000  0.47320000  1.0 0.0390058962
C  C139  1  0.80440000  0.57340000  0.97320000  1.0 0.0390058962
C  C140  1  0.57340000  0.80440000  0.52680000  1.0 0.0390058962
C  C141  1  0.12140000  0.45060000  0.99090000  1.0 -0.1260585327
C  C142  1  0.45060000  0.12140000  0.50910000  1.0 -0.1260585327
C  C143  1  0.87860000  0.54940000  0.00910000  1.0 -0.1260585327
C  C144  1  0.54940000  0.87860000  0.49090000  1.0 -0.1260585327
C  C145  1  0.96600000  0.35100000  0.98990000  1.0 0.0390058962
C  C146  1  0.35100000  0.96600000  0.51010000  1.0 0.0390058962
C  C147  1  0.03400000  0.64900000  0.01010000  1.0 0.0390058962
C  C148  1  0.64900000  0.03400000  0.48990000  1.0 0.0390058962
C  C149  1  0.95870000  0.20330000  0.06070000  1.0 0.0716032332
C  C150  1  0.20330000  0.95870000  0.43930000  1.0 0.0716032332
C  C151  1  0.04130000  0.79670000  0.93930000  1.0 0.0716032332
C  C152  1  0.79670000  0.04130000  0.56070000  1.0 0.0716032332
C  C153  1  0.11430000  0.30290000  0.06170000  1.0 0.010164873
C  C154  1  0.30290000  0.11430000  0.43830000  1.0 0.010164873
C  C155  1  0.88570000  0.69710000  0.93830000  1.0 0.010164873
C  C156  1  0.69710000  0.88570000  0.56170000  1.0 0.010164873
C  C157  1  0.36070000  0.53310000  0.02740000  1.0 -0.0807795439
C  C158  1  0.53310000  0.36070000  0.47260000  1.0 -0.0807795439
C  C159  1  0.63930000  0.46690000  0.97260000  1.0 -0.0807795439
C  C160  1  0.46690000  0.63930000  0.52740000  1.0 -0.0807795439
N  N1  1  0.93800000  0.96940000  0.99520000  1.0 -0.0378794203
N  N2  1  0.96940000  0.93800000  0.50480000  1.0 -0.0378794203
N  N3  1  0.06200000  0.03060000  0.00480000  1.0 -0.0378794203
N  N4  1  0.03060000  0.06200000  0.49520000  1.0 -0.0378794203
N  N5  1  0.88590000  0.22430000  0.02300000  1.0 -0.2726927419
N  N6  1  0.22430000  0.88590000  0.47700000  1.0 -0.2726927419
N  N7  1  0.11410000  0.77570000  0.97700000  1.0 -0.2726927419
N  N8  1  0.77570000  0.11410000  0.52300000  1.0 -0.2726927419
N  N9  1  0.00390000  0.98190000  0.02260000  1.0 -0.0518913398
N  N10  1  0.98190000  0.00390000  0.47740000  1.0 -0.0518913398
N  N11  1  0.99610000  0.01810000  0.97740000  1.0 -0.0518913398
N  N12  1  0.01810000  0.99610000  0.52260000  1.0 -0.0518913398
N  N13  1  0.88460000  0.22740000  0.02480000  1.0 -0.2795365122
N  N14  1  0.22740000  0.88460000  0.47520000  1.0 -0.2795365122
N  N15  1  0.11540000  0.77260000  0.97520000  1.0 -0.2795365122
N  N16  1  0.77260000  0.11540000  0.52480000  1.0 -0.2795365122
O  O1  1  0.65400000  0.20320000  0.94846000  1.0 -0.4931258437
O  O2  1  0.20320000  0.65400000  0.55154000  1.0 -0.4931258437
O  O3  1  0.34600000  0.79680000  0.05154000  1.0 -0.4931258437
O  O4  1  0.79680000  0.34600000  0.44846000  1.0 -0.4931258437
O  O5  1  0.41310000  0.06750000  0.93146000  1.0 -0.481387331
O  O6  1  0.06750000  0.41310000  0.56854000  1.0 -0.481387331
O  O7  1  0.58690000  0.93250000  0.06854000  1.0 -0.481387331
O  O8  1  0.93250000  0.58690000  0.43146000  1.0 -0.481387331
O  O9  1  0.67370000  0.53510000  0.74195000  1.0 -0.2430882182
O  O10  1  0.53510000  0.67370000  0.75805000  1.0 -0.2430882182
O  O11  1  0.32630000  0.46490000  0.25805000  1.0 -0.2430882182
O  O12  1  0.46490000  0.32630000  0.24195000  1.0 -0.2430882182
O  O13  1  0.82000000  0.37700000  0.55732000  1.0 -0.4931258437
O  O14  1  0.37700000  0.82000000  0.94268000  1.0 -0.4931258437
O  O15  1  0.18000000  0.62300000  0.44268000  1.0 -0.4931258437
O  O16  1  0.62300000  0.18000000  0.05732000  1.0 -0.4931258437
O  O17  1  0.95380000  0.61860000  0.53976000  1.0 -0.5106079717
O  O18  1  0.61860000  0.95380000  0.96024000  1.0 -0.5106079717
O  O19  1  0.04620000  0.38140000  0.46024000  1.0 -0.5106079717
O  O20  1  0.38140000  0.04620000  0.03976000  1.0 -0.5106079717
