# DDEC6 charges by PACMAN v1.1 (https://github.com/mtap-research/PACMAN-charge/)
data_IXIPEK_ASR_pacman
_symmetry_space_group_name_H-M   'P 1'
_cell_length_a   17.00350000
_cell_length_b   17.00350000
_cell_length_c   17.00350000
_cell_angle_alpha   109.47100000
_cell_angle_beta   109.47100000
_cell_angle_gamma   109.47100000
_symmetry_Int_Tables_number   1
_chemical_formula_structural   Co3Re12C12(Se4N3)4
_chemical_formula_sum   'Co6 Re24 C24 Se32 N24'
_cell_volume   3784.39651685
_cell_formula_units_Z   2
loop_
 _symmetry_equiv_pos_site_id
 _symmetry_equiv_pos_as_xyz
  1  'x, y, z'
loop_
 _atom_site_type_symbol
 _atom_site_label
 _atom_site_symmetry_multiplicity
 _atom_site_fract_x
 _atom_site_fract_y
 _atom_site_fract_z
 _atom_site_occupancy
 _atom_site_charge
Co  Co1  1  0.34190000  0.00000000  0.34190000  1.0 0.9597692031
Co  Co2  1  0.34190000  0.34190000  0.00000000  1.0 0.9597692031
Co  Co3  1  0.00000000  0.34190000  0.34190000  1.0 0.9597692031
Co  Co4  1  0.00000000  0.65810000  0.65810000  1.0 0.9597692031
Co  Co5  1  0.65810000  0.65810000  0.00000000  1.0 0.9597692031
Co  Co6  1  0.65810000  0.00000000  0.65810000  1.0 0.9597692031
Re  Re1  1  0.46859000  0.37360000  0.46859000  1.0 0.0807410983
Re  Re2  1  0.46859000  0.46859000  0.37360000  1.0 0.0807410983
Re  Re3  1  0.37360000  0.46859000  0.46859000  1.0 0.0807410983
Re  Re4  1  0.00000000  0.09499000  0.46859000  1.0 0.0807410983
Re  Re5  1  0.00000000  0.46859000  0.09499000  1.0 0.0807410983
Re  Re6  1  0.37360000  0.90501000  0.90501000  1.0 0.0807410983
Re  Re7  1  0.90501000  0.90501000  0.37360000  1.0 0.0807410983
Re  Re8  1  0.46859000  0.09499000  0.00000000  1.0 0.0807410983
Re  Re9  1  0.09499000  0.46859000  0.00000000  1.0 0.0807410983
Re  Re10  1  0.09499000  0.00000000  0.46859000  1.0 0.0807410983
Re  Re11  1  0.90501000  0.37360000  0.90501000  1.0 0.0807410983
Re  Re12  1  0.46859000  0.00000000  0.09499000  1.0 0.0807410983
Re  Re13  1  0.90501000  0.00000000  0.53141000  1.0 0.0807410983
Re  Re14  1  0.09499000  0.62640000  0.09499000  1.0 0.0807410983
Re  Re15  1  0.53141000  0.00000000  0.90501000  1.0 0.0807410983
Re  Re16  1  0.53141000  0.90501000  0.00000000  1.0 0.0807410983
Re  Re17  1  0.09499000  0.09499000  0.62640000  1.0 0.0807410983
Re  Re18  1  0.90501000  0.53141000  0.00000000  1.0 0.0807410983
Re  Re19  1  0.00000000  0.53141000  0.90501000  1.0 0.0857956969
Re  Re20  1  0.62640000  0.09499000  0.09499000  1.0 0.0807410983
Re  Re21  1  0.00000000  0.90501000  0.53141000  1.0 0.0807410983
Re  Re22  1  0.62640000  0.53141000  0.53141000  1.0 0.0807410983
Re  Re23  1  0.53141000  0.53141000  0.62640000  1.0 0.0807410983
Re  Re24  1  0.53141000  0.62640000  0.53141000  1.0 0.0807410983
C  C1  1  0.43090000  0.23040000  0.43090000  1.0 0.1386050459
C  C2  1  0.43090000  0.43090000  0.23040000  1.0 0.1386050459
C  C3  1  0.23040000  0.43090000  0.43090000  1.0 0.1386050459
C  C4  1  0.00000000  0.20050000  0.43090000  1.0 0.1386050459
C  C5  1  0.00000000  0.43090000  0.20050000  1.0 0.1386050459
C  C6  1  0.23040000  0.79950000  0.79950000  1.0 0.1386050459
C  C7  1  0.79950000  0.79950000  0.23040000  1.0 0.1386050459
C  C8  1  0.43090000  0.20050000  0.00000000  1.0 0.1386050459
C  C9  1  0.20050000  0.43090000  0.00000000  1.0 0.1386050459
C  C10  1  0.20050000  0.00000000  0.43090000  1.0 0.1386050459
C  C11  1  0.79950000  0.23040000  0.79950000  1.0 0.1386050459
C  C12  1  0.43090000  0.00000000  0.20050000  1.0 0.1386050459
C  C13  1  0.79950000  0.00000000  0.56910000  1.0 0.1386050459
C  C14  1  0.20050000  0.76960000  0.20050000  1.0 0.1386050459
C  C15  1  0.56910000  0.00000000  0.79950000  1.0 0.1386050459
C  C16  1  0.56910000  0.79950000  0.00000000  1.0 0.1386050459
C  C17  1  0.20050000  0.20050000  0.76960000  1.0 0.1386050459
C  C18  1  0.79950000  0.56910000  0.00000000  1.0 0.1386050459
C  C19  1  0.00000000  0.56910000  0.79950000  1.0 0.1386050459
C  C20  1  0.76960000  0.20050000  0.20050000  1.0 0.1386050459
C  C21  1  0.00000000  0.79950000  0.56910000  1.0 0.1386050459
C  C22  1  0.76960000  0.56910000  0.56910000  1.0 0.1386050459
C  C23  1  0.56910000  0.56910000  0.76960000  1.0 0.1386050459
C  C24  1  0.56910000  0.76960000  0.56910000  1.0 0.1386050459
Se  Se1  1  0.37837000  0.37837000  0.56014000  1.0 0.0172163001
Se  Se2  1  0.56014000  0.37837000  0.37837000  1.0 0.0172163001
Se  Se3  1  0.37837000  0.56014000  0.37837000  1.0 0.0172163001
Se  Se4  1  0.18177000  0.18177000  0.56014000  1.0 0.0172163001
Se  Se5  1  0.81823000  0.37837000  0.00000000  1.0 0.0172163001
Se  Se6  1  0.37837000  0.81823000  0.00000000  1.0 0.0142608494
Se  Se7  1  0.81823000  0.00000000  0.37837000  1.0 0.0172163001
Se  Se8  1  0.37837000  0.00000000  0.81823000  1.0 0.0172163001
Se  Se9  1  0.18177000  0.56014000  0.18177000  1.0 0.0172163001
Se  Se10  1  0.00000000  0.81823000  0.37837000  1.0 0.0172163001
Se  Se11  1  0.00000000  0.37837000  0.81823000  1.0 0.0142608494
Se  Se12  1  0.56014000  0.18177000  0.18177000  1.0 0.0172163001
Se  Se13  1  0.81823000  0.81823000  0.43986000  1.0 0.0172163001
Se  Se14  1  0.18177000  0.62163000  0.00000000  1.0 0.0142608494
Se  Se15  1  0.62163000  0.18177000  0.00000000  1.0 0.0172163001
Se  Se16  1  0.43986000  0.81823000  0.81823000  1.0 0.0142608494
Se  Se17  1  0.00000000  0.18177000  0.62163000  1.0 0.0172163001
Se  Se18  1  0.00000000  0.62163000  0.18177000  1.0 0.0172163001
Se  Se19  1  0.81823000  0.43986000  0.81823000  1.0 0.0172163001
Se  Se20  1  0.62163000  0.00000000  0.18177000  1.0 0.0142608494
Se  Se21  1  0.18177000  0.00000000  0.62163000  1.0 0.0142608494
Se  Se22  1  0.62163000  0.62163000  0.43986000  1.0 0.0172163001
Se  Se23  1  0.62163000  0.43986000  0.62163000  1.0 0.0172163001
Se  Se24  1  0.43986000  0.62163000  0.62163000  1.0 0.0172163001
Se  Se25  1  0.31870000  0.31870000  0.31870000  1.0 0.0727885061
Se  Se26  1  0.00000000  0.00000000  0.31870000  1.0 0.0807410983
Se  Se27  1  0.00000000  0.31870000  0.00000000  1.0 0.0807410983
Se  Se28  1  0.31870000  0.00000000  0.00000000  1.0 0.0727885061
Se  Se29  1  0.00000000  0.00000000  0.68130000  1.0 0.0727885061
Se  Se30  1  0.00000000  0.68130000  0.00000000  1.0 0.0727885061
Se  Se31  1  0.68130000  0.00000000  0.00000000  1.0 0.0807410983
Se  Se32  1  0.68130000  0.68130000  0.68130000  1.0 0.0727885061
N  N1  1  0.40950000  0.15060000  0.40950000  1.0 -0.4994554999
N  N2  1  0.40950000  0.40950000  0.15060000  1.0 -0.5079894206
N  N3  1  0.15060000  0.40950000  0.40950000  1.0 -0.4994554999
N  N4  1  0.00000000  0.25890000  0.40950000  1.0 -0.4994554999
N  N5  1  0.00000000  0.40950000  0.25890000  1.0 -0.4994554999
N  N6  1  0.15060000  0.74110000  0.74110000  1.0 -0.4994554999
N  N7  1  0.74110000  0.74110000  0.15060000  1.0 -0.4994554999
N  N8  1  0.40950000  0.25890000  0.00000000  1.0 -0.4994554999
N  N9  1  0.25890000  0.40950000  0.00000000  1.0 -0.4994554999
N  N10  1  0.25890000  0.00000000  0.40950000  1.0 -0.5079894206
N  N11  1  0.74110000  0.15060000  0.74110000  1.0 -0.4994554999
N  N12  1  0.40950000  0.00000000  0.25890000  1.0 -0.5079894206
N  N13  1  0.74110000  0.00000000  0.59050000  1.0 -0.5079894206
N  N14  1  0.25890000  0.84940000  0.25890000  1.0 -0.4994554999
N  N15  1  0.59050000  0.00000000  0.74110000  1.0 -0.4994554999
N  N16  1  0.59050000  0.74110000  0.00000000  1.0 -0.4994554999
N  N17  1  0.25890000  0.25890000  0.84940000  1.0 -0.4994554999
N  N18  1  0.74110000  0.59050000  0.00000000  1.0 -0.4994554999
N  N19  1  0.00000000  0.59050000  0.74110000  1.0 -0.5079894206
N  N20  1  0.84940000  0.25890000  0.25890000  1.0 -0.4994554999
N  N21  1  0.00000000  0.74110000  0.59050000  1.0 -0.4994554999
N  N22  1  0.84940000  0.59050000  0.59050000  1.0 -0.4994554999
N  N23  1  0.59050000  0.59050000  0.84940000  1.0 -0.4994554999
N  N24  1  0.59050000  0.84940000  0.59050000  1.0 -0.4994554999
