# DDEC6 charges by PACMAN v1.1 (https://github.com/mtap-research/PACMAN-charge/)
data_IXIPIO_FSR_pacman
_symmetry_space_group_name_H-M   'P 1'
_cell_length_a   17.37250000
_cell_length_b   17.37250000
_cell_length_c   17.37250000
_cell_angle_alpha   109.47100000
_cell_angle_beta   109.47100000
_cell_angle_gamma   109.47100000
_symmetry_Int_Tables_number   1
_chemical_formula_structural   Mn3Re12C12Se16(N2O)6
_chemical_formula_sum   'Mn6 Re24 C24 Se32 N24 O12'
_cell_volume   4036.16226630
_cell_formula_units_Z   2
loop_
 _symmetry_equiv_pos_site_id
 _symmetry_equiv_pos_as_xyz
  1  'x, y, z'
loop_
 _atom_site_type_symbol
 _atom_site_label
 _atom_site_symmetry_multiplicity
 _atom_site_fract_x
 _atom_site_fract_y
 _atom_site_fract_z
 _atom_site_occupancy
 _atom_site_charge
Mn  Mn1  1  0.31870000  0.00000000  0.31870000  1.0 1.2380281902
Mn  Mn2  1  0.31870000  0.31870000  0.00000000  1.0 1.2525450207
Mn  Mn3  1  0.00000000  0.31870000  0.31870000  1.0 1.2380281902
Mn  Mn4  1  0.00000000  0.68130000  0.68130000  1.0 1.2525450207
Mn  Mn5  1  0.68130000  0.68130000  0.00000000  1.0 1.2525450207
Mn  Mn6  1  0.68130000  0.00000000  0.68130000  1.0 1.2380281902
Re  Re1  1  0.46902000  0.37648000  0.46902000  1.0 0.0811503093
Re  Re2  1  0.46902000  0.46902000  0.37648000  1.0 0.0861871706
Re  Re3  1  0.37648000  0.46902000  0.46902000  1.0 0.0811503093
Re  Re4  1  0.00000000  0.09254000  0.46902000  1.0 0.0861871706
Re  Re5  1  0.00000000  0.46902000  0.09254000  1.0 0.0811503093
Re  Re6  1  0.37648000  0.90746000  0.90746000  1.0 0.0861871706
Re  Re7  1  0.90746000  0.90746000  0.37648000  1.0 0.0811503093
Re  Re8  1  0.46902000  0.09254000  0.00000000  1.0 0.0811503093
Re  Re9  1  0.09254000  0.46902000  0.00000000  1.0 0.0811503093
Re  Re10  1  0.09254000  0.00000000  0.46902000  1.0 0.0811503093
Re  Re11  1  0.90746000  0.37648000  0.90746000  1.0 0.0811503093
Re  Re12  1  0.46902000  0.00000000  0.09254000  1.0 0.0811503093
Re  Re13  1  0.90746000  0.00000000  0.53098000  1.0 0.0811503093
Re  Re14  1  0.09254000  0.62352000  0.09254000  1.0 0.0811503093
Re  Re15  1  0.53098000  0.00000000  0.90746000  1.0 0.0811503093
Re  Re16  1  0.53098000  0.90746000  0.00000000  1.0 0.0811503093
Re  Re17  1  0.09254000  0.09254000  0.62352000  1.0 0.0861871706
Re  Re18  1  0.90746000  0.53098000  0.00000000  1.0 0.0730735118
Re  Re19  1  0.00000000  0.53098000  0.90746000  1.0 0.0861871706
Re  Re20  1  0.62352000  0.09254000  0.09254000  1.0 0.0811503093
Re  Re21  1  0.00000000  0.90746000  0.53098000  1.0 0.0861871706
Re  Re22  1  0.62352000  0.53098000  0.53098000  1.0 0.0811503093
Re  Re23  1  0.53098000  0.53098000  0.62352000  1.0 0.0811503093
Re  Re24  1  0.53098000  0.62352000  0.53098000  1.0 0.0811503093
C  C1  1  0.42480000  0.23180000  0.42480000  1.0 0.1292932227
C  C2  1  0.42480000  0.42480000  0.23180000  1.0 0.1292932227
C  C3  1  0.23180000  0.42480000  0.42480000  1.0 0.1292932227
C  C4  1  0.00000000  0.19300000  0.42480000  1.0 0.1292932227
C  C5  1  0.00000000  0.42480000  0.19300000  1.0 0.1292932227
C  C6  1  0.23180000  0.80700000  0.80700000  1.0 0.1292932227
C  C7  1  0.80700000  0.80700000  0.23180000  1.0 0.1292932227
C  C8  1  0.42480000  0.19300000  0.00000000  1.0 0.1292932227
C  C9  1  0.19300000  0.42480000  0.00000000  1.0 0.1292932227
C  C10  1  0.19300000  0.00000000  0.42480000  1.0 0.1292932227
C  C11  1  0.80700000  0.23180000  0.80700000  1.0 0.1292932227
C  C12  1  0.42480000  0.00000000  0.19300000  1.0 0.1292932227
C  C13  1  0.80700000  0.00000000  0.57520000  1.0 0.1292932227
C  C14  1  0.19300000  0.76820000  0.19300000  1.0 0.1292932227
C  C15  1  0.57520000  0.00000000  0.80700000  1.0 0.1292932227
C  C16  1  0.57520000  0.80700000  0.00000000  1.0 0.1370095925
C  C17  1  0.19300000  0.19300000  0.76820000  1.0 0.1292932227
C  C18  1  0.80700000  0.57520000  0.00000000  1.0 0.1370095925
C  C19  1  0.00000000  0.57520000  0.80700000  1.0 0.1292932227
C  C20  1  0.76820000  0.19300000  0.19300000  1.0 0.1292932227
C  C21  1  0.00000000  0.80700000  0.57520000  1.0 0.1292932227
C  C22  1  0.76820000  0.57520000  0.57520000  1.0 0.1292932227
C  C23  1  0.57520000  0.57520000  0.76820000  1.0 0.1292932227
C  C24  1  0.57520000  0.76820000  0.57520000  1.0 0.1292932227
Se  Se1  1  0.38201000  0.38201000  0.55970000  1.0 0.1075678065
Se  Se2  1  0.55970000  0.38201000  0.38201000  1.0 0.1075678065
Se  Se3  1  0.38201000  0.55970000  0.38201000  1.0 0.1075678065
Se  Se4  1  0.17769000  0.17769000  0.55970000  1.0 0.104170111
Se  Se5  1  0.82231000  0.38201000  0.00000000  1.0 0.1075678065
Se  Se6  1  0.38201000  0.82231000  0.00000000  1.0 0.104170111
Se  Se7  1  0.82231000  0.00000000  0.38201000  1.0 0.1075678065
Se  Se8  1  0.38201000  0.00000000  0.82231000  1.0 0.104170111
Se  Se9  1  0.17769000  0.55970000  0.17769000  1.0 0.104170111
Se  Se10  1  0.00000000  0.82231000  0.38201000  1.0 0.104170111
Se  Se11  1  0.00000000  0.38201000  0.82231000  1.0 0.104170111
Se  Se12  1  0.55970000  0.17769000  0.17769000  1.0 0.104170111
Se  Se13  1  0.82231000  0.82231000  0.44030000  1.0 0.1075678065
Se  Se14  1  0.17769000  0.61799000  0.00000000  1.0 0.104170111
Se  Se15  1  0.61799000  0.17769000  0.00000000  1.0 0.1075678065
Se  Se16  1  0.44030000  0.82231000  0.82231000  1.0 0.1075678065
Se  Se17  1  0.00000000  0.17769000  0.61799000  1.0 0.104170111
Se  Se18  1  0.00000000  0.61799000  0.17769000  1.0 0.1075678065
Se  Se19  1  0.82231000  0.44030000  0.82231000  1.0 0.1075678065
Se  Se20  1  0.61799000  0.00000000  0.17769000  1.0 0.1075678065
Se  Se21  1  0.17769000  0.00000000  0.61799000  1.0 0.104170111
Se  Se22  1  0.61799000  0.61799000  0.44030000  1.0 0.1075678065
Se  Se23  1  0.61799000  0.44030000  0.61799000  1.0 0.1075678065
Se  Se24  1  0.44030000  0.61799000  0.61799000  1.0 0.1075678065
Se  Se25  1  0.32384000  0.32384000  0.32384000  1.0 0.2001161841
Se  Se26  1  0.00000000  0.00000000  0.32384000  1.0 0.1949505227
Se  Se27  1  0.00000000  0.32384000  0.00000000  1.0 0.1949505227
Se  Se28  1  0.32384000  0.00000000  0.00000000  1.0 0.2001161841
Se  Se29  1  0.00000000  0.00000000  0.67616000  1.0 0.2001161841
Se  Se30  1  0.00000000  0.67616000  0.00000000  1.0 0.2001161841
Se  Se31  1  0.67616000  0.00000000  0.00000000  1.0 0.2001161841
Se  Se32  1  0.67616000  0.67616000  0.67616000  1.0 0.2001161841
N  N1  1  0.39810000  0.15500000  0.39810000  1.0 -0.4309404242
N  N2  1  0.39810000  0.39810000  0.15500000  1.0 -0.4309404242
N  N3  1  0.15500000  0.39810000  0.39810000  1.0 -0.4309404242
N  N4  1  0.00000000  0.24310000  0.39810000  1.0 -0.4309404242
N  N5  1  0.00000000  0.39810000  0.24310000  1.0 -0.4309404242
N  N6  1  0.15500000  0.75690000  0.75690000  1.0 -0.4309404242
N  N7  1  0.75690000  0.75690000  0.15500000  1.0 -0.4366955144
N  N8  1  0.39810000  0.24310000  0.00000000  1.0 -0.4309404242
N  N9  1  0.24310000  0.39810000  0.00000000  1.0 -0.4309404242
N  N10  1  0.24310000  0.00000000  0.39810000  1.0 -0.4309404242
N  N11  1  0.75690000  0.15500000  0.75690000  1.0 -0.4309404242
N  N12  1  0.39810000  0.00000000  0.24310000  1.0 -0.4309404242
N  N13  1  0.75690000  0.00000000  0.60190000  1.0 -0.4309404242
N  N14  1  0.24310000  0.84500000  0.24310000  1.0 -0.4309404242
N  N15  1  0.60190000  0.00000000  0.75690000  1.0 -0.4309404242
N  N16  1  0.60190000  0.75690000  0.00000000  1.0 -0.4309404242
N  N17  1  0.24310000  0.24310000  0.84500000  1.0 -0.4309404242
N  N18  1  0.75690000  0.60190000  0.00000000  1.0 -0.4309404242
N  N19  1  0.00000000  0.60190000  0.75690000  1.0 -0.4309404242
N  N20  1  0.84500000  0.24310000  0.24310000  1.0 -0.4309404242
N  N21  1  0.00000000  0.75690000  0.60190000  1.0 -0.4309404242
N  N22  1  0.84500000  0.60190000  0.60190000  1.0 -0.4309404242
N  N23  1  0.60190000  0.60190000  0.84500000  1.0 -0.4309404242
N  N24  1  0.60190000  0.84500000  0.60190000  1.0 -0.4309404242
O  O1  1  0.42800000  0.00000000  0.42800000  1.0 -0.4206160389
O  O2  1  0.42800000  0.42800000  0.00000000  1.0 -0.4091429495
O  O3  1  0.00000000  0.42800000  0.42800000  1.0 -0.4091429495
O  O4  1  0.00000000  0.57200000  0.57200000  1.0 -0.4206160389
O  O5  1  0.57200000  0.57200000  0.00000000  1.0 -0.4091429495
O  O6  1  0.57200000  0.00000000  0.57200000  1.0 -0.4206160389
O  O7  1  0.20590000  0.00000000  0.20590000  1.0 -0.6322731955
O  O8  1  0.20590000  0.20590000  0.00000000  1.0 -0.6572511179
O  O9  1  0.00000000  0.20590000  0.20590000  1.0 -0.6322731955
O  O10  1  0.00000000  0.79410000  0.79410000  1.0 -0.6532585604
O  O11  1  0.79410000  0.79410000  0.00000000  1.0 -0.6532585604
O  O12  1  0.79410000  0.00000000  0.79410000  1.0 -0.6322731955
