# DDEC6 charges by PACMAN v1.1 (https://github.com/mtap-research/PACMAN-charge/)
data_IXIPAG_FSR_pacman
_symmetry_space_group_name_H-M   'P 1'
_cell_length_a   17.19670000
_cell_length_b   17.19670000
_cell_length_c   17.19670000
_cell_angle_alpha   109.47100000
_cell_angle_beta   109.47100000
_cell_angle_gamma   109.47100000
_symmetry_Int_Tables_number   1
_chemical_formula_structural   Mn3Re12C12Se16(N2O)6
_chemical_formula_sum   'Mn6 Re24 C24 Se32 N24 O12'
_cell_volume   3914.86690476
_cell_formula_units_Z   2
loop_
 _symmetry_equiv_pos_site_id
 _symmetry_equiv_pos_as_xyz
  1  'x, y, z'
loop_
 _atom_site_type_symbol
 _atom_site_label
 _atom_site_symmetry_multiplicity
 _atom_site_fract_x
 _atom_site_fract_y
 _atom_site_fract_z
 _atom_site_occupancy
 _atom_site_charge
Mn  Mn1  1  0.34000000  0.00000000  0.34000000  1.0 1.1067847492
Mn  Mn2  1  0.34000000  0.34000000  0.00000000  1.0 1.1067847492
Mn  Mn3  1  0.00000000  0.34000000  0.34000000  1.0 1.1067847492
Mn  Mn4  1  0.00000000  0.66000000  0.66000000  1.0 1.1067847492
Mn  Mn5  1  0.66000000  0.66000000  0.00000000  1.0 1.1067847492
Mn  Mn6  1  0.66000000  0.00000000  0.66000000  1.0 1.1067847492
Re  Re1  1  0.46894000  0.37540000  0.46894000  1.0 0.089951446
Re  Re2  1  0.46894000  0.46894000  0.37540000  1.0 0.089951446
Re  Re3  1  0.37540000  0.46894000  0.46894000  1.0 0.089951446
Re  Re4  1  0.00000000  0.09354000  0.46894000  1.0 0.089951446
Re  Re5  1  0.00000000  0.46894000  0.09354000  1.0 0.089951446
Re  Re6  1  0.37540000  0.90646000  0.90646000  1.0 0.089951446
Re  Re7  1  0.90646000  0.90646000  0.37540000  1.0 0.089951446
Re  Re8  1  0.46894000  0.09354000  0.00000000  1.0 0.0825385332
Re  Re9  1  0.09354000  0.46894000  0.00000000  1.0 0.0825385332
Re  Re10  1  0.09354000  0.00000000  0.46894000  1.0 0.089951446
Re  Re11  1  0.90646000  0.37540000  0.90646000  1.0 0.089951446
Re  Re12  1  0.46894000  0.00000000  0.09354000  1.0 0.089951446
Re  Re13  1  0.90646000  0.00000000  0.53106000  1.0 0.089951446
Re  Re14  1  0.09354000  0.62460000  0.09354000  1.0 0.089951446
Re  Re15  1  0.53106000  0.00000000  0.90646000  1.0 0.089951446
Re  Re16  1  0.53106000  0.90646000  0.00000000  1.0 0.089951446
Re  Re17  1  0.09354000  0.09354000  0.62460000  1.0 0.0953642509
Re  Re18  1  0.90646000  0.53106000  0.00000000  1.0 0.089951446
Re  Re19  1  0.00000000  0.53106000  0.90646000  1.0 0.0953642509
Re  Re20  1  0.62460000  0.09354000  0.09354000  1.0 0.0825385332
Re  Re21  1  0.00000000  0.90646000  0.53106000  1.0 0.089951446
Re  Re22  1  0.62460000  0.53106000  0.53106000  1.0 0.089951446
Re  Re23  1  0.53106000  0.53106000  0.62460000  1.0 0.089951446
Re  Re24  1  0.53106000  0.62460000  0.53106000  1.0 0.089951446
C  C1  1  0.43280000  0.23380000  0.43280000  1.0 0.1284556532
C  C2  1  0.43280000  0.43280000  0.23380000  1.0 0.1284556532
C  C3  1  0.23380000  0.43280000  0.43280000  1.0 0.1284556532
C  C4  1  0.00000000  0.19900000  0.43280000  1.0 0.1284556532
C  C5  1  0.00000000  0.43280000  0.19900000  1.0 0.1284556532
C  C6  1  0.23380000  0.80100000  0.80100000  1.0 0.1284556532
C  C7  1  0.80100000  0.80100000  0.23380000  1.0 0.1284556532
C  C8  1  0.43280000  0.19900000  0.00000000  1.0 0.1284556532
C  C9  1  0.19900000  0.43280000  0.00000000  1.0 0.1284556532
C  C10  1  0.19900000  0.00000000  0.43280000  1.0 0.1284556532
C  C11  1  0.80100000  0.23380000  0.80100000  1.0 0.1284556532
C  C12  1  0.43280000  0.00000000  0.19900000  1.0 0.1284556532
C  C13  1  0.80100000  0.00000000  0.56720000  1.0 0.1284556532
C  C14  1  0.19900000  0.76620000  0.19900000  1.0 0.1284556532
C  C15  1  0.56720000  0.00000000  0.80100000  1.0 0.1284556532
C  C16  1  0.56720000  0.80100000  0.00000000  1.0 0.1284556532
C  C17  1  0.19900000  0.19900000  0.76620000  1.0 0.1284556532
C  C18  1  0.80100000  0.56720000  0.00000000  1.0 0.1284556532
C  C19  1  0.00000000  0.56720000  0.80100000  1.0 0.1284556532
C  C20  1  0.76620000  0.19900000  0.19900000  1.0 0.1284556532
C  C21  1  0.00000000  0.80100000  0.56720000  1.0 0.1284556532
C  C22  1  0.76620000  0.56720000  0.56720000  1.0 0.1284556532
C  C23  1  0.56720000  0.56720000  0.76620000  1.0 0.1284556532
C  C24  1  0.56720000  0.76620000  0.56720000  1.0 0.1284556532
Se  Se1  1  0.38025000  0.38025000  0.55960000  1.0 0.089951446
Se  Se2  1  0.55960000  0.38025000  0.38025000  1.0 0.089951446
Se  Se3  1  0.38025000  0.55960000  0.38025000  1.0 0.089951446
Se  Se4  1  0.17935000  0.17935000  0.55960000  1.0 0.089951446
Se  Se5  1  0.82065000  0.38025000  0.00000000  1.0 0.089951446
Se  Se6  1  0.38025000  0.82065000  0.00000000  1.0 0.0825385332
Se  Se7  1  0.82065000  0.00000000  0.38025000  1.0 0.089951446
Se  Se8  1  0.38025000  0.00000000  0.82065000  1.0 0.089951446
Se  Se9  1  0.17935000  0.55960000  0.17935000  1.0 0.089951446
Se  Se10  1  0.00000000  0.82065000  0.38025000  1.0 0.089951446
Se  Se11  1  0.00000000  0.38025000  0.82065000  1.0 0.089951446
Se  Se12  1  0.55960000  0.17935000  0.17935000  1.0 0.089951446
Se  Se13  1  0.82065000  0.82065000  0.44040000  1.0 0.089951446
Se  Se14  1  0.17935000  0.61975000  0.00000000  1.0 0.089951446
Se  Se15  1  0.61975000  0.17935000  0.00000000  1.0 0.089951446
Se  Se16  1  0.44040000  0.82065000  0.82065000  1.0 0.0825385332
Se  Se17  1  0.00000000  0.17935000  0.61975000  1.0 0.089951446
Se  Se18  1  0.00000000  0.61975000  0.17935000  1.0 0.089951446
Se  Se19  1  0.82065000  0.44040000  0.82065000  1.0 0.089951446
Se  Se20  1  0.61975000  0.00000000  0.17935000  1.0 0.089951446
Se  Se21  1  0.17935000  0.00000000  0.61975000  1.0 0.089951446
Se  Se22  1  0.61975000  0.61975000  0.44040000  1.0 0.089951446
Se  Se23  1  0.61975000  0.44040000  0.61975000  1.0 0.089951446
Se  Se24  1  0.44040000  0.61975000  0.61975000  1.0 0.089951446
Se  Se25  1  0.32150000  0.32150000  0.32150000  1.0 0.1991727191
Se  Se26  1  0.00000000  0.00000000  0.32150000  1.0 0.1991727191
Se  Se27  1  0.00000000  0.32150000  0.00000000  1.0 0.1991727191
Se  Se28  1  0.32150000  0.00000000  0.00000000  1.0 0.1991727191
Se  Se29  1  0.00000000  0.00000000  0.67850000  1.0 0.1991727191
Se  Se30  1  0.00000000  0.67850000  0.00000000  1.0 0.1991727191
Se  Se31  1  0.67850000  0.00000000  0.00000000  1.0 0.1991727191
Se  Se32  1  0.67850000  0.67850000  0.67850000  1.0 0.1991727191
N  N1  1  0.40970000  0.15500000  0.40970000  1.0 -0.4319448322
N  N2  1  0.40970000  0.40970000  0.15500000  1.0 -0.4319448322
N  N3  1  0.15500000  0.40970000  0.40970000  1.0 -0.4319448322
N  N4  1  0.00000000  0.25470000  0.40970000  1.0 -0.4319448322
N  N5  1  0.00000000  0.40970000  0.25470000  1.0 -0.4319448322
N  N6  1  0.15500000  0.74530000  0.74530000  1.0 -0.4319448322
N  N7  1  0.74530000  0.74530000  0.15500000  1.0 -0.4319448322
N  N8  1  0.40970000  0.25470000  0.00000000  1.0 -0.4319448322
N  N9  1  0.25470000  0.40970000  0.00000000  1.0 -0.4319448322
N  N10  1  0.25470000  0.00000000  0.40970000  1.0 -0.4319448322
N  N11  1  0.74530000  0.15500000  0.74530000  1.0 -0.4319448322
N  N12  1  0.40970000  0.00000000  0.25470000  1.0 -0.4319448322
N  N13  1  0.74530000  0.00000000  0.59030000  1.0 -0.4319448322
N  N14  1  0.25470000  0.84500000  0.25470000  1.0 -0.4319448322
N  N15  1  0.59030000  0.00000000  0.74530000  1.0 -0.4319448322
N  N16  1  0.59030000  0.74530000  0.00000000  1.0 -0.4390592792
N  N17  1  0.25470000  0.25470000  0.84500000  1.0 -0.4319448322
N  N18  1  0.74530000  0.59030000  0.00000000  1.0 -0.4319448322
N  N19  1  0.00000000  0.59030000  0.74530000  1.0 -0.4319448322
N  N20  1  0.84500000  0.25470000  0.25470000  1.0 -0.4390592792
N  N21  1  0.00000000  0.74530000  0.59030000  1.0 -0.4319448322
N  N22  1  0.84500000  0.59030000  0.59030000  1.0 -0.4319448322
N  N23  1  0.59030000  0.59030000  0.84500000  1.0 -0.4319448322
N  N24  1  0.59030000  0.84500000  0.59030000  1.0 -0.4319448322
O  O1  1  0.45180000  0.00000000  0.45180000  1.0 -0.2979632014
O  O2  1  0.45180000  0.45180000  0.00000000  1.0 -0.2979632014
O  O3  1  0.00000000  0.45180000  0.45180000  1.0 -0.2979632014
O  O4  1  0.00000000  0.54820000  0.54820000  1.0 -0.2949991443
O  O5  1  0.54820000  0.54820000  0.00000000  1.0 -0.2979632014
O  O6  1  0.54820000  0.00000000  0.54820000  1.0 -0.2949991443
O  O7  1  0.22440000  0.00000000  0.22440000  1.0 -0.5717085519
O  O8  1  0.22440000  0.22440000  0.00000000  1.0 -0.5717085519
O  O9  1  0.00000000  0.22440000  0.22440000  1.0 -0.5717085519
O  O10  1  0.00000000  0.77560000  0.77560000  1.0 -0.5717085519
O  O11  1  0.77560000  0.77560000  0.00000000  1.0 -0.5871576586
O  O12  1  0.77560000  0.00000000  0.77560000  1.0 -0.5717085519
