# DDEC6 charges by PACMAN v1.1 (https://github.com/mtap-research/PACMAN-charge/)
data_IYAFIX_ion_pacman
_symmetry_space_group_name_H-M   'P 1'
_cell_length_a   12.65900000
_cell_length_b   8.24700000
_cell_length_c   23.79400000
_cell_angle_alpha   90.00000000
_cell_angle_beta   105.82300000
_cell_angle_gamma   90.00000000
_symmetry_Int_Tables_number   1
_chemical_formula_structural   NdBiH24C10N5O23
_chemical_formula_sum   'Nd4 Bi4 H96 C40 N20 O92'
_cell_volume   2389.93976580
_cell_formula_units_Z   4
loop_
 _symmetry_equiv_pos_site_id
 _symmetry_equiv_pos_as_xyz
  1  'x, y, z'
loop_
 _atom_site_type_symbol
 _atom_site_label
 _atom_site_symmetry_multiplicity
 _atom_site_fract_x
 _atom_site_fract_y
 _atom_site_fract_z
 _atom_site_occupancy
 _atom_site_charge
Nd  Nd1  1  0.28970000  0.50085000  0.88485000  1.0 1.972073806
Nd  Nd2  1  0.28970000  0.99915000  0.38485000  1.0 1.972073806
Nd  Nd3  1  0.71030000  0.49915000  0.11515000  1.0 1.972073806
Nd  Nd4  1  0.71030000  0.00085000  0.61515000  1.0 1.972073806
Bi  Bi1  1  0.77352000  0.32668000  0.86874000  1.0 1.2197370357
Bi  Bi2  1  0.77352000  0.17332000  0.36874000  1.0 1.2197370357
Bi  Bi3  1  0.22648000  0.67332000  0.13126000  1.0 1.2197370357
Bi  Bi4  1  0.22648000  0.82668000  0.63126000  1.0 1.2197370357
H  H1  1  0.28740000  0.84000000  0.94330000  1.0 0.2272453732
H  H2  1  0.28740000  0.66000000  0.44330000  1.0 0.2272453732
H  H3  1  0.71260000  0.16000000  0.05670000  1.0 0.2272453732
H  H4  1  0.71260000  0.34000000  0.55670000  1.0 0.2272453732
H  H5  1  0.22080000  0.72440000  0.96610000  1.0 0.3615035243
H  H6  1  0.22080000  0.77560000  0.46610000  1.0 0.3615035243
H  H7  1  0.77920000  0.27560000  0.03390000  1.0 0.3615035243
H  H8  1  0.77920000  0.22440000  0.53390000  1.0 0.3615035243
H  H9  1  0.20830000  0.50410000  0.76240000  1.0 0.3778052977
H  H10  1  0.20830000  0.99590000  0.26240000  1.0 0.3778052977
H  H11  1  0.79170000  0.49590000  0.23760000  1.0 0.3778052977
H  H12  1  0.79170000  0.00410000  0.73760000  1.0 0.3778052977
H  H13  1  0.13500000  0.38050000  0.77340000  1.0 0.3668636806
H  H14  1  0.13500000  0.11950000  0.27340000  1.0 0.3668636806
H  H15  1  0.86500000  0.61950000  0.22660000  1.0 0.3668636806
H  H16  1  0.86500000  0.88050000  0.72660000  1.0 0.3668636806
H  H17  1  0.30610000  0.17780000  0.90220000  1.0 0.2805060647
H  H18  1  0.30610000  0.32220000  0.40220000  1.0 0.2805060647
H  H19  1  0.69390000  0.82220000  0.09780000  1.0 0.2805060647
H  H20  1  0.69390000  0.67780000  0.59780000  1.0 0.2805060647
H  H21  1  0.20420000  0.11190000  0.85640000  1.0 0.3311452097
H  H22  1  0.20420000  0.38810000  0.35640000  1.0 0.3311452097
H  H23  1  0.79580000  0.88810000  0.14360000  1.0 0.3311452097
H  H24  1  0.79580000  0.61190000  0.64360000  1.0 0.3311452097
H  H25  1  0.43080000  0.22450000  0.93720000  1.0 0.2590318523
H  H26  1  0.43080000  0.27550000  0.43720000  1.0 0.2590318523
H  H27  1  0.56920000  0.77550000  0.06280000  1.0 0.2590318523
H  H28  1  0.56920000  0.72450000  0.56280000  1.0 0.2590318523
H  H29  1  0.49870000  0.35360000  0.92470000  1.0 0.2701897449
H  H30  1  0.49870000  0.14640000  0.42470000  1.0 0.2701897449
H  H31  1  0.50130000  0.64640000  0.07530000  1.0 0.2701897449
H  H32  1  0.50130000  0.85360000  0.57530000  1.0 0.2701897449
H  H33  1  0.49740000  0.73690000  0.92620000  1.0 0.3615035243
H  H34  1  0.49740000  0.76310000  0.42620000  1.0 0.3615035243
H  H35  1  0.50260000  0.26310000  0.07380000  1.0 0.3615035243
H  H36  1  0.50260000  0.23690000  0.57380000  1.0 0.3615035243
H  H37  1  0.49030000  0.62740000  0.97560000  1.0 0.3213944188
H  H38  1  0.49030000  0.87260000  0.47560000  1.0 0.3213944188
H  H39  1  0.50970000  0.37260000  0.02440000  1.0 0.3213944188
H  H40  1  0.50970000  0.12740000  0.52440000  1.0 0.3213944188
H  H41  1  0.79980000  0.82880000  0.84770000  1.0 0.1200118563
H  H42  1  0.79980000  0.67120000  0.34770000  1.0 0.1200118563
H  H43  1  0.20020000  0.17120000  0.15230000  1.0 0.1200118563
H  H44  1  0.20020000  0.32880000  0.65230000  1.0 0.1200118563
H  H45  1  0.84710000  0.69760000  0.81340000  1.0 0.1000725231
H  H46  1  0.84710000  0.80240000  0.31340000  1.0 0.1000725231
H  H47  1  0.15290000  0.30240000  0.18660000  1.0 0.1000725231
H  H48  1  0.15290000  0.19760000  0.68660000  1.0 0.1000725231
H  H49  1  0.66260000  0.73880000  0.76630000  1.0 0.1298477552
H  H50  1  0.66260000  0.76120000  0.26630000  1.0 0.1298477552
H  H51  1  0.33740000  0.26120000  0.23370000  1.0 0.1298477552
H  H52  1  0.33740000  0.23880000  0.73370000  1.0 0.1298477552
H  H53  1  0.63040000  0.69910000  0.82400000  1.0 0.1096539698
H  H54  1  0.63040000  0.80090000  0.32400000  1.0 0.1096539698
H  H55  1  0.36960000  0.30090000  0.17600000  1.0 0.1096539698
H  H56  1  0.36960000  0.19910000  0.67600000  1.0 0.1096539698
H  H57  1  0.98210000  0.71570000  0.91110000  1.0 0.1509925327
H  H58  1  0.98210000  0.78430000  0.41110000  1.0 0.1509925327
H  H59  1  0.01790000  0.28430000  0.08890000  1.0 0.1509925327
H  H60  1  0.01790000  0.21570000  0.58890000  1.0 0.1509925327
H  H61  1  0.97520000  0.56560000  0.95050000  1.0 0.1509925327
H  H62  1  0.97520000  0.93440000  0.45050000  1.0 0.1509925327
H  H63  1  0.02480000  0.43440000  0.04950000  1.0 0.1509925327
H  H64  1  0.02480000  0.06560000  0.54950000  1.0 0.1509925327
H  H65  1  0.83270000  0.76490000  0.95850000  1.0 0.1421363318
H  H66  1  0.83270000  0.73510000  0.45850000  1.0 0.1421363318
H  H67  1  0.16730000  0.23510000  0.04150000  1.0 0.1421363318
H  H68  1  0.16730000  0.26490000  0.54150000  1.0 0.1421363318
H  H69  1  0.71340000  0.72690000  0.92010000  1.0 0.1298477552
H  H70  1  0.71340000  0.77310000  0.42010000  1.0 0.1298477552
H  H71  1  0.28660000  0.27310000  0.07990000  1.0 0.1298477552
H  H72  1  0.28660000  0.22690000  0.57990000  1.0 0.1298477552
H  H73  1  0.65340000  0.50500000  0.69850000  1.0 0.1298477552
H  H74  1  0.65340000  0.99500000  0.19850000  1.0 0.1298477552
H  H75  1  0.34660000  0.49500000  0.30150000  1.0 0.1298477552
H  H76  1  0.34660000  0.00500000  0.80150000  1.0 0.1298477552
H  H77  1  0.77580000  0.52870000  0.73510000  1.0 0.1298477552
H  H78  1  0.77580000  0.97130000  0.23510000  1.0 0.1298477552
H  H79  1  0.22420000  0.47130000  0.26490000  1.0 0.1298477552
H  H80  1  0.22420000  0.02870000  0.76490000  1.0 0.1298477552
H  H81  1  0.50930000  0.51900000  0.74730000  1.0 0.1421363318
H  H82  1  0.50930000  0.98100000  0.24730000  1.0 0.1421363318
H  H83  1  0.49070000  0.48100000  0.25270000  1.0 0.1421363318
H  H84  1  0.49070000  0.01900000  0.75270000  1.0 0.1421363318
H  H85  1  0.54810000  0.33800000  0.75770000  1.0 0.1421363318
H  H86  1  0.54810000  0.16200000  0.25770000  1.0 0.1421363318
H  H87  1  0.45190000  0.66200000  0.24230000  1.0 0.1421363318
H  H88  1  0.45190000  0.83800000  0.74230000  1.0 0.1421363318
H  H89  1  0.67560000  0.45270000  0.56420000  1.0 0.1865541092
H  H90  1  0.67560000  0.04730000  0.06420000  1.0 0.1865541092
H  H91  1  0.32440000  0.54730000  0.43580000  1.0 0.1865541092
H  H92  1  0.32440000  0.95270000  0.93580000  1.0 0.1865541092
H  H93  1  0.63420000  0.56510000  0.51420000  1.0 0.2590318523
H  H94  1  0.63420000  0.93490000  0.01420000  1.0 0.2590318523
H  H95  1  0.36580000  0.43490000  0.48580000  1.0 0.2590318523
H  H96  1  0.36580000  0.06510000  0.98580000  1.0 0.2590318523
C  C1  1  0.79660000  0.71500000  0.83694000  1.0 -0.128677756
C  C2  1  0.79660000  0.78500000  0.33694000  1.0 -0.128677756
C  C3  1  0.20340000  0.28500000  0.16306000  1.0 -0.128677756
C  C4  1  0.20340000  0.21500000  0.66306000  1.0 -0.128677756
C  C5  1  0.68170000  0.67360000  0.80157000  1.0 -0.1462112241
C  C6  1  0.68170000  0.82640000  0.30157000  1.0 -0.1462112241
C  C7  1  0.31830000  0.32640000  0.19843000  1.0 -0.1462112241
C  C8  1  0.31830000  0.17360000  0.69843000  1.0 -0.1462112241
C  C9  1  0.95240000  0.60720000  0.91090000  1.0 -0.2913493537
C  C10  1  0.95240000  0.89280000  0.41090000  1.0 -0.2913493537
C  C11  1  0.04760000  0.39280000  0.08910000  1.0 -0.2913493537
C  C12  1  0.04760000  0.10720000  0.58910000  1.0 -0.2913493537
C  C13  1  0.99680000  0.49960000  0.87140000  1.0 0.6419022358
C  C14  1  0.99680000  0.00040000  0.37140000  1.0 0.6419022358
C  C15  1  0.00320000  0.50040000  0.12860000  1.0 0.6419022358
C  C16  1  0.00320000  0.99960000  0.62860000  1.0 0.6419022358
C  C17  1  0.78490000  0.67960000  0.93773000  1.0 -0.2913493537
C  C18  1  0.78490000  0.82040000  0.43773000  1.0 -0.2913493537
C  C19  1  0.21510000  0.32040000  0.06227000  1.0 -0.2913493537
C  C20  1  0.21510000  0.17960000  0.56227000  1.0 -0.2913493537
C  C21  1  0.77370000  0.54930000  0.98073000  1.0 0.6297435663
C  C22  1  0.77370000  0.95070000  0.48073000  1.0 0.6297435663
C  C23  1  0.22630000  0.45070000  0.01927000  1.0 0.6297435663
C  C24  1  0.22630000  0.04930000  0.51927000  1.0 0.6297435663
C  C25  1  0.70920000  0.46750000  0.73258000  1.0 -0.2913493537
C  C26  1  0.70920000  0.03250000  0.23258000  1.0 -0.2913493537
C  C27  1  0.29080000  0.53250000  0.26742000  1.0 -0.2913493537
C  C28  1  0.29080000  0.96750000  0.76742000  1.0 -0.2913493537
C  C29  1  0.73120000  0.28960000  0.72540000  1.0 0.6419022358
C  C30  1  0.73120000  0.21040000  0.22540000  1.0 0.6419022358
C  C31  1  0.26880000  0.71040000  0.27460000  1.0 0.6419022358
C  C32  1  0.26880000  0.78960000  0.77460000  1.0 0.6419022358
C  C33  1  0.55670000  0.44560000  0.77484000  1.0 -0.2985181086
C  C34  1  0.55670000  0.05440000  0.27484000  1.0 -0.2985181086
C  C35  1  0.44330000  0.55440000  0.22516000  1.0 -0.2985181086
C  C36  1  0.44330000  0.94560000  0.72516000  1.0 -0.2985181086
C  C37  1  0.52270000  0.44310000  0.83120000  1.0 0.6045380361
C  C38  1  0.52270000  0.05690000  0.33120000  1.0 0.6045380361
C  C39  1  0.47730000  0.55690000  0.16880000  1.0 0.6045380361
C  C40  1  0.47730000  0.94310000  0.66880000  1.0 0.6045380361
N  N1  1  0.83080000  0.61410000  0.89083000  1.0 -0.0231810757
N  N2  1  0.83080000  0.88590000  0.39083000  1.0 -0.0231810757
N  N3  1  0.16920000  0.38590000  0.10917000  1.0 -0.0231810757
N  N4  1  0.16920000  0.11410000  0.60917000  1.0 -0.0231810757
N  N5  1  0.67220000  0.49820000  0.78547000  1.0 -0.0488860988
N  N6  1  0.67220000  0.00180000  0.28547000  1.0 -0.0488860988
N  N7  1  0.32780000  0.50180000  0.21453000  1.0 -0.0488860988
N  N8  1  0.32780000  0.99820000  0.71453000  1.0 -0.0488860988
N  N9  1  0.64380000  0.65490000  0.57590000  1.0 0.0396908331
N  N10  1  0.64380000  0.84510000  0.07590000  1.0 0.0396908331
N  N11  1  0.35620000  0.34510000  0.42410000  1.0 0.0396908331
N  N12  1  0.35620000  0.15490000  0.92410000  1.0 0.0396908331
N  N13  1  0.02440000  0.60060000  0.56770000  1.0 0.6297435663
N  N14  1  0.02440000  0.89940000  0.06770000  1.0 0.6297435663
N  N15  1  0.97560000  0.39940000  0.43230000  1.0 0.6297435663
N  N16  1  0.97560000  0.10060000  0.93230000  1.0 0.6297435663
N  N17  1  0.38720000  0.53200000  0.61470000  1.0 0.4859448797
N  N18  1  0.38720000  0.96800000  0.11470000  1.0 0.4782611158
N  N19  1  0.61280000  0.46800000  0.38530000  1.0 0.4782611158
N  N20  1  0.61280000  0.03200000  0.88530000  1.0 0.4782611158
O  O1  1  0.93120000  0.39780000  0.83974000  1.0 -0.5288355523
O  O2  1  0.93120000  0.10220000  0.33974000  1.0 -0.5288355523
O  O3  1  0.06880000  0.60220000  0.16026000  1.0 -0.5288355523
O  O4  1  0.06880000  0.89780000  0.66026000  1.0 -0.5288355523
O  O5  1  0.09390000  0.51500000  0.87109000  1.0 -0.6316605383
O  O6  1  0.09390000  0.98500000  0.37109000  1.0 -0.6316605383
O  O7  1  0.90610000  0.48500000  0.12891000  1.0 -0.6316605383
O  O8  1  0.90610000  0.01500000  0.62891000  1.0 -0.6316605383
O  O9  1  0.80220000  0.40660000  0.97238000  1.0 -0.5189597694
O  O10  1  0.80220000  0.09340000  0.47238000  1.0 -0.5148678594
O  O11  1  0.19780000  0.59340000  0.02762000  1.0 -0.5189597694
O  O12  1  0.19780000  0.90660000  0.52762000  1.0 -0.5189597694
O  O13  1  0.73600000  0.59260000  0.02140000  1.0 -0.665225672
O  O14  1  0.73600000  0.90740000  0.52140000  1.0 -0.665225672
O  O15  1  0.26400000  0.40740000  0.97860000  1.0 -0.665225672
O  O16  1  0.26400000  0.09260000  0.47860000  1.0 -0.665225672
O  O17  1  0.75640000  0.20260000  0.77061000  1.0 -0.5189597694
O  O18  1  0.75640000  0.29740000  0.27061000  1.0 -0.5189597694
O  O19  1  0.24360000  0.79740000  0.22939000  1.0 -0.5189597694
O  O20  1  0.24360000  0.70260000  0.72939000  1.0 -0.5189597694
O  O21  1  0.72500000  0.24290000  0.67483000  1.0 -0.6458319002
O  O22  1  0.72500000  0.25710000  0.17483000  1.0 -0.6458319002
O  O23  1  0.27500000  0.75710000  0.32517000  1.0 -0.6458319002
O  O24  1  0.27500000  0.74290000  0.82517000  1.0 -0.6458319002
O  O25  1  0.59880000  0.42800000  0.87848000  1.0 -0.5479768091
O  O26  1  0.59880000  0.07200000  0.37848000  1.0 -0.5479768091
O  O27  1  0.40120000  0.57200000  0.12152000  1.0 -0.5479768091
O  O28  1  0.40120000  0.92800000  0.62152000  1.0 -0.5479768091
O  O29  1  0.42360000  0.45530000  0.82750000  1.0 -0.6222420805
O  O30  1  0.42360000  0.04470000  0.32750000  1.0 -0.6222420805
O  O31  1  0.57640000  0.54470000  0.17250000  1.0 -0.6222420805
O  O32  1  0.57640000  0.95530000  0.67250000  1.0 -0.6222420805
O  O33  1  0.24620000  0.75010000  0.93718000  1.0 -0.7577452683
O  O34  1  0.24620000  0.74990000  0.43718000  1.0 -0.7577452683
O  O35  1  0.75380000  0.24990000  0.06282000  1.0 -0.7577452683
O  O36  1  0.75380000  0.25010000  0.56282000  1.0 -0.7577452683
O  O37  1  0.20200000  0.41600000  0.78153000  1.0 -0.7838465148
O  O38  1  0.20200000  0.08400000  0.28153000  1.0 -0.7838465148
O  O39  1  0.79800000  0.58400000  0.21847000  1.0 -0.7838465148
O  O40  1  0.79800000  0.91600000  0.71847000  1.0 -0.7838465148
O  O41  1  0.24300000  0.20790000  0.87870000  1.0 -0.3926304155
O  O42  1  0.24300000  0.29210000  0.37870000  1.0 -0.3926304155
O  O43  1  0.75700000  0.79210000  0.12130000  1.0 -0.3926304155
O  O44  1  0.75700000  0.70790000  0.62130000  1.0 -0.3926304155
O  O45  1  0.45020000  0.32400000  0.94440000  1.0 -0.1681701155
O  O46  1  0.45020000  0.17600000  0.44440000  1.0 -0.1681701155
O  O47  1  0.54980000  0.67600000  0.05560000  1.0 -0.1681701155
O  O48  1  0.54980000  0.82400000  0.55560000  1.0 -0.1681701155
O  O49  1  0.46370000  0.64380000  0.93590000  1.0 -0.8141410672
O  O50  1  0.46370000  0.85620000  0.43590000  1.0 -0.8141410672
O  O51  1  0.53630000  0.35620000  0.06410000  1.0 -0.8141410672
O  O52  1  0.53630000  0.14380000  0.56410000  1.0 -0.8141410672
O  O53  1  0.61890000  0.52540000  0.54390000  1.0 -0.0560095954
O  O54  1  0.61890000  0.97460000  0.04390000  1.0 -0.0560095954
O  O55  1  0.38110000  0.47460000  0.45610000  1.0 -0.0560095954
O  O56  1  0.38110000  0.02540000  0.95610000  1.0 -0.0488860988
O  O57  1  0.73900000  0.67400000  0.61210000  1.0 -0.3149266713
O  O58  1  0.73900000  0.82600000  0.11210000  1.0 -0.3166325563
O  O59  1  0.26100000  0.32600000  0.38790000  1.0 -0.3166325563
O  O60  1  0.26100000  0.17400000  0.88790000  1.0 -0.3166325563
O  O61  1  0.57530000  0.77300000  0.56780000  1.0 -0.0870888182
O  O62  1  0.57530000  0.72700000  0.06780000  1.0 -0.0870888182
O  O63  1  0.42470000  0.22700000  0.43220000  1.0 -0.0870888182
O  O64  1  0.42470000  0.27300000  0.93220000  1.0 -0.0870888182
O  O65  1  0.57900000  0.49500000  0.53470000  1.0 -0.120338269
O  O66  1  0.57900000  0.00500000  0.03470000  1.0 -0.120338269
O  O67  1  0.42100000  0.50500000  0.46530000  1.0 -0.120338269
O  O68  1  0.42100000  0.99500000  0.96530000  1.0 -0.120338269
O  O69  1  0.94410000  0.51000000  0.54210000  1.0 -0.4101847433
O  O70  1  0.08270000  0.56270000  0.61050000  1.0 -0.3261530571
O  O71  1  0.02930000  0.72710000  0.54620000  1.0 -0.3367612832
O  O72  1  0.94410000  0.99000000  0.04210000  1.0 -0.4101847433
O  O73  1  0.08270000  0.93730000  0.11050000  1.0 -0.3261530571
O  O74  1  0.02930000  0.77290000  0.04620000  1.0 -0.3367612832
O  O75  1  0.05590000  0.49000000  0.45790000  1.0 -0.4101847433
O  O76  1  0.91730000  0.43730000  0.38950000  1.0 -0.3261530571
O  O77  1  0.97070000  0.27290000  0.45380000  1.0 -0.3367612832
O  O78  1  0.05590000  0.01000000  0.95790000  1.0 -0.4101847433
O  O79  1  0.91730000  0.06270000  0.88950000  1.0 -0.3261530571
O  O80  1  0.97070000  0.22710000  0.95380000  1.0 -0.3367612832
O  O81  1  0.32900000  0.58410000  0.56780000  1.0 -0.4566225582
O  O82  1  0.45640000  0.42450000  0.61770000  1.0 -0.4248726838
O  O83  1  0.37310000  0.58360000  0.66057000  1.0 -0.3926304155
O  O84  1  0.32900000  0.91590000  0.06780000  1.0 -0.4566225582
O  O85  1  0.45640000  0.07550000  0.11770000  1.0 -0.4248726838
O  O86  1  0.37310000  0.91640000  0.16057000  1.0 -0.3926304155
O  O87  1  0.67100000  0.41590000  0.43220000  1.0 -0.4566225582
O  O88  1  0.54360000  0.57550000  0.38230000  1.0 -0.4248726838
O  O89  1  0.62690000  0.41640000  0.33943000  1.0 -0.3926304155
O  O90  1  0.67100000  0.08410000  0.93220000  1.0 -0.4566225582
O  O91  1  0.54360000  0.92450000  0.88230000  1.0 -0.4248726838
O  O92  1  0.62690000  0.08360000  0.83943000  1.0 -0.3926304155
