# DDEC6 charges by PACMAN v1.1 (https://github.com/mtap-research/PACMAN-charge/)
data_IYAJOJ_ASR_pacman
_symmetry_space_group_name_H-M   'P 1'
_cell_length_a   17.11560000
_cell_length_b   17.11560000
_cell_length_c   16.95870000
_cell_angle_alpha   73.94860000
_cell_angle_beta   106.05100000
_cell_angle_gamma   67.38620000
_symmetry_Int_Tables_number   1
_chemical_formula_structural   KNa2Cd3H24(C2O)24
_chemical_formula_sum   'K2 Na4 Cd6 H48 C96 O48'
_cell_volume   3975.76243246
_cell_formula_units_Z   2
loop_
 _symmetry_equiv_pos_site_id
 _symmetry_equiv_pos_as_xyz
  1  'x, y, z'
loop_
 _atom_site_type_symbol
 _atom_site_label
 _atom_site_symmetry_multiplicity
 _atom_site_fract_x
 _atom_site_fract_y
 _atom_site_fract_z
 _atom_site_occupancy
 _atom_site_charge
K  K1  1  0.83699000  0.83699000  0.75000000  1.0 0.8998825102
K  K2  1  0.16301000  0.16301000  0.25000000  1.0 0.8998825102
Na  Na1  1  0.18901000  0.59371000  0.71818000  1.0 0.8863055555
Na  Na2  1  0.59371000  0.18901000  0.78182000  1.0 0.8863055555
Na  Na3  1  0.81099000  0.40629000  0.28182000  1.0 0.8863055555
Na  Na4  1  0.40629000  0.81099000  0.21818000  1.0 0.8863055555
Cd  Cd1  1  0.96915000  0.76981000  0.62775000  1.0 0.9392018466
Cd  Cd2  1  0.76981000  0.96915000  0.87225000  1.0 0.9392018466
Cd  Cd3  1  0.03085000  0.23019000  0.37225000  1.0 0.9392018466
Cd  Cd4  1  0.23019000  0.03085000  0.12775000  1.0 0.9392018466
Cd  Cd5  1  0.36753000  0.36753000  0.75000000  1.0 0.9491520374
Cd  Cd6  1  0.63247000  0.63247000  0.25000000  1.0 0.9491520374
H  H1  1  0.35650000  0.11790000  0.97290000  1.0 0.1309346592
H  H2  1  0.11790000  0.35650000  0.52710000  1.0 0.1309346592
H  H3  1  0.64350000  0.88210000  0.02710000  1.0 0.1309346592
H  H4  1  0.88210000  0.64350000  0.47290000  1.0 0.1309346592
H  H5  1  0.95960000  0.52720000  0.90090000  1.0 0.1217163401
H  H6  1  0.52720000  0.95960000  0.59910000  1.0 0.1217163401
H  H7  1  0.04040000  0.47280000  0.09910000  1.0 0.1217163401
H  H8  1  0.47280000  0.04040000  0.40090000  1.0 0.1217163401
H  H9  1  0.13870000  0.44450000  0.79000000  1.0 0.1309346592
H  H10  1  0.44450000  0.13870000  0.71000000  1.0 0.1309346592
H  H11  1  0.86130000  0.55550000  0.21000000  1.0 0.1309346592
H  H12  1  0.55550000  0.86130000  0.29000000  1.0 0.1309346592
H  H13  1  0.02330000  0.37190000  0.00100000  1.0 0.1217163401
H  H14  1  0.37190000  0.02330000  0.49900000  1.0 0.1217163401
H  H15  1  0.97670000  0.62810000  0.99900000  1.0 0.1217163401
H  H16  1  0.62810000  0.97670000  0.50100000  1.0 0.1217163401
H  H17  1  0.25600000  0.75600000  0.87800000  1.0 0.1217163401
H  H18  1  0.75600000  0.25600000  0.62200000  1.0 0.1217163401
H  H19  1  0.74400000  0.24400000  0.12200000  1.0 0.1217163401
H  H20  1  0.24400000  0.74400000  0.37800000  1.0 0.1217163401
H  H21  1  0.58460000  0.03360000  0.92310000  1.0 0.1217163401
H  H22  1  0.03360000  0.58460000  0.57690000  1.0 0.1217163401
H  H23  1  0.41540000  0.96640000  0.07690000  1.0 0.1217163401
H  H24  1  0.96640000  0.41540000  0.42310000  1.0 0.1217163401
H  H25  1  0.03110000  0.95890000  0.93610000  1.0 0.1366561352
H  H26  1  0.95890000  0.03110000  0.56390000  1.0 0.1366561352
H  H27  1  0.96890000  0.04110000  0.06390000  1.0 0.1366561352
H  H28  1  0.04110000  0.96890000  0.43610000  1.0 0.1366561352
H  H29  1  0.98800000  0.89580000  0.83580000  1.0 0.1217163401
H  H30  1  0.89580000  0.98800000  0.66420000  1.0 0.1217163401
H  H31  1  0.01200000  0.10420000  0.16420000  1.0 0.1217163401
H  H32  1  0.10420000  0.01200000  0.33580000  1.0 0.1217163401
H  H33  1  0.20020000  0.28920000  0.88910000  1.0 0.1366561352
H  H34  1  0.28920000  0.20020000  0.61090000  1.0 0.1366561352
H  H35  1  0.79980000  0.71080000  0.11090000  1.0 0.1366561352
H  H36  1  0.71080000  0.79980000  0.38910000  1.0 0.1366561352
H  H37  1  0.29820000  0.81900000  0.97560000  1.0 0.1309346592
H  H38  1  0.81900000  0.29820000  0.52440000  1.0 0.1309346592
H  H39  1  0.70180000  0.18100000  0.02440000  1.0 0.1309346592
H  H40  1  0.18100000  0.70180000  0.47560000  1.0 0.1309346592
H  H41  1  0.59950000  0.37650000  0.98060000  1.0 0.1217163401
H  H42  1  0.37650000  0.59950000  0.51940000  1.0 0.1217163401
H  H43  1  0.40050000  0.62350000  0.01940000  1.0 0.1217163401
H  H44  1  0.62350000  0.40050000  0.48060000  1.0 0.1217163401
H  H45  1  0.33870000  0.57730000  0.91460000  1.0 0.1217163401
H  H46  1  0.57730000  0.33870000  0.58540000  1.0 0.1217163401
H  H47  1  0.66130000  0.42270000  0.08540000  1.0 0.1217163401
H  H48  1  0.42270000  0.66130000  0.41460000  1.0 0.1217163401
C  C1  1  0.08910000  0.78290000  0.77900000  1.0 0.5899932904
C  C2  1  0.78290000  0.08910000  0.72100000  1.0 0.5899932904
C  C3  1  0.91090000  0.21710000  0.22100000  1.0 0.5899932904
C  C4  1  0.21710000  0.91090000  0.27900000  1.0 0.5899932904
C  C5  1  0.41530000  0.06970000  0.98380000  1.0 -0.0922388697
C  C6  1  0.06970000  0.41530000  0.51620000  1.0 -0.0922388697
C  C7  1  0.58470000  0.93030000  0.01620000  1.0 -0.0922388697
C  C8  1  0.93030000  0.58470000  0.48380000  1.0 -0.0922388697
C  C9  1  0.99880000  0.60180000  0.76670000  1.0 0.5899932904
C  C10  1  0.60180000  0.99880000  0.73330000  1.0 0.5899932904
C  C11  1  0.00120000  0.39820000  0.23330000  1.0 0.5899932904
C  C12  1  0.39820000  0.00120000  0.26670000  1.0 0.5899932904
C  C13  1  0.11760000  0.82220000  0.84540000  1.0 -0.0101364352
C  C14  1  0.82220000  0.11760000  0.65460000  1.0 -0.0101364352
C  C15  1  0.88240000  0.17780000  0.15460000  1.0 -0.0101364352
C  C16  1  0.17780000  0.88240000  0.34540000  1.0 -0.0101364352
C  C17  1  0.46370000  0.09150000  0.93750000  1.0 -0.0101364352
C  C18  1  0.09150000  0.46370000  0.56250000  1.0 -0.0101364352
C  C19  1  0.53630000  0.90850000  0.06250000  1.0 -0.0101364352
C  C20  1  0.90850000  0.53630000  0.43750000  1.0 -0.0101364352
C  C21  1  0.00830000  0.47870000  0.89770000  1.0 -0.0989276776
C  C22  1  0.47870000  0.00830000  0.60230000  1.0 -0.0989276776
C  C23  1  0.99170000  0.52130000  0.10230000  1.0 -0.0989276776
C  C24  1  0.52130000  0.99170000  0.39770000  1.0 -0.0989276776
C  C25  1  0.19440000  0.94060000  0.02500000  1.0 0.5759148447
C  C26  1  0.94060000  0.19440000  0.47500000  1.0 0.5759148447
C  C27  1  0.80560000  0.05940000  0.97500000  1.0 0.5759148447
C  C28  1  0.05940000  0.80560000  0.52500000  1.0 0.5759148447
C  C29  1  0.11390000  0.42990000  0.83200000  1.0 -0.0922388697
C  C30  1  0.42990000  0.11390000  0.66800000  1.0 -0.0922388697
C  C31  1  0.88610000  0.57010000  0.16800000  1.0 -0.0922388697
C  C32  1  0.57010000  0.88610000  0.33200000  1.0 -0.0922388697
C  C33  1  0.15870000  0.21430000  0.01870000  1.0 0.5709787556
C  C34  1  0.21430000  0.15870000  0.48130000  1.0 0.5709787556
C  C35  1  0.84130000  0.78570000  0.98130000  1.0 0.5709787556
C  C36  1  0.78570000  0.84130000  0.51870000  1.0 0.5709787556
C  C37  1  0.11770000  0.31530000  0.95500000  1.0 -0.0101364352
C  C38  1  0.31530000  0.11770000  0.54500000  1.0 -0.0101364352
C  C39  1  0.88230000  0.68470000  0.04500000  1.0 -0.0101364352
C  C40  1  0.68470000  0.88230000  0.45500000  1.0 -0.0101364352
C  C41  1  0.04660000  0.38640000  0.95750000  1.0 -0.0989276776
C  C42  1  0.38640000  0.04660000  0.54250000  1.0 -0.0989276776
C  C43  1  0.95340000  0.61360000  0.04250000  1.0 -0.0989276776
C  C44  1  0.61360000  0.95340000  0.45750000  1.0 -0.0989276776
C  C45  1  0.20920000  0.79840000  0.88850000  1.0 -0.0989276776
C  C46  1  0.79840000  0.20920000  0.61150000  1.0 -0.0989276776
C  C47  1  0.79080000  0.20160000  0.11150000  1.0 -0.0989276776
C  C48  1  0.20160000  0.79080000  0.38850000  1.0 -0.0989276776
C  C49  1  0.55000000  0.02000000  0.95440000  1.0 -0.0922388697
C  C50  1  0.02000000  0.55000000  0.54560000  1.0 -0.0922388697
C  C51  1  0.45000000  0.98000000  0.04560000  1.0 -0.0922388697
C  C52  1  0.98000000  0.45000000  0.45440000  1.0 -0.0922388697
C  C53  1  0.07730000  0.91810000  0.92380000  1.0 -0.0770804064
C  C54  1  0.91810000  0.07730000  0.57620000  1.0 -0.0770804064
C  C55  1  0.92270000  0.08190000  0.07620000  1.0 -0.0770804064
C  C56  1  0.08190000  0.92270000  0.42380000  1.0 -0.0770804064
C  C57  1  0.05140000  0.88060000  0.86370000  1.0 -0.0989276776
C  C58  1  0.88060000  0.05140000  0.63630000  1.0 -0.0989276776
C  C59  1  0.94860000  0.11940000  0.13630000  1.0 -0.0989276776
C  C60  1  0.11940000  0.94860000  0.36370000  1.0 -0.0989276776
C  C61  1  0.04070000  0.50090000  0.83330000  1.0 -0.0101364352
C  C62  1  0.50090000  0.04070000  0.66666667  1.0 -0.0101364352
C  C63  1  0.95930000  0.49910000  0.16670000  1.0 -0.0101364352
C  C64  1  0.49910000  0.95930000  0.33333333  1.0 -0.0101364352
C  C65  1  0.16900000  0.89600000  0.96470000  1.0 -0.0101364352
C  C66  1  0.89600000  0.16900000  0.53530000  1.0 -0.0101364352
C  C67  1  0.83100000  0.10400000  0.03530000  1.0 -0.0101364352
C  C68  1  0.10400000  0.83100000  0.46470000  1.0 -0.0101364352
C  C69  1  0.42620000  0.19000000  0.87090000  1.0 0.5709787556
C  C70  1  0.19000000  0.42620000  0.62910000  1.0 0.5709787556
C  C71  1  0.57380000  0.81000000  0.12910000  1.0 0.5709787556
C  C72  1  0.81000000  0.57380000  0.37090000  1.0 0.5709787556
C  C73  1  0.15110000  0.33770000  0.89160000  1.0 -0.0770804064
C  C74  1  0.33770000  0.15110000  0.60840000  1.0 -0.0770804064
C  C75  1  0.84890000  0.66230000  0.10840000  1.0 -0.0770804064
C  C76  1  0.66230000  0.84890000  0.39160000  1.0 -0.0770804064
C  C77  1  0.23430000  0.83550000  0.94700000  1.0 -0.0922388697
C  C78  1  0.83550000  0.23430000  0.55300000  1.0 -0.0922388697
C  C79  1  0.76570000  0.16450000  0.05300000  1.0 -0.0922388697
C  C80  1  0.16450000  0.76570000  0.44700000  1.0 -0.0922388697
C  C81  1  0.46200000  0.47240000  0.93720000  1.0 -0.0018852467
C  C82  1  0.47240000  0.46200000  0.56280000  1.0 -0.0018852467
C  C83  1  0.53800000  0.52760000  0.06280000  1.0 -0.0018852467
C  C84  1  0.52760000  0.53800000  0.43720000  1.0 -0.0018852467
C  C85  1  0.55900000  0.42680000  0.98870000  1.0 -0.0922388697
C  C86  1  0.42680000  0.55900000  0.51130000  1.0 -0.0922388697
C  C87  1  0.44100000  0.57320000  0.01130000  1.0 -0.0922388697
C  C88  1  0.57320000  0.44100000  0.48870000  1.0 -0.0922388697
C  C89  1  0.40480000  0.54560000  0.94970000  1.0 -0.0989276776
C  C90  1  0.54560000  0.40480000  0.55030000  1.0 -0.0989276776
C  C91  1  0.59520000  0.45440000  0.05030000  1.0 -0.0989276776
C  C92  1  0.45440000  0.59520000  0.44970000  1.0 -0.0989276776
C  C93  1  0.42180000  0.44100000  0.86960000  1.0 0.5709787556
C  C94  1  0.44100000  0.42180000  0.63040000  1.0 0.5709787556
C  C95  1  0.57820000  0.55900000  0.13040000  1.0 0.5709787556
C  C96  1  0.55900000  0.57820000  0.36960000  1.0 0.5709787556
O  O1  1  0.13034000  0.00714000  0.02600000  1.0 -0.5067605378
O  O2  1  0.00714000  0.13034000  0.47400000  1.0 -0.5067605378
O  O3  1  0.86966000  0.99286000  0.97400000  1.0 -0.5067605378
O  O4  1  0.99286000  0.86966000  0.52600000  1.0 -0.5067605378
O  O5  1  0.00227000  0.81407000  0.73770000  1.0 -0.5812654646
O  O6  1  0.81407000  0.00227000  0.76230000  1.0 -0.5812654646
O  O7  1  0.99773000  0.18593000  0.26230000  1.0 -0.5812654646
O  O8  1  0.18593000  0.99773000  0.23770000  1.0 -0.5812654646
O  O9  1  0.14910000  0.72570000  0.76800000  1.0 -0.5362040154
O  O10  1  0.72570000  0.14910000  0.73200000  1.0 -0.5362040154
O  O11  1  0.85090000  0.27430000  0.23200000  1.0 -0.5325551184
O  O12  1  0.27430000  0.85090000  0.26800000  1.0 -0.5362040154
O  O13  1  0.04091000  0.61671000  0.71960000  1.0 -0.5890869848
O  O14  1  0.61671000  0.04091000  0.78040000  1.0 -0.5812654646
O  O15  1  0.95909000  0.38329000  0.28040000  1.0 -0.5890869848
O  O16  1  0.38329000  0.95909000  0.21960000  1.0 -0.5812654646
O  O17  1  0.12793000  0.19593000  0.07700000  1.0 -0.6008259954
O  O18  1  0.19593000  0.12793000  0.42300000  1.0 -0.6008259954
O  O19  1  0.87207000  0.80407000  0.92300000  1.0 -0.6008259954
O  O20  1  0.80407000  0.87207000  0.57700000  1.0 -0.6008259954
O  O21  1  0.22001000  0.15141000  0.01110000  1.0 -0.5017315262
O  O22  1  0.15141000  0.22001000  0.48890000  1.0 -0.5017315262
O  O23  1  0.77999000  0.84859000  0.98890000  1.0 -0.5017315262
O  O24  1  0.84859000  0.77999000  0.51110000  1.0 -0.5017315262
O  O25  1  0.27965000  0.91085000  0.07040000  1.0 -0.5890869848
O  O26  1  0.91085000  0.27965000  0.42960000  1.0 -0.5890869848
O  O27  1  0.72035000  0.08915000  0.92960000  1.0 -0.5890869848
O  O28  1  0.08915000  0.72035000  0.57040000  1.0 -0.5890869848
O  O29  1  0.92577000  0.66257000  0.76030000  1.0 -0.5587098153
O  O30  1  0.66257000  0.92577000  0.73970000  1.0 -0.5587098153
O  O31  1  0.07423000  0.33743000  0.23970000  1.0 -0.5587098153
O  O32  1  0.33743000  0.07423000  0.26030000  1.0 -0.5587098153
O  O33  1  0.46714000  0.20594000  0.82360000  1.0 -0.5587098153
O  O34  1  0.20594000  0.46714000  0.67640000  1.0 -0.5587098153
O  O35  1  0.53286000  0.79406000  0.17640000  1.0 -0.5587098153
O  O36  1  0.79406000  0.53286000  0.32360000  1.0 -0.5587098153
O  O37  1  0.47740000  0.37180000  0.86400000  1.0 -0.5017315262
O  O38  1  0.37180000  0.47740000  0.63600000  1.0 -0.5017315262
O  O39  1  0.52260000  0.62820000  0.13600000  1.0 -0.5017315262
O  O40  1  0.62820000  0.52260000  0.36400000  1.0 -0.5017315262
O  O41  1  0.35430000  0.25430000  0.86550000  1.0 -0.486929988
O  O42  1  0.25430000  0.35430000  0.63450000  1.0 -0.4846418651
O  O43  1  0.64570000  0.74570000  0.13450000  1.0 -0.486929988
O  O44  1  0.74570000  0.64570000  0.36550000  1.0 -0.486929988
O  O45  1  0.33680000  0.48360000  0.82280000  1.0 -0.5687843861
O  O46  1  0.48360000  0.33680000  0.67720000  1.0 -0.5687843861
O  O47  1  0.66320000  0.51640000  0.17720000  1.0 -0.5687843861
O  O48  1  0.51640000  0.66320000  0.32280000  1.0 -0.5687843861
