# DDEC6 charges by PACMAN v1.1 (https://github.com/mtap-research/PACMAN-charge/)
data_IYAJID_FSR_pacman
_symmetry_space_group_name_H-M   'P 1'
_cell_length_a   17.41220000
_cell_length_b   17.41220000
_cell_length_c   16.31550000
_cell_angle_alpha   75.01710000
_cell_angle_beta   104.98300000
_cell_angle_gamma   63.84730000
_symmetry_Int_Tables_number   1
_chemical_formula_structural   NaCdH8(C2O)8
_chemical_formula_sum   'Na6 Cd6 H48 C96 O48'
_cell_volume   3873.32158577
_cell_formula_units_Z   6
loop_
 _symmetry_equiv_pos_site_id
 _symmetry_equiv_pos_as_xyz
  1  'x, y, z'
loop_
 _atom_site_type_symbol
 _atom_site_label
 _atom_site_symmetry_multiplicity
 _atom_site_fract_x
 _atom_site_fract_y
 _atom_site_fract_z
 _atom_site_occupancy
 _atom_site_charge
Na  Na1  1  0.09024000  0.68180000  0.77482000  1.0 0.8883860997
Na  Na2  1  0.68180000  0.09024000  0.72518000  1.0 0.8883860997
Na  Na3  1  0.90976000  0.31820000  0.22518000  1.0 0.8883860997
Na  Na4  1  0.31820000  0.90976000  0.27482000  1.0 0.8883860997
Na  Na5  1  0.34186000  0.34186000  0.75000000  1.0 0.8793404988
Na  Na6  1  0.65814000  0.65814000  0.25000000  1.0 0.8793404988
Cd  Cd1  1  0.27376000  0.46498000  0.86943000  1.0 0.9384206823
Cd  Cd2  1  0.46498000  0.27376000  0.63057000  1.0 0.9384206823
Cd  Cd3  1  0.72624000  0.53502000  0.13057000  1.0 0.9384206823
Cd  Cd4  1  0.53502000  0.72624000  0.36943000  1.0 0.9384206823
Cd  Cd5  1  0.86746000  0.86746000  0.75000000  1.0 0.9644748858
Cd  Cd6  1  0.13254000  0.13254000  0.25000000  1.0 0.9675581149
H  H1  1  0.24090000  0.75190000  0.61050000  1.0 0.1206990953
H  H2  1  0.75190000  0.24090000  0.88950000  1.0 0.1206990953
H  H3  1  0.75910000  0.24810000  0.38950000  1.0 0.1206990953
H  H4  1  0.24810000  0.75910000  0.11050000  1.0 0.1206990953
H  H5  1  0.85420000  0.62300000  0.97160000  1.0 0.1286053772
H  H6  1  0.62300000  0.85420000  0.52840000  1.0 0.1286053772
H  H7  1  0.14580000  0.37700000  0.02840000  1.0 0.1286053772
H  H8  1  0.37700000  0.14580000  0.47160000  1.0 0.1369119527
H  H9  1  0.55910000  0.96250000  0.10330000  1.0 0.1286053772
H  H10  1  0.96250000  0.55910000  0.39670000  1.0 0.1286053772
H  H11  1  0.44090000  0.03750000  0.89670000  1.0 0.1286053772
H  H12  1  0.03750000  0.44090000  0.60330000  1.0 0.1286053772
H  H13  1  0.30500000  0.79720000  0.51440000  1.0 0.1286053772
H  H14  1  0.79720000  0.30500000  0.98560000  1.0 0.1286053772
H  H15  1  0.69500000  0.20280000  0.48560000  1.0 0.1286053772
H  H16  1  0.20280000  0.69500000  0.01440000  1.0 0.1286053772
H  H17  1  0.49480000  0.11700000  0.00160000  1.0 0.1286053772
H  H18  1  0.11700000  0.49480000  0.49840000  1.0 0.1286053772
H  H19  1  0.50520000  0.88300000  0.99840000  1.0 0.1286053772
H  H20  1  0.88300000  0.50520000  0.50160000  1.0 0.1286053772
H  H21  1  0.47020000  0.52860000  0.56240000  1.0 0.1369119527
H  H22  1  0.52860000  0.47020000  0.93760000  1.0 0.1369119527
H  H23  1  0.52980000  0.47140000  0.43760000  1.0 0.1369119527
H  H24  1  0.47140000  0.52980000  0.06240000  1.0 0.1369119527
H  H25  1  0.06960000  0.83820000  0.57140000  1.0 0.1286053772
H  H26  1  0.83820000  0.06960000  0.92860000  1.0 0.1286053772
H  H27  1  0.93040000  0.16180000  0.42860000  1.0 0.1286053772
H  H28  1  0.16180000  0.93040000  0.07140000  1.0 0.1286053772
H  H29  1  0.30990000  0.20770000  0.10940000  1.0 0.1369119527
H  H30  1  0.20770000  0.30990000  0.39060000  1.0 0.1369119527
H  H31  1  0.69010000  0.79230000  0.89060000  1.0 0.1369119527
H  H32  1  0.79230000  0.69010000  0.60940000  1.0 0.1369119527
H  H33  1  0.08650000  0.52810000  0.92430000  1.0 0.1206990953
H  H34  1  0.52810000  0.08650000  0.57570000  1.0 0.1206990953
H  H35  1  0.91350000  0.47190000  0.07570000  1.0 0.1286053772
H  H36  1  0.47190000  0.91350000  0.42430000  1.0 0.1206990953
H  H37  1  0.88070000  0.09950000  0.52880000  1.0 0.1206990953
H  H38  1  0.09950000  0.88070000  0.97120000  1.0 0.1206990953
H  H39  1  0.11930000  0.90050000  0.47120000  1.0 0.1206990953
H  H40  1  0.90050000  0.11930000  0.02880000  1.0 0.1206990953
H  H41  1  0.37260000  0.05400000  0.21070000  1.0 0.1286053772
H  H42  1  0.05400000  0.37260000  0.28930000  1.0 0.1286053772
H  H43  1  0.62740000  0.94600000  0.78930000  1.0 0.1286053772
H  H44  1  0.94600000  0.62740000  0.71070000  1.0 0.1286053772
H  H45  1  0.40620000  0.48280000  0.65630000  1.0 0.1286053772
H  H46  1  0.48280000  0.40620000  0.84370000  1.0 0.1286053772
H  H47  1  0.59380000  0.51720000  0.34370000  1.0 0.1286053772
H  H48  1  0.51720000  0.59380000  0.15630000  1.0 0.1286053772
C  C1  1  0.28720000  0.70640000  0.60110000  1.0 -0.0914428371
C  C2  1  0.70640000  0.28720000  0.89890000  1.0 -0.0914428371
C  C3  1  0.71280000  0.29360000  0.39890000  1.0 -0.0914428371
C  C4  1  0.29360000  0.71280000  0.10110000  1.0 -0.0914428371
C  C5  1  0.91297000  0.57357000  0.98310000  1.0 -0.0914428371
C  C6  1  0.57357000  0.91297000  0.51690000  1.0 -0.0914428371
C  C7  1  0.08703000  0.42643000  0.01690000  1.0 -0.0914428371
C  C8  1  0.42643000  0.08703000  0.48310000  1.0 -0.0914428371
C  C9  1  0.50846000  0.01166000  0.10470000  1.0 -0.0980784268
C  C10  1  0.01166000  0.50846000  0.39530000  1.0 -0.0980784268
C  C11  1  0.49154000  0.98834000  0.89530000  1.0 -0.0980784268
C  C12  1  0.98834000  0.49154000  0.60470000  1.0 -0.0980784268
C  C13  1  0.32572000  0.73372000  0.54340000  1.0 -0.0914428371
C  C14  1  0.73372000  0.32572000  0.95660000  1.0 -0.0914428371
C  C15  1  0.67428000  0.26628000  0.45660000  1.0 -0.0914428371
C  C16  1  0.26628000  0.67428000  0.04340000  1.0 -0.0914428371
C  C17  1  0.46996000  0.10436000  0.04370000  1.0 -0.0914428371
C  C18  1  0.10436000  0.46996000  0.45630000  1.0 -0.0914428371
C  C19  1  0.53004000  0.89564000  0.95630000  1.0 -0.0914428371
C  C20  1  0.89564000  0.53004000  0.54370000  1.0 -0.0914428371
C  C21  1  0.51198000  0.89058000  0.23190000  1.0 0.5965460829
C  C22  1  0.89058000  0.51198000  0.26810000  1.0 0.5965460829
C  C23  1  0.48802000  0.10942000  0.76810000  1.0 0.5965460829
C  C24  1  0.10942000  0.48802000  0.73190000  1.0 0.5965460829
C  C25  1  0.39492000  0.17832000  0.04490000  1.0 -0.0101354715
C  C26  1  0.17832000  0.39492000  0.45510000  1.0 -0.0101354715
C  C27  1  0.60508000  0.82168000  0.95510000  1.0 -0.0101354715
C  C28  1  0.82168000  0.60508000  0.54490000  1.0 -0.0101354715
C  C29  1  0.42380000  0.57380000  0.57190000  1.0 -0.0784309282
C  C30  1  0.57380000  0.42380000  0.92810000  1.0 -0.0784309282
C  C31  1  0.57620000  0.42620000  0.42810000  1.0 -0.0784309282
C  C32  1  0.42620000  0.57620000  0.07190000  1.0 -0.0784309282
C  C33  1  0.04159000  0.90339000  0.54290000  1.0 -0.0980784268
C  C34  1  0.90339000  0.04159000  0.95710000  1.0 -0.0980784268
C  C35  1  0.95841000  0.09661000  0.45710000  1.0 -0.0980784268
C  C36  1  0.09661000  0.95841000  0.04290000  1.0 -0.0980784268
C  C37  1  0.31678000  0.61238000  0.64460000  1.0 -0.0101354715
C  C38  1  0.61238000  0.31678000  0.85540000  1.0 -0.0101354715
C  C39  1  0.68322000  0.38762000  0.35540000  1.0 -0.0101354715
C  C40  1  0.38762000  0.68322000  0.14460000  1.0 -0.0101354715
C  C41  1  0.39432000  0.66712000  0.52920000  1.0 -0.0027772798
C  C42  1  0.66712000  0.39432000  0.97080000  1.0 -0.0027772798
C  C43  1  0.60568000  0.33288000  0.47080000  1.0 -0.0027772798
C  C44  1  0.33288000  0.60568000  0.02920000  1.0 -0.0027772798
C  C45  1  0.27771000  0.58251000  0.70930000  1.0 0.5946559749
C  C46  1  0.58251000  0.27771000  0.79070000  1.0 0.5946559749
C  C47  1  0.72229000  0.41749000  0.29070000  1.0 0.5946559749
C  C48  1  0.41749000  0.72229000  0.20930000  1.0 0.5946559749
C  C49  1  0.97036000  0.96216000  0.56130000  1.0 -0.0027772798
C  C50  1  0.96216000  0.97036000  0.93870000  1.0 -0.0027772798
C  C51  1  0.02964000  0.03784000  0.43870000  1.0 -0.0027772798
C  C52  1  0.03784000  0.02964000  0.06130000  1.0 -0.0027772798
C  C53  1  0.36004000  0.15824000  0.10770000  1.0 -0.0784309282
C  C54  1  0.15824000  0.36004000  0.39230000  1.0 -0.0784309282
C  C55  1  0.63996000  0.84176000  0.89230000  1.0 -0.0784309282
C  C56  1  0.84176000  0.63996000  0.60770000  1.0 -0.0784309282
C  C57  1  0.05178000  0.51678000  0.95490000  1.0 -0.0914428371
C  C58  1  0.51678000  0.05178000  0.54510000  1.0 -0.0914428371
C  C59  1  0.94822000  0.48322000  0.04510000  1.0 -0.0914428371
C  C60  1  0.48322000  0.94822000  0.45490000  1.0 -0.0914428371
C  C61  1  0.96395000  0.59195000  0.93740000  1.0 -0.0101354715
C  C62  1  0.59195000  0.96395000  0.56260000  1.0 -0.0101354715
C  C63  1  0.03605000  0.40805000  0.06260000  1.0 -0.0101354715
C  C64  1  0.40805000  0.03605000  0.43740000  1.0 -0.0101354715
C  C65  1  0.92900000  0.05920000  0.51730000  1.0 -0.0914428371
C  C66  1  0.05920000  0.92900000  0.98270000  1.0 -0.0914428371
C  C67  1  0.07100000  0.94080000  0.48270000  1.0 -0.0914428371
C  C68  1  0.94080000  0.07100000  0.01730000  1.0 -0.0914428371
C  C69  1  0.47267000  0.99147000  0.16720000  1.0 -0.0101354715
C  C70  1  0.99147000  0.47267000  0.33280000  1.0 -0.0101354715
C  C71  1  0.52733000  0.00853000  0.83280000  1.0 -0.0101354715
C  C72  1  0.00853000  0.52733000  0.66720000  1.0 -0.0101354715
C  C73  1  0.39759000  0.06619000  0.16860000  1.0 -0.0914428371
C  C74  1  0.06619000  0.39759000  0.33140000  1.0 -0.0914428371
C  C75  1  0.60241000  0.93381000  0.83140000  1.0 -0.0914428371
C  C76  1  0.93381000  0.60241000  0.66860000  1.0 -0.0914428371
C  C77  1  0.92606000  0.69086000  0.87130000  1.0 0.5728908471
C  C78  1  0.69086000  0.92606000  0.62870000  1.0 0.5728908471
C  C79  1  0.07394000  0.30914000  0.12870000  1.0 0.5728908471
C  C80  1  0.30914000  0.07394000  0.37130000  1.0 0.5728908471
C  C81  1  0.38565000  0.54625000  0.62850000  1.0 -0.0914428371
C  C82  1  0.54625000  0.38565000  0.87150000  1.0 -0.0914428371
C  C83  1  0.61435000  0.45375000  0.37150000  1.0 -0.0914428371
C  C84  1  0.45375000  0.61435000  0.12850000  1.0 -0.0914428371
C  C85  1  0.35296000  0.27956000  0.97890000  1.0 0.5774932992
C  C86  1  0.27956000  0.35296000  0.52110000  1.0 0.5774932992
C  C87  1  0.64704000  0.72044000  0.02110000  1.0 0.5774932992
C  C88  1  0.72044000  0.64704000  0.47890000  1.0 0.5774932992
C  C89  1  0.43949000  0.69569000  0.46950000  1.0 0.5774932992
C  C90  1  0.69569000  0.43949000  0.03050000  1.0 0.5774932992
C  C91  1  0.56051000  0.30431000  0.53050000  1.0 0.5774932992
C  C92  1  0.30431000  0.56051000  0.96950000  1.0 0.5774932992
C  C93  1  0.93766000  0.92206000  0.62750000  1.0 0.5774932992
C  C94  1  0.92206000  0.93766000  0.87250000  1.0 0.5774932992
C  C95  1  0.06234000  0.07794000  0.37250000  1.0 0.5774932992
C  C96  1  0.07794000  0.06234000  0.12750000  1.0 0.5774932992
O  O1  1  0.31272000  0.49450000  0.75040000  1.0 -0.5892254023
O  O2  1  0.49450000  0.31272000  0.74960000  1.0 -0.5892254023
O  O3  1  0.68728000  0.50550000  0.24960000  1.0 -0.5892254023
O  O4  1  0.50550000  0.68728000  0.25040000  1.0 -0.5892254023
O  O5  1  0.50866000  0.63046000  0.46730000  1.0 -0.5093853269
O  O6  1  0.63046000  0.50866000  0.03270000  1.0 -0.5093853269
O  O7  1  0.49134000  0.36954000  0.53270000  1.0 -0.5093853269
O  O8  1  0.36954000  0.49134000  0.96730000  1.0 -0.5093853269
O  O9  1  0.37915000  0.29691000  0.91590000  1.0 -0.5790039182
O  O10  1  0.29691000  0.37915000  0.58410000  1.0 -0.5790039182
O  O11  1  0.62085000  0.70309000  0.08410000  1.0 -0.5790039182
O  O12  1  0.70309000  0.62085000  0.41590000  1.0 -0.5790039182
O  O13  1  0.46707000  0.87885000  0.27850000  1.0 -0.6020311424
O  O14  1  0.87885000  0.46707000  0.22150000  1.0 -0.6020311424
O  O15  1  0.53293000  0.12115000  0.72150000  1.0 -0.6020311424
O  O16  1  0.12115000  0.53293000  0.77850000  1.0 -0.6020311424
O  O17  1  0.96906000  0.70306000  0.82310000  1.0 -0.5790039182
O  O18  1  0.70306000  0.96906000  0.67690000  1.0 -0.5790039182
O  O19  1  0.03094000  0.29694000  0.17690000  1.0 -0.5790039182
O  O20  1  0.29694000  0.03094000  0.32310000  1.0 -0.5790039182
O  O21  1  0.86656000  0.97876000  0.63440000  1.0 -0.5041534611
O  O22  1  0.97876000  0.86656000  0.86560000  1.0 -0.5093853269
O  O23  1  0.13344000  0.02124000  0.36560000  1.0 -0.5041534611
O  O24  1  0.02124000  0.13344000  0.13440000  1.0 -0.5041534611
O  O25  1  0.21617000  0.64357000  0.72180000  1.0 -0.5739248552
O  O26  1  0.64357000  0.21617000  0.77820000  1.0 -0.5739248552
O  O27  1  0.78383000  0.35643000  0.27820000  1.0 -0.5739248552
O  O28  1  0.35643000  0.78383000  0.22180000  1.0 -0.5739248552
O  O29  1  0.40869000  0.78129000  0.42670000  1.0 -0.5892254023
O  O30  1  0.78129000  0.40869000  0.07330000  1.0 -0.5790039182
O  O31  1  0.59131000  0.21871000  0.57330000  1.0 -0.5892254023
O  O32  1  0.21871000  0.59131000  0.92670000  1.0 -0.5790039182
O  O33  1  0.58467000  0.82487000  0.23610000  1.0 -0.5606940099
O  O34  1  0.82487000  0.58467000  0.26390000  1.0 -0.5606940099
O  O35  1  0.41533000  0.17513000  0.76390000  1.0 -0.5606940099
O  O36  1  0.17513000  0.41533000  0.73610000  1.0 -0.5606940099
O  O37  1  0.85456000  0.75836000  0.86660000  1.0 -0.4869943046
O  O38  1  0.75836000  0.85456000  0.63340000  1.0 -0.4869943046
O  O39  1  0.14544000  0.24164000  0.13340000  1.0 -0.4869943046
O  O40  1  0.24164000  0.14544000  0.36660000  1.0 -0.4869943046
O  O41  1  0.29231000  0.34411000  0.99050000  1.0 -0.5093853269
O  O42  1  0.34411000  0.29231000  0.50950000  1.0 -0.5041534611
O  O43  1  0.70769000  0.65589000  0.00950000  1.0 -0.5093853269
O  O44  1  0.65589000  0.70769000  0.49050000  1.0 -0.5041534611
O  O45  1  0.98098000  0.83538000  0.67260000  1.0 -0.5790039182
O  O46  1  0.83538000  0.98098000  0.82740000  1.0 -0.5790039182
O  O47  1  0.01902000  0.16462000  0.32740000  1.0 -0.5790039182
O  O48  1  0.16462000  0.01902000  0.17260000  1.0 -0.5790039182
