# DDEC6 charges by PACMAN v1.1 (https://github.com/mtap-research/PACMAN-charge/)
data_IYAJUP_ASR_pacman
_symmetry_space_group_name_H-M   'P 1'
_cell_length_a   16.32960000
_cell_length_b   16.32960000
_cell_length_c   17.71740000
_cell_angle_alpha   73.73350000
_cell_angle_beta   106.26700000
_cell_angle_gamma   72.07770000
_symmetry_Int_Tables_number   1
_chemical_formula_structural   KCdH8(C2O)8
_chemical_formula_sum   'K6 Cd6 H48 C96 O48'
_cell_volume   3953.01627286
_cell_formula_units_Z   6
loop_
 _symmetry_equiv_pos_site_id
 _symmetry_equiv_pos_as_xyz
  1  'x, y, z'
loop_
 _atom_site_type_symbol
 _atom_site_label
 _atom_site_symmetry_multiplicity
 _atom_site_fract_x
 _atom_site_fract_y
 _atom_site_fract_z
 _atom_site_occupancy
 _atom_site_charge
K  K1  1  0.66949000  0.66949000  0.75000000  1.0 0.9019838831
K  K2  1  0.33051000  0.33051000  0.25000000  1.0 0.9019838831
K  K3  1  0.89720000  0.28770000  0.71142000  1.0 0.9110201857
K  K4  1  0.28770000  0.89720000  0.78858000  1.0 0.9110201857
K  K5  1  0.10280000  0.71230000  0.28858000  1.0 0.9110201857
K  K6  1  0.71230000  0.10280000  0.21142000  1.0 0.9110201857
Cd  Cd1  1  0.46864000  0.26496000  0.13358000  1.0 0.9501709005
Cd  Cd2  1  0.26496000  0.46864000  0.36642000  1.0 0.9501709005
Cd  Cd3  1  0.53136000  0.73504000  0.86642000  1.0 0.9501709005
Cd  Cd4  1  0.73504000  0.53136000  0.63358000  1.0 0.9501709005
Cd  Cd5  1  0.13650000  0.13650000  0.75000000  1.0 0.9501709005
Cd  Cd6  1  0.86350000  0.86350000  0.25000000  1.0 0.9501709005
H  H1  1  0.85450000  0.60670000  0.47530000  1.0 0.1405726894
H  H2  1  0.60670000  0.85450000  0.02470000  1.0 0.1405726894
H  H3  1  0.14550000  0.39330000  0.52470000  1.0 0.1405726894
H  H4  1  0.39330000  0.14550000  0.97530000  1.0 0.1405726894
H  H5  1  0.71420000  0.79100000  0.40680000  1.0 0.1405726894
H  H6  1  0.79100000  0.71420000  0.09320000  1.0 0.1405726894
H  H7  1  0.28580000  0.20900000  0.59320000  1.0 0.1405726894
H  H8  1  0.20900000  0.28580000  0.90680000  1.0 0.1405726894
H  H9  1  0.48360000  0.40020000  0.33350000  1.0 0.1201645942
H  H10  1  0.40020000  0.48360000  0.16650000  1.0 0.1201645942
H  H11  1  0.51640000  0.59980000  0.66650000  1.0 0.1201645942
H  H12  1  0.59980000  0.51640000  0.83350000  1.0 0.1201645942
H  H13  1  0.64680000  0.94240000  0.30180000  1.0 0.1285136186
H  H14  1  0.94240000  0.64680000  0.19820000  1.0 0.1285136186
H  H15  1  0.35320000  0.05760000  0.69820000  1.0 0.1285136186
H  H16  1  0.05760000  0.35320000  0.80180000  1.0 0.1285136186
H  H17  1  0.52440000  0.87120000  0.50550000  1.0 0.1201645942
H  H18  1  0.87120000  0.52440000  0.99450000  1.0 0.1201645942
H  H19  1  0.47560000  0.12880000  0.49450000  1.0 0.1201645942
H  H20  1  0.12880000  0.47560000  0.00550000  1.0 0.1201645942
H  H21  1  0.52400000  0.45780000  0.43490000  1.0 0.1405726894
H  H22  1  0.45780000  0.52400000  0.06510000  1.0 0.1405726894
H  H23  1  0.47600000  0.54220000  0.56510000  1.0 0.1405726894
H  H24  1  0.54220000  0.47600000  0.93490000  1.0 0.1405726894
H  H25  1  0.45900000  0.02200000  0.40170000  1.0 0.1285136186
H  H26  1  0.02200000  0.45900000  0.09830000  1.0 0.1285136186
H  H27  1  0.54100000  0.97800000  0.59830000  1.0 0.1285136186
H  H28  1  0.97800000  0.54100000  0.90170000  1.0 0.1285136186
H  H29  1  0.79490000  0.33490000  0.47530000  1.0 0.1285136186
H  H30  1  0.33490000  0.79490000  0.02470000  1.0 0.1285136186
H  H31  1  0.20510000  0.66510000  0.52470000  1.0 0.1285136186
H  H32  1  0.66510000  0.20510000  0.97530000  1.0 0.1285136186
H  H33  1  0.92180000  0.45860000  0.58430000  1.0 0.1285136186
H  H34  1  0.45860000  0.92180000  0.91570000  1.0 0.1285136186
H  H35  1  0.07820000  0.54140000  0.41570000  1.0 0.1285136186
H  H36  1  0.54140000  0.07820000  0.08430000  1.0 0.1285136186
H  H37  1  0.75580000  0.27560000  0.37450000  1.0 0.1201645942
H  H38  1  0.27560000  0.75580000  0.12550000  1.0 0.1201645942
H  H39  1  0.24420000  0.72440000  0.62550000  1.0 0.1201645942
H  H40  1  0.72440000  0.24420000  0.87450000  1.0 0.1201645942
H  H41  1  0.84560000  0.05120000  0.41200000  1.0 0.1285136186
H  H42  1  0.05120000  0.84560000  0.08800000  1.0 0.1285136186
H  H43  1  0.15440000  0.94880000  0.58800000  1.0 0.1285136186
H  H44  1  0.94880000  0.15440000  0.91200000  1.0 0.1285136186
H  H45  1  0.88620000  0.11300000  0.51330000  1.0 0.1285136186
H  H46  1  0.11300000  0.88620000  0.98670000  1.0 0.1285136186
H  H47  1  0.11380000  0.88700000  0.48670000  1.0 0.1285136186
H  H48  1  0.88700000  0.11380000  0.01330000  1.0 0.1285136186
C  C1  1  0.58780000  0.29660000  0.27280000  1.0 0.5783022994
C  C2  1  0.29660000  0.58780000  0.22720000  1.0 0.5783022994
C  C3  1  0.41220000  0.70340000  0.72720000  1.0 0.5783022994
C  C4  1  0.70340000  0.41220000  0.77280000  1.0 0.5783022994
C  C5  1  0.50130000  0.09490000  0.27190000  1.0 0.5928793213
C  C6  1  0.09490000  0.50130000  0.22810000  1.0 0.5928793213
C  C7  1  0.49870000  0.90510000  0.72810000  1.0 0.5928793213
C  C8  1  0.90510000  0.49870000  0.77190000  1.0 0.5928793213
C  C9  1  0.68810000  0.44910000  0.52550000  1.0 0.5749400518
C  C10  1  0.44910000  0.68810000  0.97450000  1.0 0.5749400518
C  C11  1  0.31190000  0.55090000  0.47450000  1.0 0.5749400518
C  C12  1  0.55090000  0.31190000  0.02550000  1.0 0.5749400518
C  C13  1  0.91320000  0.56380000  0.48530000  1.0 -0.0799207708
C  C14  1  0.56380000  0.91320000  0.01470000  1.0 -0.0799207708
C  C15  1  0.08680000  0.43620000  0.51470000  1.0 -0.0799207708
C  C16  1  0.43620000  0.08680000  0.98530000  1.0 -0.0799207708
C  C17  1  0.04030000  0.41050000  0.56510000  1.0 -0.017814899
C  C18  1  0.41050000  0.04030000  0.93490000  1.0 -0.017814899
C  C19  1  0.95970000  0.58950000  0.43490000  1.0 -0.017814899
C  C20  1  0.58950000  0.95970000  0.06510000  1.0 -0.017814899
C  C21  1  0.66250000  0.83690000  0.40540000  1.0 -0.0799207708
C  C22  1  0.83690000  0.66250000  0.09460000  1.0 -0.0799207708
C  C23  1  0.33750000  0.16310000  0.59460000  1.0 -0.0799207708
C  C24  1  0.16310000  0.33750000  0.90540000  1.0 -0.0799207708
C  C25  1  0.54670000  0.38650000  0.36070000  1.0 -0.0712745489
C  C26  1  0.38650000  0.54670000  0.13930000  1.0 -0.0712745489
C  C27  1  0.45330000  0.61350000  0.63930000  1.0 -0.0712745489
C  C28  1  0.61350000  0.45330000  0.86070000  1.0 -0.0712745489
C  C29  1  0.62530000  0.81510000  0.46520000  1.0 -0.0088987089
C  C30  1  0.81510000  0.62530000  0.03480000  1.0 -0.0088987089
C  C31  1  0.37470000  0.18490000  0.53480000  1.0 -0.0088987089
C  C32  1  0.18490000  0.37470000  0.96520000  1.0 -0.0088987089
C  C33  1  0.62240000  0.92820000  0.34270000  1.0 -0.088735216
C  C34  1  0.92820000  0.62240000  0.15730000  1.0 -0.088735216
C  C35  1  0.37760000  0.07180000  0.65730000  1.0 -0.088735216
C  C36  1  0.07180000  0.37760000  0.84270000  1.0 -0.088735216
C  C37  1  0.60950000  0.33210000  0.33680000  1.0 -0.0799207708
C  C38  1  0.33210000  0.60950000  0.16320000  1.0 -0.0799207708
C  C39  1  0.39050000  0.66790000  0.66320000  1.0 -0.0799207708
C  C40  1  0.66790000  0.39050000  0.83680000  1.0 -0.0799207708
C  C41  1  0.54880000  0.88540000  0.46440000  1.0 -0.1003117376
C  C42  1  0.88540000  0.54880000  0.03560000  1.0 -0.1003117376
C  C43  1  0.45120000  0.11460000  0.53560000  1.0 -0.1003117376
C  C44  1  0.11460000  0.45120000  0.96440000  1.0 -0.1003117376
C  C45  1  0.57040000  0.42220000  0.42200000  1.0 -0.088735216
C  C46  1  0.42220000  0.57040000  0.07800000  1.0 -0.0799207708
C  C47  1  0.42960000  0.57780000  0.57800000  1.0 -0.088735216
C  C48  1  0.57780000  0.42960000  0.92200000  1.0 -0.088735216
C  C49  1  0.50990000  0.97570000  0.40240000  1.0 -0.1003117376
C  C50  1  0.97570000  0.50990000  0.09760000  1.0 -0.1003117376
C  C51  1  0.49010000  0.02430000  0.59760000  1.0 -0.1003117376
C  C52  1  0.02430000  0.49010000  0.90240000  1.0 -0.1003117376
C  C53  1  0.54600000  0.99820000  0.34090000  1.0 -0.017814899
C  C54  1  0.99820000  0.54600000  0.15910000  1.0 -0.017814899
C  C55  1  0.45400000  0.00180000  0.65910000  1.0 -0.017814899
C  C56  1  0.00180000  0.45400000  0.84090000  1.0 -0.017814899
C  C57  1  0.66350000  0.40450000  0.46400000  1.0 0.0061872646
C  C58  1  0.40450000  0.66350000  0.03600000  1.0 0.0045870253
C  C59  1  0.33650000  0.59550000  0.53600000  1.0 0.0061872646
C  C60  1  0.59550000  0.33650000  0.96400000  1.0 0.0061872646
C  C61  1  0.73220000  0.34860000  0.44610000  1.0 -0.110602718
C  C62  1  0.34860000  0.73220000  0.05390000  1.0 -0.110602718
C  C63  1  0.26780000  0.65140000  0.55390000  1.0 -0.110602718
C  C64  1  0.65140000  0.26780000  0.94610000  1.0 -0.110602718
C  C65  1  0.66530000  0.71590000  0.53000000  1.0 0.5749400518
C  C66  1  0.71590000  0.66530000  0.97000000  1.0 0.5749400518
C  C67  1  0.33470000  0.28410000  0.47000000  1.0 0.5783022994
C  C68  1  0.28410000  0.33470000  0.03000000  1.0 0.5749400518
C  C69  1  0.08210000  0.31350000  0.63280000  1.0 0.5783022994
C  C70  1  0.31350000  0.08210000  0.86720000  1.0 0.5783022994
C  C71  1  0.91790000  0.68650000  0.36720000  1.0 0.5783022994
C  C72  1  0.68650000  0.91790000  0.13280000  1.0 0.5783022994
C  C73  1  0.95330000  0.47490000  0.55040000  1.0 -0.088735216
C  C74  1  0.47490000  0.95330000  0.94960000  1.0 -0.088735216
C  C75  1  0.04670000  0.52510000  0.44960000  1.0 -0.088735216
C  C76  1  0.52510000  0.04670000  0.05040000  1.0 -0.088735216
C  C77  1  0.70840000  0.31280000  0.38540000  1.0 -0.0712745489
C  C78  1  0.31280000  0.70840000  0.11460000  1.0 -0.0712745489
C  C79  1  0.29160000  0.68720000  0.61460000  1.0 -0.0712745489
C  C80  1  0.68720000  0.29160000  0.88540000  1.0 -0.0712745489
C  C81  1  0.90850000  0.02970000  0.44740000  1.0 -0.088735216
C  C82  1  0.02970000  0.90850000  0.05260000  1.0 -0.088735216
C  C83  1  0.09150000  0.97030000  0.55260000  1.0 -0.088735216
C  C84  1  0.97030000  0.09150000  0.94740000  1.0 -0.088735216
C  C85  1  0.02600000  0.03640000  0.56060000  1.0 0.0061872646
C  C86  1  0.03640000  0.02600000  0.93940000  1.0 0.0061872646
C  C87  1  0.97400000  0.96360000  0.43940000  1.0 0.0061872646
C  C88  1  0.96360000  0.97400000  0.06060000  1.0 0.0061872646
C  C89  1  0.05020000  0.08060000  0.62560000  1.0 0.5783022994
C  C90  1  0.08060000  0.05020000  0.87440000  1.0 0.5783022994
C  C91  1  0.94980000  0.91940000  0.37440000  1.0 0.5783022994
C  C92  1  0.91940000  0.94980000  0.12560000  1.0 0.5783022994
C  C93  1  0.93280000  0.06740000  0.50830000  1.0 -0.088735216
C  C94  1  0.06740000  0.93280000  0.99170000  1.0 -0.088735216
C  C95  1  0.06720000  0.93260000  0.49170000  1.0 -0.088735216
C  C96  1  0.93260000  0.06720000  0.00830000  1.0 -0.088735216
O  O1  1  0.50433000  0.31393000  0.24080000  1.0 -0.5403596201
O  O2  1  0.31393000  0.50433000  0.25920000  1.0 -0.5403596201
O  O3  1  0.49567000  0.68607000  0.75920000  1.0 -0.5403596201
O  O4  1  0.68607000  0.49567000  0.74080000  1.0 -0.5403596201
O  O5  1  0.54488000  0.11328000  0.22410000  1.0 -0.5960783848
O  O6  1  0.11328000  0.54488000  0.27590000  1.0 -0.5960783848
O  O7  1  0.45512000  0.88672000  0.77590000  1.0 -0.5960783848
O  O8  1  0.88672000  0.45512000  0.72410000  1.0 -0.5960783848
O  O9  1  0.77437000  0.42317000  0.56950000  1.0 -0.6058052817
O  O10  1  0.42317000  0.77437000  0.93050000  1.0 -0.6058052817
O  O11  1  0.22563000  0.57683000  0.43050000  1.0 -0.6058052817
O  O12  1  0.57683000  0.22563000  0.06950000  1.0 -0.6058052817
O  O13  1  0.62429000  0.50909000  0.53210000  1.0 -0.5057875339
O  O14  1  0.50909000  0.62429000  0.96790000  1.0 -0.5046977141
O  O15  1  0.37571000  0.49091000  0.46790000  1.0 -0.5057875339
O  O16  1  0.49091000  0.37571000  0.03210000  1.0 -0.5057875339
O  O17  1  0.63329000  0.69649000  0.58580000  1.0 -0.5919507135
O  O18  1  0.69649000  0.63329000  0.91420000  1.0 -0.5919507135
O  O19  1  0.36671000  0.30351000  0.41420000  1.0 -0.5919507135
O  O20  1  0.30351000  0.36671000  0.08580000  1.0 -0.5919507135
O  O21  1  0.42610000  0.15350000  0.26410000  1.0 -0.572731752
O  O22  1  0.15350000  0.42610000  0.23590000  1.0 -0.572731752
O  O23  1  0.57390000  0.84650000  0.73590000  1.0 -0.572731752
O  O24  1  0.84650000  0.57390000  0.76410000  1.0 -0.572731752
O  O25  1  0.04155000  0.29495000  0.68190000  1.0 -0.5919507135
O  O26  1  0.29495000  0.04155000  0.81810000  1.0 -0.5919507135
O  O27  1  0.95845000  0.70505000  0.31810000  1.0 -0.5919507135
O  O28  1  0.70505000  0.95845000  0.18190000  1.0 -0.5919507135
O  O29  1  0.73093000  0.65353000  0.52600000  1.0 -0.5057875339
O  O30  1  0.65353000  0.73093000  0.97400000  1.0 -0.5057875339
O  O31  1  0.26907000  0.34647000  0.47400000  1.0 -0.5057875339
O  O32  1  0.34647000  0.26907000  0.02600000  1.0 -0.5057875339
O  O33  1  0.15490000  0.25310000  0.63880000  1.0 -0.4897664376
O  O34  1  0.25310000  0.15490000  0.86120000  1.0 -0.4897664376
O  O35  1  0.84510000  0.74690000  0.36120000  1.0 -0.4897664376
O  O36  1  0.74690000  0.84510000  0.13880000  1.0 -0.4897664376
O  O37  1  0.64980000  0.25420000  0.25190000  1.0 -0.5817408302
O  O38  1  0.25420000  0.64980000  0.24810000  1.0 -0.5817408302
O  O39  1  0.35020000  0.74580000  0.74810000  1.0 -0.5817408302
O  O40  1  0.74580000  0.35020000  0.75190000  1.0 -0.5817408302
O  O41  1  0.13690000  0.04530000  0.67320000  1.0 -0.5919507135
O  O42  1  0.04530000  0.13690000  0.82680000  1.0 -0.5919507135
O  O43  1  0.86310000  0.95470000  0.32680000  1.0 -0.5919507135
O  O44  1  0.95470000  0.86310000  0.17320000  1.0 -0.5919507135
O  O45  1  0.99250000  0.14470000  0.62590000  1.0 -0.4778677561
O  O46  1  0.14470000  0.99250000  0.87410000  1.0 -0.4778677561
O  O47  1  0.00750000  0.85530000  0.37410000  1.0 -0.4778677561
O  O48  1  0.85530000  0.00750000  0.12590000  1.0 -0.4778677561
