# DDEC6 charges by PACMAN v1.1 (https://github.com/mtap-research/PACMAN-charge/)
data_IYAKAW_FSR_pacman
_symmetry_space_group_name_H-M   'P 1'
_cell_length_a   17.40020000
_cell_length_b   17.40020000
_cell_length_c   16.38500000
_cell_angle_alpha   74.86440000
_cell_angle_beta   105.13600000
_cell_angle_gamma   64.29240000
_symmetry_Int_Tables_number   1
_chemical_formula_structural   MgCdH8(C2O)8
_chemical_formula_sum   'Mg6 Cd6 H48 C96 O48'
_cell_volume   3894.60114464
_cell_formula_units_Z   6
loop_
 _symmetry_equiv_pos_site_id
 _symmetry_equiv_pos_as_xyz
  1  'x, y, z'
loop_
 _atom_site_type_symbol
 _atom_site_label
 _atom_site_symmetry_multiplicity
 _atom_site_fract_x
 _atom_site_fract_y
 _atom_site_fract_z
 _atom_site_occupancy
 _atom_site_charge
Mg  Mg1  1  0.58958000  0.18140000  0.27323000  1.0 1.3495422914
Mg  Mg2  1  0.18140000  0.58958000  0.22677000  1.0 1.3495422914
Mg  Mg3  1  0.41042000  0.81860000  0.72677000  1.0 1.3495422914
Mg  Mg4  1  0.81860000  0.41042000  0.77323000  1.0 1.3495422914
Mg  Mg5  1  0.84207000  0.84207000  0.25000000  1.0 1.3495422914
Mg  Mg6  1  0.15793000  0.15793000  0.75000000  1.0 1.3495422914
Cd  Cd1  1  0.36721000  0.36721000  0.25000000  1.0 0.9287443076
Cd  Cd2  1  0.63279000  0.63279000  0.75000000  1.0 0.9287443076
Cd  Cd3  1  0.77336000  0.96512000  0.36830000  1.0 0.9030618583
Cd  Cd4  1  0.96512000  0.77336000  0.13170000  1.0 0.9030618583
Cd  Cd5  1  0.22664000  0.03488000  0.63170000  1.0 0.9030618583
Cd  Cd6  1  0.03488000  0.22664000  0.86830000  1.0 0.9030618583
H  H1  1  0.99430000  0.61950000  0.49910000  1.0 0.1121701933
H  H2  1  0.61950000  0.99430000  0.00090000  1.0 0.1121701933
H  H3  1  0.00570000  0.38050000  0.50090000  1.0 0.1121701933
H  H4  1  0.38050000  0.00570000  0.99910000  1.0 0.1121701933
H  H5  1  0.06050000  0.46270000  0.60370000  1.0 0.1197907728
H  H6  1  0.46270000  0.06050000  0.89630000  1.0 0.1197907728
H  H7  1  0.93950000  0.53730000  0.39630000  1.0 0.1197907728
H  H8  1  0.53730000  0.93950000  0.10370000  1.0 0.1197907728
H  H9  1  0.81060000  0.70780000  0.60970000  1.0 0.1290901988
H  H10  1  0.70780000  0.81060000  0.89030000  1.0 0.1290901988
H  H11  1  0.18940000  0.29220000  0.39030000  1.0 0.1290901988
H  H12  1  0.29220000  0.18940000  0.10970000  1.0 0.1290901988
H  H13  1  0.33740000  0.56920000  0.42870000  1.0 0.1121701933
H  H14  1  0.56920000  0.33740000  0.07130000  1.0 0.1121701933
H  H15  1  0.66260000  0.43080000  0.57130000  1.0 0.1121701933
H  H16  1  0.43080000  0.66260000  0.92870000  1.0 0.1121701933
H  H17  1  0.70190000  0.20050000  0.50710000  1.0 0.1197907728
H  H18  1  0.20050000  0.70190000  0.99290000  1.0 0.1197907728
H  H19  1  0.29810000  0.79950000  0.49290000  1.0 0.1197907728
H  H20  1  0.79950000  0.29810000  0.00710000  1.0 0.1197907728
H  H21  1  0.35340000  0.12360000  0.47190000  1.0 0.1290901988
H  H22  1  0.12360000  0.35340000  0.02810000  1.0 0.1290901988
H  H23  1  0.64660000  0.87640000  0.52810000  1.0 0.1290901988
H  H24  1  0.87640000  0.64660000  0.97190000  1.0 0.1290901988
H  H25  1  0.59910000  0.38190000  0.46990000  1.0 0.1121701933
H  H26  1  0.38190000  0.59910000  0.03010000  1.0 0.1121701933
H  H27  1  0.40090000  0.61810000  0.53010000  1.0 0.1121701933
H  H28  1  0.61810000  0.40090000  0.96990000  1.0 0.1121701933
H  H29  1  0.58560000  0.02980000  0.42180000  1.0 0.1121701933
H  H30  1  0.02980000  0.58560000  0.07820000  1.0 0.1121701933
H  H31  1  0.41440000  0.97020000  0.57820000  1.0 0.1121701933
H  H32  1  0.97020000  0.41440000  0.92180000  1.0 0.1121701933
H  H33  1  0.97310000  0.02610000  0.56560000  1.0 0.1290901988
H  H34  1  0.02610000  0.97310000  0.93440000  1.0 0.1290901988
H  H35  1  0.02690000  0.97390000  0.43440000  1.0 0.1290901988
H  H36  1  0.97390000  0.02690000  0.06560000  1.0 0.1290901988
H  H37  1  0.01870000  0.09110000  0.65960000  1.0 0.1121701933
H  H38  1  0.09110000  0.01870000  0.84040000  1.0 0.1121701933
H  H39  1  0.98130000  0.90890000  0.34040000  1.0 0.1121701933
H  H40  1  0.90890000  0.98130000  0.15960000  1.0 0.1121701933
H  H41  1  0.87220000  0.55300000  0.71050000  1.0 0.1121701933
H  H42  1  0.55300000  0.87220000  0.78950000  1.0 0.1121701933
H  H43  1  0.12780000  0.44700000  0.28950000  1.0 0.1121701933
H  H44  1  0.44700000  0.12780000  0.21050000  1.0 0.1121701933
H  H45  1  0.74690000  0.26410000  0.60380000  1.0 0.1121701933
H  H46  1  0.26410000  0.74690000  0.89620000  1.0 0.1121701933
H  H47  1  0.25310000  0.73590000  0.39620000  1.0 0.1121701933
H  H48  1  0.73590000  0.25310000  0.10380000  1.0 0.1121701933
C  C1  1  0.96930000  0.60630000  0.54220000  1.0 -0.1091981027
C  C2  1  0.60630000  0.96930000  0.95780000  1.0 -0.1091981027
C  C3  1  0.03070000  0.39370000  0.45780000  1.0 -0.1091981027
C  C4  1  0.39370000  0.03070000  0.04220000  1.0 -0.1091981027
C  C5  1  0.00840000  0.51260000  0.60430000  1.0 -0.1091981027
C  C6  1  0.51260000  0.00840000  0.89570000  1.0 -0.1091981027
C  C7  1  0.99160000  0.48740000  0.39570000  1.0 -0.1091981027
C  C8  1  0.48740000  0.99160000  0.10430000  1.0 -0.1091981027
C  C9  1  0.89420000  0.67960000  0.54360000  1.0 -0.0190562516
C  C10  1  0.67960000  0.89420000  0.95640000  1.0 -0.0190562516
C  C11  1  0.10580000  0.32040000  0.45640000  1.0 -0.0190562516
C  C12  1  0.32040000  0.10580000  0.04360000  1.0 -0.0190562516
C  C13  1  0.46190000  0.47090000  0.43740000  1.0 -0.0190562516
C  C14  1  0.47090000  0.46190000  0.06260000  1.0 -0.0190562516
C  C15  1  0.53810000  0.52910000  0.56260000  1.0 -0.0190562516
C  C16  1  0.52910000  0.53810000  0.93740000  1.0 -0.0190562516
C  C17  1  0.86090000  0.65790000  0.60720000  1.0 -0.0811770048
C  C18  1  0.65790000  0.86090000  0.89280000  1.0 -0.0811770048
C  C19  1  0.13910000  0.34210000  0.39280000  1.0 -0.0811770048
C  C20  1  0.34210000  0.13910000  0.10720000  1.0 -0.0811770048
C  C21  1  0.40390000  0.54090000  0.45740000  1.0 -0.1091981027
C  C22  1  0.54090000  0.40390000  0.04260000  1.0 -0.1091981027
C  C23  1  0.59610000  0.45910000  0.54260000  1.0 -0.1091981027
C  C24  1  0.45910000  0.59610000  0.95740000  1.0 -0.1091981027
C  C25  1  0.01200000  0.39060000  0.73160000  1.0 0.5970558737
C  C26  1  0.39060000  0.01200000  0.76840000  1.0 0.5970558737
C  C27  1  0.98800000  0.60940000  0.26840000  1.0 0.5970558737
C  C28  1  0.60940000  0.98800000  0.23160000  1.0 0.5970558737
C  C29  1  0.76680000  0.17800000  0.53850000  1.0 -0.1019627766
C  C30  1  0.17800000  0.76680000  0.96150000  1.0 -0.1019627766
C  C31  1  0.23320000  0.82200000  0.46150000  1.0 -0.1019627766
C  C32  1  0.82200000  0.23320000  0.03850000  1.0 -0.1019627766
C  C33  1  0.83370000  0.10730000  0.52620000  1.0 -0.0098478991
C  C34  1  0.10730000  0.83370000  0.97380000  1.0 -0.0098478991
C  C35  1  0.16630000  0.89270000  0.47380000  1.0 -0.0098478991
C  C36  1  0.89270000  0.16630000  0.02620000  1.0 -0.0098478991
C  C37  1  0.41310000  0.07350000  0.48330000  1.0 -0.0923637535
C  C38  1  0.07350000  0.41310000  0.01670000  1.0 -0.0923637535
C  C39  1  0.58690000  0.92650000  0.51670000  1.0 -0.0923637535
C  C40  1  0.92650000  0.58690000  0.98330000  1.0 -0.0923637535
C  C41  1  0.55810000  0.43070000  0.48180000  1.0 -0.1019627766
C  C42  1  0.43070000  0.55810000  0.01820000  1.0 -0.1019627766
C  C43  1  0.44190000  0.56930000  0.51820000  1.0 -0.1019627766
C  C44  1  0.56930000  0.44190000  0.98180000  1.0 -0.1019627766
C  C45  1  0.91800000  0.22360000  0.70750000  1.0 0.5906815444
C  C46  1  0.22360000  0.91800000  0.79250000  1.0 0.5906815444
C  C47  1  0.08200000  0.77640000  0.29250000  1.0 0.5906815444
C  C48  1  0.77640000  0.08200000  0.20750000  1.0 0.5906815444
C  C49  1  0.55050000  0.01790000  0.45350000  1.0 -0.1019627766
C  C50  1  0.01790000  0.55050000  0.04650000  1.0 -0.1019627766
C  C51  1  0.44950000  0.98210000  0.54650000  1.0 -0.1019627766
C  C52  1  0.98210000  0.44950000  0.95350000  1.0 -0.1019627766
C  C53  1  0.46400000  0.09200000  0.43620000  1.0 -0.0264856174
C  C54  1  0.09200000  0.46400000  0.06380000  1.0 -0.0264856174
C  C55  1  0.53600000  0.90800000  0.56380000  1.0 -0.0264856174
C  C56  1  0.90800000  0.53600000  0.93620000  1.0 -0.0264856174
C  C57  1  0.97180000  0.49260000  0.66620000  1.0 -0.0190562516
C  C58  1  0.49260000  0.97180000  0.83380000  1.0 -0.0190562516
C  C59  1  0.02820000  0.50740000  0.33380000  1.0 -0.0190562516
C  C60  1  0.50740000  0.02820000  0.16620000  1.0 -0.0190562516
C  C61  1  0.92660000  0.07540000  0.57250000  1.0 -0.0923637535
C  C62  1  0.07540000  0.92660000  0.92750000  1.0 -0.0923637535
C  C63  1  0.07340000  0.92460000  0.42750000  1.0 -0.0923637535
C  C64  1  0.92460000  0.07340000  0.07250000  1.0 -0.0923637535
C  C65  1  0.42210000  0.43810000  0.37350000  1.0 0.5798404281
C  C66  1  0.43810000  0.42210000  0.12650000  1.0 0.5798404281
C  C67  1  0.57790000  0.56190000  0.62650000  1.0 0.5798404281
C  C68  1  0.56190000  0.57790000  0.87350000  1.0 0.5798404281
C  C69  1  0.80480000  0.06200000  0.46760000  1.0 0.5798404281
C  C70  1  0.06200000  0.80480000  0.03240000  1.0 0.5798404281
C  C71  1  0.19520000  0.93800000  0.53240000  1.0 0.5798404281
C  C72  1  0.93800000  0.19520000  0.96760000  1.0 0.5798404281
C  C73  1  0.85300000  0.78000000  0.47790000  1.0 0.5724854682
C  C74  1  0.78000000  0.85300000  0.02210000  1.0 0.5724854682
C  C75  1  0.14700000  0.22000000  0.52210000  1.0 0.5724854682
C  C76  1  0.22000000  0.14700000  0.97790000  1.0 0.5724854682
C  C77  1  0.95360000  0.11360000  0.62900000  1.0 -0.1091981027
C  C78  1  0.11360000  0.95360000  0.87100000  1.0 -0.1091981027
C  C79  1  0.04640000  0.88640000  0.37100000  1.0 -0.1091981027
C  C80  1  0.88640000  0.04640000  0.12900000  1.0 -0.1091981027
C  C81  1  0.89780000  0.56580000  0.66780000  1.0 -0.1019627766
C  C82  1  0.56580000  0.89780000  0.83220000  1.0 -0.1019627766
C  C83  1  0.10220000  0.43420000  0.33220000  1.0 -0.1019627766
C  C84  1  0.43420000  0.10220000  0.16780000  1.0 -0.1019627766
C  C85  1  0.42570000  0.19010000  0.36990000  1.0 0.5724854682
C  C86  1  0.19010000  0.42570000  0.13010000  1.0 0.5724854682
C  C87  1  0.57430000  0.80990000  0.63010000  1.0 0.5724854682
C  C88  1  0.80990000  0.57430000  0.86990000  1.0 0.5724854682
C  C89  1  0.79360000  0.21580000  0.59590000  1.0 -0.1091981027
C  C90  1  0.21580000  0.79360000  0.90410000  1.0 -0.1091981027
C  C91  1  0.20640000  0.78420000  0.40410000  1.0 -0.1091981027
C  C92  1  0.78420000  0.20640000  0.09590000  1.0 -0.1091981027
C  C93  1  0.88780000  0.18420000  0.64220000  1.0 -0.0190562516
C  C94  1  0.18420000  0.88780000  0.85780000  1.0 -0.0190562516
C  C95  1  0.11220000  0.81580000  0.35780000  1.0 -0.0190562516
C  C96  1  0.81580000  0.11220000  0.14220000  1.0 -0.0190562516
O  O1  1  0.86860000  0.99280000  0.46500000  1.0 -0.528074583
O  O2  1  0.99280000  0.86860000  0.03500000  1.0 -0.528074583
O  O3  1  0.13140000  0.00720000  0.53500000  1.0 -0.528074583
O  O4  1  0.00720000  0.13140000  0.96500000  1.0 -0.528074583
O  O5  1  0.47770000  0.36690000  0.36530000  1.0 -0.528074583
O  O6  1  0.36690000  0.47770000  0.13470000  1.0 -0.528074583
O  O7  1  0.52230000  0.63310000  0.63470000  1.0 -0.528074583
O  O8  1  0.63310000  0.52230000  0.86530000  1.0 -0.528074583
O  O9  1  0.87743000  0.79843000  0.41450000  1.0 -0.5977690305
O  O10  1  0.79843000  0.87743000  0.08550000  1.0 -0.5977690305
O  O11  1  0.12257000  0.20157000  0.58550000  1.0 -0.5977690305
O  O12  1  0.20157000  0.12257000  0.91450000  1.0 -0.5977690305
O  O13  1  0.96792000  0.37892000  0.77790000  1.0 -0.6106784429
O  O14  1  0.37892000  0.96792000  0.72210000  1.0 -0.6106784429
O  O15  1  0.03208000  0.62108000  0.22210000  1.0 -0.6106784429
O  O16  1  0.62108000  0.03208000  0.27790000  1.0 -0.6106784429
O  O17  1  0.85720000  0.28600000  0.71760000  1.0 -0.5888859417
O  O18  1  0.28600000  0.85720000  0.78240000  1.0 -0.5888859417
O  O19  1  0.14280000  0.71400000  0.28240000  1.0 -0.5888859417
O  O20  1  0.71400000  0.14280000  0.21760000  1.0 -0.5888859417
O  O21  1  0.08431000  0.32611000  0.73450000  1.0 -0.5888859417
O  O22  1  0.32611000  0.08431000  0.76550000  1.0 -0.5888859417
O  O23  1  0.91569000  0.67389000  0.26550000  1.0 -0.5888859417
O  O24  1  0.67389000  0.91569000  0.23450000  1.0 -0.5888859417
O  O25  1  0.00622000  0.18702000  0.75000000  1.0 -0.620478009
O  O26  1  0.18702000  0.00622000  0.75000000  1.0 -0.620478009
O  O27  1  0.99378000  0.81298000  0.25000000  1.0 -0.620478009
O  O28  1  0.81298000  0.99378000  0.25000000  1.0 -0.620478009
O  O29  1  0.71852000  0.09312000  0.42410000  1.0 -0.620478009
O  O30  1  0.09312000  0.71852000  0.07590000  1.0 -0.620478009
O  O31  1  0.28148000  0.90688000  0.57590000  1.0 -0.620478009
O  O32  1  0.90688000  0.28148000  0.92410000  1.0 -0.620478009
O  O33  1  0.35460000  0.25640000  0.36530000  1.0 -0.5131829466
O  O34  1  0.25640000  0.35460000  0.13470000  1.0 -0.5131829466
O  O35  1  0.64540000  0.74360000  0.63470000  1.0 -0.5131829466
O  O36  1  0.74360000  0.64540000  0.86530000  1.0 -0.5131829466
O  O37  1  0.46954000  0.20254000  0.32230000  1.0 -0.620478009
O  O38  1  0.20254000  0.46954000  0.17770000  1.0 -0.620478009
O  O39  1  0.53046000  0.79746000  0.67770000  1.0 -0.620478009
O  O40  1  0.79746000  0.53046000  0.82230000  1.0 -0.620478009
O  O41  1  0.79199000  0.84419000  0.48940000  1.0 -0.528074583
O  O42  1  0.84419000  0.79199000  0.01060000  1.0 -0.528074583
O  O43  1  0.20801000  0.15581000  0.51060000  1.0 -0.5247494068
O  O44  1  0.15581000  0.20801000  0.98940000  1.0 -0.5247494068
O  O45  1  0.33508000  0.48188000  0.32530000  1.0 -0.620478009
O  O46  1  0.48188000  0.33508000  0.17470000  1.0 -0.620478009
O  O47  1  0.66492000  0.51812000  0.67470000  1.0 -0.620478009
O  O48  1  0.51812000  0.66492000  0.82530000  1.0 -0.620478009
