# DDEC6 charges by PACMAN v1.1 (https://github.com/mtap-research/PACMAN-charge/)
data_IYEHAX_ASR_pacman
_symmetry_space_group_name_H-M   'P 1'
_cell_length_a   18.41260000
_cell_length_b   18.41260000
_cell_length_c   13.65700000
_cell_angle_alpha   78.47250000
_cell_angle_beta   101.52700000
_cell_angle_gamma   119.01500000
_symmetry_Int_Tables_number   1
_chemical_formula_structural   Cu3H19C36N5O12
_chemical_formula_sum   'Cu6 H38 C72 N10 O24'
_cell_volume   3938.56064657
_cell_formula_units_Z   2
loop_
 _symmetry_equiv_pos_site_id
 _symmetry_equiv_pos_as_xyz
  1  'x, y, z'
loop_
 _atom_site_type_symbol
 _atom_site_label
 _atom_site_symmetry_multiplicity
 _atom_site_fract_x
 _atom_site_fract_y
 _atom_site_fract_z
 _atom_site_occupancy
 _atom_site_charge
Cu  Cu1  1  0.51695000  0.48305000  0.42003000  1.0 0.8730773699
Cu  Cu2  1  0.48305000  0.51695000  0.57997000  1.0 0.8730773699
Cu  Cu3  1  0.49089000  0.94553000  0.58244000  1.0 0.7793655169
Cu  Cu4  1  0.94553000  0.49089000  0.41756000  1.0 0.7793655169
Cu  Cu5  1  0.50911000  0.05447000  0.41756000  1.0 0.7793655169
Cu  Cu6  1  0.05447000  0.50911000  0.58244000  1.0 0.7793655169
H  H1  1  0.41230000  0.13550000  0.28410000  1.0 0.1305301112
H  H2  1  0.13550000  0.41230000  0.71590000  1.0 0.1305301112
H  H3  1  0.58770000  0.86450000  0.71590000  1.0 0.1305301112
H  H4  1  0.86450000  0.58770000  0.28410000  1.0 0.1305301112
H  H5  1  0.37890000  0.18450000  0.12150000  1.0 0.1398816139
H  H6  1  0.18450000  0.37890000  0.87850000  1.0 0.1398816139
H  H7  1  0.62110000  0.81550000  0.87850000  1.0 0.1398816139
H  H8  1  0.81550000  0.62110000  0.12150000  1.0 0.1398816139
H  H9  1  0.57650000  0.16790000  0.05940000  1.0 0.1398816139
H  H10  1  0.16790000  0.57650000  0.94060000  1.0 0.1398816139
H  H11  1  0.42350000  0.83210000  0.94060000  1.0 0.1398816139
H  H12  1  0.83210000  0.42350000  0.05940000  1.0 0.1398816139
H  H13  1  0.60940000  0.13220000  0.23040000  1.0 0.1205847484
H  H14  1  0.13220000  0.60940000  0.76960000  1.0 0.1205847484
H  H15  1  0.39060000  0.86780000  0.76960000  1.0 0.1205847484
H  H16  1  0.86780000  0.39060000  0.23040000  1.0 0.1205847484
H  H17  1  0.44010000  0.28950000  0.77750000  1.0 0.1305301112
H  H18  1  0.28950000  0.44010000  0.22250000  1.0 0.1305301112
H  H19  1  0.55990000  0.71050000  0.22250000  1.0 0.1305301112
H  H20  1  0.71050000  0.55990000  0.77750000  1.0 0.1305301112
H  H21  1  0.47010000  0.23470000  0.52520000  1.0 0.1398816139
H  H22  1  0.23470000  0.47010000  0.47480000  1.0 0.1398816139
H  H23  1  0.52990000  0.76530000  0.47480000  1.0 0.1398816139
H  H24  1  0.76530000  0.52990000  0.52520000  1.0 0.1398816139
H  H25  1  0.45850000  0.07990000  0.77910000  1.0 0.1398816139
H  H26  1  0.07990000  0.45850000  0.22090000  1.0 0.1398816139
H  H27  1  0.54150000  0.92010000  0.22090000  1.0 0.1398816139
H  H28  1  0.92010000  0.54150000  0.77910000  1.0 0.1398816139
H  H29  1  0.24610000  0.96750000  0.31130000  1.0 0.1305301112
H  H30  1  0.96750000  0.24610000  0.68870000  1.0 0.1305301112
H  H31  1  0.75390000  0.03250000  0.68870000  1.0 0.1305301112
H  H32  1  0.03250000  0.75390000  0.31130000  1.0 0.1305301112
H  H33  1  0.23310000  0.76690000  0.50400000  1.0 0.1398816139
H  H34  1  0.76690000  0.23310000  0.49600000  1.0 0.1398816139
H  H35  1  0.41550000  0.23050000  0.96480000  1.0 0.0985151579
H  H36  1  0.23050000  0.41550000  0.03520000  1.0 0.0985151579
H  H37  1  0.58450000  0.76950000  0.03520000  1.0 0.0985151579
H  H38  1  0.76950000  0.58450000  0.96480000  1.0 0.0985151579
C  C1  1  0.44610000  0.14310000  0.23670000  1.0 0.0945393365
C  C2  1  0.14310000  0.44610000  0.76330000  1.0 0.0945393365
C  C3  1  0.55390000  0.85690000  0.76330000  1.0 0.0985151579
C  C4  1  0.85690000  0.55390000  0.23670000  1.0 0.0985151579
C  C5  1  0.42280000  0.17120000  0.13900000  1.0 -0.1886464286
C  C6  1  0.17120000  0.42280000  0.86100000  1.0 -0.1886464286
C  C7  1  0.57720000  0.82880000  0.86100000  1.0 -0.1886464286
C  C8  1  0.82880000  0.57720000  0.13900000  1.0 -0.1886464286
C  C9  1  0.47310000  0.17710000  0.07020000  1.0 0.0666634456
C  C10  1  0.17710000  0.47310000  0.92980000  1.0 0.0666634456
C  C11  1  0.52690000  0.82290000  0.92980000  1.0 0.0666634456
C  C12  1  0.82290000  0.52690000  0.07020000  1.0 0.0666634456
C  C13  1  0.54230000  0.16210000  0.10520000  1.0 -0.167146087
C  C14  1  0.16210000  0.54230000  0.89480000  1.0 -0.167146087
C  C15  1  0.45770000  0.83790000  0.89480000  1.0 -0.167146087
C  C16  1  0.83790000  0.45770000  0.10520000  1.0 -0.167146087
C  C17  1  0.56150000  0.13850000  0.20810000  1.0 0.0985151579
C  C18  1  0.13850000  0.56150000  0.79190000  1.0 0.0985151579
C  C19  1  0.43850000  0.86150000  0.79190000  1.0 0.0985151579
C  C20  1  0.86150000  0.43850000  0.20810000  1.0 0.0985151579
C  C21  1  0.44940000  0.20680000  0.96630000  1.0 0.0985151579
C  C22  1  0.20680000  0.44940000  0.03370000  1.0 0.0985151579
C  C23  1  0.55060000  0.79320000  0.03370000  1.0 0.0985151579
C  C24  1  0.79320000  0.55060000  0.96630000  1.0 0.0985151579
C  C25  1  0.45154000  0.18386000  0.79774000  1.0 0.2060820904
C  C26  1  0.18386000  0.45154000  0.20226000  1.0 0.2060820904
C  C27  1  0.54846000  0.81614000  0.20226000  1.0 0.2060820904
C  C28  1  0.81614000  0.54846000  0.79774000  1.0 0.2060820904
C  C29  1  0.44824000  0.25476000  0.74474000  1.0 -0.167146087
C  C30  1  0.25476000  0.44824000  0.25526000  1.0 -0.167146087
C  C31  1  0.55176000  0.74524000  0.25526000  1.0 -0.167146087
C  C32  1  0.74524000  0.55176000  0.74474000  1.0 -0.167146087
C  C33  1  0.45691000  0.27409000  0.64301000  1.0 -0.0119805299
C  C34  1  0.27409000  0.45691000  0.35699000  1.0 -0.0119805299
C  C35  1  0.54309000  0.72591000  0.35699000  1.0 -0.0119805299
C  C36  1  0.72591000  0.54309000  0.64301000  1.0 -0.0119805299
C  C37  1  0.46510000  0.22150000  0.59370000  1.0 -0.1104268342
C  C38  1  0.22150000  0.46510000  0.40630000  1.0 -0.1104268342
C  C39  1  0.53490000  0.77850000  0.40630000  1.0 -0.1104268342
C  C40  1  0.77850000  0.53490000  0.59370000  1.0 -0.1104268342
C  C41  1  0.46614000  0.14886000  0.64394000  1.0 -0.0119805299
C  C42  1  0.14886000  0.46614000  0.35606000  1.0 -0.0119805299
C  C43  1  0.53386000  0.85114000  0.35606000  1.0 -0.0119805299
C  C44  1  0.85114000  0.53386000  0.64394000  1.0 -0.0119805299
C  C45  1  0.45872000  0.12908000  0.74522000  1.0 -0.1583115387
C  C46  1  0.12908000  0.45872000  0.25478000  1.0 -0.1583115387
C  C47  1  0.54128000  0.87092000  0.25478000  1.0 -0.1583115387
C  C48  1  0.87092000  0.54128000  0.74522000  1.0 -0.1583115387
C  C49  1  0.46386000  0.35634000  0.58876000  1.0 0.5883508098
C  C50  1  0.35634000  0.46386000  0.41124000  1.0 0.5883508098
C  C51  1  0.53614000  0.64366000  0.41124000  1.0 0.5883508098
C  C52  1  0.64366000  0.53614000  0.58876000  1.0 0.5883508098
C  C53  1  0.47697000  0.09363000  0.58837000  1.0 0.5764072534
C  C54  1  0.09363000  0.47697000  0.41163000  1.0 0.5764072534
C  C55  1  0.52303000  0.90637000  0.41163000  1.0 0.5764072534
C  C56  1  0.90637000  0.52303000  0.58837000  1.0 0.5764072534
C  C57  1  0.13390000  0.86610000  0.29950000  1.0 0.2237787542
C  C58  1  0.86610000  0.13390000  0.70050000  1.0 0.2237787542
C  C59  1  0.21590000  0.91190000  0.33730000  1.0 -0.1488707441
C  C60  1  0.91190000  0.21590000  0.66270000  1.0 -0.1488707441
C  C61  1  0.78410000  0.08810000  0.66270000  1.0 -0.1488707441
C  C62  1  0.08810000  0.78410000  0.33730000  1.0 -0.1488707441
C  C63  1  0.25395000  0.87545000  0.41425000  1.0 -0.0329862948
C  C64  1  0.87545000  0.25395000  0.58575000  1.0 -0.0329862948
C  C65  1  0.74605000  0.12455000  0.58575000  1.0 -0.0329862948
C  C66  1  0.12455000  0.74605000  0.41425000  1.0 -0.0329862948
C  C67  1  0.20800000  0.79200000  0.45270000  1.0 -0.0964109826
C  C68  1  0.79200000  0.20800000  0.54730000  1.0 -0.0964109826
C  C69  1  0.34367000  0.92093000  0.44957000  1.0 0.5764072534
C  C70  1  0.92093000  0.34367000  0.55043000  1.0 0.5764072534
C  C71  1  0.65633000  0.07907000  0.55043000  1.0 0.5764072534
C  C72  1  0.07907000  0.65633000  0.44957000  1.0 0.5764072534
N  N1  1  0.50925000  0.12535000  0.27255000  1.0 -0.2229051518
N  N2  1  0.12535000  0.50925000  0.72745000  1.0 -0.2229051518
N  N3  1  0.49075000  0.87465000  0.72745000  1.0 -0.2229051518
N  N4  1  0.87465000  0.49075000  0.27255000  1.0 -0.2229051518
N  N5  1  0.45220000  0.16500000  0.90510000  1.0 -0.3034133691
N  N6  1  0.16500000  0.45220000  0.09490000  1.0 -0.3034133691
N  N7  1  0.54780000  0.83500000  0.09490000  1.0 -0.3034133691
N  N8  1  0.83500000  0.54780000  0.90510000  1.0 -0.3034133691
N  N9  1  0.08820000  0.91180000  0.23080000  1.0 -0.4638530094
N  N10  1  0.91180000  0.08820000  0.76920000  1.0 -0.4638530094
O  O1  1  0.48057000  0.37355000  0.50011000  1.0 -0.5192665051
O  O2  1  0.37355000  0.48057000  0.49989000  1.0 -0.5192665051
O  O3  1  0.51943000  0.62645000  0.49989000  1.0 -0.5192665051
O  O4  1  0.62645000  0.51943000  0.50011000  1.0 -0.5192665051
O  O5  1  0.45460000  0.40196000  0.63752000  1.0 -0.5192665051
O  O6  1  0.40196000  0.45460000  0.36248000  1.0 -0.5192665051
O  O7  1  0.54540000  0.59804000  0.36248000  1.0 -0.5192665051
O  O8  1  0.59804000  0.54540000  0.63752000  1.0 -0.5192665051
O  O9  1  0.47587000  0.02653000  0.63727000  1.0 -0.5192665051
O  O10  1  0.02653000  0.47587000  0.36273000  1.0 -0.5192665051
O  O11  1  0.52413000  0.97347000  0.36273000  1.0 -0.5192665051
O  O12  1  0.97347000  0.52413000  0.63727000  1.0 -0.5192665051
O  O13  1  0.49077000  0.11829000  0.49914000  1.0 -0.4910940233
O  O14  1  0.11829000  0.49077000  0.50086000  1.0 -0.4910940233
O  O15  1  0.50923000  0.88171000  0.50086000  1.0 -0.4910940233
O  O16  1  0.88171000  0.50923000  0.49914000  1.0 -0.4910940233
O  O17  1  0.37179000  0.89145000  0.53047000  1.0 -0.5033138621
O  O18  1  0.89145000  0.37179000  0.46953000  1.0 -0.5033138621
O  O19  1  0.62821000  0.10855000  0.46953000  1.0 -0.5033138621
O  O20  1  0.10855000  0.62821000  0.53047000  1.0 -0.5033138621
O  O21  1  0.38675000  0.98569000  0.39393000  1.0 -0.5192665051
O  O22  1  0.98569000  0.38675000  0.60607000  1.0 -0.5192665051
O  O23  1  0.61325000  0.01431000  0.60607000  1.0 -0.5192665051
O  O24  1  0.01431000  0.61325000  0.39393000  1.0 -0.5192665051
