# DDEC6 charges by PACMAN v1.1 (https://github.com/mtap-research/PACMAN-charge/)
data_IYEPUZ_ASR_pacman
_symmetry_space_group_name_H-M   'P 1'
_cell_length_a   10.31440000
_cell_length_b   16.81000000
_cell_length_c   44.98500000
_cell_angle_alpha   90.00000000
_cell_angle_beta   101.86900000
_cell_angle_gamma   90.00000000
_symmetry_Int_Tables_number   1
_chemical_formula_structural   Mn5H36C76(NO5)4
_chemical_formula_sum   'Mn10 H72 C152 N8 O40'
_cell_volume   7632.97212922
_cell_formula_units_Z   2
loop_
 _symmetry_equiv_pos_site_id
 _symmetry_equiv_pos_as_xyz
  1  'x, y, z'
loop_
 _atom_site_type_symbol
 _atom_site_label
 _atom_site_symmetry_multiplicity
 _atom_site_fract_x
 _atom_site_fract_y
 _atom_site_fract_z
 _atom_site_occupancy
 _atom_site_charge
Mn  Mn1  1  0.00000000  0.00000000  0.00000000  1.0 0.7102419703
Mn  Mn2  1  0.00000000  0.50000000  0.50000000  1.0 0.7102419703
Mn  Mn3  1  0.89568000  0.99573000  0.18835000  1.0 0.9637555151
Mn  Mn4  1  0.10432000  0.49573000  0.31165000  1.0 0.9637555151
Mn  Mn5  1  0.10432000  0.00427000  0.81165000  1.0 0.9637555151
Mn  Mn6  1  0.89568000  0.50427000  0.68835000  1.0 0.9637555151
Mn  Mn7  1  0.70391000  0.90840000  0.24241000  1.0 1.0665036111
Mn  Mn8  1  0.29609000  0.40840000  0.25759000  1.0 1.0635033517
Mn  Mn9  1  0.29609000  0.09160000  0.75759000  1.0 1.0635033517
Mn  Mn10  1  0.70391000  0.59160000  0.74241000  1.0 1.0635033517
H  H1  1  0.41280000  0.82650000  0.00970000  1.0 0.1221649215
H  H2  1  0.58720000  0.32650000  0.49030000  1.0 0.1221649215
H  H3  1  0.58720000  0.17350000  0.99030000  1.0 0.1221649215
H  H4  1  0.41280000  0.67350000  0.50970000  1.0 0.1221649215
H  H5  1  0.33480000  0.79830000  0.05610000  1.0 0.1221649215
H  H6  1  0.66520000  0.29830000  0.44390000  1.0 0.1221649215
H  H7  1  0.66520000  0.20170000  0.94390000  1.0 0.1221649215
H  H8  1  0.33480000  0.70170000  0.55610000  1.0 0.1221649215
H  H9  1  0.95520000  0.91870000  0.10660000  1.0 0.1293781778
H  H10  1  0.04480000  0.41870000  0.39340000  1.0 0.1293781778
H  H11  1  0.04480000  0.08130000  0.89340000  1.0 0.1293781778
H  H12  1  0.95520000  0.58130000  0.60660000  1.0 0.1293781778
H  H13  1  0.76670000  0.00490000  0.08920000  1.0 0.1293781778
H  H14  1  0.23330000  0.50490000  0.41080000  1.0 0.1293781778
H  H15  1  0.23330000  0.99510000  0.91080000  1.0 0.1293781778
H  H16  1  0.76670000  0.49510000  0.58920000  1.0 0.1293781778
H  H17  1  0.53510000  0.98440000  0.03520000  1.0 0.1133123146
H  H18  1  0.46490000  0.48440000  0.46480000  1.0 0.1133123146
H  H19  1  0.46490000  0.01560000  0.96480000  1.0 0.1133123146
H  H20  1  0.53510000  0.51560000  0.53520000  1.0 0.1133123146
H  H21  1  0.35940000  0.00510000  0.05990000  1.0 0.1221649215
H  H22  1  0.64060000  0.50510000  0.44010000  1.0 0.1221649215
H  H23  1  0.64060000  0.99490000  0.94010000  1.0 0.1221649215
H  H24  1  0.35940000  0.49490000  0.55990000  1.0 0.1221649215
H  H25  1  0.49700000  0.22600000  0.08020000  1.0 0.1391734779
H  H26  1  0.50300000  0.72600000  0.41980000  1.0 0.1391734779
H  H27  1  0.50300000  0.77400000  0.91980000  1.0 0.1391734779
H  H28  1  0.49700000  0.27400000  0.58020000  1.0 0.1391734779
H  H29  1  0.67400000  0.19900000  0.05540000  1.0 0.1221649215
H  H30  1  0.32600000  0.69900000  0.44460000  1.0 0.1221649215
H  H31  1  0.32600000  0.80100000  0.94460000  1.0 0.1221649215
H  H32  1  0.67400000  0.30100000  0.55540000  1.0 0.1221649215
H  H33  1  0.53090000  0.07040000  0.12540000  1.0 0.1391734779
H  H34  1  0.46910000  0.57040000  0.37460000  1.0 0.1391734779
H  H35  1  0.46910000  0.92960000  0.87460000  1.0 0.1391734779
H  H36  1  0.53090000  0.42960000  0.62540000  1.0 0.1391734779
H  H37  1  0.35680000  0.97690000  0.18890000  1.0 0.1293781778
H  H38  1  0.64320000  0.47690000  0.31110000  1.0 0.1293781778
H  H39  1  0.64320000  0.02310000  0.81110000  1.0 0.1293781778
H  H40  1  0.35680000  0.52310000  0.68890000  1.0 0.1293781778
H  H41  1  0.14190000  0.09000000  0.11790000  1.0 0.1458500891
H  H42  1  0.85810000  0.59000000  0.38210000  1.0 0.1458500891
H  H43  1  0.85810000  0.91000000  0.88210000  1.0 0.1458500891
H  H44  1  0.14190000  0.41000000  0.61790000  1.0 0.1458500891
H  H45  1  0.29690000  0.89650000  0.11270000  1.0 0.1133123146
H  H46  1  0.70310000  0.39650000  0.38730000  1.0 0.1133123146
H  H47  1  0.70310000  0.10350000  0.88730000  1.0 0.1133123146
H  H48  1  0.29690000  0.60350000  0.61270000  1.0 0.1133123146
H  H49  1  0.34950000  0.81960000  0.15440000  1.0 0.1391734779
H  H50  1  0.65050000  0.31960000  0.34560000  1.0 0.1391734779
H  H51  1  0.65050000  0.18040000  0.84560000  1.0 0.1391734779
H  H52  1  0.34950000  0.68040000  0.65440000  1.0 0.1391734779
H  H53  1  0.06690000  0.66666667  0.11980000  1.0 0.1293781778
H  H54  1  0.93310000  0.16667000  0.38020000  1.0 0.1293781778
H  H55  1  0.93310000  0.33333333  0.88020000  1.0 0.1293781778
H  H56  1  0.06690000  0.83333000  0.61980000  1.0 0.1293781778
H  H57  1  0.01180000  0.74530000  0.07510000  1.0 0.1133123146
H  H58  1  0.98820000  0.24530000  0.42490000  1.0 0.1133123146
H  H59  1  0.98820000  0.25470000  0.92490000  1.0 0.1133123146
H  H60  1  0.01180000  0.75470000  0.57510000  1.0 0.1133123146
H  H61  1  0.22620000  0.58970000  0.20740000  1.0 0.1391734779
H  H62  1  0.77380000  0.08970000  0.29260000  1.0 0.1391734779
H  H63  1  0.77380000  0.41030000  0.79260000  1.0 0.1391734779
H  H64  1  0.22620000  0.91030000  0.70740000  1.0 0.1391734779
H  H65  1  0.97240000  0.69910000  0.24930000  1.0 0.1391734779
H  H66  1  0.02760000  0.19910000  0.25070000  1.0 0.1391734779
H  H67  1  0.02760000  0.30090000  0.75070000  1.0 0.1391734779
H  H68  1  0.97240000  0.80090000  0.74930000  1.0 0.1391734779
H  H69  1  0.05480000  0.79340000  0.17360000  1.0 0.1391734779
H  H70  1  0.94520000  0.29340000  0.32640000  1.0 0.1391734779
H  H71  1  0.94520000  0.20660000  0.82640000  1.0 0.1391734779
H  H72  1  0.05480000  0.70660000  0.67360000  1.0 0.1391734779
C  C1  1  0.25190000  0.90550000  0.99851000  1.0 0.161326599
C  C2  1  0.74810000  0.40550000  0.50149000  1.0 0.161326599
C  C3  1  0.74810000  0.09450000  0.00149000  1.0 0.161326599
C  C4  1  0.25190000  0.59450000  0.49851000  1.0 0.161326599
C  C5  1  0.33890000  0.84880000  0.01539000  1.0 -0.1889879993
C  C6  1  0.66110000  0.34880000  0.48461000  1.0 -0.1889879993
C  C7  1  0.66110000  0.15120000  0.98461000  1.0 -0.1889879993
C  C8  1  0.33890000  0.65120000  0.51539000  1.0 -0.1889879993
C  C9  1  0.29630000  0.83310000  0.04070000  1.0 -0.1889879993
C  C10  1  0.70370000  0.33310000  0.45930000  1.0 -0.1889879993
C  C11  1  0.70370000  0.16690000  0.95930000  1.0 -0.1889879993
C  C12  1  0.29630000  0.66690000  0.54070000  1.0 -0.1889879993
C  C13  1  0.17720000  0.88110000  0.03979000  1.0 0.1670896926
C  C14  1  0.82280000  0.38110000  0.46021000  1.0 0.1670896926
C  C15  1  0.82280000  0.11890000  0.96021000  1.0 0.1670896926
C  C16  1  0.17720000  0.61890000  0.53979000  1.0 0.1670896926
C  C17  1  0.10870000  0.88490000  0.06319000  1.0 -0.07710443
C  C18  1  0.89130000  0.38490000  0.43681000  1.0 -0.07710443
C  C19  1  0.89130000  0.11510000  0.93681000  1.0 -0.07710443
C  C20  1  0.10870000  0.61510000  0.56319000  1.0 -0.07710443
C  C21  1  0.00010000  0.93350000  0.06257000  1.0 0.1670896926
C  C22  1  0.99990000  0.43350000  0.43743000  1.0 0.1670896926
C  C23  1  0.99990000  0.06650000  0.93743000  1.0 0.1670896926
C  C24  1  0.00010000  0.56650000  0.56257000  1.0 0.1670896926
C  C25  1  0.93190000  0.94240000  0.08753000  1.0 -0.1721206823
C  C26  1  0.06810000  0.44240000  0.41247000  1.0 -0.1721206823
C  C27  1  0.06810000  0.05760000  0.91247000  1.0 -0.1721206823
C  C28  1  0.93190000  0.55760000  0.58753000  1.0 -0.1721206823
C  C29  1  0.83000000  0.99070000  0.07811000  1.0 -0.1721206823
C  C30  1  0.17000000  0.49070000  0.42189000  1.0 -0.1721206823
C  C31  1  0.17000000  0.00930000  0.92189000  1.0 -0.1721206823
C  C32  1  0.83000000  0.50930000  0.57811000  1.0 -0.1721206823
C  C33  1  0.83390000  0.01720000  0.04826000  1.0 0.1670896926
C  C34  1  0.16610000  0.51720000  0.45174000  1.0 0.1670896926
C  C35  1  0.16610000  0.98280000  0.95174000  1.0 0.1670896926
C  C36  1  0.83390000  0.48280000  0.54826000  1.0 0.1670896926
C  C37  1  0.74330000  0.06480000  0.03081000  1.0 -0.0579541431
C  C38  1  0.25670000  0.56480000  0.46919000  1.0 -0.0579541431
C  C39  1  0.25670000  0.93520000  0.96919000  1.0 -0.0579541431
C  C40  1  0.74330000  0.43520000  0.53081000  1.0 -0.0579541431
C  C41  1  0.62230000  0.08980000  0.04372000  1.0 0.0527890927
C  C42  1  0.37770000  0.58980000  0.45628000  1.0 0.0527890927
C  C43  1  0.37770000  0.91020000  0.95628000  1.0 0.0527890927
C  C44  1  0.62230000  0.41020000  0.54372000  1.0 0.0527890927
C  C45  1  0.52840000  0.03290000  0.04473000  1.0 -0.1384909845
C  C46  1  0.47160000  0.53290000  0.45527000  1.0 -0.1384909845
C  C47  1  0.47160000  0.96710000  0.95527000  1.0 -0.1384909845
C  C48  1  0.52840000  0.46710000  0.54473000  1.0 -0.1384909845
C  C49  1  0.42280000  0.04430000  0.05949000  1.0 -0.1889879993
C  C50  1  0.57720000  0.54430000  0.44051000  1.0 -0.1889879993
C  C51  1  0.57720000  0.95570000  0.94051000  1.0 -0.1889879993
C  C52  1  0.42280000  0.45570000  0.55949000  1.0 -0.1889879993
C  C53  1  0.41850000  0.11710000  0.07339000  1.0 0.2217692329
C  C54  1  0.58150000  0.61710000  0.42661000  1.0 0.2217692329
C  C55  1  0.58150000  0.88290000  0.92661000  1.0 0.2217692329
C  C56  1  0.41850000  0.38290000  0.57339000  1.0 0.2217692329
C  C57  1  0.50560000  0.17630000  0.07171000  1.0 -0.1889879993
C  C58  1  0.49440000  0.67630000  0.42829000  1.0 -0.1889879993
C  C59  1  0.49440000  0.82370000  0.92829000  1.0 -0.1889879993
C  C60  1  0.50560000  0.32370000  0.57171000  1.0 -0.1889879993
C  C61  1  0.61150000  0.15970000  0.05643000  1.0 -0.1384909845
C  C62  1  0.38850000  0.65970000  0.44357000  1.0 -0.1384909845
C  C63  1  0.38850000  0.84030000  0.94357000  1.0 -0.1384909845
C  C64  1  0.61150000  0.34030000  0.55643000  1.0 -0.1384909845
C  C65  1  0.33540000  0.08580000  0.11728000  1.0 0.2285608693
C  C66  1  0.66460000  0.58580000  0.38272000  1.0 0.2285608693
C  C67  1  0.66460000  0.91420000  0.88272000  1.0 0.2285608693
C  C68  1  0.33540000  0.41420000  0.61728000  1.0 0.2285608693
C  C69  1  0.45540000  0.06040000  0.13312000  1.0 -0.2025740029
C  C70  1  0.54460000  0.56040000  0.36688000  1.0 -0.2025740029
C  C71  1  0.54460000  0.93960000  0.86688000  1.0 -0.2025740029
C  C72  1  0.45540000  0.43960000  0.63312000  1.0 -0.2025740029
C  C73  1  0.46720000  0.02090000  0.15991000  1.0 -0.0128848534
C  C74  1  0.53280000  0.52090000  0.34009000  1.0 -0.0128848534
C  C75  1  0.53280000  0.97910000  0.84009000  1.0 -0.0128848534
C  C76  1  0.46720000  0.47910000  0.65991000  1.0 -0.0128848534
C  C77  1  0.35180000  0.00570000  0.17107000  1.0 -0.1384909845
C  C78  1  0.64820000  0.50570000  0.32893000  1.0 -0.1384909845
C  C79  1  0.64820000  0.99430000  0.82893000  1.0 -0.1384909845
C  C80  1  0.35180000  0.49430000  0.67107000  1.0 -0.1384909845
C  C81  1  0.23020000  0.03390000  0.15533000  1.0 0.0098283316
C  C82  1  0.76980000  0.53390000  0.34467000  1.0 0.0098283316
C  C83  1  0.76980000  0.96610000  0.84467000  1.0 0.0098283316
C  C84  1  0.23020000  0.46610000  0.65533000  1.0 0.0098283316
C  C85  1  0.22350000  0.07240000  0.12870000  1.0 -0.1809696421
C  C86  1  0.77650000  0.57240000  0.37130000  1.0 -0.1889879993
C  C87  1  0.77650000  0.92760000  0.87130000  1.0 -0.1889879993
C  C88  1  0.22350000  0.42760000  0.62870000  1.0 -0.1889879993
C  C89  1  0.10760000  0.01620000  0.16882000  1.0 0.5235784917
C  C90  1  0.89240000  0.51620000  0.33118000  1.0 0.5235784917
C  C91  1  0.89240000  0.98380000  0.83118000  1.0 0.5235784917
C  C92  1  0.10760000  0.48380000  0.66882000  1.0 0.5235784917
C  C93  1  0.59910000  0.99100000  0.17730000  1.0 0.590893936
C  C94  1  0.40090000  0.49100000  0.32270000  1.0 0.590893936
C  C95  1  0.40090000  0.00900000  0.82270000  1.0 0.590893936
C  C96  1  0.59910000  0.50900000  0.67730000  1.0 0.590893936
C  C97  1  0.14800000  0.83030000  0.09002000  1.0 0.0682429044
C  C98  1  0.85200000  0.33030000  0.40998000  1.0 0.0682429044
C  C99  1  0.85200000  0.16970000  0.90998000  1.0 0.0682429044
C  C100  1  0.14800000  0.66970000  0.59002000  1.0 0.0682429044
C  C101  1  0.24880000  0.85020000  0.11383000  1.0 -0.1271399812
C  C102  1  0.75120000  0.35020000  0.38617000  1.0 -0.1271399812
C  C103  1  0.75120000  0.14980000  0.88617000  1.0 -0.1271399812
C  C104  1  0.24880000  0.64980000  0.61383000  1.0 -0.1271399812
C  C105  1  0.27980000  0.80450000  0.13880000  1.0 -0.1809696421
C  C106  1  0.72020000  0.30450000  0.36120000  1.0 -0.1809696421
C  C107  1  0.72020000  0.19550000  0.86120000  1.0 -0.1809696421
C  C108  1  0.27980000  0.69550000  0.63880000  1.0 -0.1809696421
C  C109  1  0.21170000  0.73660000  0.14190000  1.0 0.2217692329
C  C110  1  0.78830000  0.23660000  0.35810000  1.0 0.2217692329
C  C111  1  0.78830000  0.26340000  0.85810000  1.0 0.2217692329
C  C112  1  0.21170000  0.76340000  0.64190000  1.0 0.2217692329
C  C113  1  0.11280000  0.71370000  0.11830000  1.0 -0.2025740029
C  C114  1  0.88720000  0.21370000  0.38170000  1.0 -0.2025740029
C  C115  1  0.88720000  0.28630000  0.88170000  1.0 -0.2025740029
C  C116  1  0.11280000  0.78630000  0.61830000  1.0 -0.2025740029
C  C117  1  0.07850000  0.76100000  0.09120000  1.0 -0.1384909845
C  C118  1  0.92150000  0.26100000  0.40880000  1.0 -0.1384909845
C  C119  1  0.92150000  0.23900000  0.90880000  1.0 -0.1384909845
C  C120  1  0.07850000  0.73900000  0.59120000  1.0 -0.1384909845
C  C121  1  0.15580000  0.69360000  0.18786000  1.0 0.2285608693
C  C122  1  0.84420000  0.19360000  0.31214000  1.0 0.2285608693
C  C123  1  0.84420000  0.30640000  0.81214000  1.0 0.2285608693
C  C124  1  0.15580000  0.80640000  0.68786000  1.0 0.2285608693
C  C125  1  0.17050000  0.63230000  0.20905000  1.0 -0.1809696421
C  C126  1  0.82950000  0.13230000  0.29095000  1.0 -0.1809696421
C  C127  1  0.82950000  0.36770000  0.79095000  1.0 -0.1809696421
C  C128  1  0.17050000  0.86770000  0.70905000  1.0 -0.1809696421
C  C129  1  0.10390000  0.63440000  0.23217000  1.0 -0.0128848534
C  C130  1  0.89610000  0.13440000  0.26783000  1.0 -0.0128848534
C  C131  1  0.89610000  0.36560000  0.76783000  1.0 -0.0128848534
C  C132  1  0.10390000  0.86560000  0.73217000  1.0 -0.0128848534
C  C133  1  0.01850000  0.69660000  0.23357000  1.0 -0.0952043763
C  C134  1  0.98150000  0.19660000  0.26643000  1.0 -0.0952043763
C  C135  1  0.98150000  0.30340000  0.76643000  1.0 -0.0941879929
C  C136  1  0.01850000  0.80340000  0.73357000  1.0 -0.0952043763
C  C137  1  0.00140000  0.75510000  0.21163000  1.0 0.0037427765
C  C138  1  0.99860000  0.25510000  0.28837000  1.0 0.0037427765
C  C139  1  0.99860000  0.24490000  0.78837000  1.0 0.0037427765
C  C140  1  0.00140000  0.74490000  0.71163000  1.0 0.0037427765
C  C141  1  0.06830000  0.75410000  0.18850000  1.0 -0.2025740029
C  C142  1  0.93170000  0.25410000  0.31150000  1.0 -0.2067271532
C  C143  1  0.93170000  0.24590000  0.81150000  1.0 -0.2025740029
C  C144  1  0.06830000  0.74590000  0.68850000  1.0 -0.2025740029
C  C145  1  0.91170000  0.82830000  0.21328000  1.0 0.59613308
C  C146  1  0.08830000  0.32830000  0.28672000  1.0 0.59613308
C  C147  1  0.08830000  0.17170000  0.78672000  1.0 0.59613308
C  C148  1  0.91170000  0.67170000  0.71328000  1.0 0.59613308
C  C149  1  0.12010000  0.57000000  0.25640000  1.0 0.590893936
C  C150  1  0.87990000  0.07000000  0.24360000  1.0 0.590893936
C  C151  1  0.87990000  0.43000000  0.74360000  1.0 0.590893936
C  C152  1  0.12010000  0.93000000  0.75640000  1.0 0.590893936
N  N1  1  0.15170000  0.92330000  0.01345000  1.0 -0.3721300693
N  N2  1  0.84830000  0.42330000  0.48655000  1.0 -0.3721300693
N  N3  1  0.84830000  0.07670000  0.98655000  1.0 -0.3721300693
N  N4  1  0.15170000  0.57670000  0.51345000  1.0 -0.3721300693
N  N5  1  0.93980000  0.98260000  0.03922000  1.0 -0.3802586899
N  N6  1  0.06020000  0.48260000  0.46078000  1.0 -0.3802586899
N  N7  1  0.06020000  0.01740000  0.96078000  1.0 -0.3802586899
N  N8  1  0.93980000  0.51740000  0.53922000  1.0 -0.3802586899
O  O1  1  0.99770000  0.03780000  0.15375000  1.0 -0.5130283991
O  O2  1  0.00230000  0.53780000  0.34625000  1.0 -0.5130283991
O  O3  1  0.00230000  0.96220000  0.84625000  1.0 -0.5130283991
O  O4  1  0.99770000  0.46220000  0.65375000  1.0 -0.5130283991
O  O5  1  0.12050000  0.98620000  0.19358000  1.0 -0.4850221009
O  O6  1  0.87950000  0.48620000  0.30642000  1.0 -0.4842651816
O  O7  1  0.87950000  0.01380000  0.80642000  1.0 -0.4842651816
O  O8  1  0.12050000  0.51380000  0.69358000  1.0 -0.4850221009
O  O9  1  0.60100000  0.94830000  0.19962000  1.0 -0.5790502907
O  O10  1  0.39900000  0.44830000  0.30038000  1.0 -0.5790502907
O  O11  1  0.39900000  0.05170000  0.80038000  1.0 -0.5790502907
O  O12  1  0.60100000  0.55170000  0.69962000  1.0 -0.5790502907
O  O13  1  0.69730000  0.01380000  0.16755000  1.0 -0.5263286413
O  O14  1  0.30270000  0.51380000  0.33245000  1.0 -0.5263286413
O  O15  1  0.30270000  0.98620000  0.83245000  1.0 -0.5263286413
O  O16  1  0.69730000  0.48620000  0.66755000  1.0 -0.5263286413
O  O17  1  0.85300000  0.82990000  0.23546000  1.0 -0.5897316592
O  O18  1  0.14700000  0.32990000  0.26454000  1.0 -0.5897316592
O  O19  1  0.14700000  0.17010000  0.76454000  1.0 -0.5897316592
O  O20  1  0.85300000  0.67010000  0.73546000  1.0 -0.5897316592
O  O21  1  0.89370000  0.87400000  0.19149000  1.0 -0.542585227
O  O22  1  0.10630000  0.37400000  0.30851000  1.0 -0.542585227
O  O23  1  0.10630000  0.12600000  0.80851000  1.0 -0.542585227
O  O24  1  0.89370000  0.62600000  0.69149000  1.0 -0.542585227
O  O25  1  0.07730000  0.58570000  0.27946000  1.0 -0.5130283991
O  O26  1  0.92270000  0.08570000  0.22054000  1.0 -0.5159487457
O  O27  1  0.92270000  0.41430000  0.72054000  1.0 -0.5130283991
O  O28  1  0.07730000  0.91430000  0.77946000  1.0 -0.5130283991
O  O29  1  0.17850000  0.50920000  0.25120000  1.0 -0.5897316592
O  O30  1  0.82150000  0.00920000  0.24880000  1.0 -0.5897316592
O  O31  1  0.82150000  0.49080000  0.74880000  1.0 -0.5897316592
O  O32  1  0.17850000  0.99080000  0.75120000  1.0 -0.5897316592
O  O33  1  0.32050000  0.13010000  0.09049000  1.0 -0.2167558962
O  O34  1  0.67950000  0.63010000  0.40951000  1.0 -0.2167558962
O  O35  1  0.67950000  0.86990000  0.90951000  1.0 -0.2167558962
O  O36  1  0.32050000  0.36990000  0.59049000  1.0 -0.2167558962
O  O37  1  0.23120000  0.68180000  0.16564000  1.0 -0.2067271532
O  O38  1  0.76880000  0.18180000  0.33436000  1.0 -0.2067271532
O  O39  1  0.76880000  0.31820000  0.83436000  1.0 -0.2067271532
O  O40  1  0.23120000  0.81820000  0.66564000  1.0 -0.2067271532
