# DDEC6 charges by PACMAN v1.1 (https://github.com/mtap-research/PACMAN-charge/)
data_IYEXOZ_ion_pacman
_symmetry_space_group_name_H-M   'P 1'
_cell_length_a   12.42610000
_cell_length_b   12.42610000
_cell_length_c   26.02400000
_cell_angle_alpha   85.28420000
_cell_angle_beta   94.71580000
_cell_angle_gamma   59.47830000
_symmetry_Int_Tables_number   1
_chemical_formula_structural   Na3Co4Mo12P8H36C8(N2O17)4
_chemical_formula_sum   'Na6 Co8 Mo24 P16 H72 C16 N16 O136'
_cell_volume   3413.65089858
_cell_formula_units_Z   2
loop_
 _symmetry_equiv_pos_site_id
 _symmetry_equiv_pos_as_xyz
  1  'x, y, z'
loop_
 _atom_site_type_symbol
 _atom_site_label
 _atom_site_symmetry_multiplicity
 _atom_site_fract_x
 _atom_site_fract_y
 _atom_site_fract_z
 _atom_site_occupancy
 _atom_site_charge
Na  Na1  1  0.63388000  0.45348000  0.68590000  1.0 0.8918848838
Na  Na2  1  0.45348000  0.63388000  0.81410000  1.0 0.8918848838
Na  Na3  1  0.36612000  0.54652000  0.31410000  1.0 0.8918848838
Na  Na4  1  0.54652000  0.36612000  0.18590000  1.0 0.8918848838
Na  Na5  1  0.69440000  0.69440000  0.75000000  1.0 0.8499406632
Na  Na6  1  0.30560000  0.30560000  0.25000000  1.0 0.8499406632
Co  Co1  1  0.50000000  0.00000000  0.50000000  1.0 1.3910765704
Co  Co2  1  0.00000000  0.50000000  0.00000000  1.0 1.3910765704
Co  Co3  1  0.28664000  0.58288000  0.70699000  1.0 1.1576623972
Co  Co4  1  0.58288000  0.28664000  0.79301000  1.0 1.1576623972
Co  Co5  1  0.71336000  0.41712000  0.29301000  1.0 1.1576623972
Co  Co6  1  0.41712000  0.71336000  0.20699000  1.0 1.1547040995
Co  Co7  1  0.84727000  0.84727000  0.75000000  1.0 1.2764006909
Co  Co8  1  0.15273000  0.15273000  0.25000000  1.0 1.2764006909
Mo  Mo1  1  0.57335000  0.71077000  0.59519000  1.0 1.9927927609
Mo  Mo2  1  0.71077000  0.57335000  0.90481000  1.0 1.9927927609
Mo  Mo3  1  0.42665000  0.28923000  0.40481000  1.0 1.9927927609
Mo  Mo4  1  0.28923000  0.42665000  0.09519000  1.0 1.9927927609
Mo  Mo5  1  0.78210000  0.69188000  0.57508000  1.0 2.0064422345
Mo  Mo6  1  0.69188000  0.78210000  0.92492000  1.0 2.0047991332
Mo  Mo7  1  0.21790000  0.30812000  0.42492000  1.0 2.0064422345
Mo  Mo8  1  0.30812000  0.21790000  0.07508000  1.0 2.0064422345
Mo  Mo9  1  0.33937000  0.19711000  0.60521000  1.0 1.9565552131
Mo  Mo10  1  0.19711000  0.33937000  0.89479000  1.0 1.9544240292
Mo  Mo11  1  0.66063000  0.80289000  0.39479000  1.0 1.9565552131
Mo  Mo12  1  0.80289000  0.66063000  0.10521000  1.0 1.9565552131
Mo  Mo13  1  0.61203000  0.17921000  0.57576000  1.0 2.024767325
Mo  Mo14  1  0.17921000  0.61203000  0.92424000  1.0 2.024767325
Mo  Mo15  1  0.38797000  0.82079000  0.42424000  1.0 2.024767325
Mo  Mo16  1  0.82079000  0.38797000  0.07576000  1.0 2.0312822398
Mo  Mo17  1  0.31799000  0.00101000  0.61050000  1.0 1.9734588917
Mo  Mo18  1  0.00101000  0.31799000  0.88950000  1.0 1.9734588917
Mo  Mo19  1  0.68201000  0.99899000  0.38950000  1.0 1.9734588917
Mo  Mo20  1  0.99899000  0.68201000  0.11050000  1.0 1.9734588917
Mo  Mo21  1  0.80257000  0.96253000  0.56325000  1.0 2.0312822398
Mo  Mo22  1  0.96253000  0.80257000  0.93675000  1.0 2.0312822398
Mo  Mo23  1  0.19743000  0.03747000  0.43675000  1.0 2.0312822398
Mo  Mo24  1  0.03747000  0.19743000  0.06325000  1.0 2.0312822398
P  P1  1  0.62480000  0.92298000  0.64863000  1.0 1.5889310594
P  P2  1  0.92298000  0.62480000  0.85137000  1.0 1.5889310594
P  P3  1  0.37520000  0.07702000  0.35137000  1.0 1.5889310594
P  P4  1  0.07702000  0.37520000  0.14863000  1.0 1.5889310594
P  P5  1  0.48137000  0.30925000  0.67818000  1.0 1.5413736906
P  P6  1  0.30925000  0.48137000  0.82182000  1.0 1.5413736906
P  P7  1  0.51863000  0.69075000  0.32182000  1.0 1.5413736906
P  P8  1  0.69075000  0.51863000  0.17818000  1.0 1.5413736906
P  P9  1  0.00288000  0.70900000  0.64689000  1.0 1.5413736906
P  P10  1  0.70900000  0.00288000  0.85311000  1.0 1.5413736906
P  P11  1  0.99712000  0.29100000  0.35311000  1.0 1.5413736906
P  P12  1  0.29100000  0.99712000  0.14689000  1.0 1.5413736906
P  P13  1  0.41667000  0.75431000  0.69944000  1.0 1.5575147923
P  P14  1  0.75431000  0.41667000  0.80056000  1.0 1.5575147923
P  P15  1  0.58333000  0.24569000  0.30056000  1.0 1.5575147923
P  P16  1  0.24569000  0.58333000  0.19944000  1.0 1.5575147923
H  H1  1  0.94880000  0.41980000  0.66150000  1.0 0.1398374047
H  H2  1  0.41980000  0.94880000  0.83850000  1.0 0.1398374047
H  H3  1  0.05120000  0.58020000  0.33850000  1.0 0.1398374047
H  H4  1  0.58020000  0.05120000  0.16150000  1.0 0.1398374047
H  H5  1  0.06890000  0.29470000  0.65150000  1.0 0.1183902759
H  H6  1  0.29470000  0.06890000  0.84850000  1.0 0.1183902759
H  H7  1  0.93110000  0.70530000  0.34850000  1.0 0.1183902759
H  H8  1  0.70530000  0.93110000  0.15150000  1.0 0.1183902759
H  H9  1  0.96100000  0.23500000  0.71570000  1.0 0.2800040479
H  H10  1  0.23500000  0.96100000  0.78430000  1.0 0.2800040479
H  H11  1  0.03900000  0.76500000  0.28430000  1.0 0.2800040479
H  H12  1  0.76500000  0.03900000  0.21570000  1.0 0.2800040479
H  H13  1  0.08390000  0.19910000  0.74300000  1.0 0.1646584924
H  H14  1  0.19910000  0.08390000  0.75700000  1.0 0.1646584924
H  H15  1  0.91610000  0.80090000  0.25700000  1.0 0.1646584924
H  H16  1  0.80090000  0.91610000  0.24300000  1.0 0.1646584924
H  H17  1  0.97170000  0.31390000  0.75150000  1.0 0.2878611889
H  H18  1  0.31390000  0.97170000  0.74850000  1.0 0.2878611889
H  H19  1  0.02830000  0.68610000  0.24850000  1.0 0.2878611889
H  H20  1  0.68610000  0.02830000  0.25150000  1.0 0.2878611889
H  H21  1  0.10780000  0.51480000  0.76050000  1.0 0.3268177565
H  H22  1  0.51480000  0.10780000  0.73950000  1.0 0.3268177565
H  H23  1  0.89220000  0.48520000  0.23950000  1.0 0.3268177565
H  H24  1  0.48520000  0.89220000  0.26050000  1.0 0.3268177565
H  H25  1  0.97980000  0.56740000  0.73440000  1.0 0.4510725196
H  H26  1  0.56740000  0.97980000  0.76560000  1.0 0.4510725196
H  H27  1  0.02020000  0.43260000  0.26560000  1.0 0.4510725196
H  H28  1  0.43260000  0.02020000  0.23440000  1.0 0.4510725196
H  H29  1  0.03360000  0.46060000  0.77580000  1.0 0.3163185771
H  H30  1  0.46060000  0.03360000  0.72420000  1.0 0.3163185771
H  H31  1  0.96640000  0.53940000  0.22420000  1.0 0.3163185771
H  H32  1  0.53940000  0.96640000  0.27580000  1.0 0.3163185771
H  H33  1  0.77370000  0.15230000  0.01270000  1.0 0.1183902759
H  H34  1  0.73850000  0.07370000  0.97840000  1.0 0.1183902759
H  H35  1  0.43940000  0.29100000  0.93560000  1.0 0.2723770862
H  H36  1  0.52580000  0.15760000  0.95430000  1.0 0.2631698426
H  H37  1  0.54520000  0.21660000  0.90840000  1.0 0.2631698426
H  H38  1  0.56760000  0.27120000  0.00520000  1.0 0.1183902759
H  H39  1  0.58750000  0.33610000  0.95570000  1.0 0.1183902759
H  H40  1  0.88360000  0.10380000  0.94630000  1.0 0.2723770862
H  H41  1  0.80070000  0.24030000  0.93980000  1.0 0.2723770862
H  H42  1  0.76960000  0.16580000  0.90830000  1.0 0.2631698426
H  H43  1  0.15230000  0.77370000  0.48730000  1.0 0.1183902759
H  H44  1  0.07370000  0.73850000  0.52160000  1.0 0.1183902759
H  H45  1  0.29100000  0.43940000  0.56440000  1.0 0.2723770862
H  H46  1  0.15760000  0.52580000  0.54570000  1.0 0.2631698426
H  H47  1  0.21660000  0.54520000  0.59160000  1.0 0.2723770862
H  H48  1  0.27120000  0.56760000  0.49480000  1.0 0.1183902759
H  H49  1  0.33610000  0.58750000  0.54430000  1.0 0.1183902759
H  H50  1  0.10380000  0.88360000  0.55370000  1.0 0.2723770862
H  H51  1  0.24030000  0.80070000  0.56020000  1.0 0.2723770862
H  H52  1  0.16580000  0.76960000  0.59170000  1.0 0.2631698426
H  H53  1  0.22630000  0.84770000  0.98730000  1.0 0.1183902759
H  H54  1  0.26150000  0.92630000  0.02160000  1.0 0.1183902759
H  H55  1  0.56060000  0.70900000  0.06440000  1.0 0.2723770862
H  H56  1  0.47420000  0.84240000  0.04570000  1.0 0.2631698426
H  H57  1  0.45480000  0.78340000  0.09160000  1.0 0.2723770862
H  H58  1  0.43240000  0.72880000  0.99480000  1.0 0.1183902759
H  H59  1  0.41250000  0.66390000  0.04430000  1.0 0.1183902759
H  H60  1  0.11640000  0.89620000  0.05370000  1.0 0.2723770862
H  H61  1  0.19930000  0.75970000  0.06020000  1.0 0.2723770862
H  H62  1  0.23040000  0.83420000  0.09170000  1.0 0.2631698426
H  H63  1  0.84770000  0.22630000  0.51270000  1.0 0.1183902759
H  H64  1  0.92630000  0.26150000  0.47840000  1.0 0.1183902759
H  H65  1  0.70900000  0.56060000  0.43560000  1.0 0.2723770862
H  H66  1  0.84240000  0.47420000  0.45430000  1.0 0.2631698426
H  H67  1  0.78340000  0.45480000  0.40840000  1.0 0.2631698426
H  H68  1  0.72880000  0.43240000  0.50520000  1.0 0.1183902759
H  H69  1  0.66390000  0.41250000  0.45570000  1.0 0.1183902759
H  H70  1  0.89620000  0.11640000  0.44630000  1.0 0.2800040479
H  H71  1  0.75970000  0.19930000  0.43980000  1.0 0.2723770862
H  H72  1  0.83420000  0.23040000  0.40830000  1.0 0.2631698426
C  C1  1  0.11050000  0.38850000  0.70110000  1.0 0.084545983
C  C2  1  0.38850000  0.11050000  0.79890000  1.0 0.0878221324
C  C3  1  0.88950000  0.61150000  0.29890000  1.0 0.0878221324
C  C4  1  0.61150000  0.88950000  0.20110000  1.0 0.0878221324
C  C5  1  0.02940000  0.34760000  0.67770000  1.0 -0.1226932574
C  C6  1  0.34760000  0.02940000  0.82230000  1.0 -0.1226932574
C  C7  1  0.97060000  0.65240000  0.32230000  1.0 -0.1226932574
C  C8  1  0.65240000  0.97060000  0.17770000  1.0 -0.1226932574
C  C9  1  0.73370000  0.15410000  0.97870000  1.0 -0.0455773603
C  C10  1  0.59630000  0.25810000  0.97150000  1.0 -0.0432059411
C  C11  1  0.15410000  0.73370000  0.52130000  1.0 -0.0455773603
C  C12  1  0.25810000  0.59630000  0.52850000  1.0 -0.0432059411
C  C13  1  0.26630000  0.84590000  0.02130000  1.0 -0.0455773603
C  C14  1  0.40370000  0.74190000  0.02850000  1.0 -0.0432059411
C  C15  1  0.84590000  0.26630000  0.47870000  1.0 -0.0455773603
C  C16  1  0.74190000  0.40370000  0.47150000  1.0 -0.0432059411
N  N1  1  0.00910000  0.26370000  0.72800000  1.0 -0.4008477424
N  N2  1  0.26370000  0.00910000  0.77200000  1.0 -0.4008477424
N  N3  1  0.99090000  0.73630000  0.27200000  1.0 -0.4008477424
N  N4  1  0.73630000  0.99090000  0.22800000  1.0 -0.4008477424
N  N5  1  0.05020000  0.49660000  0.74910000  1.0 -0.4111275357
N  N6  1  0.49660000  0.05020000  0.75090000  1.0 -0.4111275357
N  N7  1  0.94980000  0.50340000  0.25090000  1.0 -0.4111275357
N  N8  1  0.50340000  0.94980000  0.24910000  1.0 -0.4111275357
N  N9  1  0.51940000  0.22800000  0.93940000  1.0 -0.4008477424
N  N10  1  0.80360000  0.16720000  0.93950000  1.0 -0.390627468
N  N11  1  0.22800000  0.51940000  0.56060000  1.0 -0.4008477424
N  N12  1  0.16720000  0.80360000  0.56050000  1.0 -0.390627468
N  N13  1  0.48060000  0.77200000  0.06060000  1.0 -0.4008477424
N  N14  1  0.19640000  0.83280000  0.06050000  1.0 -0.390627468
N  N15  1  0.77200000  0.48060000  0.43940000  1.0 -0.4008477424
N  N16  1  0.83280000  0.19640000  0.43950000  1.0 -0.390627468
O  O1  1  0.48946000  0.77426000  0.74358000  1.0 -0.8006148432
O  O2  1  0.77426000  0.48946000  0.75642000  1.0 -0.8006148432
O  O3  1  0.51054000  0.22574000  0.25642000  1.0 -0.8006148432
O  O4  1  0.22574000  0.51054000  0.24358000  1.0 -0.8006148432
O  O5  1  0.35325000  0.69105000  0.72382000  1.0 -0.8611142381
O  O6  1  0.69105000  0.35325000  0.77618000  1.0 -0.8611142381
O  O7  1  0.64675000  0.30895000  0.27618000  1.0 -0.8611142381
O  O8  1  0.30895000  0.64675000  0.22382000  1.0 -0.8611142381
O  O9  1  0.83687000  0.57067000  0.54053000  1.0 -0.5491359873
O  O10  1  0.57067000  0.83687000  0.95947000  1.0 -0.5491359873
O  O11  1  0.16313000  0.42933000  0.45947000  1.0 -0.5491359873
O  O12  1  0.42933000  0.16313000  0.04053000  1.0 -0.5491359873
O  O13  1  0.31767000  0.88127000  0.66881000  1.0 -0.7594477479
O  O14  1  0.88127000  0.31767000  0.83119000  1.0 -0.7594477479
O  O15  1  0.68233000  0.11873000  0.33119000  1.0 -0.7594477479
O  O16  1  0.11873000  0.68233000  0.16881000  1.0 -0.7594477479
O  O17  1  0.14834000  0.63014000  0.65172000  1.0 -0.8006148432
O  O18  1  0.63014000  0.14834000  0.84828000  1.0 -0.8006148432
O  O19  1  0.85166000  0.36986000  0.34828000  1.0 -0.8006148432
O  O20  1  0.36986000  0.85166000  0.15172000  1.0 -0.8006148432
O  O21  1  0.43501000  0.44481000  0.68577000  1.0 -0.8699345284
O  O22  1  0.44481000  0.43501000  0.81423000  1.0 -0.8699345284
O  O23  1  0.56499000  0.55519000  0.31423000  1.0 -0.8699345284
O  O24  1  0.55519000  0.56499000  0.18577000  1.0 -0.8699345284
O  O25  1  0.50846000  0.67186000  0.66169000  1.0 -0.8491977398
O  O26  1  0.67186000  0.50846000  0.83831000  1.0 -0.8491977398
O  O27  1  0.49154000  0.32814000  0.33831000  1.0 -0.8491977398
O  O28  1  0.32814000  0.49154000  0.16169000  1.0 -0.8491977398
O  O29  1  0.57782000  0.59162000  0.56712000  1.0 -0.5633399654
O  O30  1  0.59162000  0.57782000  0.93288000  1.0 -0.5633399654
O  O31  1  0.42218000  0.40838000  0.43288000  1.0 -0.5633399654
O  O32  1  0.40838000  0.42218000  0.06712000  1.0 -0.5633399654
O  O33  1  0.95749000  0.73129000  0.69908000  1.0 -0.7182393763
O  O34  1  0.73129000  0.95749000  0.80092000  1.0 -0.7182393763
O  O35  1  0.04251000  0.26871000  0.30092000  1.0 -0.7182393763
O  O36  1  0.26871000  0.04251000  0.19908000  1.0 -0.7182393763
O  O37  1  0.77772000  0.06772000  0.61675000  1.0 -0.7273250365
O  O38  1  0.06772000  0.77772000  0.88325000  1.0 -0.7273250365
O  O39  1  0.22228000  0.93228000  0.38325000  1.0 -0.7182393763
O  O40  1  0.93228000  0.22228000  0.11675000  1.0 -0.7182393763
O  O41  1  0.73704000  0.63644000  0.63743000  1.0 -0.7594477479
O  O42  1  0.63644000  0.73704000  0.86257000  1.0 -0.7683834616
O  O43  1  0.26296000  0.36356000  0.36257000  1.0 -0.7594477479
O  O44  1  0.36356000  0.26296000  0.13743000  1.0 -0.7594477479
O  O45  1  0.67904000  0.88224000  0.70571000  1.0 -0.7182393763
O  O46  1  0.88224000  0.67904000  0.79429000  1.0 -0.7182393763
O  O47  1  0.32096000  0.11776000  0.29429000  1.0 -0.7138795797
O  O48  1  0.11776000  0.32096000  0.20571000  1.0 -0.7138795797
O  O49  1  0.82595000  0.80635000  0.52835000  1.0 -0.8064874727
O  O50  1  0.80635000  0.82595000  0.97165000  1.0 -0.8064874727
O  O51  1  0.17405000  0.19365000  0.47165000  1.0 -0.8064874727
O  O52  1  0.19365000  0.17405000  0.02835000  1.0 -0.8064874727
O  O53  1  0.32947000  0.09587000  0.66352000  1.0 -0.8064874727
O  O54  1  0.09587000  0.32947000  0.83648000  1.0 -0.8064874727
O  O55  1  0.67053000  0.90413000  0.33648000  1.0 -0.8064874727
O  O56  1  0.90413000  0.67053000  0.16352000  1.0 -0.8064874727
O  O57  1  0.73042000  0.86462000  0.61386000  1.0 -0.8699345284
O  O58  1  0.86462000  0.73042000  0.88614000  1.0 -0.8699345284
O  O59  1  0.26958000  0.13538000  0.38614000  1.0 -0.8699345284
O  O60  1  0.13538000  0.26958000  0.11386000  1.0 -0.8699345284
O  O61  1  0.16277000  0.06917000  0.58830000  1.0 -0.5413594041
O  O62  1  0.06917000  0.16277000  0.91170000  1.0 -0.5413594041
O  O63  1  0.83723000  0.93083000  0.41170000  1.0 -0.5413594041
O  O64  1  0.93083000  0.83723000  0.08830000  1.0 -0.5413594041
O  O65  1  0.37416000  0.07456000  0.55588000  1.0 -0.8699345284
O  O66  1  0.07456000  0.37416000  0.94412000  1.0 -0.8699345284
O  O67  1  0.62584000  0.92544000  0.44412000  1.0 -0.8699345284
O  O68  1  0.92544000  0.62584000  0.05588000  1.0 -0.8699345284
O  O69  1  0.53004000  0.87924000  0.63497000  1.0 -0.8611142381
O  O70  1  0.87924000  0.53004000  0.86503000  1.0 -0.8611142381
O  O71  1  0.46996000  0.12076000  0.36503000  1.0 -0.8611142381
O  O72  1  0.12076000  0.46996000  0.13497000  1.0 -0.8611142381
O  O73  1  0.80836000  0.03016000  0.71803000  1.0 -0.1911486182
O  O74  1  0.03016000  0.80836000  0.78197000  1.0 -0.2017995312
O  O75  1  0.19164000  0.96984000  0.28197000  1.0 -0.2017995312
O  O76  1  0.96984000  0.19164000  0.21803000  1.0 -0.2017995312
O  O77  1  0.95341000  0.63601000  0.61773000  1.0 -0.7353404555
O  O78  1  0.63601000  0.95341000  0.88227000  1.0 -0.7353404555
O  O79  1  0.04659000  0.36399000  0.38227000  1.0 -0.7353404555
O  O80  1  0.36399000  0.04659000  0.11773000  1.0 -0.7353404555
O  O81  1  0.63282000  0.27842000  0.53582000  1.0 -0.5491359873
O  O82  1  0.27842000  0.63282000  0.96418000  1.0 -0.5491359873
O  O83  1  0.36718000  0.72158000  0.46418000  1.0 -0.5491359873
O  O84  1  0.72158000  0.36718000  0.03582000  1.0 -0.5491359873
O  O85  1  0.55348000  0.06728000  0.63214000  1.0 -0.8611142381
O  O86  1  0.06728000  0.55348000  0.86786000  1.0 -0.8611142381
O  O87  1  0.44652000  0.93272000  0.36786000  1.0 -0.8611142381
O  O88  1  0.93272000  0.44652000  0.13214000  1.0 -0.8611142381
O  O89  1  0.57249000  0.27849000  0.63746000  1.0 -0.7273250365
O  O90  1  0.27849000  0.57249000  0.86254000  1.0 -0.7273250365
O  O91  1  0.42751000  0.72151000  0.36254000  1.0 -0.7273250365
O  O92  1  0.72151000  0.42751000  0.13746000  1.0 -0.7273250365
O  O93  1  0.62346000  0.05386000  0.53041000  1.0 -0.8818691615
O  O94  1  0.05386000  0.62346000  0.96959000  1.0 -0.8818691615
O  O95  1  0.37654000  0.94614000  0.46959000  1.0 -0.8818691615
O  O96  1  0.94614000  0.37654000  0.03041000  1.0 -0.8818691615
O  O97  1  0.36969000  0.29269000  0.66001000  1.0 -0.7594477479
O  O98  1  0.29269000  0.36969000  0.83999000  1.0 -0.7594477479
O  O99  1  0.63031000  0.70731000  0.33999000  1.0 -0.7527178351
O  O100  1  0.70731000  0.63031000  0.16001000  1.0 -0.7594477479
O  O101  1  0.38199000  0.84579000  0.56980000  1.0 -0.8266995046
O  O102  1  0.84579000  0.38199000  0.93020000  1.0 -0.8266995046
O  O103  1  0.61801000  0.15421000  0.43020000  1.0 -0.8266995046
O  O104  1  0.15421000  0.61801000  0.06980000  1.0 -0.8266995046
O  O105  1  0.96438000  0.83358000  0.61131000  1.0 -0.7683834616
O  O106  1  0.83358000  0.96438000  0.88869000  1.0 -0.7683834616
O  O107  1  0.03562000  0.16642000  0.38869000  1.0 -0.7683834616
O  O108  1  0.16642000  0.03562000  0.11131000  1.0 -0.7683834616
O  O109  1  0.18783000  0.31143000  0.58317000  1.0 -0.5491359873
O  O110  1  0.31143000  0.18783000  0.91683000  1.0 -0.5491359873
O  O111  1  0.81217000  0.68857000  0.41683000  1.0 -0.5491359873
O  O112  1  0.68857000  0.81217000  0.08317000  1.0 -0.5491359873
O  O113  1  0.60686000  0.80426000  0.54077000  1.0 -0.8491977398
O  O114  1  0.80426000  0.60686000  0.95923000  1.0 -0.8491977398
O  O115  1  0.39314000  0.19574000  0.45923000  1.0 -0.8491977398
O  O116  1  0.19574000  0.39314000  0.04077000  1.0 -0.8491977398
O  O117  1  0.87256000  0.00576000  0.52026000  1.0 -0.5633399654
O  O118  1  0.00576000  0.87256000  0.97974000  1.0 -0.5633399654
O  O119  1  0.12744000  0.99424000  0.47974000  1.0 -0.5633399654
O  O120  1  0.99424000  0.12744000  0.02026000  1.0 -0.5633399654
O  O121  1  0.42125000  0.26685000  0.55786000  1.0 -0.8412327413
O  O122  1  0.26685000  0.42125000  0.94214000  1.0 -0.8412327413
O  O123  1  0.57875000  0.73315000  0.44214000  1.0 -0.8412327413
O  O124  1  0.73315000  0.57875000  0.05786000  1.0 -0.8412327413
O  O125  1  0.55254000  0.22134000  0.72969000  1.0 -0.7527178351
O  O126  1  0.22134000  0.55254000  0.77031000  1.0 -0.7527178351
O  O127  1  0.44746000  0.77866000  0.27031000  1.0 -0.7527178351
O  O128  1  0.77866000  0.44746000  0.22969000  1.0 -0.7527178351
O  O129  1  0.85730000  0.60610000  0.71800000  1.0 -0.4111275357
O  O130  1  0.60610000  0.85730000  0.78200000  1.0 -0.4111275357
O  O131  1  0.14270000  0.39390000  0.28200000  1.0 -0.4111275357
O  O132  1  0.39390000  0.14270000  0.21800000  1.0 -0.4111275357
O  O133  1  0.80320000  0.29720000  0.65410000  1.0 -0.4629279617
O  O134  1  0.29720000  0.80320000  0.84590000  1.0 -0.4679526184
O  O135  1  0.19680000  0.70280000  0.34590000  1.0 -0.4679526184
O  O136  1  0.70280000  0.19680000  0.15410000  1.0 -0.4629279617
