# DDEC6 charges by PACMAN v1.1 (https://github.com/mtap-research/PACMAN-charge/)
data_IYITOB_FSR_pacman
_symmetry_space_group_name_H-M   'P 1'
_cell_length_a   18.94890000
_cell_length_b   18.94890000
_cell_length_c   32.20570000
_cell_angle_alpha   77.36450000
_cell_angle_beta   102.63600000
_cell_angle_gamma   132.31300000
_symmetry_Int_Tables_number   1
_chemical_formula_structural   Zn3H24C36(Br2N3)4
_chemical_formula_sum   'Zn12 H96 C144 Br32 N48'
_cell_volume   8303.02113060
_cell_formula_units_Z   4
loop_
 _symmetry_equiv_pos_site_id
 _symmetry_equiv_pos_as_xyz
  1  'x, y, z'
loop_
 _atom_site_type_symbol
 _atom_site_label
 _atom_site_symmetry_multiplicity
 _atom_site_fract_x
 _atom_site_fract_y
 _atom_site_fract_z
 _atom_site_occupancy
 _atom_site_charge
Zn  Zn1  1  0.71229000  0.46551000  0.56401000  1.0 0.5659089058
Zn  Zn2  1  0.53449000  0.28771000  0.06401000  1.0 0.5659089058
Zn  Zn3  1  0.83248000  0.97568000  0.40011000  1.0 0.5659089058
Zn  Zn4  1  0.02432000  0.16752000  0.90011000  1.0 0.5659089058
Zn  Zn5  1  0.45517000  0.83737000  0.20261000  1.0 0.3462024599
Zn  Zn6  1  0.16263000  0.54483000  0.70261000  1.0 0.3462024599
Zn  Zn7  1  0.46551000  0.71229000  0.93599000  1.0 0.5659089058
Zn  Zn8  1  0.28771000  0.53449000  0.43599000  1.0 0.5659089058
Zn  Zn9  1  0.97568000  0.83248000  0.09989000  1.0 0.5659089058
Zn  Zn10  1  0.16752000  0.02432000  0.59989000  1.0 0.5659089058
Zn  Zn11  1  0.83737000  0.45517000  0.29739000  1.0 0.3462024599
Zn  Zn12  1  0.54483000  0.16263000  0.79739000  1.0 0.3462024599
H  H1  1  0.53220000  0.38540000  0.50490000  1.0 0.099406936
H  H2  1  0.61460000  0.46780000  0.00490000  1.0 0.099406936
H  H3  1  0.38750000  0.34910000  0.50160000  1.0 0.1369411499
H  H4  1  0.65090000  0.61250000  0.00160000  1.0 0.1369411499
H  H5  1  0.46670000  0.43250000  0.61990000  1.0 0.1369411499
H  H6  1  0.56750000  0.53330000  0.11990000  1.0 0.1369411499
H  H7  1  0.60830000  0.47670000  0.61680000  1.0 0.1094546858
H  H8  1  0.52330000  0.39170000  0.11680000  1.0 0.1094546858
H  H9  1  0.14740000  0.15540000  0.48900000  1.0 0.1313880801
H  H10  1  0.84460000  0.85260000  0.98900000  1.0 0.1313880801
H  H11  1  0.03120000  0.05240000  0.44100000  1.0 0.1094546858
H  H12  1  0.94760000  0.96880000  0.94100000  1.0 0.1094546858
H  H13  1  0.86230000  0.08750000  0.46530000  1.0 0.1094546858
H  H14  1  0.91250000  0.13770000  0.96530000  1.0 0.1094546858
H  H15  1  0.98130000  0.20110000  0.50980000  1.0 0.1369411499
H  H16  1  0.79890000  0.01870000  0.00980000  1.0 0.1369411499
H  H17  1  0.06840000  0.44480000  0.62400000  1.0 0.0715914885
H  H18  1  0.55520000  0.93160000  0.12400000  1.0 0.0715914885
H  H19  1  0.08350000  0.37510000  0.57850000  1.0 0.1369411499
H  H20  1  0.62490000  0.91650000  0.07850000  1.0 0.1369411499
H  H21  1  0.31960000  0.45000000  0.65460000  1.0 0.1313880801
H  H22  1  0.55000000  0.68040000  0.15460000  1.0 0.1313880801
H  H23  1  0.30220000  0.52540000  0.69220000  1.0 0.0885930057
H  H24  1  0.47460000  0.69780000  0.19220000  1.0 0.0885930057
H  H25  1  0.72510000  0.01550000  0.32730000  1.0 0.0809910975
H  H26  1  0.98450000  0.27490000  0.82730000  1.0 0.0809910975
H  H27  1  0.75520000  0.13120000  0.27410000  1.0 0.1191918522
H  H28  1  0.86880000  0.24480000  0.77410000  1.0 0.1191918522
H  H29  1  0.03130000  0.29450000  0.31540000  1.0 0.1313880801
H  H30  1  0.70550000  0.96870000  0.81540000  1.0 0.1313880801
H  H31  1  0.99510000  0.17430000  0.36710000  1.0 0.1094546858
H  H32  1  0.82570000  0.00490000  0.86710000  1.0 0.1094546858
H  H33  1  0.34360000  0.65200000  0.25740000  1.0 0.0715914885
H  H34  1  0.34800000  0.65640000  0.75740000  1.0 0.0715914885
H  H35  1  0.18870000  0.50450000  0.26410000  1.0 0.1369411499
H  H36  1  0.49550000  0.81130000  0.76410000  1.0 0.1369411499
H  H37  1  0.09950000  0.61190000  0.16830000  1.0 0.1369411499
H  H38  1  0.38810000  0.90050000  0.66830000  1.0 0.1369411499
H  H39  1  0.25280000  0.74860000  0.16470000  1.0 0.0885930057
H  H40  1  0.25140000  0.74720000  0.66470000  1.0 0.0885930057
H  H41  1  0.86720000  0.47280000  0.13350000  1.0 0.1313880801
H  H42  1  0.52720000  0.13280000  0.63350000  1.0 0.1313880801
H  H43  1  0.74190000  0.44410000  0.08790000  1.0 0.1094546858
H  H44  1  0.55590000  0.25810000  0.58790000  1.0 0.1094546858
H  H45  1  0.56010000  0.18770000  0.14490000  1.0 0.0809910975
H  H46  1  0.81230000  0.43990000  0.64490000  1.0 0.0809910975
H  H47  1  0.68250000  0.21010000  0.19230000  1.0 0.1191918522
H  H48  1  0.78990000  0.31750000  0.69230000  1.0 0.1191918522
H  H49  1  0.38540000  0.53220000  0.99510000  1.0 0.099406936
H  H50  1  0.46780000  0.61460000  0.49510000  1.0 0.099406936
H  H51  1  0.34910000  0.38750000  0.99840000  1.0 0.1369411499
H  H52  1  0.61250000  0.65090000  0.49840000  1.0 0.1369411499
H  H53  1  0.43250000  0.46670000  0.88010000  1.0 0.1369411499
H  H54  1  0.53330000  0.56750000  0.38010000  1.0 0.1369411499
H  H55  1  0.47670000  0.60830000  0.88320000  1.0 0.1094546858
H  H56  1  0.39170000  0.52330000  0.38320000  1.0 0.1094546858
H  H57  1  0.15540000  0.14740000  0.01100000  1.0 0.1313880801
H  H58  1  0.85260000  0.84460000  0.51100000  1.0 0.1313880801
H  H59  1  0.05240000  0.03120000  0.05900000  1.0 0.1094546858
H  H60  1  0.96880000  0.94760000  0.55900000  1.0 0.1094546858
H  H61  1  0.08750000  0.86230000  0.03470000  1.0 0.1094546858
H  H62  1  0.13770000  0.91250000  0.53470000  1.0 0.1094546858
H  H63  1  0.20110000  0.98130000  0.99020000  1.0 0.1369411499
H  H64  1  0.01870000  0.79890000  0.49020000  1.0 0.1369411499
H  H65  1  0.44480000  0.06840000  0.87600000  1.0 0.0715914885
H  H66  1  0.93160000  0.55520000  0.37600000  1.0 0.0715914885
H  H67  1  0.37510000  0.08350000  0.92150000  1.0 0.1369411499
H  H68  1  0.91650000  0.62490000  0.42150000  1.0 0.1369411499
H  H69  1  0.45000000  0.31960000  0.84540000  1.0 0.1313880801
H  H70  1  0.68040000  0.55000000  0.34540000  1.0 0.1313880801
H  H71  1  0.52540000  0.30220000  0.80780000  1.0 0.0885930057
H  H72  1  0.69780000  0.47460000  0.30780000  1.0 0.0885930057
H  H73  1  0.01550000  0.72510000  0.17270000  1.0 0.0809910975
H  H74  1  0.27490000  0.98450000  0.67270000  1.0 0.0809910975
H  H75  1  0.13120000  0.75520000  0.22590000  1.0 0.1191918522
H  H76  1  0.24480000  0.86880000  0.72590000  1.0 0.1191918522
H  H77  1  0.29450000  0.03130000  0.18460000  1.0 0.1313880801
H  H78  1  0.96870000  0.70550000  0.68460000  1.0 0.1313880801
H  H79  1  0.17430000  0.99510000  0.13290000  1.0 0.1094546858
H  H80  1  0.00490000  0.82570000  0.63290000  1.0 0.1094546858
H  H81  1  0.65200000  0.34360000  0.24260000  1.0 0.0715914885
H  H82  1  0.65640000  0.34800000  0.74260000  1.0 0.0715914885
H  H83  1  0.50450000  0.18870000  0.23590000  1.0 0.1369411499
H  H84  1  0.81130000  0.49550000  0.73590000  1.0 0.1369411499
H  H85  1  0.61190000  0.09950000  0.33170000  1.0 0.1369411499
H  H86  1  0.90050000  0.38810000  0.83170000  1.0 0.1369411499
H  H87  1  0.74860000  0.25280000  0.33530000  1.0 0.0885930057
H  H88  1  0.74720000  0.25140000  0.83530000  1.0 0.0885930057
H  H89  1  0.47280000  0.86720000  0.36650000  1.0 0.1313880801
H  H90  1  0.13280000  0.52720000  0.86650000  1.0 0.1313880801
H  H91  1  0.44410000  0.74190000  0.41210000  1.0 0.1094546858
H  H92  1  0.25810000  0.55590000  0.91210000  1.0 0.1094546858
H  H93  1  0.18770000  0.56010000  0.35510000  1.0 0.0809910975
H  H94  1  0.43990000  0.81230000  0.85510000  1.0 0.0809910975
H  H95  1  0.21010000  0.68250000  0.30770000  1.0 0.1191918522
H  H96  1  0.31750000  0.78990000  0.80770000  1.0 0.1191918522
C  C1  1  0.51970000  0.39690000  0.52780000  1.0 0.099406936
C  C2  1  0.60310000  0.48030000  0.02780000  1.0 0.099406936
C  C3  1  0.43110000  0.37350000  0.52580000  1.0 -0.1509961451
C  C4  1  0.62650000  0.56890000  0.02580000  1.0 -0.1509961451
C  C5  1  0.40930000  0.38670000  0.55970000  1.0 0.0414061107
C  C6  1  0.61330000  0.59070000  0.05970000  1.0 0.0414061107
C  C7  1  0.47890000  0.42450000  0.59570000  1.0 -0.1509961451
C  C8  1  0.57550000  0.52110000  0.09570000  1.0 -0.1509961451
C  C9  1  0.56190000  0.44810000  0.59380000  1.0 0.0336663507
C  C10  1  0.55190000  0.43810000  0.09380000  1.0 0.0336663507
C  C11  1  0.31560000  0.35660000  0.55940000  1.0 0.3582814269
C  C12  1  0.64340000  0.68440000  0.05940000  1.0 0.3582814269
C  C13  1  0.15990000  0.26690000  0.53230000  1.0 0.379794617
C  C14  1  0.73310000  0.84010000  0.03230000  1.0 0.379794617
C  C15  1  0.21690000  0.36170000  0.58420000  1.0 0.379794617
C  C16  1  0.63830000  0.78310000  0.08420000  1.0 0.379794617
C  C17  1  0.07960000  0.19300000  0.50330000  1.0 0.0605053757
C  C18  1  0.80700000  0.92040000  0.00330000  1.0 0.0605053757
C  C19  1  0.09070000  0.14470000  0.48320000  1.0 -0.14136381
C  C20  1  0.85530000  0.90930000  0.98320000  1.0 -0.14136381
C  C21  1  0.02090000  0.08210000  0.45520000  1.0 0.0497610541
C  C22  1  0.91790000  0.97910000  0.95520000  1.0 0.0497610541
C  C23  1  0.92180000  0.10420000  0.46900000  1.0 0.0605053757
C  C24  1  0.89580000  0.07820000  0.96900000  1.0 0.0605053757
C  C25  1  0.99180000  0.17080000  0.49620000  1.0 -0.14136381
C  C26  1  0.82920000  0.00820000  0.99620000  1.0 -0.14136381
C  C27  1  0.12070000  0.44790000  0.62960000  1.0 0.0715914885
C  C28  1  0.55210000  0.87930000  0.12960000  1.0 0.0715914885
C  C29  1  0.12790000  0.40370000  0.60210000  1.0 -0.1333368749
C  C30  1  0.59630000  0.87210000  0.10210000  1.0 -0.1333368749
C  C31  1  0.20370000  0.40530000  0.61190000  1.0 0.0605053757
C  C32  1  0.59470000  0.79630000  0.11190000  1.0 0.0605053757
C  C33  1  0.26900000  0.44960000  0.64690000  1.0 -0.1509961451
C  C34  1  0.55040000  0.73100000  0.14690000  1.0 -0.1509961451
C  C35  1  0.25640000  0.49280000  0.66960000  1.0 0.0414061107
C  C36  1  0.50720000  0.74360000  0.16960000  1.0 0.0414061107
C  C37  1  0.91710000  0.30310000  0.25520000  1.0 0.368499805
C  C38  1  0.69690000  0.08290000  0.75520000  1.0 0.368499805
C  C39  1  0.02480000  0.44960000  0.22120000  1.0 0.368499805
C  C40  1  0.55040000  0.97520000  0.72120000  1.0 0.368499805
C  C41  1  0.86850000  0.35950000  0.19980000  1.0 0.3582814269
C  C42  1  0.64050000  0.13150000  0.69980000  1.0 0.3582814269
C  C43  1  0.78800000  0.07260000  0.32510000  1.0 0.0497610541
C  C44  1  0.92740000  0.21200000  0.82510000  1.0 0.0497610541
C  C45  1  0.80550000  0.14170000  0.29310000  1.0 -0.1628276903
C  C46  1  0.85830000  0.19450000  0.79310000  1.0 -0.1628276903
C  C47  1  0.89510000  0.22450000  0.28930000  1.0 0.0497610541
C  C48  1  0.77550000  0.10490000  0.78930000  1.0 0.0497610541
C  C49  1  0.96820000  0.23780000  0.31740000  1.0 -0.1509961451
C  C50  1  0.76220000  0.03180000  0.81740000  1.0 -0.1509961451
C  C51  1  0.94520000  0.16520000  0.34830000  1.0 0.0809910975
C  C52  1  0.83480000  0.05480000  0.84830000  1.0 0.0809910975
C  C53  1  0.29350000  0.64190000  0.23840000  1.0 0.0497610541
C  C54  1  0.35810000  0.70650000  0.73840000  1.0 0.0497610541
C  C55  1  0.19950000  0.55290000  0.24350000  1.0 -0.14136381
C  C56  1  0.44710000  0.80050000  0.74350000  1.0 -0.14136381
C  C57  1  0.12760000  0.54080000  0.21800000  1.0 0.0605053757
C  C58  1  0.45920000  0.87240000  0.71800000  1.0 0.0605053757
C  C59  1  0.14830000  0.61790000  0.18650000  1.0 -0.1658330143
C  C60  1  0.38210000  0.85170000  0.68650000  1.0 -0.1658330143
C  C61  1  0.23980000  0.69800000  0.18430000  1.0 0.0497610541
C  C62  1  0.30200000  0.76020000  0.68430000  1.0 0.0497610541
C  C63  1  0.78640000  0.34260000  0.16890000  1.0 0.0497610541
C  C64  1  0.65740000  0.21360000  0.66890000  1.0 0.0497610541
C  C65  1  0.80530000  0.41450000  0.13630000  1.0 -0.1762042523
C  C66  1  0.58550000  0.19470000  0.63630000  1.0 -0.1762042523
C  C67  1  0.72960000  0.39540000  0.10890000  1.0 0.0885930057
C  C68  1  0.60460000  0.27040000  0.60890000  1.0 0.0885930057
C  C69  1  0.62270000  0.24510000  0.14220000  1.0 0.0497610541
C  C70  1  0.75490000  0.37730000  0.64220000  1.0 0.0497610541
C  C71  1  0.69590000  0.25890000  0.17120000  1.0 -0.1628276903
C  C72  1  0.74110000  0.30410000  0.67120000  1.0 -0.1628276903
C  C73  1  0.39690000  0.51970000  0.97220000  1.0 0.099406936
C  C74  1  0.48030000  0.60310000  0.47220000  1.0 0.099406936
C  C75  1  0.37350000  0.43110000  0.97420000  1.0 -0.1509961451
C  C76  1  0.56890000  0.62650000  0.47420000  1.0 -0.1509961451
C  C77  1  0.38670000  0.40930000  0.94030000  1.0 0.0414061107
C  C78  1  0.59070000  0.61330000  0.44030000  1.0 0.0414061107
C  C79  1  0.42450000  0.47890000  0.90430000  1.0 -0.1509961451
C  C80  1  0.52110000  0.57550000  0.40430000  1.0 -0.1509961451
C  C81  1  0.44810000  0.56190000  0.90620000  1.0 0.0336663507
C  C82  1  0.43810000  0.55190000  0.40620000  1.0 0.0336663507
C  C83  1  0.35660000  0.31560000  0.94060000  1.0 0.3582814269
C  C84  1  0.68440000  0.64340000  0.44060000  1.0 0.3582814269
C  C85  1  0.26690000  0.15990000  0.96770000  1.0 0.379794617
C  C86  1  0.84010000  0.73310000  0.46770000  1.0 0.379794617
C  C87  1  0.36170000  0.21690000  0.91580000  1.0 0.379794617
C  C88  1  0.78310000  0.63830000  0.41580000  1.0 0.379794617
C  C89  1  0.19300000  0.07960000  0.99670000  1.0 0.0605053757
C  C90  1  0.92040000  0.80700000  0.49670000  1.0 0.0605053757
C  C91  1  0.14470000  0.09070000  0.01680000  1.0 -0.14136381
C  C92  1  0.90930000  0.85530000  0.51680000  1.0 -0.14136381
C  C93  1  0.08210000  0.02090000  0.04480000  1.0 0.0497610541
C  C94  1  0.97910000  0.91790000  0.54480000  1.0 0.0497610541
C  C95  1  0.10420000  0.92180000  0.03100000  1.0 0.0605053757
C  C96  1  0.07820000  0.89580000  0.53100000  1.0 0.0605053757
C  C97  1  0.17080000  0.99180000  0.00380000  1.0 -0.14136381
C  C98  1  0.00820000  0.82920000  0.50380000  1.0 -0.14136381
C  C99  1  0.44790000  0.12070000  0.87040000  1.0 0.0715914885
C  C100  1  0.87930000  0.55210000  0.37040000  1.0 0.0715914885
C  C101  1  0.40370000  0.12790000  0.89790000  1.0 -0.1333368749
C  C102  1  0.87210000  0.59630000  0.39790000  1.0 -0.1333368749
C  C103  1  0.40530000  0.20370000  0.88810000  1.0 0.0605053757
C  C104  1  0.79630000  0.59470000  0.38810000  1.0 0.0605053757
C  C105  1  0.44960000  0.26900000  0.85310000  1.0 -0.1509961451
C  C106  1  0.73100000  0.55040000  0.35310000  1.0 -0.1509961451
C  C107  1  0.49280000  0.25640000  0.83040000  1.0 0.0414061107
C  C108  1  0.74360000  0.50720000  0.33040000  1.0 0.0414061107
C  C109  1  0.30310000  0.91710000  0.24480000  1.0 0.368499805
C  C110  1  0.08290000  0.69690000  0.74480000  1.0 0.368499805
C  C111  1  0.44960000  0.02480000  0.27880000  1.0 0.368499805
C  C112  1  0.97520000  0.55040000  0.77880000  1.0 0.368499805
C  C113  1  0.35950000  0.86850000  0.30020000  1.0 0.3582814269
C  C114  1  0.13150000  0.64050000  0.80020000  1.0 0.3582814269
C  C115  1  0.07260000  0.78800000  0.17490000  1.0 0.0497610541
C  C116  1  0.21200000  0.92740000  0.67490000  1.0 0.0497610541
C  C117  1  0.14170000  0.80550000  0.20690000  1.0 -0.1628276903
C  C118  1  0.19450000  0.85830000  0.70690000  1.0 -0.1628276903
C  C119  1  0.22450000  0.89510000  0.21070000  1.0 0.0497610541
C  C120  1  0.10490000  0.77550000  0.71070000  1.0 0.0497610541
C  C121  1  0.23780000  0.96820000  0.18260000  1.0 -0.1509961451
C  C122  1  0.03180000  0.76220000  0.68260000  1.0 -0.1509961451
C  C123  1  0.16520000  0.94520000  0.15170000  1.0 0.0809910975
C  C124  1  0.05480000  0.83480000  0.65170000  1.0 0.0809910975
C  C125  1  0.64190000  0.29350000  0.26160000  1.0 0.0497610541
C  C126  1  0.70650000  0.35810000  0.76160000  1.0 0.0497610541
C  C127  1  0.55290000  0.19950000  0.25650000  1.0 -0.14136381
C  C128  1  0.80050000  0.44710000  0.75650000  1.0 -0.14136381
C  C129  1  0.54080000  0.12760000  0.28200000  1.0 0.0605053757
C  C130  1  0.87240000  0.45920000  0.78200000  1.0 0.0497610541
C  C131  1  0.61790000  0.14830000  0.31350000  1.0 -0.1658330143
C  C132  1  0.85170000  0.38210000  0.81350000  1.0 -0.1658330143
C  C133  1  0.69800000  0.23980000  0.31570000  1.0 0.0497610541
C  C134  1  0.76020000  0.30200000  0.81570000  1.0 0.0497610541
C  C135  1  0.34260000  0.78640000  0.33110000  1.0 0.0497610541
C  C136  1  0.21360000  0.65740000  0.83110000  1.0 0.0497610541
C  C137  1  0.41450000  0.80530000  0.36370000  1.0 -0.1762042523
C  C138  1  0.19470000  0.58550000  0.86370000  1.0 -0.1762042523
C  C139  1  0.39540000  0.72960000  0.39110000  1.0 0.0885930057
C  C140  1  0.27040000  0.60460000  0.89110000  1.0 0.0885930057
C  C141  1  0.24510000  0.62270000  0.35780000  1.0 0.0497610541
C  C142  1  0.37730000  0.75490000  0.85780000  1.0 0.0497610541
C  C143  1  0.25890000  0.69590000  0.32880000  1.0 -0.1628276903
C  C144  1  0.30410000  0.74110000  0.82880000  1.0 -0.1628276903
Br  Br1  1  0.71907000  0.42703000  0.49541000  1.0 -0.5412348613
Br  Br2  1  0.57297000  0.28093000  0.99541000  1.0 -0.5412348613
Br  Br3  1  0.84468000  0.62532000  0.59292000  1.0 -0.5412348613
Br  Br4  1  0.37468000  0.15532000  0.09292000  1.0 -0.5412348613
Br  Br5  1  0.88424000  0.90296000  0.37131000  1.0 -0.5346824408
Br  Br6  1  0.09704000  0.11576000  0.87131000  1.0 -0.5346824408
Br  Br7  1  0.66905000  0.88035000  0.42411000  1.0 -0.5510249913
Br  Br8  1  0.11965000  0.33095000  0.92411000  1.0 -0.5510249913
Br  Br9  1  0.43386000  0.96234000  0.15284000  1.0 0.0809910975
Br  Br10  1  0.03766000  0.56614000  0.65284000  1.0 0.0809910975
Br  Br11  1  0.54388000  0.82112000  0.28314000  1.0 0.0809910975
Br  Br12  1  0.17888000  0.45612000  0.78314000  1.0 0.0809910975
Br  Br13  1  0.47538000  0.97304000  0.18093000  1.0 0.0170124597
Br  Br14  1  0.02696000  0.52462000  0.68093000  1.0 0.0170124597
Br  Br15  1  0.54673000  0.87487000  0.26957000  1.0 0.0170124597
Br  Br16  1  0.12513000  0.45327000  0.76957000  1.0 0.0170124597
Br  Br17  1  0.42703000  0.71907000  0.00459000  1.0 -0.5412348613
Br  Br18  1  0.28093000  0.57297000  0.50459000  1.0 -0.5412348613
Br  Br19  1  0.62532000  0.84468000  0.90708000  1.0 -0.5412348613
Br  Br20  1  0.15532000  0.37468000  0.40708000  1.0 -0.5412348613
Br  Br21  1  0.90296000  0.88424000  0.12869000  1.0 -0.5346824408
Br  Br22  1  0.11576000  0.09704000  0.62869000  1.0 -0.5346824408
Br  Br23  1  0.88035000  0.66905000  0.07589000  1.0 -0.5510249913
Br  Br24  1  0.33095000  0.11965000  0.57589000  1.0 -0.5510249913
Br  Br25  1  0.96234000  0.43386000  0.34716000  1.0 0.0809910975
Br  Br26  1  0.56614000  0.03766000  0.84716000  1.0 0.0809910975
Br  Br27  1  0.82112000  0.54388000  0.21686000  1.0 0.0809910975
Br  Br28  1  0.45612000  0.17888000  0.71686000  1.0 0.0809910975
Br  Br29  1  0.97304000  0.47538000  0.31907000  1.0 0.0170124597
Br  Br30  1  0.52462000  0.02696000  0.81907000  1.0 0.0170124597
Br  Br31  1  0.87487000  0.54673000  0.23043000  1.0 0.0170124597
Br  Br32  1  0.45327000  0.12513000  0.73043000  1.0 0.0170124597
N  N1  1  0.58520000  0.43380000  0.56020000  1.0 -0.2150155187
N  N2  1  0.56620000  0.41480000  0.06020000  1.0 -0.2150155187
N  N3  1  0.18330000  0.49250000  0.66210000  1.0 -0.2088045284
N  N4  1  0.50750000  0.81670000  0.16210000  1.0 -0.2088045284
N  N5  1  0.93470000  0.06110000  0.44700000  1.0 -0.2088045284
N  N6  1  0.93890000  0.06530000  0.94700000  1.0 -0.2088045284
N  N7  1  0.14200000  0.30080000  0.55710000  1.0 -0.3918603813
N  N8  1  0.69920000  0.85800000  0.05710000  1.0 -0.3918603813
N  N9  1  0.30420000  0.38980000  0.58710000  1.0 -0.3918603813
N  N10  1  0.61020000  0.69580000  0.08710000  1.0 -0.3918603813
N  N11  1  0.24460000  0.29380000  0.53130000  1.0 -0.3918603813
N  N12  1  0.70620000  0.75540000  0.03130000  1.0 -0.3918603813
N  N13  1  0.85760000  0.08300000  0.35370000  1.0 -0.1917376176
N  N14  1  0.91700000  0.14240000  0.85370000  1.0 -0.1917376176
N  N15  1  0.31400000  0.71100000  0.20820000  1.0 -0.1917376176
N  N16  1  0.28900000  0.68600000  0.70820000  1.0 -0.1917376176
N  N17  1  0.63990000  0.31330000  0.10970000  1.0 -0.196848172
N  N18  1  0.68670000  0.36010000  0.60970000  1.0 -0.196848172
N  N19  1  0.84450000  0.28970000  0.23060000  1.0 -0.4020070315
N  N20  1  0.71030000  0.15550000  0.73060000  1.0 -0.4020070315
N  N21  1  0.01110000  0.38250000  0.25250000  1.0 -0.4409207285
N  N22  1  0.61750000  0.98890000  0.75250000  1.0 -0.4409207285
N  N23  1  0.95810000  0.44210000  0.19380000  1.0 -0.4177778841
N  N24  1  0.55790000  0.04190000  0.69380000  1.0 -0.4177778841
N  N25  1  0.43380000  0.58520000  0.93980000  1.0 -0.2150155187
N  N26  1  0.41480000  0.56620000  0.43980000  1.0 -0.2150155187
N  N27  1  0.49250000  0.18330000  0.83790000  1.0 -0.2088045284
N  N28  1  0.81670000  0.50750000  0.33790000  1.0 -0.2088045284
N  N29  1  0.06110000  0.93470000  0.05300000  1.0 -0.2088045284
N  N30  1  0.06530000  0.93890000  0.55300000  1.0 -0.2088045284
N  N31  1  0.30080000  0.14200000  0.94290000  1.0 -0.3918603813
N  N32  1  0.85800000  0.69920000  0.44290000  1.0 -0.3918603813
N  N33  1  0.38980000  0.30420000  0.91290000  1.0 -0.3918603813
N  N34  1  0.69580000  0.61020000  0.41290000  1.0 -0.3918603813
N  N35  1  0.29380000  0.24460000  0.96870000  1.0 -0.3918603813
N  N36  1  0.75540000  0.70620000  0.46870000  1.0 -0.3918603813
N  N37  1  0.08300000  0.85760000  0.14630000  1.0 -0.1917376176
N  N38  1  0.14240000  0.91700000  0.64630000  1.0 -0.1917376176
N  N39  1  0.71100000  0.31400000  0.29180000  1.0 -0.1917376176
N  N40  1  0.68600000  0.28900000  0.79180000  1.0 -0.1917376176
N  N41  1  0.31330000  0.63990000  0.39030000  1.0 -0.196848172
N  N42  1  0.36010000  0.68670000  0.89030000  1.0 -0.196848172
N  N43  1  0.28970000  0.84450000  0.26940000  1.0 -0.4020070315
N  N44  1  0.15550000  0.71030000  0.76940000  1.0 -0.4020070315
N  N45  1  0.38250000  0.01110000  0.24750000  1.0 -0.4409207285
N  N46  1  0.98890000  0.61750000  0.74750000  1.0 -0.4409207285
N  N47  1  0.44210000  0.95810000  0.30620000  1.0 -0.4177778841
N  N48  1  0.04190000  0.55790000  0.80620000  1.0 -0.4177778841
