# DDEC6 charges by PACMAN v1.1 (https://github.com/mtap-research/PACMAN-charge/)
data_IYOFIN_FSR_pacman
_symmetry_space_group_name_H-M   'P 1'
_cell_length_a   6.47600000
_cell_length_b   9.73200000
_cell_length_c   22.53300000
_cell_angle_alpha   79.79400000
_cell_angle_beta   83.86800000
_cell_angle_gamma   82.55600000
_symmetry_Int_Tables_number   1
_chemical_formula_structural   NiH33C28(NO2)4
_chemical_formula_sum   'Ni2 H66 C56 N8 O16'
_cell_volume   1380.75253373
_cell_formula_units_Z   2
loop_
 _symmetry_equiv_pos_site_id
 _symmetry_equiv_pos_as_xyz
  1  'x, y, z'
loop_
 _atom_site_type_symbol
 _atom_site_label
 _atom_site_symmetry_multiplicity
 _atom_site_fract_x
 _atom_site_fract_y
 _atom_site_fract_z
 _atom_site_occupancy
 _atom_site_charge
Ni  Ni1  1  0.34738000  0.85032000  0.68743000  1.0 0.7893753148
Ni  Ni2  1  0.65262000  0.14968000  0.31257000  1.0 0.7893753148
H  H1  1  0.08680000  0.98030000  0.61290000  1.0 0.3701146341
H  H2  1  0.04790000  0.83580000  0.62610000  1.0 0.3701146341
H  H3  1  0.46890000  0.66560000  0.62200000  1.0 0.3701146341
H  H4  1  0.55570000  0.61520000  0.67830000  1.0 0.3606301642
H  H5  1  0.29990000  0.45000000  0.79010000  1.0 0.1005283741
H  H6  1  0.12200000  0.52500000  0.83260000  1.0 0.1103255377
H  H7  1  0.95550000  0.38940000  0.68240000  1.0 0.1005283741
H  H8  1  0.19620000  0.36660000  0.69620000  1.0 0.1005283741
H  H9  1  0.14170000  0.10050000  0.82960000  1.0 0.1005283741
H  H10  1  0.31130000  0.18940000  0.78800000  1.0 0.1005283741
H  H11  1  0.67310000  0.56630000  0.77650000  1.0 0.1005283741
H  H12  1  0.21110000  0.28670000  0.87800000  1.0 0.07123315
H  H13  1  0.86180000  0.38510000  0.89810000  1.0 0.1103255377
H  H14  1  0.86820000  0.22010000  0.89730000  1.0 0.0934844139
H  H15  1  0.59520000  0.34580000  0.83850000  1.0 0.07123315
H  H16  1  0.69570000  0.25340000  0.74720000  1.0 0.1005283741
H  H17  1  0.76360000  0.13940000  0.80430000  1.0 0.0934844139
H  H18  1  0.62550000  0.88930000  0.56840000  1.0 0.1103255377
H  H19  1  0.46990000  0.15290000  0.68370000  1.0 0.1005283741
H  H20  1  0.56310000  0.34070000  0.61130000  1.0 0.1412479825
H  H21  1  0.73510000  0.06780000  0.49410000  1.0 0.1306321419
H  H22  1  0.16560000  0.32040000  0.50830000  1.0 0.1169059653
H  H23  1  0.99480000  0.28160000  0.56370000  1.0 0.1103255377
H  H24  1  0.79930000  0.54870000  0.41670000  1.0 0.1103255377
H  H25  1  0.04220000  0.48960000  0.41550000  1.0 0.1169059653
H  H26  1  0.27960000  0.74520000  0.81760000  1.0 0.1169059653
H  H27  1  0.40740000  0.75460000  0.90900000  1.0 0.1469585545
H  H28  1  0.93690000  0.88670000  0.81500000  1.0 0.1412479825
H  H29  1  0.78420000  0.88400000  0.72630000  1.0 0.1103255377
H  H30  1  0.75860000  0.05880000  0.01670000  1.0 0.1169059653
H  H31  1  0.82620000  0.89270000  0.03170000  1.0 0.1169059653
H  H32  1  0.44760000  0.03340000  0.89740000  1.0 0.1103255377
H  H33  1  0.51620000  0.14750000  0.93240000  1.0 0.1169059653
H  H34  1  0.91320000  0.01970000  0.38710000  1.0 0.3701146341
H  H35  1  0.95210000  0.16420000  0.37390000  1.0 0.3701146341
H  H36  1  0.53110000  0.33440000  0.37800000  1.0 0.3701146341
H  H37  1  0.44430000  0.38480000  0.32170000  1.0 0.3606301642
H  H38  1  0.70010000  0.55000000  0.20990000  1.0 0.1005283741
H  H39  1  0.87800000  0.47500000  0.16740000  1.0 0.1103255377
H  H40  1  0.04450000  0.61060000  0.31760000  1.0 0.1005283741
H  H41  1  0.80380000  0.63340000  0.30380000  1.0 0.1005283741
H  H42  1  0.85830000  0.89950000  0.17040000  1.0 0.1005283741
H  H43  1  0.68870000  0.81060000  0.21200000  1.0 0.1005283741
H  H44  1  0.32690000  0.43370000  0.22350000  1.0 0.1005283741
H  H45  1  0.78890000  0.71330000  0.12200000  1.0 0.07123315
H  H46  1  0.13820000  0.61490000  0.10190000  1.0 0.1103255377
H  H47  1  0.13180000  0.77990000  0.10270000  1.0 0.0934844139
H  H48  1  0.40480000  0.65420000  0.16150000  1.0 0.07123315
H  H49  1  0.30430000  0.74660000  0.25280000  1.0 0.1005283741
H  H50  1  0.23640000  0.86060000  0.19570000  1.0 0.0934844139
H  H51  1  0.37450000  0.11070000  0.43160000  1.0 0.1103255377
H  H52  1  0.53010000  0.84710000  0.31630000  1.0 0.1005283741
H  H53  1  0.43690000  0.65930000  0.38870000  1.0 0.1412479825
H  H54  1  0.26490000  0.93220000  0.50590000  1.0 0.1306321419
H  H55  1  0.83440000  0.67960000  0.49170000  1.0 0.1169059653
H  H56  1  0.00520000  0.71840000  0.43630000  1.0 0.1103255377
H  H57  1  0.20070000  0.45130000  0.58330000  1.0 0.1103255377
H  H58  1  0.95780000  0.51040000  0.58450000  1.0 0.1169059653
H  H59  1  0.72040000  0.25480000  0.18240000  1.0 0.1169059653
H  H60  1  0.59260000  0.24540000  0.09100000  1.0 0.1469585545
H  H61  1  0.06310000  0.11330000  0.18500000  1.0 0.1412479825
H  H62  1  0.21580000  0.11600000  0.27370000  1.0 0.1103255377
H  H63  1  0.24140000  0.94120000  0.98330000  1.0 0.1169059653
H  H64  1  0.17380000  0.10730000  0.96830000  1.0 0.1169059653
H  H65  1  0.55240000  0.96660000  0.10260000  1.0 0.1103255377
H  H66  1  0.48380000  0.85250000  0.06760000  1.0 0.1169059653
C  C1  1  0.15200000  0.45130000  0.80670000  1.0 -0.2596571001
C  C2  1  0.00850000  0.48510000  0.75450000  1.0 0.07123315
C  C3  1  0.05090000  0.36860000  0.71520000  1.0 -0.268888434
C  C4  1  0.01890000  0.22470000  0.75300000  1.0 0.07123315
C  C5  1  0.16350000  0.19300000  0.80490000  1.0 -0.2596571001
C  C6  1  0.77700000  0.48800000  0.78240000  1.0 -0.2788919114
C  C7  1  0.11570000  0.30790000  0.84460000  1.0 0.0638571404
C  C8  1  0.89120000  0.31180000  0.87200000  1.0 -0.2500461244
C  C9  1  0.74350000  0.34430000  0.82060000  1.0 0.0638571404
C  C10  1  0.79010000  0.23180000  0.78030000  1.0 -0.2596571001
C  C11  1  0.06040000  0.11240000  0.71150000  1.0 0.5369287528
C  C12  1  0.04280000  0.62640000  0.71480000  1.0 0.5458717741
C  C13  1  0.61080000  0.98230000  0.57710000  1.0 0.0825377687
C  C14  1  0.51850000  0.13610000  0.64410000  1.0 0.0934844139
C  C15  1  0.57610000  0.24890000  0.60130000  1.0 -0.1613986284
C  C16  1  0.65240000  0.22530000  0.54400000  1.0 0.046999453
C  C17  1  0.67550000  0.08830000  0.53230000  1.0 -0.1801415213
C  C18  1  0.69360000  0.34320000  0.49300000  1.0 0.4153629638
C  C19  1  0.03730000  0.35750000  0.53100000  1.0 -0.1216403298
C  C20  1  0.91870000  0.51990000  0.44190000  1.0 -0.1043538243
C  C21  1  0.41160000  0.77810000  0.81740000  1.0 0.0825377687
C  C22  1  0.48690000  0.78310000  0.87200000  1.0 -0.1801415213
C  C23  1  0.68280000  0.83070000  0.87200000  1.0 0.0345829598
C  C24  1  0.79880000  0.86240000  0.81680000  1.0 -0.1613986284
C  C25  1  0.70730000  0.85760000  0.76410000  1.0 0.1005283741
C  C26  1  0.76620000  0.84970000  0.92920000  1.0 0.3967472262
C  C27  1  0.71130000  0.96530000  0.01840000  1.0 -0.110626578
C  C28  1  0.47930000  0.05030000  0.93740000  1.0 -0.1332507112
C  C29  1  0.84800000  0.54870000  0.19330000  1.0 -0.2596571001
C  C30  1  0.99150000  0.51490000  0.24550000  1.0 0.07123315
C  C31  1  0.94910000  0.63140000  0.28480000  1.0 -0.268888434
C  C32  1  0.98110000  0.77530000  0.24700000  1.0 0.07123315
C  C33  1  0.83650000  0.80700000  0.19510000  1.0 -0.2596571001
C  C34  1  0.22300000  0.51200000  0.21760000  1.0 -0.2788919114
C  C35  1  0.88430000  0.69210000  0.15540000  1.0 0.0638571404
C  C36  1  0.10880000  0.68820000  0.12800000  1.0 -0.2500461244
C  C37  1  0.25650000  0.65570000  0.17940000  1.0 0.0638571404
C  C38  1  0.20990000  0.76820000  0.21970000  1.0 -0.2596571001
C  C39  1  0.93960000  0.88760000  0.28850000  1.0 0.5369287528
C  C40  1  0.95720000  0.37360000  0.28520000  1.0 0.5458717741
C  C41  1  0.38920000  0.01770000  0.42290000  1.0 0.0825377687
C  C42  1  0.48150000  0.86390000  0.35590000  1.0 0.0934844139
C  C43  1  0.42390000  0.75110000  0.39870000  1.0 -0.1613986284
C  C44  1  0.34760000  0.77470000  0.45600000  1.0 0.046999453
C  C45  1  0.32450000  0.91170000  0.46770000  1.0 -0.1801415213
C  C46  1  0.30640000  0.65680000  0.50700000  1.0 0.4153629638
C  C47  1  0.96270000  0.64250000  0.46900000  1.0 -0.1216403298
C  C48  1  0.08130000  0.48010000  0.55810000  1.0 -0.1043538243
C  C49  1  0.58840000  0.22190000  0.18260000  1.0 0.0825377687
C  C50  1  0.51310000  0.21690000  0.12800000  1.0 -0.1801415213
C  C51  1  0.31720000  0.16930000  0.12800000  1.0 0.0345829598
C  C52  1  0.20120000  0.13760000  0.18320000  1.0 -0.1613986284
C  C53  1  0.29270000  0.14240000  0.23590000  1.0 0.1005283741
C  C54  1  0.23380000  0.15030000  0.07080000  1.0 0.3967472262
C  C55  1  0.28870000  0.03470000  0.98160000  1.0 -0.110626578
C  C56  1  0.52070000  0.94970000  0.06260000  1.0 -0.1332507112
N  N1  1  0.52760000  0.00470000  0.63270000  1.0 -0.2500461244
N  N2  1  0.86960000  0.40140000  0.49010000  1.0 -0.0778935828
N  N3  1  0.51930000  0.81850000  0.76360000  1.0 -0.2384208866
N  N4  1  0.65950000  0.95010000  0.95850000  1.0 -0.110626578
N  N5  1  0.47240000  0.99530000  0.36730000  1.0 -0.2500461244
N  N6  1  0.13040000  0.59860000  0.50990000  1.0 -0.0778935828
N  N7  1  0.48070000  0.18150000  0.23640000  1.0 -0.2384208866
N  N8  1  0.34050000  0.04990000  0.04150000  1.0 -0.110626578
O  O1  1  0.98780000  0.13300000  0.66160000  1.0 -0.5421535276
O  O2  1  0.17720000  0.99910000  0.73210000  1.0 -0.5972462796
O  O3  1  0.94520000  0.66700000  0.66800000  1.0 -0.5494369172
O  O4  1  0.17090000  0.69640000  0.73150000  1.0 -0.5702634954
O  O5  1  0.56040000  0.38160000  0.45600000  1.0 -0.5004465483
O  O6  1  0.14770000  0.89220000  0.61750000  1.0 -0.7020187281
O  O7  1  0.53300000  0.68880000  0.65030000  1.0 -0.6762769126
O  O8  1  0.92350000  0.77790000  0.94750000  1.0 -0.4889956616
O  O9  1  0.01220000  0.86700000  0.33840000  1.0 -0.5421535276
O  O10  1  0.82280000  0.00090000  0.26790000  1.0 -0.5972462796
O  O11  1  0.05480000  0.33300000  0.33200000  1.0 -0.5494369172
O  O12  1  0.82910000  0.30360000  0.26850000  1.0 -0.5702634954
O  O13  1  0.43960000  0.61840000  0.54400000  1.0 -0.5004465483
O  O14  1  0.85230000  0.10780000  0.38250000  1.0 -0.7020187281
O  O15  1  0.46700000  0.31120000  0.34970000  1.0 -0.6762769126
O  O16  1  0.07650000  0.22210000  0.05250000  1.0 -0.4889956616
