# DDEC6 charges by PACMAN v1.1 (https://github.com/mtap-research/PACMAN-charge/)
data_IYOVEY_FSR_pacman
_symmetry_space_group_name_H-M   'P 1'
_cell_length_a   12.01130000
_cell_length_b   12.29660000
_cell_length_c   16.38900000
_cell_angle_alpha   90.00000000
_cell_angle_beta   90.00000000
_cell_angle_gamma   90.00000000
_symmetry_Int_Tables_number   1
_chemical_formula_structural   Nd3H8C24S4Br2Cl3O16
_chemical_formula_sum   'Nd6 H16 C48 S8 Br4 Cl6 O32'
_cell_volume   2420.62500624
_cell_formula_units_Z   2
loop_
 _symmetry_equiv_pos_site_id
 _symmetry_equiv_pos_as_xyz
  1  'x, y, z'
loop_
 _atom_site_type_symbol
 _atom_site_label
 _atom_site_symmetry_multiplicity
 _atom_site_fract_x
 _atom_site_fract_y
 _atom_site_fract_z
 _atom_site_occupancy
 _atom_site_charge
Nd  Nd1  1  0.50000000  0.80412000  0.00000000  1.0 2.0846011017
Nd  Nd2  1  0.00000000  0.19588000  0.50000000  1.0 2.0846011017
Nd  Nd3  1  0.16173000  0.71895000  0.97015000  1.0 2.0417028639
Nd  Nd4  1  0.83827000  0.71895000  0.02985000  1.0 2.0417028639
Nd  Nd5  1  0.66173000  0.28105000  0.52985000  1.0 2.0417028639
Nd  Nd6  1  0.33827000  0.28105000  0.47015000  1.0 2.0417028639
H  H1  1  0.28720000  0.45350000  0.66600000  1.0 0.1680020142
H  H2  1  0.71280000  0.45350000  0.33400000  1.0 0.1680020142
H  H3  1  0.78720000  0.54650000  0.83400000  1.0 0.1680020142
H  H4  1  0.21280000  0.54650000  0.16600000  1.0 0.1680020142
H  H5  1  0.96500000  0.93100000  0.68990000  1.0 0.1622104768
H  H6  1  0.03500000  0.93100000  0.31010000  1.0 0.1622104768
H  H7  1  0.46500000  0.06900000  0.81010000  1.0 0.1622104768
H  H8  1  0.53500000  0.06900000  0.18990000  1.0 0.1622104768
H  H9  1  0.25180000  0.58270000  0.77830000  1.0 0.1622104768
H  H10  1  0.74820000  0.58270000  0.22170000  1.0 0.1622104768
H  H11  1  0.75180000  0.41730000  0.72170000  1.0 0.1622104768
H  H12  1  0.24820000  0.41730000  0.27830000  1.0 0.1622104768
H  H13  1  0.91040000  0.83860000  0.81660000  1.0 0.1680020142
H  H14  1  0.08960000  0.83860000  0.18340000  1.0 0.1680020142
H  H15  1  0.41040000  0.16140000  0.68340000  1.0 0.1680020142
H  H16  1  0.58960000  0.16140000  0.31660000  1.0 0.1680020142
C  C1  1  0.50260000  0.35820000  0.65063000  1.0 0.6466537688
C  C2  1  0.49740000  0.35820000  0.34937000  1.0 0.6466537688
C  C3  1  0.00260000  0.64180000  0.84937000  1.0 0.6394282554
C  C4  1  0.99740000  0.64180000  0.15063000  1.0 0.6466537688
C  C5  1  0.68400000  0.84860000  0.87072000  1.0 0.6614628855
C  C6  1  0.31600000  0.84860000  0.12928000  1.0 0.6614628855
C  C7  1  0.18400000  0.15140000  0.62928000  1.0 0.6614628855
C  C8  1  0.81600000  0.15140000  0.37072000  1.0 0.6614628855
C  C9  1  0.44550000  0.43000000  0.70877000  1.0 -0.0767554816
C  C10  1  0.55450000  0.43000000  0.29123000  1.0 -0.0767554816
C  C11  1  0.94550000  0.57000000  0.79123000  1.0 -0.0737647135
C  C12  1  0.05450000  0.57000000  0.20877000  1.0 -0.0737647135
C  C13  1  0.41030000  0.55910000  0.81949000  1.0 -0.0513383027
C  C14  1  0.58970000  0.55910000  0.18051000  1.0 -0.0513383027
C  C15  1  0.91030000  0.44090000  0.68051000  1.0 -0.0513383027
C  C16  1  0.08970000  0.44090000  0.31949000  1.0 -0.0513383027
C  C17  1  0.42980000  0.63500000  0.88749000  1.0 0.6394282554
C  C18  1  0.57020000  0.63500000  0.11251000  1.0 0.6394282554
C  C19  1  0.92980000  0.36500000  0.61251000  1.0 0.6394282554
C  C20  1  0.07020000  0.36500000  0.38749000  1.0 0.6394282554
C  C21  1  0.34080000  0.47200000  0.70630000  1.0 -0.0513383027
C  C22  1  0.65920000  0.47200000  0.29370000  1.0 -0.0513383027
C  C23  1  0.84080000  0.52800000  0.79370000  1.0 -0.0513383027
C  C24  1  0.15920000  0.52800000  0.20630000  1.0 -0.0513383027
C  C25  1  0.75080000  0.89190000  0.80291000  1.0 -0.085140216
C  C26  1  0.24920000  0.89190000  0.19709000  1.0 -0.085140216
C  C27  1  0.25080000  0.10810000  0.69709000  1.0 -0.085140216
C  C28  1  0.74920000  0.10810000  0.30291000  1.0 -0.085140216
C  C29  1  0.80340000  0.05870000  0.60267000  1.0 0.6781977836
C  C30  1  0.19660000  0.05870000  0.39733000  1.0 0.6781977836
C  C31  1  0.30340000  0.94130000  0.89733000  1.0 0.6781977836
C  C32  1  0.69660000  0.94130000  0.10267000  1.0 0.6781977836
C  C33  1  0.89170000  0.93290000  0.71170000  1.0 -0.0767554816
C  C34  1  0.10830000  0.93290000  0.28830000  1.0 -0.0767554816
C  C35  1  0.39170000  0.06710000  0.78830000  1.0 -0.0767554816
C  C36  1  0.60830000  0.06710000  0.21170000  1.0 -0.0767554816
C  C37  1  0.80550000  0.98790000  0.67614000  1.0 -0.0737647135
C  C38  1  0.19450000  0.98790000  0.32386000  1.0 -0.0737647135
C  C39  1  0.30550000  0.01210000  0.82386000  1.0 -0.0737647135
C  C40  1  0.69450000  0.01210000  0.17614000  1.0 -0.0737647135
C  C41  1  0.32060000  0.54610000  0.77046000  1.0 -0.0644014858
C  C42  1  0.67940000  0.54610000  0.22954000  1.0 -0.0644014858
C  C43  1  0.82060000  0.45390000  0.72954000  1.0 -0.0644014858
C  C44  1  0.17940000  0.45390000  0.27046000  1.0 -0.0644014858
C  C45  1  0.86010000  0.87940000  0.78410000  1.0 -0.0737647135
C  C46  1  0.13990000  0.87940000  0.21590000  1.0 -0.0737647135
C  C47  1  0.36010000  0.12060000  0.71590000  1.0 -0.0737647135
C  C48  1  0.63990000  0.12060000  0.28410000  1.0 -0.0737647135
S  S1  1  0.52046000  0.47973000  0.78958000  1.0 0.2463791717
S  S2  1  0.47954000  0.47973000  0.21042000  1.0 0.2463791717
S  S3  1  0.02046000  0.52027000  0.71042000  1.0 0.2463791717
S  S4  1  0.97954000  0.52027000  0.28958000  1.0 0.2463791717
S  S5  1  0.68505000  0.97495000  0.73239000  1.0 0.2295207727
S  S6  1  0.31495000  0.97495000  0.26761000  1.0 0.2295207727
S  S7  1  0.18505000  0.02505000  0.76761000  1.0 0.2295207727
S  S8  1  0.81495000  0.02505000  0.23239000  1.0 0.2295207727
Br  Br1  1  0.20020000  0.49078000  0.97877000  1.0 -0.5469639625
Br  Br2  1  0.79980000  0.49078000  0.02123000  1.0 -0.5469639625
Br  Br3  1  0.70020000  0.50922000  0.52123000  1.0 -0.5469639625
Br  Br4  1  0.29980000  0.50922000  0.47877000  1.0 -0.5469639625
Cl  Cl1  1  0.20040000  0.49240000  0.98020000  1.0 -0.612893137
Cl  Cl2  1  0.79960000  0.49240000  0.01980000  1.0 -0.612893137
Cl  Cl3  1  0.70040000  0.50760000  0.51980000  1.0 -0.612893137
Cl  Cl4  1  0.29960000  0.50760000  0.48020000  1.0 -0.612893137
Cl  Cl5  1  0.00000000  0.88252000  0.00000000  1.0 -0.6387042727
Cl  Cl6  1  0.50000000  0.11748000  0.50000000  1.0 -0.6387042727
O  O1  1  0.35390000  0.69802000  0.91364000  1.0 -0.6602156784
O  O2  1  0.64610000  0.69802000  0.08636000  1.0 -0.6602156784
O  O3  1  0.85390000  0.30198000  0.58636000  1.0 -0.6602156784
O  O4  1  0.14610000  0.30198000  0.41364000  1.0 -0.6602156784
O  O5  1  0.72878000  0.78922000  0.92372000  1.0 -0.6522118624
O  O6  1  0.27122000  0.78922000  0.07628000  1.0 -0.6522118624
O  O7  1  0.22878000  0.21078000  0.57628000  1.0 -0.6522118624
O  O8  1  0.77122000  0.21078000  0.42372000  1.0 -0.6522118624
O  O9  1  0.59859000  0.32164000  0.66953000  1.0 -0.5585400786
O  O10  1  0.40141000  0.32164000  0.33047000  1.0 -0.5585400786
O  O11  1  0.09859000  0.67836000  0.83047000  1.0 -0.5585400786
O  O12  1  0.90141000  0.67836000  0.16953000  1.0 -0.5585400786
O  O13  1  0.46058000  0.33890000  0.58177000  1.0 -0.6522118624
O  O14  1  0.53942000  0.33890000  0.41823000  1.0 -0.6522118624
O  O15  1  0.96058000  0.66110000  0.91823000  1.0 -0.6522118624
O  O16  1  0.03942000  0.66110000  0.08177000  1.0 -0.6522118624
O  O17  1  0.52686000  0.64057000  0.91532000  1.0 -0.5324623611
O  O18  1  0.47314000  0.64057000  0.08468000  1.0 -0.5324623611
O  O19  1  0.02686000  0.35943000  0.58468000  1.0 -0.5324623611
O  O20  1  0.97314000  0.35943000  0.41532000  1.0 -0.5324623611
O  O21  1  0.58251000  0.87340000  0.87273000  1.0 -0.5679235038
O  O22  1  0.41749000  0.87340000  0.12727000  1.0 -0.5679235038
O  O23  1  0.08251000  0.12660000  0.62727000  1.0 -0.5679235038
O  O24  1  0.91749000  0.12660000  0.37273000  1.0 -0.5679235038
O  O25  1  0.88528000  0.05348000  0.55468000  1.0 -0.5925911691
O  O26  1  0.11472000  0.05348000  0.44532000  1.0 -0.5925911691
O  O27  1  0.38528000  0.94652000  0.94532000  1.0 -0.5925911691
O  O28  1  0.61472000  0.94652000  0.05468000  1.0 -0.5925911691
O  O29  1  0.71960000  0.11775000  0.59481000  1.0 -0.5971355911
O  O30  1  0.28040000  0.11775000  0.40519000  1.0 -0.5971355911
O  O31  1  0.21960000  0.88225000  0.90519000  1.0 -0.5971355911
O  O32  1  0.78040000  0.88225000  0.09481000  1.0 -0.5971355911
