# DDEC6 charges by PACMAN v1.1 (https://github.com/mtap-research/PACMAN-charge/)
data_IYOVIC_FSR_pacman
_symmetry_space_group_name_H-M   'P 1'
_cell_length_a   11.93140000
_cell_length_b   12.20990000
_cell_length_c   16.28500000
_cell_angle_alpha   90.00000000
_cell_angle_beta   90.00000000
_cell_angle_gamma   90.00000000
_symmetry_Int_Tables_number   1
_chemical_formula_structural   Eu3H8C24S4Br2Cl3O16
_chemical_formula_sum   'Eu6 H16 C48 S8 Br4 Cl6 O32'
_cell_volume   2372.41835601
_cell_formula_units_Z   2
loop_
 _symmetry_equiv_pos_site_id
 _symmetry_equiv_pos_as_xyz
  1  'x, y, z'
loop_
 _atom_site_type_symbol
 _atom_site_label
 _atom_site_symmetry_multiplicity
 _atom_site_fract_x
 _atom_site_fract_y
 _atom_site_fract_z
 _atom_site_occupancy
 _atom_site_charge
Eu  Eu1  1  0.50000000  0.80273000  0.00000000  1.0 2.0365308254
Eu  Eu2  1  0.00000000  0.19727000  0.50000000  1.0 2.0365308254
Eu  Eu3  1  0.16060000  0.71784000  0.97045000  1.0 1.8618927925
Eu  Eu4  1  0.83940000  0.71784000  0.02955000  1.0 1.8618927925
Eu  Eu5  1  0.66060000  0.28216000  0.52955000  1.0 1.8618927925
Eu  Eu6  1  0.33940000  0.28216000  0.47045000  1.0 1.8618927925
H  H1  1  0.28540000  0.45350000  0.66580000  1.0 0.1196993805
H  H2  1  0.71460000  0.45350000  0.33420000  1.0 0.1196993805
H  H3  1  0.78540000  0.54650000  0.83420000  1.0 0.1196993805
H  H4  1  0.21460000  0.54650000  0.16580000  1.0 0.1196993805
H  H5  1  0.96740000  0.93400000  0.68840000  1.0 0.1297483399
H  H6  1  0.03260000  0.93400000  0.31160000  1.0 0.1297483399
H  H7  1  0.46740000  0.06600000  0.81160000  1.0 0.1297483399
H  H8  1  0.53260000  0.06600000  0.18840000  1.0 0.1297483399
H  H9  1  0.25090000  0.58330000  0.77910000  1.0 0.1297483399
H  H10  1  0.74910000  0.58330000  0.22090000  1.0 0.1297483399
H  H11  1  0.75090000  0.41670000  0.72090000  1.0 0.1297483399
H  H12  1  0.24910000  0.41670000  0.27910000  1.0 0.1297483399
H  H13  1  0.91310000  0.83920000  0.81620000  1.0 0.1386920243
H  H14  1  0.08690000  0.83920000  0.18380000  1.0 0.1386920243
H  H15  1  0.41310000  0.16080000  0.68380000  1.0 0.1386920243
H  H16  1  0.58690000  0.16080000  0.31620000  1.0 0.1386920243
C  C1  1  0.50300000  0.35830000  0.65090000  1.0 0.5991556226
C  C2  1  0.49700000  0.35830000  0.34910000  1.0 0.5991556226
C  C3  1  0.00300000  0.64170000  0.84910000  1.0 0.5991556226
C  C4  1  0.99700000  0.64170000  0.15090000  1.0 0.5991556226
C  C5  1  0.68870000  0.84660000  0.87240000  1.0 0.6460443466
C  C6  1  0.31130000  0.84660000  0.12760000  1.0 0.6460443466
C  C7  1  0.18870000  0.15340000  0.62760000  1.0 0.6460443466
C  C8  1  0.81130000  0.15340000  0.37240000  1.0 0.6460443466
C  C9  1  0.44480000  0.42840000  0.70900000  1.0 -0.1309810028
C  C10  1  0.55520000  0.42840000  0.29100000  1.0 -0.1309810028
C  C11  1  0.94480000  0.57160000  0.79100000  1.0 -0.1309810028
C  C12  1  0.05520000  0.57160000  0.20900000  1.0 -0.1309810028
C  C13  1  0.40970000  0.55710000  0.82000000  1.0 -0.1094644737
C  C14  1  0.59030000  0.55710000  0.18000000  1.0 -0.1094644737
C  C15  1  0.90970000  0.44290000  0.68000000  1.0 -0.1094644737
C  C16  1  0.09030000  0.44290000  0.32000000  1.0 -0.1094644737
C  C17  1  0.42960000  0.63470000  0.88820000  1.0 0.5991556226
C  C18  1  0.57040000  0.63470000  0.11180000  1.0 0.5991556226
C  C19  1  0.92960000  0.36530000  0.61180000  1.0 0.5991556226
C  C20  1  0.07040000  0.36530000  0.38820000  1.0 0.5991556226
C  C21  1  0.33940000  0.47150000  0.70650000  1.0 -0.1094644737
C  C22  1  0.66060000  0.47150000  0.29350000  1.0 -0.1094644737
C  C23  1  0.83940000  0.52850000  0.79350000  1.0 -0.1094644737
C  C24  1  0.16060000  0.52850000  0.20650000  1.0 -0.1094644737
C  C25  1  0.75300000  0.89150000  0.80210000  1.0 -0.1094644737
C  C26  1  0.24700000  0.89150000  0.19790000  1.0 -0.1094644737
C  C27  1  0.25300000  0.10850000  0.69790000  1.0 -0.1094644737
C  C28  1  0.74700000  0.10850000  0.30210000  1.0 -0.1094644737
C  C29  1  0.80410000  0.06350000  0.60330000  1.0 0.6427802174
C  C30  1  0.19590000  0.06350000  0.39670000  1.0 0.6427802174
C  C31  1  0.30410000  0.93650000  0.89670000  1.0 0.6427802174
C  C32  1  0.69590000  0.93650000  0.10330000  1.0 0.6427802174
C  C33  1  0.89390000  0.93540000  0.71080000  1.0 -0.1094644737
C  C34  1  0.10610000  0.93540000  0.28920000  1.0 -0.1094644737
C  C35  1  0.39390000  0.06460000  0.78920000  1.0 -0.1094644737
C  C36  1  0.60610000  0.06460000  0.21080000  1.0 -0.1094644737
C  C37  1  0.80520000  0.99150000  0.67620000  1.0 -0.11914358
C  C38  1  0.19480000  0.99150000  0.32380000  1.0 -0.11914358
C  C39  1  0.30520000  0.00850000  0.82380000  1.0 -0.11914358
C  C40  1  0.69480000  0.00850000  0.17620000  1.0 -0.11914358
C  C41  1  0.31970000  0.54570000  0.77100000  1.0 -0.1309810028
C  C42  1  0.68030000  0.54570000  0.22900000  1.0 -0.1309810028
C  C43  1  0.81970000  0.45430000  0.72900000  1.0 -0.1309810028
C  C44  1  0.18030000  0.45430000  0.27100000  1.0 -0.1309810028
C  C45  1  0.86220000  0.88020000  0.78350000  1.0 -0.1094644737
C  C46  1  0.13780000  0.88020000  0.21650000  1.0 -0.1094644737
C  C47  1  0.36220000  0.11980000  0.71650000  1.0 -0.1094644737
C  C48  1  0.63780000  0.11980000  0.28350000  1.0 -0.1094644737
S  S1  1  0.52080000  0.47910000  0.79013000  1.0 0.1976502194
S  S2  1  0.47920000  0.47910000  0.20987000  1.0 0.1976502194
S  S3  1  0.02080000  0.52090000  0.70987000  1.0 0.1976502194
S  S4  1  0.97920000  0.52090000  0.29013000  1.0 0.1976502194
S  S5  1  0.68540000  0.97640000  0.73328000  1.0 0.1976502194
S  S6  1  0.31460000  0.97640000  0.26672000  1.0 0.1976502194
S  S7  1  0.18540000  0.02360000  0.76672000  1.0 0.1976502194
S  S8  1  0.81460000  0.02360000  0.23328000  1.0 0.1976502194
Br  Br1  1  0.19500000  0.48500000  0.96990000  1.0 0.1976502194
Br  Br2  1  0.80500000  0.48500000  0.03010000  1.0 0.1976502194
Br  Br3  1  0.69500000  0.51500000  0.53010000  1.0 0.1976502194
Br  Br4  1  0.30500000  0.51500000  0.46990000  1.0 0.1976502194
Cl  Cl1  1  0.20450000  0.50000000  0.98730000  1.0 -0.0133298114
Cl  Cl2  1  0.79550000  0.50000000  0.01270000  1.0 -0.0133298114
Cl  Cl3  1  0.70450000  0.50000000  0.51270000  1.0 -0.0133298114
Cl  Cl4  1  0.29550000  0.50000000  0.48730000  1.0 -0.0133298114
Cl  Cl5  1  0.00000000  0.88030000  0.00000000  1.0 -0.6314364047
Cl  Cl6  1  0.50000000  0.11970000  0.50000000  1.0 -0.6314364047
O  O1  1  0.35300000  0.69800000  0.91650000  1.0 -0.74918696
O  O2  1  0.64700000  0.69800000  0.08350000  1.0 -0.74918696
O  O3  1  0.85300000  0.30200000  0.58350000  1.0 -0.74918696
O  O4  1  0.14700000  0.30200000  0.41650000  1.0 -0.74918696
O  O5  1  0.73590000  0.78470000  0.92270000  1.0 -0.6970302732
O  O6  1  0.26410000  0.78470000  0.07730000  1.0 -0.6970302732
O  O7  1  0.23590000  0.21530000  0.57730000  1.0 -0.6970302732
O  O8  1  0.76410000  0.21530000  0.42270000  1.0 -0.6970302732
O  O9  1  0.59950000  0.32240000  0.66840000  1.0 -0.5996585757
O  O10  1  0.40050000  0.32240000  0.33160000  1.0 -0.5996585757
O  O11  1  0.09950000  0.67760000  0.83160000  1.0 -0.5996585757
O  O12  1  0.90050000  0.67760000  0.16840000  1.0 -0.5996585757
O  O13  1  0.46190000  0.34130000  0.58060000  1.0 -0.7434779675
O  O14  1  0.53810000  0.34130000  0.41940000  1.0 -0.7434779675
O  O15  1  0.96190000  0.65870000  0.91940000  1.0 -0.7434779675
O  O16  1  0.03810000  0.65870000  0.08060000  1.0 -0.7434779675
O  O17  1  0.52840000  0.64260000  0.91400000  1.0 -0.5892891259
O  O18  1  0.47160000  0.64260000  0.08600000  1.0 -0.5892891259
O  O19  1  0.02840000  0.35740000  0.58600000  1.0 -0.5892891259
O  O20  1  0.97160000  0.35740000  0.41400000  1.0 -0.5892891259
O  O21  1  0.58680000  0.87180000  0.87590000  1.0 -0.6109077678
O  O22  1  0.41320000  0.87180000  0.12410000  1.0 -0.6109077678
O  O23  1  0.08680000  0.12820000  0.62410000  1.0 -0.6109077678
O  O24  1  0.91320000  0.12820000  0.37590000  1.0 -0.6109077678
O  O25  1  0.88520000  0.05890000  0.55560000  1.0 -0.6201983512
O  O26  1  0.11480000  0.05890000  0.44440000  1.0 -0.6201983512
O  O27  1  0.38520000  0.94110000  0.94440000  1.0 -0.6201983512
O  O28  1  0.61480000  0.94110000  0.05560000  1.0 -0.6201983512
O  O29  1  0.71800000  0.11870000  0.59440000  1.0 -0.6109077678
O  O30  1  0.28200000  0.11870000  0.40560000  1.0 -0.6109077678
O  O31  1  0.21800000  0.88130000  0.90560000  1.0 -0.6109077678
O  O32  1  0.78200000  0.88130000  0.09440000  1.0 -0.6109077678
