# DDEC6 charges by PACMAN v1.1 (https://github.com/mtap-research/PACMAN-charge/)
data_IYUHOA_FSR_pacman
_symmetry_space_group_name_H-M   'P 1'
_cell_length_a   24.72730000
_cell_length_b   24.72730000
_cell_length_c   14.38120000
_cell_angle_alpha   90.00000000
_cell_angle_beta   90.00000000
_cell_angle_gamma   120.00000000
_symmetry_Int_Tables_number   1
_chemical_formula_structural   In2H13(C11O5)3
_chemical_formula_sum   'In12 H78 C198 O90'
_cell_volume   7615.16212026
_cell_formula_units_Z   6
loop_
 _symmetry_equiv_pos_site_id
 _symmetry_equiv_pos_as_xyz
  1  'x, y, z'
loop_
 _atom_site_type_symbol
 _atom_site_label
 _atom_site_symmetry_multiplicity
 _atom_site_fract_x
 _atom_site_fract_y
 _atom_site_fract_z
 _atom_site_occupancy
 _atom_site_charge
In  In1  1  0.67022000  0.56106000  0.38717000  1.0 1.4034031284
In  In2  1  0.43894000  0.10916000  0.38717000  1.0 1.4034031284
In  In3  1  0.89084000  0.32978000  0.38717000  1.0 1.4034031284
In  In4  1  0.32978000  0.43894000  0.61283000  1.0 1.4060560119
In  In5  1  0.56106000  0.89084000  0.61283000  1.0 1.4060560119
In  In6  1  0.10916000  0.67022000  0.61283000  1.0 1.4060560119
In  In7  1  0.32974000  0.44072000  0.88541000  1.0 1.4226680847
In  In8  1  0.55928000  0.88902000  0.88541000  1.0 1.4226680847
In  In9  1  0.11098000  0.67026000  0.88541000  1.0 1.4226680847
In  In10  1  0.67026000  0.55928000  0.11459000  1.0 1.4226680847
In  In11  1  0.44072000  0.11098000  0.11459000  1.0 1.4226680847
In  In12  1  0.88902000  0.32974000  0.11459000  1.0 1.4226680847
H  H1  1  0.95330000  0.83390000  0.32230000  1.0 0.1225511916
H  H2  1  0.16610000  0.11940000  0.32230000  1.0 0.1225511916
H  H3  1  0.88060000  0.04670000  0.32230000  1.0 0.1225511916
H  H4  1  0.04670000  0.16610000  0.67770000  1.0 0.1225511916
H  H5  1  0.83390000  0.88060000  0.67770000  1.0 0.1225511916
H  H6  1  0.11940000  0.95330000  0.67770000  1.0 0.1225511916
H  H7  1  0.46920000  0.50860000  0.10930000  1.0 0.1558122165
H  H8  1  0.49140000  0.96060000  0.10930000  1.0 0.1558122165
H  H9  1  0.03940000  0.53080000  0.10930000  1.0 0.1558122165
H  H10  1  0.53080000  0.49140000  0.89070000  1.0 0.1558122165
H  H11  1  0.50860000  0.03940000  0.89070000  1.0 0.1558122165
H  H12  1  0.96060000  0.46920000  0.89070000  1.0 0.1558122165
H  H13  1  0.87830000  0.73010000  0.33710000  1.0 0.1368090376
H  H14  1  0.26990000  0.14820000  0.33710000  1.0 0.1368090376
H  H15  1  0.85180000  0.12170000  0.33710000  1.0 0.1368090376
H  H16  1  0.12170000  0.26990000  0.66290000  1.0 0.1368090376
H  H17  1  0.73010000  0.85180000  0.66290000  1.0 0.1368090376
H  H18  1  0.14820000  0.87830000  0.66290000  1.0 0.1368090376
H  H19  1  0.48900000  0.51400000  0.38510000  1.0 0.1558122165
H  H20  1  0.48600000  0.97500000  0.38510000  1.0 0.1558122165
H  H21  1  0.02500000  0.51100000  0.38510000  1.0 0.1558122165
H  H22  1  0.51100000  0.48600000  0.61490000  1.0 0.1558122165
H  H23  1  0.51400000  0.02500000  0.61490000  1.0 0.1558122165
H  H24  1  0.97500000  0.48900000  0.61490000  1.0 0.1558122165
H  H25  1  0.76360000  0.77910000  0.46010000  1.0 0.1368090376
H  H26  1  0.22090000  0.98450000  0.46010000  1.0 0.1368090376
H  H27  1  0.01550000  0.23640000  0.46010000  1.0 0.1368090376
H  H28  1  0.23640000  0.22090000  0.53990000  1.0 0.1368090376
H  H29  1  0.77910000  0.01550000  0.53990000  1.0 0.1368090376
H  H30  1  0.98450000  0.76360000  0.53990000  1.0 0.1368090376
H  H31  1  0.13090000  0.26430000  0.96550000  1.0 0.1368090376
H  H32  1  0.73570000  0.86660000  0.96550000  1.0 0.1368090376
H  H33  1  0.13340000  0.86910000  0.96550000  1.0 0.1368090376
H  H34  1  0.86910000  0.73570000  0.03450000  1.0 0.1368090376
H  H35  1  0.26430000  0.13340000  0.03450000  1.0 0.1368090376
H  H36  1  0.86660000  0.13090000  0.03450000  1.0 0.1368090376
H  H37  1  0.83930000  0.88190000  0.45200000  1.0 0.1225511916
H  H38  1  0.11810000  0.95740000  0.45200000  1.0 0.1225511916
H  H39  1  0.04260000  0.16070000  0.45200000  1.0 0.1225511916
H  H40  1  0.16070000  0.11810000  0.54800000  1.0 0.1225511916
H  H41  1  0.88190000  0.04260000  0.54800000  1.0 0.1225511916
H  H42  1  0.95740000  0.83930000  0.54800000  1.0 0.1225511916
H  H43  1  0.31940000  0.45290000  0.27400000  1.0 0.1473708602
H  H44  1  0.54710000  0.86650000  0.27400000  1.0 0.1473708602
H  H45  1  0.13350000  0.68060000  0.27400000  1.0 0.1473708602
H  H46  1  0.68060000  0.54710000  0.72600000  1.0 0.1473708602
H  H47  1  0.45290000  0.13350000  0.72600000  1.0 0.1473708602
H  H48  1  0.86650000  0.31940000  0.72600000  1.0 0.1473708602
H  H49  1  0.02880000  0.92380000  0.37410000  1.0 0.1225511916
H  H50  1  0.07620000  0.10500000  0.37410000  1.0 0.1225511916
H  H51  1  0.89500000  0.97120000  0.37410000  1.0 0.1225511916
H  H52  1  0.97120000  0.07620000  0.62590000  1.0 0.1225511916
H  H53  1  0.92380000  0.89500000  0.62590000  1.0 0.1225511916
H  H54  1  0.10500000  0.02880000  0.62590000  1.0 0.1225511916
H  H55  1  0.24190000  0.22310000  0.81740000  1.0 0.1368090376
H  H56  1  0.77690000  0.01880000  0.81740000  1.0 0.1368090376
H  H57  1  0.98120000  0.75810000  0.81740000  1.0 0.1368090376
H  H58  1  0.75810000  0.77690000  0.18260000  1.0 0.1368090376
H  H59  1  0.22310000  0.98120000  0.18260000  1.0 0.1368090376
H  H60  1  0.01880000  0.24190000  0.18260000  1.0 0.1368090376
H  H61  1  0.05080000  0.16150000  0.95690000  1.0 0.1225511916
H  H62  1  0.83850000  0.88930000  0.95690000  1.0 0.1225511916
H  H63  1  0.11070000  0.94920000  0.95690000  1.0 0.1225511916
H  H64  1  0.94920000  0.83850000  0.04310000  1.0 0.1225511916
H  H65  1  0.16150000  0.11070000  0.04310000  1.0 0.1225511916
H  H66  1  0.88930000  0.05080000  0.04310000  1.0 0.1225511916
H  H67  1  0.16250000  0.12070000  0.80880000  1.0 0.1260687004
H  H68  1  0.87930000  0.04180000  0.80880000  1.0 0.1260687004
H  H69  1  0.95820000  0.83750000  0.80880000  1.0 0.1260687004
H  H70  1  0.83750000  0.87930000  0.19120000  1.0 0.1260687004
H  H71  1  0.12070000  0.95820000  0.19120000  1.0 0.1260687004
H  H72  1  0.04180000  0.16250000  0.19120000  1.0 0.1260687004
H  H73  1  0.97440000  0.07820000  0.87470000  1.0 0.1225511916
H  H74  1  0.92180000  0.89620000  0.87470000  1.0 0.1225511916
H  H75  1  0.10380000  0.02560000  0.87470000  1.0 0.1225511916
H  H76  1  0.02560000  0.92180000  0.12530000  1.0 0.1225511916
H  H77  1  0.07820000  0.10380000  0.12530000  1.0 0.1225511916
H  H78  1  0.89620000  0.97440000  0.12530000  1.0 0.1225511916
C  C1  1  0.39890000  0.48020000  0.34370000  1.0 0.0105599696
C  C2  1  0.51980000  0.91870000  0.34370000  1.0 0.0105599696
C  C3  1  0.08130000  0.60110000  0.34370000  1.0 0.0105599696
C  C4  1  0.60110000  0.51980000  0.65630000  1.0 0.0105599696
C  C5  1  0.48020000  0.08130000  0.65630000  1.0 0.0105599696
C  C6  1  0.91870000  0.39890000  0.65630000  1.0 0.0105599696
C  C7  1  0.91530000  0.82310000  0.35060000  1.0 -0.1464285291
C  C8  1  0.17690000  0.09220000  0.35060000  1.0 -0.1464285291
C  C9  1  0.90780000  0.08470000  0.35060000  1.0 -0.1464285291
C  C10  1  0.08470000  0.17690000  0.64940000  1.0 -0.1464285291
C  C11  1  0.82310000  0.90780000  0.64940000  1.0 -0.1464285291
C  C12  1  0.09220000  0.91530000  0.64940000  1.0 -0.1464285291
C  C13  1  0.45180000  0.50230000  0.16840000  1.0 -0.0807063423
C  C14  1  0.49770000  0.94950000  0.16840000  1.0 -0.0807063423
C  C15  1  0.05050000  0.54820000  0.16840000  1.0 -0.0807063423
C  C16  1  0.54820000  0.49770000  0.83160000  1.0 -0.0807063423
C  C17  1  0.50230000  0.05050000  0.83160000  1.0 -0.0807063423
C  C18  1  0.94950000  0.45180000  0.83160000  1.0 -0.0807063423
C  C19  1  0.87020000  0.76090000  0.35860000  1.0 -0.0878281823
C  C20  1  0.23910000  0.10930000  0.35860000  1.0 -0.0807063423
C  C21  1  0.89070000  0.12980000  0.35860000  1.0 -0.0807063423
C  C22  1  0.12980000  0.23910000  0.64140000  1.0 -0.0807063423
C  C23  1  0.76090000  0.89070000  0.64140000  1.0 -0.0878281823
C  C24  1  0.10930000  0.87020000  0.64140000  1.0 -0.0878281823
C  C25  1  0.46370000  0.50530000  0.33290000  1.0 -0.0807063423
C  C26  1  0.49470000  0.95840000  0.33290000  1.0 -0.0807063423
C  C27  1  0.04160000  0.53630000  0.33290000  1.0 -0.0807063423
C  C28  1  0.53630000  0.49470000  0.66710000  1.0 -0.0807063423
C  C29  1  0.50530000  0.04160000  0.66710000  1.0 -0.0807063423
C  C30  1  0.95840000  0.46370000  0.66710000  1.0 -0.0807063423
C  C31  1  0.55950000  0.54140000  0.23840000  1.0 0.6245749446
C  C32  1  0.45860000  0.01810000  0.23840000  1.0 0.6245749446
C  C33  1  0.98190000  0.44050000  0.23840000  1.0 0.6245749446
C  C34  1  0.44050000  0.45860000  0.76160000  1.0 0.6245749446
C  C35  1  0.54140000  0.98190000  0.76160000  1.0 0.62523447
C  C36  1  0.01810000  0.55950000  0.76160000  1.0 0.62523447
C  C37  1  0.80190000  0.78990000  0.43290000  1.0 -0.0878281823
C  C38  1  0.21010000  0.01200000  0.43290000  1.0 -0.0878281823
C  C39  1  0.98800000  0.19810000  0.43290000  1.0 -0.0878281823
C  C40  1  0.19810000  0.21010000  0.56710000  1.0 -0.0878281823
C  C41  1  0.78990000  0.98800000  0.56710000  1.0 -0.0878281823
C  C42  1  0.01200000  0.80190000  0.56710000  1.0 -0.0878281823
C  C43  1  0.13760000  0.23510000  0.93490000  1.0 -0.0807063423
C  C44  1  0.76490000  0.90250000  0.93490000  1.0 -0.0807063423
C  C45  1  0.09750000  0.86240000  0.93490000  1.0 -0.0807063423
C  C46  1  0.86240000  0.76490000  0.06510000  1.0 -0.0807063423
C  C47  1  0.23510000  0.09750000  0.06510000  1.0 -0.0807063423
C  C48  1  0.90250000  0.13760000  0.06510000  1.0 -0.0807063423
C  C49  1  0.48960000  0.51690000  0.24610000  1.0 -0.0138813823
C  C50  1  0.48310000  0.97270000  0.24610000  1.0 -0.0152627861
C  C51  1  0.02730000  0.51040000  0.24610000  1.0 -0.0152627861
C  C52  1  0.51040000  0.48310000  0.75390000  1.0 -0.0152627861
C  C53  1  0.51690000  0.02730000  0.75390000  1.0 -0.0152627861
C  C54  1  0.97270000  0.48960000  0.75390000  1.0 -0.0138813823
C  C55  1  0.84700000  0.85170000  0.42720000  1.0 -0.1464285291
C  C56  1  0.14830000  0.99530000  0.42720000  1.0 -0.1464285291
C  C57  1  0.00470000  0.15300000  0.42720000  1.0 -0.1464285291
C  C58  1  0.15300000  0.14830000  0.57280000  1.0 -0.1464285291
C  C59  1  0.85170000  0.00470000  0.57280000  1.0 -0.1464285291
C  C60  1  0.99530000  0.84700000  0.57280000  1.0 -0.1448704747
C  C61  1  0.38750000  0.47820000  0.17860000  1.0 0.0105599696
C  C62  1  0.52180000  0.90930000  0.17860000  1.0 0.0105599696
C  C63  1  0.09070000  0.61250000  0.17860000  1.0 0.0046797279
C  C64  1  0.61250000  0.52180000  0.82140000  1.0 0.0105599696
C  C65  1  0.47820000  0.09070000  0.82140000  1.0 0.0105599696
C  C66  1  0.90930000  0.38750000  0.82140000  1.0 0.0105599696
C  C67  1  0.34490000  0.46110000  0.09260000  1.0 0.5495737843
C  C68  1  0.53890000  0.88380000  0.09260000  1.0 0.5495737843
C  C69  1  0.11620000  0.65510000  0.09260000  1.0 0.5495737843
C  C70  1  0.65510000  0.53890000  0.90740000  1.0 0.5495737843
C  C71  1  0.46110000  0.11620000  0.90740000  1.0 0.5495737843
C  C72  1  0.88380000  0.34490000  0.90740000  1.0 0.5495737843
C  C73  1  0.36200000  0.46800000  0.26690000  1.0 -0.0807063423
C  C74  1  0.53200000  0.89400000  0.26690000  1.0 -0.0807063423
C  C75  1  0.10600000  0.63800000  0.26690000  1.0 -0.0807063423
C  C76  1  0.63800000  0.53200000  0.73310000  1.0 -0.0807063423
C  C77  1  0.46800000  0.10600000  0.73310000  1.0 -0.0807063423
C  C78  1  0.89400000  0.36200000  0.73310000  1.0 -0.0807063423
C  C79  1  0.76270000  0.67590000  0.40450000  1.0 0.5295698695
C  C80  1  0.32410000  0.08680000  0.40450000  1.0 0.5295698695
C  C81  1  0.91320000  0.23730000  0.40450000  1.0 0.5295698695
C  C82  1  0.23730000  0.32410000  0.59550000  1.0 0.5295698695
C  C83  1  0.67590000  0.91320000  0.59550000  1.0 0.5295698695
C  C84  1  0.08680000  0.76270000  0.59550000  1.0 0.5295698695
C  C85  1  0.24300000  0.32080000  0.89860000  1.0 0.539175913
C  C86  1  0.67920000  0.92220000  0.89860000  1.0 0.539175913
C  C87  1  0.07780000  0.75700000  0.89860000  1.0 0.539175913
C  C88  1  0.75700000  0.67920000  0.10140000  1.0 0.539175913
C  C89  1  0.32080000  0.07780000  0.10140000  1.0 0.539175913
C  C90  1  0.92220000  0.24300000  0.10140000  1.0 0.539175913
C  C91  1  0.36960000  0.46330000  0.43880000  1.0 0.5295698695
C  C92  1  0.53670000  0.90630000  0.43880000  1.0 0.5295698695
C  C93  1  0.09370000  0.63040000  0.43880000  1.0 0.5295698695
C  C94  1  0.63040000  0.53670000  0.56120000  1.0 0.5295698695
C  C95  1  0.46330000  0.09370000  0.56120000  1.0 0.5295698695
C  C96  1  0.90630000  0.36960000  0.56120000  1.0 0.5295698695
C  C97  1  0.19410000  0.25330000  0.89700000  1.0 0.0105599696
C  C98  1  0.74670000  0.94080000  0.89700000  1.0 0.0105599696
C  C99  1  0.05920000  0.80590000  0.89700000  1.0 0.0105599696
C  C100  1  0.80590000  0.74670000  0.10300000  1.0 0.0105599696
C  C101  1  0.25330000  0.05920000  0.10300000  1.0 0.0105599696
C  C102  1  0.94080000  0.19410000  0.10300000  1.0 0.0105599696
C  C103  1  0.95330000  0.93650000  0.37810000  1.0 0.0956753718
C  C104  1  0.06350000  0.01680000  0.37810000  1.0 0.0956753718
C  C105  1  0.98320000  0.04670000  0.37810000  1.0 0.0956753718
C  C106  1  0.04670000  0.06350000  0.62190000  1.0 0.0956753718
C  C107  1  0.93650000  0.98320000  0.62190000  1.0 0.0956753718
C  C108  1  0.01680000  0.95330000  0.62190000  1.0 0.0956753718
C  C109  1  0.90480000  0.87010000  0.38440000  1.0 0.068643338
C  C110  1  0.12990000  0.03470000  0.38440000  1.0 0.068643338
C  C111  1  0.96530000  0.09520000  0.38440000  1.0 0.068643338
C  C112  1  0.09520000  0.12990000  0.61560000  1.0 0.068643338
C  C113  1  0.87010000  0.96530000  0.61560000  1.0 0.068643338
C  C114  1  0.03470000  0.90480000  0.61560000  1.0 0.068643338
C  C115  1  0.81210000  0.74390000  0.39930000  1.0 0.0105599696
C  C116  1  0.25610000  0.06820000  0.39930000  1.0 0.0105599696
C  C117  1  0.93180000  0.18790000  0.39930000  1.0 0.0105599696
C  C118  1  0.18790000  0.25610000  0.60070000  1.0 0.0105599696
C  C119  1  0.74390000  0.93180000  0.60070000  1.0 0.0105599696
C  C120  1  0.06820000  0.81210000  0.60070000  1.0 0.0105599696
C  C121  1  0.01740000  0.95440000  0.37640000  1.0 -0.1876158352
C  C122  1  0.04560000  0.06300000  0.37640000  1.0 -0.1876158352
C  C123  1  0.93700000  0.98260000  0.37640000  1.0 -0.1876158352
C  C124  1  0.98260000  0.04560000  0.62360000  1.0 -0.1876158352
C  C125  1  0.95440000  0.93700000  0.62360000  1.0 -0.1876158352
C  C126  1  0.06300000  0.01740000  0.62360000  1.0 -0.1876158352
C  C127  1  0.20390000  0.21060000  0.84660000  1.0 -0.0807063423
C  C128  1  0.78940000  0.99330000  0.84660000  1.0 -0.0807063423
C  C129  1  0.00670000  0.79610000  0.84660000  1.0 -0.0807063423
C  C130  1  0.79610000  0.78940000  0.15340000  1.0 -0.0807063423
C  C131  1  0.21060000  0.00670000  0.15340000  1.0 -0.0807063423
C  C132  1  0.99330000  0.20390000  0.15340000  1.0 -0.0807063423
C  C133  1  0.33070000  0.54890000  0.88660000  1.0 0.5904805947
C  C134  1  0.45110000  0.78180000  0.88660000  1.0 0.5904805947
C  C135  1  0.21820000  0.66930000  0.88660000  1.0 0.5904805947
C  C136  1  0.66930000  0.45110000  0.11340000  1.0 0.5904805947
C  C137  1  0.54890000  0.21820000  0.11340000  1.0 0.584963605
C  C138  1  0.78180000  0.33070000  0.11340000  1.0 0.5904805947
C  C139  1  0.08920000  0.17330000  0.92920000  1.0 -0.1464285291
C  C140  1  0.82670000  0.91590000  0.92920000  1.0 -0.1464285291
C  C141  1  0.08410000  0.91080000  0.92920000  1.0 -0.1464285291
C  C142  1  0.91080000  0.82670000  0.07080000  1.0 -0.1464285291
C  C143  1  0.17330000  0.08410000  0.07080000  1.0 -0.1464285291
C  C144  1  0.91590000  0.08920000  0.07080000  1.0 -0.1464285291
C  C145  1  0.68480000  0.45730000  0.38290000  1.0 0.5904805947
C  C146  1  0.54270000  0.22750000  0.38290000  1.0 0.5904805947
C  C147  1  0.77250000  0.31520000  0.38290000  1.0 0.5904805947
C  C148  1  0.31520000  0.54270000  0.61710000  1.0 0.5904805947
C  C149  1  0.45730000  0.77250000  0.61710000  1.0 0.5904805947
C  C150  1  0.22750000  0.68480000  0.61710000  1.0 0.5904805947
C  C151  1  0.15580000  0.14940000  0.84120000  1.0 -0.1464285291
C  C152  1  0.85060000  0.00640000  0.84120000  1.0 -0.1464285291
C  C153  1  0.99360000  0.84420000  0.84120000  1.0 -0.1464285291
C  C154  1  0.84420000  0.85060000  0.15880000  1.0 -0.1464285291
C  C155  1  0.14940000  0.99360000  0.15880000  1.0 -0.1464285291
C  C156  1  0.00640000  0.15580000  0.15880000  1.0 -0.1464285291
C  C157  1  0.27630000  0.61130000  0.88300000  1.0 0.0786560192
C  C158  1  0.38870000  0.66500000  0.88300000  1.0 0.0786560192
C  C159  1  0.33500000  0.72370000  0.88300000  1.0 0.0786560192
C  C160  1  0.72370000  0.38870000  0.11700000  1.0 0.0786560192
C  C161  1  0.61130000  0.33500000  0.11700000  1.0 0.0786560192
C  C162  1  0.66500000  0.27630000  0.11700000  1.0 0.0786560192
C  C163  1  0.33230000  0.61020000  0.88380000  1.0 -0.074720457
C  C164  1  0.38980000  0.72210000  0.88380000  1.0 -0.0807063423
C  C165  1  0.27790000  0.66770000  0.88380000  1.0 -0.0807063423
C  C166  1  0.66770000  0.38980000  0.11620000  1.0 -0.0807063423
C  C167  1  0.61020000  0.27790000  0.11620000  1.0 -0.0807063423
C  C168  1  0.72210000  0.33230000  0.11620000  1.0 -0.0807063423
C  C169  1  0.67570000  0.39350000  0.38210000  1.0 -0.0807063423
C  C170  1  0.60650000  0.28220000  0.38210000  1.0 -0.0807063423
C  C171  1  0.71780000  0.32430000  0.38210000  1.0 -0.0807063423
C  C172  1  0.32430000  0.60650000  0.61790000  1.0 -0.0807063423
C  C173  1  0.39350000  0.71780000  0.61790000  1.0 -0.0807063423
C  C174  1  0.28220000  0.67570000  0.61790000  1.0 -0.0807063423
C  C175  1  0.61610000  0.34260000  0.38140000  1.0 0.0561317344
C  C176  1  0.65740000  0.27350000  0.38140000  1.0 0.0561317344
C  C177  1  0.72650000  0.38390000  0.38140000  1.0 0.0561317344
C  C178  1  0.38390000  0.65740000  0.61860000  1.0 0.0561317344
C  C179  1  0.34260000  0.72650000  0.61860000  1.0 0.0561317344
C  C180  1  0.27350000  0.61610000  0.61860000  1.0 0.0561317344
C  C181  1  0.09810000  0.12910000  0.88210000  1.0 0.068643338
C  C182  1  0.87090000  0.96900000  0.88210000  1.0 0.068643338
C  C183  1  0.03100000  0.90190000  0.88210000  1.0 0.068643338
C  C184  1  0.90190000  0.87090000  0.11790000  1.0 0.068643338
C  C185  1  0.12910000  0.03100000  0.11790000  1.0 0.068643338
C  C186  1  0.96900000  0.09810000  0.11790000  1.0 0.068643338
C  C187  1  0.04820000  0.06360000  0.87840000  1.0 0.0956753718
C  C188  1  0.93640000  0.98460000  0.87840000  1.0 0.0956753718
C  C189  1  0.01540000  0.95180000  0.87840000  1.0 0.0956753718
C  C190  1  0.95180000  0.93640000  0.12160000  1.0 0.0956753718
C  C191  1  0.06360000  0.01540000  0.12160000  1.0 0.0956753718
C  C192  1  0.98460000  0.04820000  0.12160000  1.0 0.0956753718
C  C193  1  0.98460000  0.04680000  0.87680000  1.0 -0.1876158352
C  C194  1  0.95320000  0.93780000  0.87680000  1.0 -0.1876158352
C  C195  1  0.06220000  0.01540000  0.87680000  1.0 -0.1876158352
C  C196  1  0.01540000  0.95320000  0.12320000  1.0 -0.1876158352
C  C197  1  0.04680000  0.06220000  0.12320000  1.0 -0.1876158352
C  C198  1  0.93780000  0.98460000  0.12320000  1.0 -0.1876158352
O  O1  1  0.36990000  0.45520000  0.01900000  1.0 -0.514422491
O  O2  1  0.54480000  0.91470000  0.01900000  1.0 -0.514422491
O  O3  1  0.08530000  0.63010000  0.01900000  1.0 -0.5192380545
O  O4  1  0.63010000  0.54480000  0.98100000  1.0 -0.514422491
O  O5  1  0.45520000  0.08530000  0.98100000  1.0 -0.514422491
O  O6  1  0.91470000  0.36990000  0.98100000  1.0 -0.5192380545
O  O7  1  0.70550000  0.57090000  0.25150000  1.0 -0.6661965
O  O8  1  0.42910000  0.13460000  0.25150000  1.0 -0.6661965
O  O9  1  0.86540000  0.29450000  0.25150000  1.0 -0.6661965
O  O10  1  0.29450000  0.42910000  0.74850000  1.0 -0.6594152399
O  O11  1  0.57090000  0.86540000  0.74850000  1.0 -0.6594152399
O  O12  1  0.13460000  0.70550000  0.74850000  1.0 -0.6594152399
O  O13  1  0.58930000  0.55460000  0.31200000  1.0 -0.4792784235
O  O14  1  0.44540000  0.03470000  0.31200000  1.0 -0.4792784235
O  O15  1  0.96530000  0.41070000  0.31200000  1.0 -0.4792784235
O  O16  1  0.41070000  0.44540000  0.68800000  1.0 -0.4792784235
O  O17  1  0.55460000  0.96530000  0.68800000  1.0 -0.4792784235
O  O18  1  0.03470000  0.58930000  0.68800000  1.0 -0.4792784235
O  O19  1  0.40250000  0.46220000  0.50660000  1.0 -0.4792784235
O  O20  1  0.53780000  0.94030000  0.50660000  1.0 -0.4792784235
O  O21  1  0.05970000  0.59750000  0.50660000  1.0 -0.4792784235
O  O22  1  0.59750000  0.53780000  0.49340000  1.0 -0.4792784235
O  O23  1  0.46220000  0.05970000  0.49340000  1.0 -0.4792784235
O  O24  1  0.94030000  0.40250000  0.49340000  1.0 -0.4792784235
O  O25  1  0.57990000  0.54430000  0.15600000  1.0 -0.4995476909
O  O26  1  0.45570000  0.03560000  0.15600000  1.0 -0.4938503054
O  O27  1  0.96440000  0.42010000  0.15600000  1.0 -0.4938503054
O  O28  1  0.42010000  0.45570000  0.84400000  1.0 -0.4995476909
O  O29  1  0.54430000  0.96440000  0.84400000  1.0 -0.4938503054
O  O30  1  0.03560000  0.57990000  0.84400000  1.0 -0.4995476909
O  O31  1  0.38030000  0.54800000  0.87110000  1.0 -0.514422491
O  O32  1  0.45200000  0.83230000  0.87110000  1.0 -0.5192380545
O  O33  1  0.16770000  0.61970000  0.87110000  1.0 -0.5192380545
O  O34  1  0.61970000  0.45200000  0.12890000  1.0 -0.5192380545
O  O35  1  0.54800000  0.16770000  0.12890000  1.0 -0.514422491
O  O36  1  0.83230000  0.38030000  0.12890000  1.0 -0.5192380545
O  O37  1  0.73830000  0.50310000  0.38450000  1.0 -0.4220705079
O  O38  1  0.49690000  0.23520000  0.38450000  1.0 -0.4220705079
O  O39  1  0.76480000  0.26170000  0.38450000  1.0 -0.4220705079
O  O40  1  0.26170000  0.49690000  0.61550000  1.0 -0.4220705079
O  O41  1  0.50310000  0.76480000  0.61550000  1.0 -0.4220705079
O  O42  1  0.23520000  0.73830000  0.61550000  1.0 -0.4220705079
O  O43  1  0.31430000  0.44850000  0.45120000  1.0 -0.4792784235
O  O44  1  0.55150000  0.86580000  0.45120000  1.0 -0.4792784235
O  O45  1  0.13420000  0.68570000  0.45120000  1.0 -0.4792784235
O  O46  1  0.68570000  0.55150000  0.54880000  1.0 -0.4792784235
O  O47  1  0.44850000  0.13420000  0.54880000  1.0 -0.4792784235
O  O48  1  0.86580000  0.31430000  0.54880000  1.0 -0.4792784235
O  O49  1  0.30050000  0.33620000  0.88010000  1.0 -0.5192380545
O  O50  1  0.66380000  0.96430000  0.88010000  1.0 -0.5192380545
O  O51  1  0.03570000  0.69950000  0.88010000  1.0 -0.5192380545
O  O52  1  0.69950000  0.66380000  0.11990000  1.0 -0.5192380545
O  O53  1  0.33620000  0.03570000  0.11990000  1.0 -0.5192380545
O  O54  1  0.96430000  0.30050000  0.11990000  1.0 -0.5192380545
O  O55  1  0.70670000  0.66250000  0.40750000  1.0 -0.4995476909
O  O56  1  0.33750000  0.04420000  0.40750000  1.0 -0.4995476909
O  O57  1  0.95580000  0.29330000  0.40750000  1.0 -0.4995476909
O  O58  1  0.29330000  0.33750000  0.59250000  1.0 -0.4995476909
O  O59  1  0.66250000  0.95580000  0.59250000  1.0 -0.4995476909
O  O60  1  0.04420000  0.70670000  0.59250000  1.0 -0.4995476909
O  O61  1  0.28000000  0.49920000  0.90280000  1.0 -0.4662962762
O  O62  1  0.50080000  0.78080000  0.90280000  1.0 -0.4662962762
O  O63  1  0.21920000  0.72000000  0.90280000  1.0 -0.4662962762
O  O64  1  0.72000000  0.50080000  0.09720000  1.0 -0.4640653876
O  O65  1  0.49920000  0.21920000  0.09720000  1.0 -0.4640653876
O  O66  1  0.78080000  0.28000000  0.09720000  1.0 -0.4662962762
O  O67  1  0.23140000  0.36230000  0.92160000  1.0 -0.4662962762
O  O68  1  0.63770000  0.86910000  0.92160000  1.0 -0.4662962762
O  O69  1  0.13090000  0.76860000  0.92160000  1.0 -0.4662962762
O  O70  1  0.76860000  0.63770000  0.07840000  1.0 -0.4662962762
O  O71  1  0.36230000  0.13090000  0.07840000  1.0 -0.4662962762
O  O72  1  0.86910000  0.23140000  0.07840000  1.0 -0.4662962762
O  O73  1  0.63630000  0.46270000  0.38420000  1.0 -0.4995476909
O  O74  1  0.53730000  0.17360000  0.38420000  1.0 -0.4995476909
O  O75  1  0.82640000  0.36370000  0.38420000  1.0 -0.4995476909
O  O76  1  0.36370000  0.53730000  0.61580000  1.0 -0.4995476909
O  O77  1  0.46270000  0.82640000  0.61580000  1.0 -0.4995476909
O  O78  1  0.17360000  0.63630000  0.61580000  1.0 -0.4995476909
O  O79  1  0.77890000  0.63520000  0.40380000  1.0 -0.4477419602
O  O80  1  0.36480000  0.14370000  0.40380000  1.0 -0.4477419602
O  O81  1  0.85630000  0.22110000  0.40380000  1.0 -0.4477419602
O  O82  1  0.22110000  0.36480000  0.59620000  1.0 -0.4477419602
O  O83  1  0.63520000  0.85630000  0.59620000  1.0 -0.4477419602
O  O84  1  0.14370000  0.77890000  0.59620000  1.0 -0.4477419602
O  O85  1  0.29380000  0.45340000  0.10140000  1.0 -0.3680030672
O  O86  1  0.54660000  0.84040000  0.10140000  1.0 -0.3680030672
O  O87  1  0.15960000  0.70620000  0.10140000  1.0 -0.3640159515
O  O88  1  0.70620000  0.54660000  0.89860000  1.0 -0.3680030672
O  O89  1  0.45340000  0.15960000  0.89860000  1.0 -0.3680030672
O  O90  1  0.84040000  0.29380000  0.89860000  1.0 -0.3680030672
