# DDEC6 charges by PACMAN v1.1 (https://github.com/mtap-research/PACMAN-charge/)
data_IYUJAO_ASR_pacman
_symmetry_space_group_name_H-M   'P 1'
_cell_length_a   16.12920000
_cell_length_b   16.12920000
_cell_length_c   16.12920000
_cell_angle_alpha   92.54950000
_cell_angle_beta   92.54950000
_cell_angle_gamma   92.54950000
_symmetry_Int_Tables_number   1
_chemical_formula_structural   In3H24C43O18
_chemical_formula_sum   'In9 H72 C129 O54'
_cell_volume   4183.18605540
_cell_formula_units_Z   3
loop_
 _symmetry_equiv_pos_site_id
 _symmetry_equiv_pos_as_xyz
  1  'x, y, z'
loop_
 _atom_site_type_symbol
 _atom_site_label
 _atom_site_symmetry_multiplicity
 _atom_site_fract_x
 _atom_site_fract_y
 _atom_site_fract_z
 _atom_site_occupancy
 _atom_site_charge
In  In1  1  0.83891000  0.25956000  0.59011000  1.0 1.5315609985
In  In2  1  0.25956000  0.59011000  0.83891000  1.0 1.5315609985
In  In3  1  0.59011000  0.83891000  0.25956000  1.0 1.5315609985
In  In4  1  0.16109000  0.40989000  0.74044000  1.0 1.5315609985
In  In5  1  0.74044000  0.16109000  0.40989000  1.0 1.5315609985
In  In6  1  0.40989000  0.74044000  0.16109000  1.0 1.5315609985
In  In7  1  0.65936000  0.34064000  0.50000000  1.0 1.4981301837
In  In8  1  0.34064000  0.50000000  0.65936000  1.0 1.4981301837
In  In9  1  0.50000000  0.65936000  0.34064000  1.0 1.4981301837
H  H1  1  0.97310000  0.50920000  0.61170000  1.0 0.1296408073
H  H2  1  0.50920000  0.61170000  0.97310000  1.0 0.1296408073
H  H3  1  0.61170000  0.97310000  0.50920000  1.0 0.1296408073
H  H4  1  0.02690000  0.38830000  0.49080000  1.0 0.1296408073
H  H5  1  0.49080000  0.02690000  0.38830000  1.0 0.1296408073
H  H6  1  0.38830000  0.49080000  0.02690000  1.0 0.1296408073
H  H7  1  0.02250000  0.64390000  0.64960000  1.0 0.1434830573
H  H8  1  0.64390000  0.64960000  0.02250000  1.0 0.1434830573
H  H9  1  0.64960000  0.02250000  0.64390000  1.0 0.1434830573
H  H10  1  0.97750000  0.35040000  0.35610000  1.0 0.1434830573
H  H11  1  0.35610000  0.97750000  0.35040000  1.0 0.1434830573
H  H12  1  0.35040000  0.35610000  0.97750000  1.0 0.1434830573
H  H13  1  0.79180000  0.71970000  0.64400000  1.0 0.1296408073
H  H14  1  0.71970000  0.64400000  0.79180000  1.0 0.1296408073
H  H15  1  0.64400000  0.79180000  0.71970000  1.0 0.1296408073
H  H16  1  0.20820000  0.35600000  0.28030000  1.0 0.1296408073
H  H17  1  0.28030000  0.20820000  0.35600000  1.0 0.1296408073
H  H18  1  0.35600000  0.28030000  0.20820000  1.0 0.1296408073
H  H19  1  0.74310000  0.58850000  0.59680000  1.0 0.1230850791
H  H20  1  0.58850000  0.59680000  0.74310000  1.0 0.1230850791
H  H21  1  0.59680000  0.74310000  0.58850000  1.0 0.1230850791
H  H22  1  0.25690000  0.40320000  0.41150000  1.0 0.1230850791
H  H23  1  0.41150000  0.25690000  0.40320000  1.0 0.1230850791
H  H24  1  0.40320000  0.41150000  0.25690000  1.0 0.1230850791
H  H25  1  0.87190000  0.02680000  0.71580000  1.0 0.1296408073
H  H26  1  0.02680000  0.71580000  0.87190000  1.0 0.1296408073
H  H27  1  0.71580000  0.87190000  0.02680000  1.0 0.1296408073
H  H28  1  0.12810000  0.28420000  0.97320000  1.0 0.1296408073
H  H29  1  0.97320000  0.12810000  0.28420000  1.0 0.1296408073
H  H30  1  0.28420000  0.97320000  0.12810000  1.0 0.1296408073
H  H31  1  0.91610000  0.90140000  0.76370000  1.0 0.1474002314
H  H32  1  0.90140000  0.76370000  0.91610000  1.0 0.1474002314
H  H33  1  0.76370000  0.91610000  0.90140000  1.0 0.1474002314
H  H34  1  0.08390000  0.23630000  0.09860000  1.0 0.1474002314
H  H35  1  0.09860000  0.08390000  0.23630000  1.0 0.1474002314
H  H36  1  0.23630000  0.09860000  0.08390000  1.0 0.1474002314
H  H37  1  0.87240000  0.80370000  0.52770000  1.0 0.1434830573
H  H38  1  0.80370000  0.52770000  0.87240000  1.0 0.1434830573
H  H39  1  0.52770000  0.87240000  0.80370000  1.0 0.1434830573
H  H40  1  0.12760000  0.47230000  0.19630000  1.0 0.1434830573
H  H41  1  0.19630000  0.12760000  0.47230000  1.0 0.1434830573
H  H42  1  0.47230000  0.19630000  0.12760000  1.0 0.1434830573
H  H43  1  0.83200000  0.92410000  0.48820000  1.0 0.1296408073
H  H44  1  0.92410000  0.48820000  0.83200000  1.0 0.1296408073
H  H45  1  0.48820000  0.83200000  0.92410000  1.0 0.1296408073
H  H46  1  0.16800000  0.51180000  0.07590000  1.0 0.1296408073
H  H47  1  0.07590000  0.16800000  0.51180000  1.0 0.1296408073
H  H48  1  0.51180000  0.07590000  0.16800000  1.0 0.1296408073
H  H49  1  0.76510000  0.34430000  0.83490000  1.0 0.1296408073
H  H50  1  0.34430000  0.83490000  0.76510000  1.0 0.1296408073
H  H51  1  0.83490000  0.76510000  0.34430000  1.0 0.1296408073
H  H52  1  0.23490000  0.16510000  0.65570000  1.0 0.1296408073
H  H53  1  0.65570000  0.23490000  0.16510000  1.0 0.1296408073
H  H54  1  0.16510000  0.65570000  0.23490000  1.0 0.1296408073
H  H55  1  0.72010000  0.39080000  0.96330000  1.0 0.1296408073
H  H56  1  0.39080000  0.96330000  0.72010000  1.0 0.1296408073
H  H57  1  0.96330000  0.72010000  0.39080000  1.0 0.1296408073
H  H58  1  0.27990000  0.03670000  0.60920000  1.0 0.1296408073
H  H59  1  0.60920000  0.27990000  0.03670000  1.0 0.1296408073
H  H60  1  0.03670000  0.60920000  0.27990000  1.0 0.1296408073
H  H61  1  0.48830000  0.40140000  0.86440000  1.0 0.1434830573
H  H62  1  0.40140000  0.86440000  0.48830000  1.0 0.1434830573
H  H63  1  0.86440000  0.48830000  0.40140000  1.0 0.1434830573
H  H64  1  0.51170000  0.13560000  0.59860000  1.0 0.1434830573
H  H65  1  0.59860000  0.51170000  0.13560000  1.0 0.1434830573
H  H66  1  0.13560000  0.59860000  0.51170000  1.0 0.1434830573
H  H67  1  0.53340000  0.36480000  0.73530000  1.0 0.1230850791
H  H68  1  0.36480000  0.73530000  0.53340000  1.0 0.1230850791
H  H69  1  0.73530000  0.53340000  0.36480000  1.0 0.1230850791
H  H70  1  0.46660000  0.26470000  0.63520000  1.0 0.1230850791
H  H71  1  0.63520000  0.46660000  0.26470000  1.0 0.1230850791
H  H72  1  0.26470000  0.63520000  0.46660000  1.0 0.1230850791
C  C1  1  0.82020000  0.44880000  0.57000000  1.0 0.6032158745
C  C2  1  0.44880000  0.57000000  0.82020000  1.0 0.6032158745
C  C3  1  0.57000000  0.82020000  0.44880000  1.0 0.6032158745
C  C4  1  0.17980000  0.43000000  0.55120000  1.0 0.6032158745
C  C5  1  0.55120000  0.17980000  0.43000000  1.0 0.6032158745
C  C6  1  0.43000000  0.55120000  0.17980000  1.0 0.6032158745
C  C7  1  0.85230000  0.53430000  0.60000000  1.0 -0.0347980484
C  C8  1  0.53430000  0.60000000  0.85230000  1.0 -0.0347980484
C  C9  1  0.60000000  0.85230000  0.53430000  1.0 -0.0347980484
C  C10  1  0.14770000  0.40000000  0.46570000  1.0 -0.0347980484
C  C11  1  0.46570000  0.14770000  0.40000000  1.0 -0.0347980484
C  C12  1  0.40000000  0.46570000  0.14770000  1.0 -0.0347980484
C  C13  1  0.93610000  0.55150000  0.61660000  1.0 -0.0711631539
C  C14  1  0.55150000  0.61660000  0.93610000  1.0 -0.0711631539
C  C15  1  0.61660000  0.93610000  0.55150000  1.0 -0.0711631539
C  C16  1  0.06390000  0.38340000  0.44850000  1.0 -0.0711631539
C  C17  1  0.44850000  0.06390000  0.38340000  1.0 -0.0711631539
C  C18  1  0.38340000  0.44850000  0.06390000  1.0 -0.0711631539
C  C19  1  0.96590000  0.63160000  0.64080000  1.0 -0.1869541692
C  C20  1  0.63160000  0.64080000  0.96590000  1.0 -0.1869541692
C  C21  1  0.64080000  0.96590000  0.63160000  1.0 -0.1869541692
C  C22  1  0.03410000  0.35920000  0.36840000  1.0 -0.1869541692
C  C23  1  0.36840000  0.03410000  0.35920000  1.0 -0.1869541692
C  C24  1  0.35920000  0.36840000  0.03410000  1.0 -0.1869541692
C  C25  1  0.90980000  0.69200000  0.65120000  1.0 0.2309496416
C  C26  1  0.69200000  0.65120000  0.90980000  1.0 0.2309496416
C  C27  1  0.65120000  0.90980000  0.69200000  1.0 0.2309496416
C  C28  1  0.09020000  0.34880000  0.30800000  1.0 0.2309496416
C  C29  1  0.30800000  0.09020000  0.34880000  1.0 0.2309496416
C  C30  1  0.34880000  0.30800000  0.09020000  1.0 0.2309496416
C  C31  1  0.82850000  0.67750000  0.63630000  1.0 -0.2201997559
C  C32  1  0.67750000  0.63630000  0.82850000  1.0 -0.2201997559
C  C33  1  0.63630000  0.82850000  0.67750000  1.0 -0.2201997559
C  C34  1  0.17150000  0.36370000  0.32250000  1.0 -0.2201997559
C  C35  1  0.32250000  0.17150000  0.36370000  1.0 -0.2201997559
C  C36  1  0.36370000  0.32250000  0.17150000  1.0 -0.2201997559
C  C37  1  0.79960000  0.59850000  0.60920000  1.0 -0.0866438876
C  C38  1  0.59850000  0.60920000  0.79960000  1.0 -0.0866438876
C  C39  1  0.60920000  0.79960000  0.59850000  1.0 -0.0866438876
C  C40  1  0.20040000  0.39080000  0.40150000  1.0 -0.0866438876
C  C41  1  0.40150000  0.20040000  0.39080000  1.0 -0.0866438876
C  C42  1  0.39080000  0.40150000  0.20040000  1.0 -0.0866438876
C  C43  1  0.81620000  0.06850000  0.56780000  1.0 0.6032158745
C  C44  1  0.06850000  0.56780000  0.81620000  1.0 0.6032158745
C  C45  1  0.56780000  0.81620000  0.06850000  1.0 0.6032158745
C  C46  1  0.18380000  0.43220000  0.93150000  1.0 0.6032158745
C  C47  1  0.93150000  0.18380000  0.43220000  1.0 0.6032158745
C  C48  1  0.43220000  0.93150000  0.18380000  1.0 0.6032158745
C  C49  1  0.84750000  0.98730000  0.59790000  1.0 -0.0380090388
C  C50  1  0.98730000  0.59790000  0.84750000  1.0 -0.0380090388
C  C51  1  0.59790000  0.84750000  0.98730000  1.0 -0.0380090388
C  C52  1  0.15250000  0.40210000  0.01270000  1.0 -0.0380090388
C  C53  1  0.01270000  0.15250000  0.40210000  1.0 -0.0380090388
C  C54  1  0.40210000  0.01270000  0.15250000  1.0 -0.0380090388
C  C55  1  0.87310000  0.98070000  0.67910000  1.0 -0.0763272481
C  C56  1  0.98070000  0.67910000  0.87310000  1.0 -0.0763272481
C  C57  1  0.67910000  0.87310000  0.98070000  1.0 -0.0763272481
C  C58  1  0.12690000  0.32090000  0.01930000  1.0 -0.0763272481
C  C59  1  0.01930000  0.12690000  0.32090000  1.0 -0.0763272481
C  C60  1  0.32090000  0.01930000  0.12690000  1.0 -0.0763272481
C  C61  1  0.90070000  0.90660000  0.70790000  1.0 -0.2121927129
C  C62  1  0.90660000  0.70790000  0.90070000  1.0 -0.2121927129
C  C63  1  0.70790000  0.90070000  0.90660000  1.0 -0.2121927129
C  C64  1  0.09930000  0.29210000  0.09340000  1.0 -0.2121927129
C  C65  1  0.09340000  0.09930000  0.29210000  1.0 -0.2121927129
C  C66  1  0.29210000  0.09340000  0.09930000  1.0 -0.2121927129
C  C67  1  0.90490000  0.84050000  0.65040000  1.0 0.2623360369
C  C68  1  0.84050000  0.65040000  0.90490000  1.0 0.2623360369
C  C69  1  0.65040000  0.90490000  0.84050000  1.0 0.2623360369
C  C70  1  0.09510000  0.34960000  0.15950000  1.0 0.2623360369
C  C71  1  0.15950000  0.09510000  0.34960000  1.0 0.2623360369
C  C72  1  0.34960000  0.15950000  0.09510000  1.0 0.2623360369
C  C73  1  0.87410000  0.84900000  0.56560000  1.0 -0.1727513757
C  C74  1  0.84900000  0.56560000  0.87410000  1.0 -0.1727513757
C  C75  1  0.56560000  0.87410000  0.84900000  1.0 -0.1727513757
C  C76  1  0.12590000  0.43440000  0.15100000  1.0 -0.1727513757
C  C77  1  0.15100000  0.12590000  0.43440000  1.0 -0.1727513757
C  C78  1  0.43440000  0.15100000  0.12590000  1.0 -0.1727513757
C  C79  1  0.84950000  0.91890000  0.54340000  1.0 -0.0711631539
C  C80  1  0.91890000  0.54340000  0.84950000  1.0 -0.0711631539
C  C81  1  0.54340000  0.84950000  0.91890000  1.0 -0.0711631539
C  C82  1  0.15050000  0.45660000  0.08110000  1.0 -0.0711631539
C  C83  1  0.08110000  0.15050000  0.45660000  1.0 -0.0711631539
C  C84  1  0.45660000  0.08110000  0.15050000  1.0 -0.0711631539
C  C85  1  0.68260000  0.32260000  0.68950000  1.0 0.6073777092
C  C86  1  0.32260000  0.68950000  0.68260000  1.0 0.6073777092
C  C87  1  0.68950000  0.68260000  0.32260000  1.0 0.6073777092
C  C88  1  0.31740000  0.31050000  0.67740000  1.0 0.6073777092
C  C89  1  0.67740000  0.31740000  0.31050000  1.0 0.6073777092
C  C90  1  0.31050000  0.67740000  0.31740000  1.0 0.6073777092
C  C91  1  0.65390000  0.35150000  0.77180000  1.0 -0.0475149558
C  C92  1  0.35150000  0.77180000  0.65390000  1.0 -0.0475149558
C  C93  1  0.77180000  0.65390000  0.35150000  1.0 -0.0475149558
C  C94  1  0.34610000  0.22820000  0.64850000  1.0 -0.0475149558
C  C95  1  0.64850000  0.34610000  0.22820000  1.0 -0.0475149558
C  C96  1  0.22820000  0.64850000  0.34610000  1.0 -0.0475149558
C  C97  1  0.71010000  0.35780000  0.84070000  1.0 -0.0866438876
C  C98  1  0.35780000  0.84070000  0.71010000  1.0 -0.0866438876
C  C99  1  0.84070000  0.71010000  0.35780000  1.0 -0.0866438876
C  C100  1  0.28990000  0.15930000  0.64220000  1.0 -0.0866438876
C  C101  1  0.64220000  0.28990000  0.15930000  1.0 -0.0866438876
C  C102  1  0.15930000  0.64220000  0.28990000  1.0 -0.0866438876
C  C103  1  0.68320000  0.38430000  0.91730000  1.0 -0.2201997559
C  C104  1  0.38430000  0.91730000  0.68320000  1.0 -0.2201997559
C  C105  1  0.91730000  0.68320000  0.38430000  1.0 -0.2201997559
C  C106  1  0.31680000  0.08270000  0.61570000  1.0 -0.2201997559
C  C107  1  0.61570000  0.31680000  0.08270000  1.0 -0.2201997559
C  C108  1  0.08270000  0.61570000  0.31680000  1.0 -0.2201997559
C  C109  1  0.59790000  0.40110000  0.92370000  1.0 0.245685221
C  C110  1  0.40110000  0.92370000  0.59790000  1.0 0.245685221
C  C111  1  0.92370000  0.59790000  0.40110000  1.0 0.245685221
C  C112  1  0.40210000  0.07630000  0.59890000  1.0 0.245685221
C  C113  1  0.59890000  0.40210000  0.07630000  1.0 0.245685221
C  C114  1  0.07630000  0.59890000  0.40210000  1.0 0.245685221
C  C115  1  0.54410000  0.39200000  0.85790000  1.0 -0.1869541692
C  C116  1  0.39200000  0.85790000  0.54410000  1.0 -0.1869541692
C  C117  1  0.85790000  0.54410000  0.39200000  1.0 -0.1869541692
C  C118  1  0.45590000  0.14210000  0.60800000  1.0 -0.1869541692
C  C119  1  0.60800000  0.45590000  0.14210000  1.0 -0.1869541692
C  C120  1  0.14210000  0.60800000  0.45590000  1.0 -0.1869541692
C  C121  1  0.57070000  0.36890000  0.78120000  1.0 -0.0711631539
C  C122  1  0.36890000  0.78120000  0.57070000  1.0 -0.0711631539
C  C123  1  0.78120000  0.57070000  0.36890000  1.0 -0.0711631539
C  C124  1  0.42930000  0.21880000  0.63110000  1.0 -0.0711631539
C  C125  1  0.63110000  0.42930000  0.21880000  1.0 -0.0711631539
C  C126  1  0.21880000  0.63110000  0.42930000  1.0 -0.0711631539
C  C127  1  0.00000000  0.31695000  0.68305000  1.0 0.3569557381
C  C128  1  0.31695000  0.68305000  0.00000000  1.0 0.3569557381
C  C129  1  0.68305000  0.00000000  0.31695000  1.0 0.3530215336
O  O1  1  0.74440000  0.44360000  0.54720000  1.0 -0.582289615
O  O2  1  0.44360000  0.54720000  0.74440000  1.0 -0.582289615
O  O3  1  0.54720000  0.74440000  0.44360000  1.0 -0.582289615
O  O4  1  0.25560000  0.45280000  0.55640000  1.0 -0.582289615
O  O5  1  0.55640000  0.25560000  0.45280000  1.0 -0.582289615
O  O6  1  0.45280000  0.55640000  0.25560000  1.0 -0.582289615
O  O7  1  0.87170000  0.39130000  0.57150000  1.0 -0.582289615
O  O8  1  0.39130000  0.57150000  0.87170000  1.0 -0.582289615
O  O9  1  0.57150000  0.87170000  0.39130000  1.0 -0.582289615
O  O10  1  0.12830000  0.42850000  0.60870000  1.0 -0.582289615
O  O11  1  0.60870000  0.12830000  0.42850000  1.0 -0.582289615
O  O12  1  0.42850000  0.60870000  0.12830000  1.0 -0.582289615
O  O13  1  0.94330000  0.76990000  0.67870000  1.0 -0.2201997559
O  O14  1  0.76990000  0.67870000  0.94330000  1.0 -0.2201997559
O  O15  1  0.67870000  0.94330000  0.76990000  1.0 -0.2201997559
O  O16  1  0.05670000  0.32130000  0.23010000  1.0 -0.2201997559
O  O17  1  0.23010000  0.05670000  0.32130000  1.0 -0.2201997559
O  O18  1  0.32130000  0.23010000  0.05670000  1.0 -0.2201997559
O  O19  1  0.78310000  0.06880000  0.49530000  1.0 -0.582289615
O  O20  1  0.06880000  0.49530000  0.78310000  1.0 -0.582289615
O  O21  1  0.49530000  0.78310000  0.06880000  1.0 -0.582289615
O  O22  1  0.21690000  0.50470000  0.93120000  1.0 -0.582289615
O  O23  1  0.93120000  0.21690000  0.50470000  1.0 -0.582289615
O  O24  1  0.50470000  0.93120000  0.21690000  1.0 -0.582289615
O  O25  1  0.82150000  0.13100000  0.62000000  1.0 -0.5632203208
O  O26  1  0.13100000  0.62000000  0.82150000  1.0 -0.5632203208
O  O27  1  0.62000000  0.82150000  0.13100000  1.0 -0.5632203208
O  O28  1  0.17850000  0.38000000  0.86900000  1.0 -0.5632203208
O  O29  1  0.86900000  0.17850000  0.38000000  1.0 -0.5632203208
O  O30  1  0.38000000  0.86900000  0.17850000  1.0 -0.5632203208
O  O31  1  0.63010000  0.32180000  0.62760000  1.0 -0.582289615
O  O32  1  0.32180000  0.62760000  0.63010000  1.0 -0.582289615
O  O33  1  0.62760000  0.63010000  0.32180000  1.0 -0.582289615
O  O34  1  0.36990000  0.37240000  0.67820000  1.0 -0.582289615
O  O35  1  0.67820000  0.36990000  0.37240000  1.0 -0.582289615
O  O36  1  0.37240000  0.67820000  0.36990000  1.0 -0.582289615
O  O37  1  0.75800000  0.30090000  0.68650000  1.0 -0.582289615
O  O38  1  0.30090000  0.68650000  0.75800000  1.0 -0.582289615
O  O39  1  0.68650000  0.75800000  0.30090000  1.0 -0.582289615
O  O40  1  0.24200000  0.31350000  0.69910000  1.0 -0.582289615
O  O41  1  0.69910000  0.24200000  0.31350000  1.0 -0.582289615
O  O42  1  0.31350000  0.69910000  0.24200000  1.0 -0.582289615
O  O43  1  0.56955000  0.43045000  0.00000000  1.0 -0.2264120765
O  O44  1  0.43045000  0.00000000  0.56955000  1.0 -0.2264120765
O  O45  1  0.00000000  0.56955000  0.43045000  1.0 -0.2264120765
O  O46  1  0.74820000  0.25180000  0.50000000  1.0 -1.0398587969
O  O47  1  0.25180000  0.50000000  0.74820000  1.0 -1.0398587969
O  O48  1  0.50000000  0.74820000  0.25180000  1.0 -1.0398587969
O  O49  1  0.93840000  0.26480000  0.68500000  1.0 -0.5024109668
O  O50  1  0.26480000  0.68500000  0.93840000  1.0 -0.5024109668
O  O51  1  0.68500000  0.93840000  0.26480000  1.0 -0.5024109668
O  O52  1  0.06160000  0.31500000  0.73520000  1.0 -0.5024109668
O  O53  1  0.73520000  0.06160000  0.31500000  1.0 -0.5024109668
O  O54  1  0.31500000  0.73520000  0.06160000  1.0 -0.5024109668
