# DDEC6 charges by PACMAN v1.1 (https://github.com/mtap-research/PACMAN-charge/)
data_IZEBAR_FSR_pacman
_symmetry_space_group_name_H-M   'P 1'
_cell_length_a   16.31300000
_cell_length_b   16.31300000
_cell_length_c   14.08200000
_cell_angle_alpha   81.27630000
_cell_angle_beta   98.72370000
_cell_angle_gamma   130.76000000
_symmetry_Int_Tables_number   1
_chemical_formula_structural   TbH7C23(NO4)2
_chemical_formula_sum   'Tb4 H28 C92 N8 O32'
_cell_volume   2798.70219202
_cell_formula_units_Z   4
loop_
 _symmetry_equiv_pos_site_id
 _symmetry_equiv_pos_as_xyz
  1  'x, y, z'
loop_
 _atom_site_type_symbol
 _atom_site_label
 _atom_site_symmetry_multiplicity
 _atom_site_fract_x
 _atom_site_fract_y
 _atom_site_fract_z
 _atom_site_occupancy
 _atom_site_charge
Tb  Tb1  1  0.98007000  0.60865000  0.95851000  1.0 1.9894847377
Tb  Tb2  1  0.60865000  0.98007000  0.54149000  1.0 1.9894847377
Tb  Tb3  1  0.01993000  0.39135000  0.04149000  1.0 1.9894847377
Tb  Tb4  1  0.39135000  0.01993000  0.45851000  1.0 1.9894847377
H  H1  1  0.18710000  0.71950000  0.70620000  1.0 0.1393124068
H  H2  1  0.71950000  0.18710000  0.79380000  1.0 0.1393124068
H  H3  1  0.81290000  0.28050000  0.29380000  1.0 0.1393124068
H  H4  1  0.28050000  0.81290000  0.20620000  1.0 0.1393124068
H  H5  1  0.36920000  0.68980000  0.57770000  1.0 0.1393124068
H  H6  1  0.68980000  0.36920000  0.92230000  1.0 0.1393124068
H  H7  1  0.63080000  0.31020000  0.42230000  1.0 0.1393124068
H  H8  1  0.31020000  0.63080000  0.07770000  1.0 0.1393124068
H  H9  1  0.17250000  0.46510000  0.78300000  1.0 0.1311195343
H  H10  1  0.46510000  0.17250000  0.71700000  1.0 0.1311195343
H  H11  1  0.82750000  0.53490000  0.21700000  1.0 0.1311195343
H  H12  1  0.53490000  0.82750000  0.28300000  1.0 0.1311195343
H  H13  1  0.47770000  0.47290000  0.59460000  1.0 0.1311195343
H  H14  1  0.47290000  0.47770000  0.90540000  1.0 0.1311195343
H  H15  1  0.52230000  0.52710000  0.40540000  1.0 0.1311195343
H  H16  1  0.52710000  0.52230000  0.09460000  1.0 0.1311195343
H  H17  1  0.18000000  0.22960000  0.64170000  1.0 0.1311195343
H  H18  1  0.22960000  0.18000000  0.85830000  1.0 0.1311195343
H  H19  1  0.82000000  0.77040000  0.35830000  1.0 0.1311195343
H  H20  1  0.77040000  0.82000000  0.14170000  1.0 0.1311195343
H  H21  1  0.20310000  0.11470000  0.60440000  1.0 0.1393124068
H  H22  1  0.11470000  0.20310000  0.89560000  1.0 0.1393124068
H  H23  1  0.79690000  0.88530000  0.39560000  1.0 0.1393124068
H  H24  1  0.88530000  0.79690000  0.10440000  1.0 0.1393124068
H  H25  1  0.49950000  0.36250000  0.54180000  1.0 0.1311195343
H  H26  1  0.36250000  0.49950000  0.95820000  1.0 0.1311195343
H  H27  1  0.50050000  0.63750000  0.45820000  1.0 0.1311195343
H  H28  1  0.63750000  0.50050000  0.04180000  1.0 0.1311195343
C  C1  1  0.34930000  0.22970000  0.55670000  1.0 -0.0106037091
C  C2  1  0.22970000  0.34930000  0.94330000  1.0 -0.0106037091
C  C3  1  0.65070000  0.77030000  0.44330000  1.0 -0.0106037091
C  C4  1  0.77030000  0.65070000  0.05670000  1.0 -0.0106037091
C  C5  1  0.17080000  0.58820000  0.75730000  1.0 -0.0106037091
C  C6  1  0.58820000  0.17080000  0.74270000  1.0 -0.0106037091
C  C7  1  0.82920000  0.41180000  0.24270000  1.0 -0.0106037091
C  C8  1  0.41180000  0.82920000  0.25730000  1.0 -0.0106037091
C  C9  1  0.28700000  0.72240000  0.63440000  1.0 -0.0106037091
C  C10  1  0.72240000  0.28700000  0.86560000  1.0 -0.0106037091
C  C11  1  0.71300000  0.27760000  0.36560000  1.0 -0.0106037091
C  C12  1  0.27760000  0.71300000  0.13440000  1.0 -0.0106037091
C  C13  1  0.09230000  0.54810000  0.83400000  1.0 0.6374975845
C  C14  1  0.54810000  0.09230000  0.66600000  1.0 0.6374975845
C  C15  1  0.90770000  0.45190000  0.16600000  1.0 0.6374975845
C  C16  1  0.45190000  0.90770000  0.33400000  1.0 0.6374975845
C  C17  1  0.36150000  0.15550000  0.51790000  1.0 0.5641132101
C  C18  1  0.15550000  0.36150000  0.98210000  1.0 0.5641132101
C  C19  1  0.63850000  0.84450000  0.48210000  1.0 0.5641132101
C  C20  1  0.84450000  0.63850000  0.01790000  1.0 0.5641132101
C  C21  1  0.31110000  0.43790000  0.64240000  1.0 -0.0917823186
C  C22  1  0.43790000  0.31110000  0.85760000  1.0 -0.0917823186
C  C23  1  0.68890000  0.56210000  0.35760000  1.0 -0.0967878607
C  C24  1  0.56210000  0.68890000  0.14240000  1.0 -0.0917823186
C  C25  1  0.21110000  0.68230000  0.70040000  1.0 -0.0967878607
C  C26  1  0.68230000  0.21110000  0.79960000  1.0 -0.0967878607
C  C27  1  0.78890000  0.31770000  0.29960000  1.0 -0.0967878607
C  C28  1  0.31770000  0.78890000  0.20040000  1.0 -0.0967878607
C  C29  1  0.31810000  0.66330000  0.62120000  1.0 -0.142311661
C  C30  1  0.66330000  0.31810000  0.87880000  1.0 -0.142311661
C  C31  1  0.68190000  0.33670000  0.37880000  1.0 -0.142311661
C  C32  1  0.33670000  0.68190000  0.12120000  1.0 -0.142311661
C  C33  1  0.27090000  0.56230000  0.67490000  1.0 0.1311195343
C  C34  1  0.56230000  0.27090000  0.82510000  1.0 0.1311195343
C  C35  1  0.72910000  0.43770000  0.32510000  1.0 0.1311195343
C  C36  1  0.43770000  0.72910000  0.17490000  1.0 0.1311195343
C  C37  1  0.20010000  0.52870000  0.74460000  1.0 -0.1348391965
C  C38  1  0.52870000  0.20010000  0.75540000  1.0 -0.142311661
C  C39  1  0.79990000  0.47130000  0.25540000  1.0 -0.1348391965
C  C40  1  0.47130000  0.79990000  0.24460000  1.0 -0.1348391965
C  C41  1  0.29600000  0.49640000  0.65860000  1.0 -0.1081172236
C  C42  1  0.49640000  0.29600000  0.84140000  1.0 -0.1081172236
C  C43  1  0.70400000  0.50360000  0.34140000  1.0 -0.1081172236
C  C44  1  0.50360000  0.70400000  0.15860000  1.0 -0.1081172236
C  C45  1  0.41790000  0.39950000  0.59120000  1.0 -0.1510714114
C  C46  1  0.39950000  0.41790000  0.90880000  1.0 -0.1510714114
C  C47  1  0.58210000  0.60050000  0.40880000  1.0 -0.1510714114
C  C48  1  0.60050000  0.58210000  0.09120000  1.0 -0.1510714114
C  C49  1  0.32360000  0.36460000  0.61670000  1.0 0.1187731858
C  C50  1  0.36460000  0.32360000  0.88330000  1.0 0.1187731858
C  C51  1  0.67640000  0.63540000  0.38330000  1.0 0.1187731858
C  C52  1  0.63540000  0.67640000  0.11670000  1.0 0.1187731858
C  C53  1  0.24620000  0.25880000  0.62060000  1.0 -0.1510714114
C  C54  1  0.25880000  0.24620000  0.87940000  1.0 -0.1510714114
C  C55  1  0.75380000  0.74120000  0.37940000  1.0 -0.1510714114
C  C56  1  0.74120000  0.75380000  0.12060000  1.0 -0.1510714114
C  C57  1  0.25790000  0.18930000  0.59510000  1.0 -0.0967878607
C  C58  1  0.18930000  0.25790000  0.90490000  1.0 -0.0967878607
C  C59  1  0.74210000  0.81070000  0.40490000  1.0 -0.0967878607
C  C60  1  0.81070000  0.74210000  0.09510000  1.0 -0.0967878607
C  C61  1  0.43230000  0.33370000  0.56010000  1.0 -0.0967878607
C  C62  1  0.33370000  0.43230000  0.93990000  1.0 -0.0967878607
C  C63  1  0.56770000  0.66630000  0.43990000  1.0 -0.0967878607
C  C64  1  0.66630000  0.56770000  0.06010000  1.0 -0.0967878607
C  C65  1  0.33150000  0.82690000  0.57130000  1.0 0.6185903951
C  C66  1  0.82690000  0.33150000  0.92870000  1.0 0.6185903951
C  C67  1  0.66850000  0.17310000  0.42870000  1.0 0.6185903951
C  C68  1  0.17310000  0.66850000  0.07130000  1.0 0.6185903951
C  C69  1  0.87050000  0.54550000  0.73800000  1.0 0.0214022721
C  C70  1  0.54550000  0.87050000  0.76200000  1.0 0.0214022721
C  C71  1  0.12950000  0.45450000  0.26200000  1.0 0.0214022721
C  C72  1  0.45450000  0.12950000  0.23800000  1.0 0.0214022721
C  C73  1  0.71650000  0.54950000  0.68200000  1.0 -0.037954633
C  C74  1  0.54950000  0.71650000  0.81800000  1.0 -0.037954633
C  C75  1  0.28350000  0.45050000  0.31800000  1.0 -0.037954633
C  C76  1  0.45050000  0.28350000  0.18200000  1.0 -0.037954633
C  C77  1  0.73590000  0.44810000  0.60600000  1.0 -0.016966672
C  C78  1  0.44810000  0.73590000  0.89400000  1.0 -0.016966672
C  C79  1  0.26410000  0.55190000  0.39400000  1.0 -0.0106037091
C  C80  1  0.55190000  0.26410000  0.10600000  1.0 -0.0106037091
C  C81  1  0.84110000  0.61490000  0.74900000  1.0 0.3032092332
C  C82  1  0.61490000  0.84110000  0.75100000  1.0 0.3032092332
C  C83  1  0.15890000  0.38510000  0.25100000  1.0 0.3032092332
C  C84  1  0.38510000  0.15890000  0.24900000  1.0 0.3032092332
C  C85  1  0.83160000  0.74640000  0.63300000  1.0 -0.0917823186
C  C86  1  0.74640000  0.83160000  0.86700000  1.0 -0.0917823186
C  C87  1  0.16840000  0.25360000  0.36700000  1.0 -0.0840813265
C  C88  1  0.25360000  0.16840000  0.13300000  1.0 -0.0917823186
C  C89  1  0.74100000  0.67500000  0.76200000  1.0 -0.0685864024
C  C90  1  0.67500000  0.74100000  0.73800000  1.0 -0.0685864024
C  C91  1  0.25900000  0.32500000  0.23800000  1.0 -0.0685864024
C  C92  1  0.32500000  0.25900000  0.26200000  1.0 -0.0685864024
N  N1  1  0.78970000  0.53430000  0.66500000  1.0 0.0426399113
N  N2  1  0.53430000  0.78970000  0.83500000  1.0 0.0426399113
N  N3  1  0.21030000  0.46570000  0.33500000  1.0 0.0426399113
N  N4  1  0.46570000  0.21030000  0.16500000  1.0 0.0426399113
N  N5  1  0.78120000  0.64880000  0.69800000  1.0 0.082589456
N  N6  1  0.64880000  0.78120000  0.80200000  1.0 0.082589456
N  N7  1  0.21880000  0.35120000  0.30200000  1.0 0.082589456
N  N8  1  0.35120000  0.21880000  0.19800000  1.0 0.082589456
O  O1  1  0.42210000  0.88070000  0.54360000  1.0 -0.6819565491
O  O2  1  0.88070000  0.42210000  0.95640000  1.0 -0.6819565491
O  O3  1  0.57790000  0.11930000  0.45640000  1.0 -0.6819565491
O  O4  1  0.11930000  0.57790000  0.04360000  1.0 -0.6819565491
O  O5  1  0.07300000  0.60840000  0.84490000  1.0 -0.6060061266
O  O6  1  0.60840000  0.07300000  0.65510000  1.0 -0.6060061266
O  O7  1  0.92700000  0.39160000  0.15510000  1.0 -0.6060061266
O  O8  1  0.39160000  0.92700000  0.34490000  1.0 -0.6060061266
O  O9  1  0.27220000  0.85200000  0.55260000  1.0 -0.551047583
O  O10  1  0.85200000  0.27220000  0.94740000  1.0 -0.551047583
O  O11  1  0.72780000  0.14800000  0.44740000  1.0 -0.551047583
O  O12  1  0.14800000  0.72780000  0.05260000  1.0 -0.551047583
O  O13  1  0.28630000  0.05670000  0.52020000  1.0 -0.5307640478
O  O14  1  0.05670000  0.28630000  0.97980000  1.0 -0.5307640478
O  O15  1  0.71370000  0.94330000  0.47980000  1.0 -0.5307640478
O  O16  1  0.94330000  0.71370000  0.02020000  1.0 -0.5307640478
O  O17  1  0.05850000  0.46150000  0.88110000  1.0 -0.6331634418
O  O18  1  0.46150000  0.05850000  0.61890000  1.0 -0.6331634418
O  O19  1  0.94150000  0.53850000  0.11890000  1.0 -0.6331634418
O  O20  1  0.53850000  0.94150000  0.38110000  1.0 -0.6331634418
O  O21  1  0.45070000  0.19830000  0.48660000  1.0 -0.6060061266
O  O22  1  0.19830000  0.45070000  0.01340000  1.0 -0.6047944919
O  O23  1  0.54930000  0.80170000  0.51340000  1.0 -0.6060061266
O  O24  1  0.80170000  0.54930000  0.98660000  1.0 -0.6060061266
O  O25  1  0.08660000  0.78700000  0.87110000  1.0 -0.2215671212
O  O26  1  0.78700000  0.08660000  0.62890000  1.0 -0.2215671212
O  O27  1  0.91340000  0.21300000  0.12890000  1.0 -0.2338193253
O  O28  1  0.21300000  0.91340000  0.37110000  1.0 -0.2338193253
O  O29  1  0.88420000  0.58880000  0.80840000  1.0 -0.3008299589
O  O30  1  0.58880000  0.88420000  0.69160000  1.0 -0.3008299589
O  O31  1  0.11580000  0.41120000  0.19160000  1.0 -0.3008299589
O  O32  1  0.41120000  0.11580000  0.30840000  1.0 -0.3008299589
