# DDEC6 charges by PACMAN v1.1 (https://github.com/mtap-research/PACMAN-charge/)
data_IZEQUB_FSR_pacman
_symmetry_space_group_name_H-M   'P 1'
_cell_length_a   11.53960000
_cell_length_b   13.96780000
_cell_length_c   27.26620000
_cell_angle_alpha   90.00000000
_cell_angle_beta   90.00000000
_cell_angle_gamma   90.00000000
_symmetry_Int_Tables_number   1
_chemical_formula_structural   Ni3H32(C3O)20
_chemical_formula_sum   'Ni6 H64 C120 O40'
_cell_volume   4394.84313974
_cell_formula_units_Z   2
loop_
 _symmetry_equiv_pos_site_id
 _symmetry_equiv_pos_as_xyz
  1  'x, y, z'
loop_
 _atom_site_type_symbol
 _atom_site_label
 _atom_site_symmetry_multiplicity
 _atom_site_fract_x
 _atom_site_fract_y
 _atom_site_fract_z
 _atom_site_occupancy
 _atom_site_charge
Ni  Ni1  1  0.85030000  0.28137000  0.00000000  1.0 1.1349248845
Ni  Ni2  1  0.14970000  0.78137000  0.50000000  1.0 1.1349248845
Ni  Ni3  1  0.14970000  0.71863000  0.00000000  1.0 1.1349248845
Ni  Ni4  1  0.85030000  0.21863000  0.50000000  1.0 1.1353133876
Ni  Ni5  1  0.00000000  0.50000000  0.00000000  1.0 1.08064663
Ni  Ni6  1  0.00000000  0.00000000  0.50000000  1.0 1.08064663
H  H1  1  0.27160000  0.41380000  0.19940000  1.0 0.1225110823
H  H2  1  0.72840000  0.91380000  0.30060000  1.0 0.1225110823
H  H3  1  0.72840000  0.58620000  0.19940000  1.0 0.1225110823
H  H4  1  0.27160000  0.08620000  0.30060000  1.0 0.1225110823
H  H5  1  0.72840000  0.58620000  0.80060000  1.0 0.1225110823
H  H6  1  0.27160000  0.08620000  0.69940000  1.0 0.1225110823
H  H7  1  0.27160000  0.41380000  0.80060000  1.0 0.1225110823
H  H8  1  0.72840000  0.91380000  0.69940000  1.0 0.1225110823
H  H9  1  0.17220000  0.44760000  0.12780000  1.0 0.1375746109
H  H10  1  0.82780000  0.94760000  0.37220000  1.0 0.1375746109
H  H11  1  0.82780000  0.55240000  0.12780000  1.0 0.1375746109
H  H12  1  0.17220000  0.05240000  0.37220000  1.0 0.1375746109
H  H13  1  0.82780000  0.55240000  0.87220000  1.0 0.1375746109
H  H14  1  0.17220000  0.05240000  0.62780000  1.0 0.1375746109
H  H15  1  0.17220000  0.44760000  0.87220000  1.0 0.1375746109
H  H16  1  0.82780000  0.94760000  0.62780000  1.0 0.1375746109
H  H17  1  0.14960000  0.14260000  0.19620000  1.0 0.1270387234
H  H18  1  0.85040000  0.64260000  0.30380000  1.0 0.1270387234
H  H19  1  0.85040000  0.85740000  0.19620000  1.0 0.1270387234
H  H20  1  0.14960000  0.35740000  0.30380000  1.0 0.1270387234
H  H21  1  0.85040000  0.85740000  0.80380000  1.0 0.1270387234
H  H22  1  0.14960000  0.35740000  0.69620000  1.0 0.1270387234
H  H23  1  0.14960000  0.14260000  0.80380000  1.0 0.1270387234
H  H24  1  0.85040000  0.64260000  0.69620000  1.0 0.1270387234
H  H25  1  0.04630000  0.17850000  0.12510000  1.0 0.1375746109
H  H26  1  0.95370000  0.67850000  0.37490000  1.0 0.1375746109
H  H27  1  0.95370000  0.82150000  0.12510000  1.0 0.1375746109
H  H28  1  0.04630000  0.32150000  0.37490000  1.0 0.1375746109
H  H29  1  0.95370000  0.82150000  0.87490000  1.0 0.1375746109
H  H30  1  0.04630000  0.32150000  0.62510000  1.0 0.1375746109
H  H31  1  0.04630000  0.17850000  0.87490000  1.0 0.1375746109
H  H32  1  0.95370000  0.67850000  0.62510000  1.0 0.1375746109
H  H33  1  0.45520000  0.35200000  0.33060000  1.0 0.1270387234
H  H34  1  0.54480000  0.85200000  0.16940000  1.0 0.1270387234
H  H35  1  0.54480000  0.64800000  0.33060000  1.0 0.1270387234
H  H36  1  0.45520000  0.14800000  0.16940000  1.0 0.1270387234
H  H37  1  0.54480000  0.64800000  0.66940000  1.0 0.1270387234
H  H38  1  0.45520000  0.14800000  0.83060000  1.0 0.1270387234
H  H39  1  0.45520000  0.35200000  0.66940000  1.0 0.1270387234
H  H40  1  0.54480000  0.85200000  0.83060000  1.0 0.1270387234
H  H41  1  0.51910000  0.09280000  0.27360000  1.0 0.1225110823
H  H42  1  0.48090000  0.59280000  0.22640000  1.0 0.1225110823
H  H43  1  0.48090000  0.90720000  0.27360000  1.0 0.1225110823
H  H44  1  0.51910000  0.40720000  0.22640000  1.0 0.1225110823
H  H45  1  0.48090000  0.90720000  0.72640000  1.0 0.1225110823
H  H46  1  0.51910000  0.40720000  0.77360000  1.0 0.1225110823
H  H47  1  0.51910000  0.09280000  0.72640000  1.0 0.1225110823
H  H48  1  0.48090000  0.59280000  0.77360000  1.0 0.1225110823
H  H49  1  0.63110000  0.05580000  0.34240000  1.0 0.1225110823
H  H50  1  0.36890000  0.55580000  0.15760000  1.0 0.1225110823
H  H51  1  0.36890000  0.94420000  0.34240000  1.0 0.1225110823
H  H52  1  0.63110000  0.44420000  0.15760000  1.0 0.1225110823
H  H53  1  0.36890000  0.94420000  0.65760000  1.0 0.1225110823
H  H54  1  0.63110000  0.44420000  0.84240000  1.0 0.1225110823
H  H55  1  0.63110000  0.05580000  0.65760000  1.0 0.1225110823
H  H56  1  0.36890000  0.55580000  0.84240000  1.0 0.1225110823
H  H57  1  0.57610000  0.31900000  0.39510000  1.0 0.1375746109
H  H58  1  0.42390000  0.81900000  0.10490000  1.0 0.1375746109
H  H59  1  0.42390000  0.68100000  0.39510000  1.0 0.1375746109
H  H60  1  0.57610000  0.18100000  0.10490000  1.0 0.1375746109
H  H61  1  0.42390000  0.68100000  0.60490000  1.0 0.1375746109
H  H62  1  0.57610000  0.18100000  0.89510000  1.0 0.1375746109
H  H63  1  0.57610000  0.31900000  0.60490000  1.0 0.1375746109
H  H64  1  0.42390000  0.81900000  0.89510000  1.0 0.1375746109
C  C1  1  0.03710000  0.33870000  0.07220000  1.0 0.5864052731
C  C2  1  0.96290000  0.83870000  0.42780000  1.0 0.5864052731
C  C3  1  0.96290000  0.66130000  0.07220000  1.0 0.5864052731
C  C4  1  0.03710000  0.16130000  0.42780000  1.0 0.5864052731
C  C5  1  0.96290000  0.66130000  0.92780000  1.0 0.5864052731
C  C6  1  0.03710000  0.16130000  0.57220000  1.0 0.5864052731
C  C7  1  0.03710000  0.33870000  0.92780000  1.0 0.5864052731
C  C8  1  0.96290000  0.83870000  0.57220000  1.0 0.5864052731
C  C9  1  0.22230000  0.27470000  0.20504000  1.0 0.0791532007
C  C10  1  0.77770000  0.77470000  0.29496000  1.0 0.0791532007
C  C11  1  0.77770000  0.72530000  0.20504000  1.0 0.0791532007
C  C12  1  0.22230000  0.22530000  0.29496000  1.0 0.0791532007
C  C13  1  0.77770000  0.72530000  0.79496000  1.0 0.0791532007
C  C14  1  0.22230000  0.22530000  0.70504000  1.0 0.0791532007
C  C15  1  0.22230000  0.27470000  0.79496000  1.0 0.0791532007
C  C16  1  0.77770000  0.77470000  0.70504000  1.0 0.0791532007
C  C17  1  0.47680000  0.22720000  0.29486000  1.0 0.0791532007
C  C18  1  0.52320000  0.72720000  0.20514000  1.0 0.0791532007
C  C19  1  0.52320000  0.77280000  0.29486000  1.0 0.0791532007
C  C20  1  0.47680000  0.27280000  0.20514000  1.0 0.0791532007
C  C21  1  0.52320000  0.77280000  0.70514000  1.0 0.0791532007
C  C22  1  0.47680000  0.27280000  0.79486000  1.0 0.0791532007
C  C23  1  0.47680000  0.22720000  0.70514000  1.0 0.0791532007
C  C24  1  0.52320000  0.72720000  0.79486000  1.0 0.0791532007
C  C25  1  0.28950000  0.25000000  0.25000000  1.0 -0.0185000137
C  C26  1  0.71050000  0.75000000  0.25000000  1.0 -0.0185000137
C  C27  1  0.71050000  0.75000000  0.75000000  1.0 -0.0185000137
C  C28  1  0.28950000  0.25000000  0.75000000  1.0 -0.0185000137
C  C29  1  0.40660000  0.25000000  0.25000000  1.0 -0.0011293691
C  C30  1  0.59340000  0.75000000  0.25000000  1.0 -0.0011293691
C  C31  1  0.59340000  0.75000000  0.75000000  1.0 -0.0011293691
C  C32  1  0.40660000  0.25000000  0.75000000  1.0 -0.0011293691
C  C33  1  0.09880000  0.31650000  0.11970000  1.0 -0.0011293691
C  C34  1  0.90120000  0.81650000  0.38030000  1.0 0.0002211738
C  C35  1  0.90120000  0.68350000  0.11970000  1.0 -0.0011293691
C  C36  1  0.09880000  0.18350000  0.38030000  1.0 -0.0011293691
C  C37  1  0.90120000  0.68350000  0.88030000  1.0 -0.0011293691
C  C38  1  0.09880000  0.18350000  0.61970000  1.0 -0.0011293691
C  C39  1  0.09880000  0.31650000  0.88030000  1.0 -0.0011293691
C  C40  1  0.90120000  0.81650000  0.61970000  1.0 0.0002211738
C  C41  1  0.22620000  0.36460000  0.18410000  1.0 -0.148053223
C  C42  1  0.77380000  0.86460000  0.31590000  1.0 -0.148053223
C  C43  1  0.77380000  0.63540000  0.18410000  1.0 -0.148053223
C  C44  1  0.22620000  0.13540000  0.31590000  1.0 -0.148053223
C  C45  1  0.77380000  0.63540000  0.81590000  1.0 -0.148053223
C  C46  1  0.22620000  0.13540000  0.68410000  1.0 -0.148053223
C  C47  1  0.22620000  0.36460000  0.81590000  1.0 -0.148053223
C  C48  1  0.77380000  0.86460000  0.68410000  1.0 -0.148053223
C  C49  1  0.16660000  0.38490000  0.14200000  1.0 -0.0745652806
C  C50  1  0.83340000  0.88490000  0.35800000  1.0 -0.0745652806
C  C51  1  0.83340000  0.61510000  0.14200000  1.0 -0.0745652806
C  C52  1  0.16660000  0.11510000  0.35800000  1.0 -0.0745652806
C  C53  1  0.83340000  0.61510000  0.85800000  1.0 -0.0745652806
C  C54  1  0.16660000  0.11510000  0.64200000  1.0 -0.0745652806
C  C55  1  0.16660000  0.38490000  0.85800000  1.0 -0.0745652806
C  C56  1  0.83340000  0.88490000  0.64200000  1.0 -0.0745652806
C  C57  1  0.15430000  0.20570000  0.18240000  1.0 -0.148053223
C  C58  1  0.84570000  0.70570000  0.31760000  1.0 -0.148053223
C  C59  1  0.84570000  0.79430000  0.18240000  1.0 -0.148053223
C  C60  1  0.15430000  0.29430000  0.31760000  1.0 -0.148053223
C  C61  1  0.84570000  0.79430000  0.81760000  1.0 -0.148053223
C  C62  1  0.15430000  0.29430000  0.68240000  1.0 -0.148053223
C  C63  1  0.15430000  0.20570000  0.81760000  1.0 -0.148053223
C  C64  1  0.84570000  0.70570000  0.68240000  1.0 -0.148053223
C  C65  1  0.09320000  0.22700000  0.14020000  1.0 -0.0831016797
C  C66  1  0.90680000  0.72700000  0.35980000  1.0 -0.0895339526
C  C67  1  0.90680000  0.77300000  0.14020000  1.0 -0.0831016797
C  C68  1  0.09320000  0.27300000  0.35980000  1.0 -0.0895339526
C  C69  1  0.90680000  0.77300000  0.85980000  1.0 -0.0831016797
C  C70  1  0.09320000  0.27300000  0.64020000  1.0 -0.0895339526
C  C71  1  0.09320000  0.22700000  0.85980000  1.0 -0.0895339526
C  C72  1  0.90680000  0.72700000  0.64020000  1.0 -0.0895339526
C  C73  1  0.49340000  0.29100000  0.33190000  1.0 -0.1434333365
C  C74  1  0.50660000  0.79100000  0.16810000  1.0 -0.1434333365
C  C75  1  0.50660000  0.70900000  0.33190000  1.0 -0.1434333365
C  C76  1  0.49340000  0.20900000  0.16810000  1.0 -0.1434333365
C  C77  1  0.50660000  0.70900000  0.66810000  1.0 -0.1434333365
C  C78  1  0.49340000  0.20900000  0.83190000  1.0 -0.1434333365
C  C79  1  0.49340000  0.29100000  0.66810000  1.0 -0.1434333365
C  C80  1  0.50660000  0.79100000  0.83190000  1.0 -0.1434333365
C  C81  1  0.52900000  0.13970000  0.29900000  1.0 -0.148053223
C  C82  1  0.47100000  0.63970000  0.20100000  1.0 -0.148053223
C  C83  1  0.47100000  0.86030000  0.29900000  1.0 -0.148053223
C  C84  1  0.52900000  0.36030000  0.20100000  1.0 -0.148053223
C  C85  1  0.47100000  0.86030000  0.70100000  1.0 -0.148053223
C  C86  1  0.52900000  0.36030000  0.79900000  1.0 -0.148053223
C  C87  1  0.52900000  0.13970000  0.70100000  1.0 -0.148053223
C  C88  1  0.47100000  0.63970000  0.79900000  1.0 -0.148053223
C  C89  1  0.59640000  0.11810000  0.33980000  1.0 -0.0895339526
C  C90  1  0.40360000  0.61810000  0.16020000  1.0 -0.0895339526
C  C91  1  0.40360000  0.88190000  0.33980000  1.0 -0.0895339526
C  C92  1  0.59640000  0.38190000  0.16020000  1.0 -0.0895339526
C  C93  1  0.40360000  0.88190000  0.66020000  1.0 -0.0895339526
C  C94  1  0.59640000  0.38190000  0.83980000  1.0 -0.0895339526
C  C95  1  0.59640000  0.11810000  0.66020000  1.0 -0.0895339526
C  C96  1  0.40360000  0.61810000  0.83980000  1.0 -0.0895339526
C  C97  1  0.61420000  0.18360000  0.37619000  1.0 0.0065241196
C  C98  1  0.38580000  0.68360000  0.12381000  1.0 0.0065241196
C  C99  1  0.38580000  0.81640000  0.37619000  1.0 0.0065241196
C  C100  1  0.61420000  0.31640000  0.12381000  1.0 0.0065241196
C  C101  1  0.38580000  0.81640000  0.62381000  1.0 0.0065241196
C  C102  1  0.61420000  0.31640000  0.87619000  1.0 0.0065241196
C  C103  1  0.61420000  0.18360000  0.62381000  1.0 0.0065241196
C  C104  1  0.38580000  0.68360000  0.87619000  1.0 0.0065241196
C  C105  1  0.69020000  0.15860000  0.41947000  1.0 0.564153913
C  C106  1  0.30980000  0.65860000  0.08053000  1.0 0.564153913
C  C107  1  0.30980000  0.84140000  0.41947000  1.0 0.564153913
C  C108  1  0.69020000  0.34140000  0.08053000  1.0 0.564153913
C  C109  1  0.30980000  0.84140000  0.58053000  1.0 0.564153913
C  C110  1  0.69020000  0.34140000  0.91947000  1.0 0.564153913
C  C111  1  0.69020000  0.15860000  0.58053000  1.0 0.564153913
C  C112  1  0.30980000  0.65860000  0.91947000  1.0 0.564153913
C  C113  1  0.56280000  0.27050000  0.37080000  1.0 -0.0831016797
C  C114  1  0.43720000  0.77050000  0.12920000  1.0 -0.0831016797
C  C115  1  0.43720000  0.72950000  0.37080000  1.0 -0.0831016797
C  C116  1  0.56280000  0.22950000  0.12920000  1.0 -0.0831016797
C  C117  1  0.43720000  0.72950000  0.62920000  1.0 -0.0831016797
C  C118  1  0.56280000  0.22950000  0.87080000  1.0 -0.0831016797
C  C119  1  0.56280000  0.27050000  0.62920000  1.0 -0.0831016797
C  C120  1  0.43720000  0.77050000  0.87080000  1.0 -0.0831016797
O  O1  1  0.84420000  0.42950000  0.00000000  1.0 -0.3479224683
O  O2  1  0.15580000  0.92950000  0.50000000  1.0 -0.3440505307
O  O3  1  0.15580000  0.57050000  0.00000000  1.0 -0.3479224683
O  O4  1  0.84420000  0.07050000  0.50000000  1.0 -0.3479224683
O  O5  1  0.96740000  0.27820000  0.05617000  1.0 -0.542007808
O  O6  1  0.03260000  0.77820000  0.44383000  1.0 -0.542007808
O  O7  1  0.03260000  0.72180000  0.05617000  1.0 -0.542007808
O  O8  1  0.96740000  0.22180000  0.44383000  1.0 -0.542007808
O  O9  1  0.03260000  0.72180000  0.94383000  1.0 -0.542007808
O  O10  1  0.96740000  0.22180000  0.55617000  1.0 -0.542007808
O  O11  1  0.96740000  0.27820000  0.94383000  1.0 -0.542007808
O  O12  1  0.03260000  0.77820000  0.55617000  1.0 -0.542007808
O  O13  1  0.84990000  0.13460000  0.00000000  1.0 -0.1970621686
O  O14  1  0.15010000  0.63460000  0.50000000  1.0 -0.1886763539
O  O15  1  0.15010000  0.86540000  0.00000000  1.0 -0.1970621686
O  O16  1  0.84990000  0.36540000  0.50000000  1.0 -0.1886763539
O  O17  1  0.06230000  0.41570000  0.05250000  1.0 -0.474109013
O  O18  1  0.93770000  0.91570000  0.44750000  1.0 -0.474109013
O  O19  1  0.93770000  0.58430000  0.05250000  1.0 -0.474109013
O  O20  1  0.06230000  0.08430000  0.44750000  1.0 -0.474109013
O  O21  1  0.93770000  0.58430000  0.94750000  1.0 -0.474109013
O  O22  1  0.06230000  0.08430000  0.55250000  1.0 -0.474109013
O  O23  1  0.06230000  0.41570000  0.94750000  1.0 -0.474109013
O  O24  1  0.93770000  0.91570000  0.55250000  1.0 -0.474109013
O  O25  1  0.72170000  0.22580000  0.44657000  1.0 -0.5326976072
O  O26  1  0.27830000  0.72580000  0.05343000  1.0 -0.5326976072
O  O27  1  0.27830000  0.77420000  0.44657000  1.0 -0.5326976072
O  O28  1  0.72170000  0.27420000  0.05343000  1.0 -0.5326976072
O  O29  1  0.27830000  0.77420000  0.55343000  1.0 -0.5326976072
O  O30  1  0.72170000  0.27420000  0.94657000  1.0 -0.5326976072
O  O31  1  0.72170000  0.22580000  0.55343000  1.0 -0.5326976072
O  O32  1  0.27830000  0.72580000  0.94657000  1.0 -0.5326976072
O  O33  1  0.71470000  0.07250000  0.42521000  1.0 -0.4361484017
O  O34  1  0.28530000  0.57250000  0.07479000  1.0 -0.4361484017
O  O35  1  0.28530000  0.92750000  0.42521000  1.0 -0.4361484017
O  O36  1  0.71470000  0.42750000  0.07479000  1.0 -0.4361484017
O  O37  1  0.28530000  0.92750000  0.57479000  1.0 -0.4361484017
O  O38  1  0.71470000  0.42750000  0.92521000  1.0 -0.4361484017
O  O39  1  0.71470000  0.07250000  0.57479000  1.0 -0.4361484017
O  O40  1  0.28530000  0.57250000  0.92521000  1.0 -0.4361484017
