# DDEC6 charges by PACMAN v1.1 (https://github.com/mtap-research/PACMAN-charge/)
data_IZIBUQ_ASR_pacman
_symmetry_space_group_name_H-M   'P 1'
_cell_length_a   20.14400000
_cell_length_b   20.14400000
_cell_length_c   11.19390000
_cell_angle_alpha   90.00000000
_cell_angle_beta   90.00000000
_cell_angle_gamma   120.00900000
_symmetry_Int_Tables_number   1
_chemical_formula_structural   Zr3(C17O6)2
_chemical_formula_sum   'Zr6 C68 O24'
_cell_volume   3933.36353062
_cell_formula_units_Z   2
loop_
 _symmetry_equiv_pos_site_id
 _symmetry_equiv_pos_as_xyz
  1  'x, y, z'
loop_
 _atom_site_type_symbol
 _atom_site_label
 _atom_site_symmetry_multiplicity
 _atom_site_fract_x
 _atom_site_fract_y
 _atom_site_fract_z
 _atom_site_occupancy
 _atom_site_charge
Zr  Zr1  1  0.93432000  0.06568000  0.00000000  1.0 2.0609159196
Zr  Zr2  1  0.06568000  0.93432000  0.00000000  1.0 2.0683045113
Zr  Zr3  1  0.91887000  0.91887000  0.84650000  1.0 2.2959444249
Zr  Zr4  1  0.08113000  0.08113000  0.84650000  1.0 2.2878529752
Zr  Zr5  1  0.08113000  0.08113000  0.15350000  1.0 2.2878529752
Zr  Zr6  1  0.91887000  0.91887000  0.15350000  1.0 2.2878529752
C  C1  1  0.00469000  0.56495000  0.43739000  1.0 0.0247410973
C  C2  1  0.99531000  0.43505000  0.43739000  1.0 0.0247410973
C  C3  1  0.43505000  0.99531000  0.56261000  1.0 0.0247410973
C  C4  1  0.56495000  0.00469000  0.56261000  1.0 0.0247410973
C  C5  1  0.99531000  0.43505000  0.56261000  1.0 0.0247410973
C  C6  1  0.00469000  0.56495000  0.56261000  1.0 0.0247410973
C  C7  1  0.56495000  0.00469000  0.43739000  1.0 0.0305295286
C  C8  1  0.43505000  0.99531000  0.43739000  1.0 0.0247410973
C  C9  1  0.99708000  0.62308000  0.36910000  1.0 0.0566021694
C  C10  1  0.00292000  0.37692000  0.36910000  1.0 0.0566021694
C  C11  1  0.37692000  0.00292000  0.63090000  1.0 0.0546513485
C  C12  1  0.62308000  0.99708000  0.63090000  1.0 0.0546513485
C  C13  1  0.00292000  0.37692000  0.63090000  1.0 0.0566021694
C  C14  1  0.99708000  0.62308000  0.63090000  1.0 0.0566021694
C  C15  1  0.62308000  0.99708000  0.36910000  1.0 0.0546513485
C  C16  1  0.37692000  0.00292000  0.36910000  1.0 0.0546513485
C  C17  1  0.05938000  0.67504000  0.30077000  1.0 -0.020330845
C  C18  1  0.94062000  0.32496000  0.30077000  1.0 -0.020330845
C  C19  1  0.32496000  0.94062000  0.69923000  1.0 -0.020330845
C  C20  1  0.67504000  0.05938000  0.69923000  1.0 -0.020330845
C  C21  1  0.94062000  0.32496000  0.69923000  1.0 -0.020330845
C  C22  1  0.05938000  0.67504000  0.69923000  1.0 -0.020330845
C  C23  1  0.67504000  0.05938000  0.30077000  1.0 -0.020330845
C  C24  1  0.32496000  0.94062000  0.30077000  1.0 -0.020330845
C  C25  1  0.05655000  0.73393000  0.24128000  1.0 0.0414792267
C  C26  1  0.94345000  0.26607000  0.24128000  1.0 0.0414792267
C  C27  1  0.26607000  0.94345000  0.75872000  1.0 0.0414792267
C  C28  1  0.73393000  0.05655000  0.75872000  1.0 0.0414792267
C  C29  1  0.94345000  0.26607000  0.75872000  1.0 0.0414792267
C  C30  1  0.05655000  0.73393000  0.75872000  1.0 0.0414792267
C  C31  1  0.73393000  0.05655000  0.24128000  1.0 0.0414792267
C  C32  1  0.26607000  0.94345000  0.24128000  1.0 0.0414792267
C  C33  1  0.93086000  0.62956000  0.37477000  1.0 -0.0436606507
C  C34  1  0.06914000  0.37044000  0.37477000  1.0 -0.0436606507
C  C35  1  0.37044000  0.06914000  0.62523000  1.0 -0.0452301404
C  C36  1  0.62956000  0.93086000  0.62523000  1.0 -0.0452301404
C  C37  1  0.06914000  0.37044000  0.62523000  1.0 -0.0436606507
C  C38  1  0.93086000  0.62956000  0.62523000  1.0 -0.0436606507
C  C39  1  0.62956000  0.93086000  0.37477000  1.0 -0.0436606507
C  C40  1  0.37044000  0.06914000  0.37477000  1.0 -0.0436606507
C  C41  1  0.99380000  0.80750000  0.18700000  1.0 0.7026146898
C  C42  1  0.00620000  0.19250000  0.18700000  1.0 0.7026146898
C  C43  1  0.19250000  0.00620000  0.81300000  1.0 0.7026146898
C  C44  1  0.80750000  0.99380000  0.81300000  1.0 0.7026146898
C  C45  1  0.00620000  0.19250000  0.81300000  1.0 0.7026146898
C  C46  1  0.99380000  0.80750000  0.81300000  1.0 0.7026146898
C  C47  1  0.80750000  0.99380000  0.18700000  1.0 0.7026146898
C  C48  1  0.19250000  0.00620000  0.18700000  1.0 0.7026146898
C  C49  1  0.99172000  0.74244000  0.24931000  1.0 -0.1283271698
C  C50  1  0.00828000  0.25756000  0.24931000  1.0 -0.1283271698
C  C51  1  0.25756000  0.00828000  0.75069000  1.0 -0.1283271698
C  C52  1  0.74244000  0.99172000  0.75069000  1.0 -0.1283271698
C  C53  1  0.00828000  0.25756000  0.75069000  1.0 -0.1283271698
C  C54  1  0.99172000  0.74244000  0.75069000  1.0 -0.1283271698
C  C55  1  0.74244000  0.99172000  0.24931000  1.0 -0.1283271698
C  C56  1  0.25756000  0.00828000  0.24931000  1.0 -0.1283271698
C  C57  1  0.92829000  0.68954000  0.31572000  1.0 0.0305295286
C  C58  1  0.07172000  0.31045000  0.31572000  1.0 0.0305295286
C  C59  1  0.31045000  0.07172000  0.68428000  1.0 0.0305295286
C  C60  1  0.68954000  0.92828000  0.68428000  1.0 0.0305295286
C  C61  1  0.07172000  0.31045000  0.68428000  1.0 0.0305295286
C  C62  1  0.92829000  0.68954000  0.68428000  1.0 0.0305295286
C  C63  1  0.68954000  0.92828000  0.31572000  1.0 0.0305295286
C  C64  1  0.31045000  0.07172000  0.31572000  1.0 0.0305295286
C  C65  1  0.00000000  0.50000000  0.37690000  1.0 -0.109320894
C  C66  1  0.50000000  0.00000000  0.62310000  1.0 -0.101870445
C  C67  1  0.00000000  0.50000000  0.62310000  1.0 -0.109320894
C  C68  1  0.50000000  0.00000000  0.37690000  1.0 -0.109320894
O  O1  1  0.04051000  0.82855000  0.10200000  1.0 -0.5087661496
O  O2  1  0.95949000  0.17145000  0.10200000  1.0 -0.5087661496
O  O3  1  0.17145000  0.95949000  0.89800000  1.0 -0.5087661496
O  O4  1  0.82855000  0.04051000  0.89800000  1.0 -0.5087661496
O  O5  1  0.95949000  0.17145000  0.89800000  1.0 -0.5087661496
O  O6  1  0.04051000  0.82855000  0.89800000  1.0 -0.5087661496
O  O7  1  0.82855000  0.04051000  0.10200000  1.0 -0.5087661496
O  O8  1  0.17145000  0.95949000  0.10200000  1.0 -0.5087661496
O  O9  1  0.95549000  0.84031000  0.21950000  1.0 -0.5863449847
O  O10  1  0.04451000  0.15969000  0.21950000  1.0 -0.5820959087
O  O11  1  0.15969000  0.04451000  0.78050000  1.0 -0.5820959087
O  O12  1  0.84031000  0.95549000  0.78050000  1.0 -0.5820959087
O  O13  1  0.04451000  0.15969000  0.78050000  1.0 -0.5820959087
O  O14  1  0.95549000  0.84031000  0.78050000  1.0 -0.5820959087
O  O15  1  0.84031000  0.95549000  0.21950000  1.0 -0.5863449847
O  O16  1  0.15969000  0.04451000  0.21950000  1.0 -0.5820959087
O  O17  1  0.85966000  0.93394000  0.00000000  1.0 -1.2079729116
O  O18  1  0.14034000  0.06606000  0.00000000  1.0 -1.2198373353
O  O19  1  0.06606000  0.14034000  0.00000000  1.0 -1.2079729116
O  O20  1  0.93394000  0.85966000  0.00000000  1.0 -1.2079729116
O  O21  1  0.96034000  0.03966000  0.82070000  1.0 -1.1466291225
O  O22  1  0.03966000  0.96034000  0.82070000  1.0 -1.1466291225
O  O23  1  0.96034000  0.03966000  0.17930000  1.0 -1.1438831365
O  O24  1  0.03966000  0.96034000  0.17930000  1.0 -1.1466291225
