# DDEC6 charges by PACMAN v1.1 (https://github.com/mtap-research/PACMAN-charge/)
data_IZIHIK_ASR_pacman
_symmetry_space_group_name_H-M   'P 1'
_cell_length_a   33.39620000
_cell_length_b   33.39620000
_cell_length_c   33.39620000
_cell_angle_alpha   155.47800000
_cell_angle_beta   155.47800000
_cell_angle_gamma   34.95440000
_symmetry_Int_Tables_number   1
_chemical_formula_structural   Tb3H29C45O22
_chemical_formula_sum   'Tb12 H116 C180 O88'
_cell_volume   6409.02767647
_cell_formula_units_Z   4
loop_
 _symmetry_equiv_pos_site_id
 _symmetry_equiv_pos_as_xyz
  1  'x, y, z'
loop_
 _atom_site_type_symbol
 _atom_site_label
 _atom_site_symmetry_multiplicity
 _atom_site_fract_x
 _atom_site_fract_y
 _atom_site_fract_z
 _atom_site_occupancy
 _atom_site_charge
Tb  Tb1  1  0.29020000  0.29020000  0.00000000  1.0 2.0817452175
Tb  Tb2  1  0.70980000  0.70980000  0.00000000  1.0 2.0817452175
Tb  Tb3  1  0.45980000  0.95980000  0.50000000  1.0 2.0817452175
Tb  Tb4  1  0.04020000  0.54020000  0.50000000  1.0 2.0817452175
Tb  Tb5  1  0.34082000  0.57817000  0.79481000  1.0 1.9154823822
Tb  Tb6  1  0.78336000  0.54601000  0.20519000  1.0 1.9154823822
Tb  Tb7  1  0.42183000  0.21664000  0.76265000  1.0 1.9154823822
Tb  Tb8  1  0.45399000  0.65918000  0.23735000  1.0 1.9154823822
Tb  Tb9  1  0.96664000  0.67183000  0.26265000  1.0 1.9154823822
Tb  Tb10  1  0.40918000  0.70399000  0.73735000  1.0 1.9154823822
Tb  Tb11  1  0.29601000  0.03336000  0.70519000  1.0 1.9154823822
Tb  Tb12  1  0.32817000  0.59082000  0.29481000  1.0 1.9154823822
H  H1  1  0.50940000  0.71940000  0.05700000  1.0 0.195187096
H  H2  1  0.66240000  0.45240000  0.94300000  1.0 0.1906396794
H  H3  1  0.28060000  0.33760000  0.79000000  1.0 0.1906396794
H  H4  1  0.54760000  0.49060000  0.21000000  1.0 0.195187096
H  H5  1  0.08760000  0.53060000  0.29000000  1.0 0.1906396794
H  H6  1  0.24060000  0.79760000  0.71000000  1.0 0.195187096
H  H7  1  0.20240000  0.91240000  0.44300000  1.0 0.195187096
H  H8  1  0.46940000  0.75940000  0.55700000  1.0 0.195187096
H  H9  1  0.48310000  0.72040000  0.07330000  1.0 0.2075727767
H  H10  1  0.64710000  0.40980000  0.92670000  1.0 0.2075727767
H  H11  1  0.27960000  0.35290000  0.76270000  1.0 0.2075727767
H  H12  1  0.59020000  0.51690000  0.23730000  1.0 0.2075727767
H  H13  1  0.10290000  0.52960000  0.26270000  1.0 0.2075727767
H  H14  1  0.26690000  0.84020000  0.73730000  1.0 0.2075727767
H  H15  1  0.15980000  0.89710000  0.42670000  1.0 0.2075727767
H  H16  1  0.47040000  0.73310000  0.57330000  1.0 0.2075727767
H  H17  1  0.47210000  0.31980000  0.26910000  1.0 0.1194424228
H  H18  1  0.05070000  0.20300000  0.73090000  1.0 0.1194424228
H  H19  1  0.68020000  0.94930000  0.15230000  1.0 0.1194424228
H  H20  1  0.79700000  0.52790000  0.84770000  1.0 0.1194424228
H  H21  1  0.69930000  0.93020000  0.65230000  1.0 0.1194424228
H  H22  1  0.27790000  0.04700000  0.34770000  1.0 0.1194424228
H  H23  1  0.95300000  0.30070000  0.23090000  1.0 0.1194424228
H  H24  1  0.06980000  0.72210000  0.76910000  1.0 0.1194424228
H  H25  1  0.55910000  0.26910000  0.36140000  1.0 0.1024166363
H  H26  1  0.90770000  0.19770000  0.63860000  1.0 0.1024166363
H  H27  1  0.73090000  0.09230000  0.29000000  1.0 0.1024166363
H  H28  1  0.80230000  0.44090000  0.71000000  1.0 0.1024166363
H  H29  1  0.84230000  0.98090000  0.79000000  1.0 0.1024166363
H  H30  1  0.19090000  0.05230000  0.21000000  1.0 0.1024166363
H  H31  1  0.94770000  0.15770000  0.13860000  1.0 0.1024166363
H  H32  1  0.01910000  0.80910000  0.86140000  1.0 0.1024166363
H  H33  1  0.45110000  0.58310000  0.53200000  1.0 0.1273987004
H  H34  1  0.05110000  0.91910000  0.46800000  1.0 0.1273987004
H  H35  1  0.41690000  0.94890000  0.86800000  1.0 0.1273987004
H  H36  1  0.08090000  0.54890000  0.13200000  1.0 0.1273987004
H  H37  1  0.69890000  0.66690000  0.36800000  1.0 0.1273987004
H  H38  1  0.29890000  0.33090000  0.63200000  1.0 0.1273987004
H  H39  1  0.66910000  0.30110000  0.96800000  1.0 0.1273987004
H  H40  1  0.33310000  0.70110000  0.03200000  1.0 0.1273987004
H  H41  1  0.72290000  0.31810000  0.59660000  1.0 0.1098944963
H  H42  1  0.72150000  0.12630000  0.40340000  1.0 0.1098944963
H  H43  1  0.68190000  0.27850000  0.40480000  1.0 0.1098944963
H  H44  1  0.87370000  0.27710000  0.59520000  1.0 0.1098944963
H  H45  1  0.02850000  0.93190000  0.90480000  1.0 0.1098944963
H  H46  1  0.02710000  0.12370000  0.09520000  1.0 0.1098944963
H  H47  1  0.87630000  0.97150000  0.90340000  1.0 0.1098944963
H  H48  1  0.06810000  0.97290000  0.09660000  1.0 0.1098944963
H  H49  1  0.78640000  0.25940000  0.65920000  1.0 0.1024166363
H  H50  1  0.60020000  0.12720000  0.34080000  1.0 0.1024166363
H  H51  1  0.74060000  0.39980000  0.52700000  1.0 0.1024166363
H  H52  1  0.87280000  0.21360000  0.47300000  1.0 0.1024166363
H  H53  1  0.14980000  0.99060000  0.02700000  1.0 0.1024166363
H  H54  1  0.96360000  0.12280000  0.97300000  1.0 0.1024166363
H  H55  1  0.87720000  0.85020000  0.84080000  1.0 0.1024166363
H  H56  1  0.00940000  0.03640000  0.15920000  1.0 0.1024166363
H  H57  1  0.71360000  0.30480000  0.69360000  1.0 0.1098944963
H  H58  1  0.61120000  0.02000000  0.30640000  1.0 0.1098944963
H  H59  1  0.69520000  0.38880000  0.40880000  1.0 0.1098944963
H  H60  1  0.98000000  0.28640000  0.59120000  1.0 0.1098944963
H  H61  1  0.13880000  0.94520000  0.90880000  1.0 0.1098944963
H  H62  1  0.03640000  0.23000000  0.09120000  1.0 0.1098944963
H  H63  1  0.77000000  0.86120000  0.80640000  1.0 0.1098944963
H  H64  1  0.05480000  0.96360000  0.19360000  1.0 0.1098944963
H  H65  1  0.50810000  0.42280000  0.55810000  1.0 0.1273987004
H  H66  1  0.86470000  0.95000000  0.44190000  1.0 0.1273987004
H  H67  1  0.57720000  0.13530000  0.08530000  1.0 0.1273987004
H  H68  1  0.05000000  0.49190000  0.91470000  1.0 0.1273987004
H  H69  1  0.88530000  0.82720000  0.58530000  1.0 0.1273987004
H  H70  1  0.24190000  0.30000000  0.41470000  1.0 0.1273987004
H  H71  1  0.70000000  0.11470000  0.94190000  1.0 0.1273987004
H  H72  1  0.17280000  0.75810000  0.05810000  1.0 0.1273987004
H  H73  1  0.54170000  0.26520000  0.54510000  1.0 0.1098944963
H  H74  1  0.72010000  0.99660000  0.45490000  1.0 0.1098944963
H  H75  1  0.73480000  0.27990000  0.27650000  1.0 0.1098944963
H  H76  1  0.00340000  0.45830000  0.72350000  1.0 0.1098944963
H  H77  1  0.02990000  0.98480000  0.77650000  1.0 0.1098944963
H  H78  1  0.20830000  0.25340000  0.22350000  1.0 0.1098944963
H  H79  1  0.74660000  0.97010000  0.95490000  1.0 0.1098944963
H  H80  1  0.01520000  0.79170000  0.04510000  1.0 0.1098944963
H  H81  1  0.47140000  0.33333333  0.60030000  1.0 0.1024166363
H  H82  1  0.73300000  0.87110000  0.39970000  1.0 0.1024166363
H  H83  1  0.66666667  0.26700000  0.13810000  1.0 0.1024166363
H  H84  1  0.12890000  0.52860000  0.86190000  1.0 0.1024166363
H  H85  1  0.01700000  0.91670000  0.63810000  1.0 0.1024166363
H  H86  1  0.27860000  0.37890000  0.36190000  1.0 0.1024166363
H  H87  1  0.62110000  0.98300000  0.89970000  1.0 0.1024166363
H  H88  1  0.08330000  0.72140000  0.10030000  1.0 0.1024166363
H  H89  1  0.50710000  0.59820000  0.83510000  1.0 0.1194424228
H  H90  1  0.76310000  0.67200000  0.16490000  1.0 0.1194424228
H  H91  1  0.40180000  0.23690000  0.90890000  1.0 0.1194424228
H  H92  1  0.32800000  0.49290000  0.09110000  1.0 0.1194424228
H  H93  1  0.98690000  0.65180000  0.40890000  1.0 0.1194424228
H  H94  1  0.24290000  0.57800000  0.59110000  1.0 0.1194424228
H  H95  1  0.42200000  0.01310000  0.66490000  1.0 0.1194424228
H  H96  1  0.34820000  0.75710000  0.33510000  1.0 0.1194424228
H  H97  1  0.57320000  0.57320000  0.00000000  1.0 0.0864731937
H  H98  1  0.42680000  0.42680000  0.00000000  1.0 0.0795986313
H  H99  1  0.17680000  0.67680000  0.50000000  1.0 0.0795986313
H  H100  1  0.32320000  0.82320000  0.50000000  1.0 0.0795986313
H  H101  1  0.44120000  0.74920000  0.07700000  1.0 0.2075727767
H  H102  1  0.67220000  0.36420000  0.92300000  1.0 0.2075727767
H  H103  1  0.25080000  0.32780000  0.69200000  1.0 0.2075727767
H  H104  1  0.63580000  0.55880000  0.30800000  1.0 0.2075727767
H  H105  1  0.07780000  0.50080000  0.19200000  1.0 0.2075727767
H  H106  1  0.30880000  0.88580000  0.80800000  1.0 0.2075727767
H  H107  1  0.11420000  0.92220000  0.42300000  1.0 0.2075727767
H  H108  1  0.49920000  0.69120000  0.57700000  1.0 0.2075727767
H  H109  1  0.47960000  0.74090000  0.06670000  1.0 0.1906396794
H  H110  1  0.67420000  0.41290000  0.93330000  1.0 0.1906396794
H  H111  1  0.25910000  0.32580000  0.73870000  1.0 0.1906396794
H  H112  1  0.58710000  0.52040000  0.26130000  1.0 0.1906396794
H  H113  1  0.07580000  0.50910000  0.23870000  1.0 0.1906396794
H  H114  1  0.27040000  0.83710000  0.76130000  1.0 0.1906396794
H  H115  1  0.16290000  0.92420000  0.43330000  1.0 0.1906396794
H  H116  1  0.49090000  0.72960000  0.56670000  1.0 0.1906396794
C  C1  1  0.46460000  0.45110000  0.39810000  1.0 -0.0533675627
C  C2  1  0.05300000  0.06650000  0.60190000  1.0 -0.0533675627
C  C3  1  0.54890000  0.94700000  0.01350000  1.0 -0.0533675627
C  C4  1  0.93350000  0.53540000  0.98650000  1.0 -0.0533675627
C  C5  1  0.69700000  0.79890000  0.51350000  1.0 -0.0533675627
C  C6  1  0.28540000  0.18350000  0.48650000  1.0 -0.0533675627
C  C7  1  0.81650000  0.30300000  0.10190000  1.0 -0.0533675627
C  C8  1  0.20110000  0.71460000  0.89810000  1.0 -0.0533675627
C  C9  1  0.48800000  0.36390000  0.34390000  1.0 -0.0810426246
C  C10  1  0.02000000  0.14410000  0.65610000  1.0 -0.0810426246
C  C11  1  0.63610000  0.98000000  0.12410000  1.0 -0.0810426246
C  C12  1  0.85590000  0.51200000  0.87590000  1.0 -0.0810426246
C  C13  1  0.73000000  0.88610000  0.62410000  1.0 -0.0810426246
C  C14  1  0.26200000  0.10590000  0.37590000  1.0 -0.0810426246
C  C15  1  0.89410000  0.27000000  0.15610000  1.0 -0.0810426246
C  C16  1  0.11390000  0.73800000  0.84390000  1.0 -0.0810426246
C  C17  1  0.53880000  0.33180000  0.39700000  1.0 -0.1872490729
C  C18  1  0.93480000  0.14180000  0.60300000  1.0 -0.1872490729
C  C19  1  0.66820000  0.06520000  0.20700000  1.0 -0.1872490729
C  C20  1  0.85820000  0.46120000  0.79300000  1.0 -0.1872490729
C  C21  1  0.81520000  0.91820000  0.70700000  1.0 -0.1872490729
C  C22  1  0.21120000  0.10820000  0.29300000  1.0 -0.1872490729
C  C23  1  0.89180000  0.18480000  0.10300000  1.0 -0.1872490729
C  C24  1  0.08180000  0.78880000  0.89700000  1.0 -0.1872490729
C  C25  1  0.55450000  0.40840000  0.51190000  1.0 0.0465632024
C  C26  1  0.89650000  0.04260000  0.48810000  1.0 0.0465632024
C  C27  1  0.59160000  0.10350000  0.14610000  1.0 0.0465632024
C  C28  1  0.95740000  0.44550000  0.85390000  1.0 0.0465632024
C  C29  1  0.85350000  0.84160000  0.64610000  1.0 0.0465632024
C  C30  1  0.19550000  0.20740000  0.35390000  1.0 0.0465632024
C  C31  1  0.79260000  0.14650000  0.98810000  1.0 0.0465632024
C  C32  1  0.15840000  0.80450000  0.01190000  1.0 0.0465632024
C  C33  1  0.52200000  0.49410000  0.55410000  1.0 -0.0648701164
C  C34  1  0.94000000  0.96790000  0.44590000  1.0 -0.0648701164
C  C35  1  0.50590000  0.06000000  0.02790000  1.0 -0.0648701164
C  C36  1  0.03210000  0.47800000  0.97210000  1.0 -0.0648701164
C  C37  1  0.81000000  0.75590000  0.52790000  1.0 -0.0648701164
C  C38  1  0.22800000  0.28210000  0.47210000  1.0 -0.0648701164
C  C39  1  0.71790000  0.19000000  0.94590000  1.0 -0.0648701164
C  C40  1  0.24410000  0.77200000  0.05410000  1.0 -0.0648701164
C  C41  1  0.47470000  0.52170000  0.50100000  1.0 -0.11014527
C  C42  1  0.02070000  0.97370000  0.49900000  1.0 -0.11014527
C  C43  1  0.47830000  0.97930000  0.95300000  1.0 -0.11014527
C  C44  1  0.02630000  0.52530000  0.04700000  1.0 -0.11014527
C  C45  1  0.72930000  0.72830000  0.45300000  1.0 -0.11014527
C  C46  1  0.27530000  0.27630000  0.54700000  1.0 -0.11014527
C  C47  1  0.72370000  0.27070000  0.99900000  1.0 -0.11014527
C  C48  1  0.27170000  0.72470000  0.00100000  1.0 -0.11014527
C  C49  1  0.60700000  0.37440000  0.56560000  1.0 0.0864731937
C  C50  1  0.80880000  0.04140000  0.43440000  1.0 0.0864731937
C  C51  1  0.62560000  0.19120000  0.23260000  1.0 0.0864731937
C  C52  1  0.95860000  0.39300000  0.76740000  1.0 0.0864731937
C  C53  1  0.94120000  0.87560000  0.73260000  1.0 0.0864731937
C  C54  1  0.14300000  0.20860000  0.26740000  1.0 0.0864731937
C  C55  1  0.79140000  0.05880000  0.93440000  1.0 0.0864731937
C  C56  1  0.12440000  0.85700000  0.06560000  1.0 0.0864731937
C  C57  1  0.69140000  0.32830000  0.60130000  1.0 -0.1749523032
C  C58  1  0.72700000  0.09010000  0.39870000  1.0 -0.1749523032
C  C59  1  0.67170000  0.27300000  0.36310000  1.0 -0.1749523032
C  C60  1  0.90990000  0.30860000  0.63690000  1.0 -0.1749523032
C  C61  1  0.02300000  0.92170000  0.86310000  1.0 -0.1749523032
C  C62  1  0.05860000  0.15990000  0.13690000  1.0 -0.1749523032
C  C63  1  0.84010000  0.97700000  0.89870000  1.0 -0.1749523032
C  C64  1  0.07830000  0.94140000  0.10130000  1.0 -0.1749523032
C  C65  1  0.73250000  0.29650000  0.64400000  1.0 -0.0810426246
C  C66  1  0.65250000  0.08850000  0.35600000  1.0 -0.0810426246
C  C67  1  0.70350000  0.34750000  0.43600000  1.0 -0.0810426246
C  C68  1  0.91150000  0.26750000  0.56400000  1.0 -0.0810426246
C  C69  1  0.09750000  0.95350000  0.93600000  1.0 -0.0810426246
C  C70  1  0.01750000  0.16150000  0.06400000  1.0 -0.0810426246
C  C71  1  0.83850000  0.90250000  0.85600000  1.0 -0.0810426246
C  C72  1  0.04650000  0.98250000  0.14400000  1.0 -0.0810426246
C  C73  1  0.68590000  0.32290000  0.66100000  1.0 -0.1641743752
C  C74  1  0.66190000  0.02490000  0.33900000  1.0 -0.1641743752
C  C75  1  0.67710000  0.33810000  0.36300000  1.0 -0.1641743752
C  C76  1  0.97510000  0.31410000  0.63700000  1.0 -0.1641743752
C  C77  1  0.08810000  0.92710000  0.86300000  1.0 -0.1641743752
C  C78  1  0.06410000  0.22510000  0.13700000  1.0 -0.1641743752
C  C79  1  0.77490000  0.91190000  0.83900000  1.0 -0.1641743752
C  C80  1  0.07290000  0.93590000  0.16100000  1.0 -0.1641743752
C  C81  1  0.60730000  0.37180000  0.63650000  1.0 0.0795986313
C  C82  1  0.73530000  0.97080000  0.36350000  1.0 0.0795986313
C  C83  1  0.62820000  0.26470000  0.23550000  1.0 0.0795986313
C  C84  1  0.02920000  0.39270000  0.76450000  1.0 0.0795986313
C  C85  1  0.01470000  0.87820000  0.73550000  1.0 0.0795986313
C  C86  1  0.14270000  0.27920000  0.26450000  1.0 0.0795986313
C  C87  1  0.72080000  0.98530000  0.86350000  1.0 0.0795986313
C  C88  1  0.12180000  0.85730000  0.13650000  1.0 0.0795986313
C  C89  1  0.56700000  0.39320000  0.58420000  1.0 -0.1989252205
C  C90  1  0.80900000  0.98280000  0.41580000  1.0 -0.1989252205
C  C91  1  0.60680000  0.19100000  0.17380000  1.0 -0.1989252205
C  C92  1  0.01720000  0.43300000  0.82620000  1.0 -0.1989252205
C  C93  1  0.94100000  0.85680000  0.67380000  1.0 -0.1989252205
C  C94  1  0.18300000  0.26720000  0.32620000  1.0 -0.1989252205
C  C95  1  0.73280000  0.05900000  0.91580000  1.0 -0.1989252205
C  C96  1  0.14320000  0.81700000  0.08420000  1.0 -0.1989252205
C  C97  1  0.56660000  0.40420000  0.66760000  1.0 0.056365664
C  C98  1  0.73660000  0.89900000  0.33240000  1.0 0.056365664
C  C99  1  0.59580000  0.26340000  0.16240000  1.0 0.056365664
C  C100  1  0.10100000  0.43340000  0.83760000  1.0 0.056365664
C  C101  1  0.01340000  0.84580000  0.66240000  1.0 0.056365664
C  C102  1  0.18340000  0.35100000  0.33760000  1.0 0.056365664
C  C103  1  0.64900000  0.98660000  0.83240000  1.0 0.056365664
C  C104  1  0.15420000  0.81660000  0.16760000  1.0 0.056365664
C  C105  1  0.53510000  0.33130000  0.60220000  1.0 -0.1794681895
C  C106  1  0.72910000  0.93290000  0.39780000  1.0 -0.1794681895
C  C107  1  0.66870000  0.27090000  0.20380000  1.0 -0.1794681895
C  C108  1  0.06710000  0.46490000  0.79620000  1.0 -0.1794681895
C  C109  1  0.02090000  0.91870000  0.70380000  1.0 -0.1794681895
C  C110  1  0.21490000  0.31710000  0.29620000  1.0 -0.1794681895
C  C111  1  0.68290000  0.97910000  0.89780000  1.0 -0.1794681895
C  C112  1  0.08130000  0.78510000  0.10220000  1.0 -0.1794681895
C  C113  1  0.49320000  0.37520000  0.63800000  1.0 -0.11014527
C  C114  1  0.73720000  0.85520000  0.36200000  1.0 -0.11014527
C  C115  1  0.62480000  0.26280000  0.11800000  1.0 -0.11014527
C  C116  1  0.14480000  0.50680000  0.88200000  1.0 -0.11014527
C  C117  1  0.01280000  0.87480000  0.61800000  1.0 -0.11014527
C  C118  1  0.25680000  0.39480000  0.38200000  1.0 -0.11014527
C  C119  1  0.60520000  0.98720000  0.86200000  1.0 -0.11014527
C  C120  1  0.12520000  0.74320000  0.13800000  1.0 -0.11014527
C  C121  1  0.48090000  0.46560000  0.71470000  1.0 -0.0179987029
C  C122  1  0.75090000  0.76620000  0.28530000  1.0 -0.0179987029
C  C123  1  0.53440000  0.24910000  0.01530000  1.0 -0.0179987029
C  C124  1  0.23380000  0.51910000  0.98470000  1.0 -0.0179987029
C  C125  1  0.99910000  0.78440000  0.51530000  1.0 -0.0179987029
C  C126  1  0.26910000  0.48380000  0.48470000  1.0 -0.0179987029
C  C127  1  0.51620000  0.00090000  0.78530000  1.0 -0.0179987029
C  C128  1  0.21560000  0.73090000  0.21470000  1.0 -0.0179987029
C  C129  1  0.51420000  0.53240000  0.77800000  1.0 -0.1300676885
C  C130  1  0.75440000  0.73620000  0.22200000  1.0 -0.1300676885
C  C131  1  0.46760000  0.24560000  0.98180000  1.0 -0.1300676885
C  C132  1  0.26380000  0.48580000  0.01820000  1.0 -0.1300676885
C  C133  1  0.99560000  0.71760000  0.48180000  1.0 -0.1300676885
C  C134  1  0.23580000  0.51380000  0.51820000  1.0 -0.1300676885
C  C135  1  0.48620000  0.00440000  0.72200000  1.0 -0.1300676885
C  C136  1  0.28240000  0.76420000  0.27800000  1.0 -0.1300676885
C  C137  1  0.56070000  0.49620000  0.75230000  1.0 -0.0440282567
C  C138  1  0.74390000  0.80840000  0.24770000  1.0 -0.0440282567
C  C139  1  0.50380000  0.25610000  0.06450000  1.0 -0.0440282567
C  C140  1  0.19160000  0.43930000  0.93550000  1.0 -0.0440282567
C  C141  1  0.00610000  0.75380000  0.56450000  1.0 -0.0440282567
C  C142  1  0.18930000  0.44160000  0.43550000  1.0 -0.0440282567
C  C143  1  0.55840000  0.99390000  0.74770000  1.0 -0.0440282567
C  C144  1  0.24620000  0.81070000  0.25230000  1.0 -0.0440282567
C  C145  1  0.40970000  0.47430000  0.33340000  1.0 0.6239784759
C  C146  1  0.14090000  0.07630000  0.66666667  1.0 0.6239784759
C  C147  1  0.52570000  0.85910000  0.93540000  1.0 0.6239784759
C  C148  1  0.92370000  0.59030000  0.06460000  1.0 0.6239784759
C  C149  1  0.60910000  0.77570000  0.43540000  1.0 0.6239784759
C  C150  1  0.34030000  0.17370000  0.56460000  1.0 0.6239784759
C  C151  1  0.82630000  0.39090000  0.16660000  1.0 0.6239784759
C  C152  1  0.22430000  0.65970000  0.83340000  1.0 0.6239784759
C  C153  1  0.54160000  0.57420000  0.67400000  1.0 0.6308413175
C  C154  1  0.90020000  0.86760000  0.32600000  1.0 0.6308413175
C  C155  1  0.42580000  0.09980000  0.96740000  1.0 0.6308413175
C  C156  1  0.13240000  0.45840000  0.03260000  1.0 0.6308413175
C  C157  1  0.84980000  0.67580000  0.46740000  1.0 0.6308413175
C  C158  1  0.20840000  0.38240000  0.53260000  1.0 0.6308413175
C  C159  1  0.61760000  0.15020000  0.82600000  1.0 0.6308413175
C  C160  1  0.32420000  0.79160000  0.17400000  1.0 0.6308413175
C  C161  1  0.59780000  0.57490000  0.82870000  1.0 0.6308413175
C  C162  1  0.74620000  0.76910000  0.17130000  1.0 0.6308413175
C  C163  1  0.42510000  0.25380000  0.02290000  1.0 0.6308413175
C  C164  1  0.23090000  0.40220000  0.97710000  1.0 0.6308413175
C  C165  1  0.00380000  0.67510000  0.52290000  1.0 0.6308413175
C  C166  1  0.15220000  0.48090000  0.47710000  1.0 0.6308413175
C  C167  1  0.51910000  0.99620000  0.67130000  1.0 0.6308413175
C  C168  1  0.32490000  0.84780000  0.32870000  1.0 0.6308413175
C  C169  1  0.43470000  0.49840000  0.74030000  1.0 0.52395087
C  C170  1  0.75810000  0.69440000  0.25970000  1.0 0.52395087
C  C171  1  0.50160000  0.24190000  0.93630000  1.0 0.52395087
C  C172  1  0.30560000  0.56530000  0.06370000  1.0 0.52395087
C  C173  1  0.99190000  0.75160000  0.43630000  1.0 0.52395087
C  C174  1  0.31530000  0.55560000  0.56370000  1.0 0.52395087
C  C175  1  0.44440000  0.00810000  0.75970000  1.0 0.52395087
C  C176  1  0.24840000  0.68470000  0.24030000  1.0 0.52395087
C  C177  1  0.55860000  0.55860000  0.00000000  1.0 0.307408112
C  C178  1  0.44140000  0.44140000  0.00000000  1.0 0.307408112
C  C179  1  0.19140000  0.69140000  0.50000000  1.0 0.307408112
C  C180  1  0.30860000  0.80860000  0.50000000  1.0 0.307408112
O  O1  1  0.37640000  0.41210000  0.21990000  1.0 -0.7773478228
O  O2  1  0.19220000  0.15650000  0.78010000  1.0 -0.7773478228
O  O3  1  0.58790000  0.80780000  0.96430000  1.0 -0.7773478228
O  O4  1  0.84350000  0.62360000  0.03570000  1.0 -0.7773478228
O  O5  1  0.55780000  0.83790000  0.46430000  1.0 -0.7773478228
O  O6  1  0.37360000  0.09350000  0.53570000  1.0 -0.7773478228
O  O7  1  0.90650000  0.44220000  0.28010000  1.0 -0.7773478228
O  O8  1  0.16210000  0.62640000  0.71990000  1.0 -0.7773478228
O  O9  1  0.39780000  0.56710000  0.39930000  1.0 -0.6757114279
O  O10  1  0.16780000  0.99850000  0.60070000  1.0 -0.6757114279
O  O11  1  0.43290000  0.83220000  0.83070000  1.0 -0.6757114279
O  O12  1  0.00150000  0.60220000  0.16930000  1.0 -0.6757114279
O  O13  1  0.58220000  0.68290000  0.33070000  1.0 -0.6757114279
O  O14  1  0.35220000  0.25150000  0.66930000  1.0 -0.6757114279
O  O15  1  0.74850000  0.41780000  0.10070000  1.0 -0.6757114279
O  O16  1  0.31710000  0.64780000  0.89930000  1.0 -0.6757114279
O  O17  1  0.47360000  0.68960000  0.01600000  1.0 -0.1989252205
O  O18  1  0.67360000  0.45760000  0.98400000  1.0 -0.1989252205
O  O19  1  0.31040000  0.32640000  0.78400000  1.0 -0.1989252205
O  O20  1  0.54240000  0.52640000  0.21600000  1.0 -0.1989252205
O  O21  1  0.07640000  0.56040000  0.28400000  1.0 -0.1989252205
O  O22  1  0.27640000  0.79240000  0.71600000  1.0 -0.1989252205
O  O23  1  0.20760000  0.92360000  0.48400000  1.0 -0.1989252205
O  O24  1  0.43960000  0.72360000  0.51600000  1.0 -0.1989252205
O  O25  1  0.46980000  0.61800000  0.65820000  1.0 -0.6133797365
O  O26  1  0.95980000  0.81160000  0.34180000  1.0 -0.6133797365
O  O27  1  0.38200000  0.04020000  0.85180000  1.0 -0.6133797365
O  O28  1  0.18840000  0.53020000  0.14820000  1.0 -0.6133797365
O  O29  1  0.79020000  0.63200000  0.35180000  1.0 -0.6133797365
O  O30  1  0.28020000  0.43840000  0.64820000  1.0 -0.6133797365
O  O31  1  0.56160000  0.20980000  0.84180000  1.0 -0.6133797365
O  O32  1  0.36800000  0.71980000  0.15820000  1.0 -0.6133797365
O  O33  1  0.62430000  0.59550000  0.77900000  1.0 -0.619748165
O  O34  1  0.81650000  0.84530000  0.22100000  1.0 -0.619748165
O  O35  1  0.40450000  0.18350000  0.02880000  1.0 -0.619748165
O  O36  1  0.15470000  0.37570000  0.97120000  1.0 -0.619748165
O  O37  1  0.93350000  0.65450000  0.52880000  1.0 -0.619748165
O  O38  1  0.12570000  0.40470000  0.47120000  1.0 -0.619748165
O  O39  1  0.59530000  0.06650000  0.72100000  1.0 -0.619748165
O  O40  1  0.34550000  0.87430000  0.27900000  1.0 -0.619748165
O  O41  1  0.68609000  0.57069000  0.89560000  1.0 -0.6007288295
O  O42  1  0.67509000  0.79049000  0.10440000  1.0 -0.6007288295
O  O43  1  0.42931000  0.32491000  0.11540000  1.0 -0.6007288295
O  O44  1  0.20951000  0.31391000  0.88460000  1.0 -0.6007288295
O  O45  1  0.07491000  0.67931000  0.61540000  1.0 -0.6007288295
O  O46  1  0.06391000  0.45951000  0.38460000  1.0 -0.6007288295
O  O47  1  0.54049000  0.92509000  0.60440000  1.0 -0.6007288295
O  O48  1  0.32069000  0.93609000  0.39560000  1.0 -0.6007288295
O  O49  1  0.54680000  0.63890000  0.82750000  1.0 -0.7064592101
O  O50  1  0.81140000  0.71930000  0.17250000  1.0 -0.7064592101
O  O51  1  0.36110000  0.18860000  0.90790000  1.0 -0.7064592101
O  O52  1  0.28070000  0.45320000  0.09210000  1.0 -0.7064592101
O  O53  1  0.93860000  0.61110000  0.40790000  1.0 -0.7064592101
O  O54  1  0.20320000  0.53070000  0.59210000  1.0 -0.7064592101
O  O55  1  0.46930000  0.06140000  0.67250000  1.0 -0.7064592101
O  O56  1  0.38890000  0.79680000  0.32750000  1.0 -0.7064592101
O  O57  1  0.42100000  0.59630000  0.82070000  1.0 -0.7064592101
O  O58  1  0.77560000  0.60030000  0.17930000  1.0 -0.703827073
O  O59  1  0.40370000  0.22440000  0.82470000  1.0 -0.7064592101
O  O60  1  0.39970000  0.57900000  0.17530000  1.0 -0.7064592101
O  O61  1  0.97440000  0.65370000  0.32470000  1.0 -0.7064592101
O  O62  1  0.32900000  0.64970000  0.67530000  1.0 -0.7064592101
O  O63  1  0.35030000  0.02560000  0.67930000  1.0 -0.7064592101
O  O64  1  0.34630000  0.67100000  0.32070000  1.0 -0.7064592101
O  O65  1  0.39690000  0.43730000  0.67600000  1.0 -0.6449901956
O  O66  1  0.76130000  0.72090000  0.32400000  1.0 -0.6449901956
O  O67  1  0.56270000  0.23870000  0.95960000  1.0 -0.6449901956
O  O68  1  0.27910000  0.60310000  0.04040000  1.0 -0.6449901956
O  O69  1  0.98870000  0.81270000  0.45960000  1.0 -0.6453916329
O  O70  1  0.35310000  0.52910000  0.54040000  1.0 -0.6449901956
O  O71  1  0.47090000  0.01130000  0.82400000  1.0 -0.6449901956
O  O72  1  0.18730000  0.64690000  0.17600000  1.0 -0.6449901956
O  O73  1  0.48370000  0.52010000  0.90080000  1.0 -0.4387965995
O  O74  1  0.61930000  0.58290000  0.09920000  1.0 -0.4387965995
O  O75  1  0.47990000  0.38070000  0.96360000  1.0 -0.4387965995
O  O76  1  0.41710000  0.51630000  0.03640000  1.0 -0.4387965995
O  O77  1  0.13070000  0.72990000  0.46360000  1.0 -0.4387965995
O  O78  1  0.26630000  0.66710000  0.53640000  1.0 -0.4387965995
O  O79  1  0.33290000  0.86930000  0.59920000  1.0 -0.4387965995
O  O80  1  0.27010000  0.73370000  0.40080000  1.0 -0.4387965995
O  O81  1  0.43180000  0.72280000  0.02300000  1.0 -0.1794681895
O  O82  1  0.69980000  0.40880000  0.97700000  1.0 -0.1794681895
O  O83  1  0.27720000  0.30020000  0.70900000  1.0 -0.1794681895
O  O84  1  0.59120000  0.56820000  0.29100000  1.0 -0.1794681895
O  O85  1  0.05020000  0.52720000  0.20900000  1.0 -0.1794681895
O  O86  1  0.31820000  0.84120000  0.79100000  1.0 -0.1794681895
O  O87  1  0.15880000  0.94980000  0.47700000  1.0 -0.1794681895
O  O88  1  0.47280000  0.68180000  0.52300000  1.0 -0.1794681895
