# DDEC6 charges by PACMAN v1.1 (https://github.com/mtap-research/PACMAN-charge/)
data_IZOWAW_ASR_pacman
_symmetry_space_group_name_H-M   'P 1'
_cell_length_a   26.21540000
_cell_length_b   26.21540000
_cell_length_c   26.21540000
_cell_angle_alpha   131.29200000
_cell_angle_beta   129.05300000
_cell_angle_gamma   73.14640000
_symmetry_Int_Tables_number   1
_chemical_formula_structural   Zn4Mo12PH4(CO3)12
_chemical_formula_sum   'Zn12 Mo36 P3 H12 C36 O108'
_cell_volume   10264.79838946
_cell_formula_units_Z   3
loop_
 _symmetry_equiv_pos_site_id
 _symmetry_equiv_pos_as_xyz
  1  'x, y, z'
loop_
 _atom_site_type_symbol
 _atom_site_label
 _atom_site_symmetry_multiplicity
 _atom_site_fract_x
 _atom_site_fract_y
 _atom_site_fract_z
 _atom_site_occupancy
 _atom_site_charge
Zn  Zn1  1  0.24435000  0.18712000  0.82165000  1.0 0.9981683996
Zn  Zn2  1  0.36547000  0.42270000  0.17835000  1.0 1.0061438428
Zn  Zn3  1  0.63453000  0.81288000  0.05723000  1.0 1.0061438428
Zn  Zn4  1  0.75565000  0.57730000  0.94277000  1.0 1.0061438428
Zn  Zn5  1  0.30943000  0.13422000  0.04901000  1.0 0.986517742
Zn  Zn6  1  0.08521000  0.26042000  0.95099000  1.0 0.9825300323
Zn  Zn7  1  0.91479000  0.86578000  0.17521000  1.0 0.9825300323
Zn  Zn8  1  0.69057000  0.73958000  0.82479000  1.0 0.9825300323
Zn  Zn9  1  0.35941000  0.05177000  0.51158000  1.0 0.9981683996
Zn  Zn10  1  0.54019000  0.84783000  0.48842000  1.0 0.9981683996
Zn  Zn11  1  0.45981000  0.94823000  0.30764000  1.0 0.9981683996
Zn  Zn12  1  0.64059000  0.15217000  0.69236000  1.0 0.9981683996
Mo  Mo1  1  0.39471000  0.29762000  0.02700000  1.0 2.0811558171
Mo  Mo2  1  0.27062000  0.36771000  0.97300000  1.0 2.0855055597
Mo  Mo3  1  0.72939000  0.70238000  0.09710000  1.0 2.0811558171
Mo  Mo4  1  0.60529000  0.63228000  0.90290000  1.0 2.0811558171
Mo  Mo5  1  0.43276000  0.27758000  0.16358000  1.0 1.8604297585
Mo  Mo6  1  0.11400000  0.26918000  0.83642000  1.0 1.8604297585
Mo  Mo7  1  0.88600000  0.72242000  0.15518000  1.0 1.8701197651
Mo  Mo8  1  0.56724000  0.73082000  0.84482000  1.0 1.8604297585
Mo  Mo9  1  0.35532000  0.13134000  0.94108000  1.0 1.7538472759
Mo  Mo10  1  0.19026000  0.41424000  0.05892000  1.0 1.7538472759
Mo  Mo11  1  0.80974000  0.86866000  0.22398000  1.0 1.7738852051
Mo  Mo12  1  0.64468000  0.58576000  0.77602000  1.0 1.7538472759
Mo  Mo13  1  0.23313000  0.06292000  0.83823000  1.0 1.8777027574
Mo  Mo14  1  0.22469000  0.39490000  0.16177000  1.0 1.8777027574
Mo  Mo15  1  0.77531000  0.93708000  0.17021000  1.0 1.8777027574
Mo  Mo16  1  0.76687000  0.60510000  0.82979000  1.0 1.8777027574
Mo  Mo17  1  0.13613000  0.10471000  0.90158000  1.0 2.0690583136
Mo  Mo18  1  0.20313000  0.23455000  0.09842000  1.0 2.0690583136
Mo  Mo19  1  0.79687000  0.89529000  0.03142000  1.0 2.0690583136
Mo  Mo20  1  0.86387000  0.76545000  0.96858000  1.0 2.0690583136
Mo  Mo21  1  0.36474000  0.31514000  0.22120000  1.0 1.9097164419
Mo  Mo22  1  0.09394000  0.14354000  0.77880000  1.0 1.9097164419
Mo  Mo23  1  0.90606000  0.68486000  0.04960000  1.0 1.9167035368
Mo  Mo24  1  0.63526000  0.85646000  0.95040000  1.0 1.9097164419
Mo  Mo25  1  0.37500000  0.87305000  0.41117000  1.0 1.9626104679
Mo  Mo26  1  0.46188000  0.96383000  0.58883000  1.0 1.9626104679
Mo  Mo27  1  0.53812000  0.12695000  0.50195000  1.0 1.9626104679
Mo  Mo28  1  0.62500000  0.03617000  0.49805000  1.0 1.9626104679
Mo  Mo29  1  0.32459000  0.93260000  0.30347000  1.0 1.8923172103
Mo  Mo30  1  0.62913000  0.02112000  0.69653000  1.0 1.9020912197
Mo  Mo31  1  0.37087000  0.06740000  0.39199000  1.0 1.8923172103
Mo  Mo32  1  0.67541000  0.97888000  0.60801000  1.0 1.8923172103
Mo  Mo33  1  0.52382000  0.13156000  0.70648000  1.0 2.0811558171
Mo  Mo34  1  0.42508000  0.81734000  0.29352000  1.0 2.0811558171
Mo  Mo35  1  0.57492000  0.86844000  0.39226000  1.0 2.0811558171
Mo  Mo36  1  0.47618000  0.18266000  0.60774000  1.0 2.0811558171
P  P1  1  0.25098000  0.25098000  0.00000000  1.0 1.393445566
P  P2  1  0.74902000  0.74902000  0.00000000  1.0 1.393445566
P  P3  1  0.50000000  0.00000000  0.50000000  1.0 1.3826390055
H  H1  1  0.08010000  0.98940000  0.49310000  1.0 0.0983543666
H  H2  1  0.49630000  0.58700000  0.50690000  1.0 0.0983543666
H  H3  1  0.50370000  0.01060000  0.09070000  1.0 0.0983543666
H  H4  1  0.91990000  0.41300000  0.90930000  1.0 0.0983543666
H  H5  1  0.13130000  0.96280000  0.36830000  1.0 0.0983543666
H  H6  1  0.59450000  0.76300000  0.63170000  1.0 0.0983543666
H  H7  1  0.40550000  0.03720000  0.16850000  1.0 0.0983543666
H  H8  1  0.86870000  0.23700000  0.83150000  1.0 0.0983543666
H  H9  1  0.26300000  0.08600000  0.61520000  1.0 0.0983543666
H  H10  1  0.47080000  0.64780000  0.38480000  1.0 0.0983543666
H  H11  1  0.52920000  0.91400000  0.17700000  1.0 0.0983543666
H  H12  1  0.73700000  0.35220000  0.82300000  1.0 0.0983543666
C  C1  1  0.17180000  0.04950000  0.56850000  1.0 -0.0824538342
C  C2  1  0.48100000  0.60330000  0.43150000  1.0 -0.0824538342
C  C3  1  0.51900000  0.95050000  0.12230000  1.0 -0.0824538342
C  C4  1  0.82820000  0.39670000  0.87770000  1.0 -0.0824538342
C  C5  1  0.10890000  0.00300000  0.49270000  1.0 -0.1212762299
C  C6  1  0.51030000  0.61620000  0.50730000  1.0 -0.1212762299
C  C7  1  0.48970000  0.99700000  0.10590000  1.0 -0.1212762299
C  C8  1  0.89110000  0.38380000  0.89410000  1.0 -0.1212762299
C  C9  1  0.09349000  0.97979000  0.42050000  1.0 -0.0561473727
C  C10  1  0.55929000  0.67299000  0.57950000  1.0 -0.0561473727
C  C11  1  0.44071000  0.02021000  0.11370000  1.0 -0.0561473727
C  C12  1  0.90651000  0.32701000  0.88630000  1.0 -0.0561473727
C  C13  1  0.14090000  0.99020000  0.42150000  1.0 -0.1100412396
C  C14  1  0.56870000  0.71940000  0.57850000  1.0 -0.1100412396
C  C15  1  0.43130000  0.00980000  0.15070000  1.0 -0.1100412396
C  C16  1  0.85910000  0.28060000  0.84930000  1.0 -0.1100412396
C  C17  1  0.20150000  0.03530000  0.49000000  1.0 -0.098382898
C  C18  1  0.54530000  0.71150000  0.51000000  1.0 -0.098382898
C  C19  1  0.45470000  0.96470000  0.16620000  1.0 -0.098382898
C  C20  1  0.79850000  0.28850000  0.83380000  1.0 -0.098382898
C  C21  1  0.21940000  0.06090000  0.56530000  1.0 -0.1100412396
C  C22  1  0.49560000  0.65410000  0.43470000  1.0 -0.1100412396
C  C23  1  0.50440000  0.93910000  0.15850000  1.0 -0.1100412396
C  C24  1  0.78060000  0.34590000  0.84150000  1.0 -0.1100412396
C  C25  1  0.18862000  0.08552000  0.65230000  1.0 0.4844119694
C  C26  1  0.43322000  0.53632000  0.34770000  1.0 0.4844119694
C  C27  1  0.56678000  0.91448000  0.10310000  1.0 0.4894931065
C  C28  1  0.81138000  0.46368000  0.89690000  1.0 0.4894931065
C  C29  1  0.02340000  0.93460000  0.34020000  1.0 0.5002823499
C  C30  1  0.59440000  0.68320000  0.65980000  1.0 0.4894931065
C  C31  1  0.40560000  0.06540000  0.08880000  1.0 0.5002823499
C  C32  1  0.97660000  0.31680000  0.91120000  1.0 0.5002823499
C  C33  1  0.24830000  0.03640000  0.48010000  1.0 0.5002823499
C  C34  1  0.55630000  0.76820000  0.51990000  1.0 0.5064245608
C  C35  1  0.44370000  0.96360000  0.21190000  1.0 0.5064245608
C  C36  1  0.75170000  0.23180000  0.78810000  1.0 0.5002823499
O  O1  1  0.22138000  0.29538000  0.97380000  1.0 -0.9121181223
O  O2  1  0.32158000  0.24758000  0.02620000  1.0 -0.9121181223
O  O3  1  0.67842000  0.70462000  0.92600000  1.0 -0.9121181223
O  O4  1  0.77862000  0.75242000  0.07400000  1.0 -0.9121181223
O  O5  1  0.25598000  0.28218000  0.07740000  1.0 -0.9206053707
O  O6  1  0.20478000  0.17858000  0.92260000  1.0 -0.9206053707
O  O7  1  0.79522000  0.71782000  0.97380000  1.0 -0.9206053707
O  O8  1  0.74402000  0.82142000  0.02620000  1.0 -0.9206053707
O  O9  1  0.43859000  0.93829000  0.41770000  1.0 -0.9121181223
O  O10  1  0.52059000  0.02089000  0.58230000  1.0 -0.9121181223
O  O11  1  0.47941000  0.06171000  0.50030000  1.0 -0.9121181223
O  O12  1  0.56141000  0.97911000  0.49970000  1.0 -0.9121181223
O  O13  1  0.39274000  0.20304000  0.95890000  1.0 -0.9206053707
O  O14  1  0.24414000  0.43384000  0.04110000  1.0 -0.9293223687
O  O15  1  0.75586000  0.79696000  0.18970000  1.0 -0.9293223687
O  O16  1  0.60726000  0.56616000  0.81030000  1.0 -0.9206053707
O  O17  1  0.45146000  0.31656000  0.13030000  1.0 -0.9206053707
O  O18  1  0.18626000  0.32116000  0.86970000  1.0 -0.9206053707
O  O19  1  0.81374000  0.68344000  0.13490000  1.0 -0.9206053707
O  O20  1  0.54854000  0.67884000  0.86510000  1.0 -0.9206053707
O  O21  1  0.30595000  0.27515000  0.92360000  1.0 -1.0429225418
O  O22  1  0.35155000  0.38235000  0.07640000  1.0 -1.0429225418
O  O23  1  0.64845000  0.72485000  0.03080000  1.0 -1.0429225418
O  O24  1  0.69405000  0.61765000  0.96920000  1.0 -1.0429225418
O  O25  1  0.39769000  0.36149000  0.20860000  1.0 -0.9429246903
O  O26  1  0.15289000  0.18909000  0.79140000  1.0 -0.9429246903
O  O27  1  0.84711000  0.63851000  0.03620000  1.0 -0.9467118747
O  O28  1  0.60231000  0.81091000  0.96380000  1.0 -0.9467118747
O  O29  1  0.37503000  0.22696000  0.14587000  1.0 -0.8977564428
O  O30  1  0.08109000  0.22916000  0.85413000  1.0 -0.8977564428
O  O31  1  0.91891000  0.77304000  0.14807000  1.0 -0.8977564428
O  O32  1  0.62497000  0.77084000  0.85193000  1.0 -0.8977564428
O  O33  1  0.43313000  0.18023000  0.07030000  1.0 -0.9820512686
O  O34  1  0.10993000  0.36283000  0.92970000  1.0 -0.9820512686
O  O35  1  0.89007000  0.81977000  0.25290000  1.0 -0.9820512686
O  O36  1  0.56687000  0.63717000  0.74710000  1.0 -0.9820512686
O  O37  1  0.27051000  0.12049000  0.84202000  1.0 -0.9293223687
O  O38  1  0.27847000  0.42849000  0.15798000  1.0 -0.9293223687
O  O39  1  0.72153000  0.87951000  0.15002000  1.0 -0.9293223687
O  O40  1  0.72949000  0.57151000  0.84998000  1.0 -0.9293223687
O  O41  1  0.30803000  0.09853000  0.95510000  1.0 -0.9467118747
O  O42  1  0.14343000  0.35293000  0.04490000  1.0 -0.9467118747
O  O43  1  0.85657000  0.90147000  0.20950000  1.0 -0.9467118747
O  O44  1  0.69197000  0.64707000  0.79050000  1.0 -0.9429246903
O  O45  1  0.18417000  0.04347000  0.85990000  1.0 -0.9429246903
O  O46  1  0.18357000  0.32427000  0.14010000  1.0 -0.9467118747
O  O47  1  0.81643000  0.95653000  0.14070000  1.0 -0.9467118747
O  O48  1  0.81583000  0.67573000  0.85930000  1.0 -0.9429246903
O  O49  1  0.14091000  0.06311000  0.74180000  1.0 -0.9907792065
O  O50  1  0.32131000  0.39911000  0.25820000  1.0 -0.9907792065
O  O51  1  0.67869000  0.93689000  0.07780000  1.0 -0.9907792065
O  O52  1  0.85909000  0.60089000  0.92220000  1.0 -0.9907792065
O  O53  1  0.29456000  0.26386000  0.18830000  1.0 -0.9121181223
O  O54  1  0.07556000  0.10626000  0.81170000  1.0 -0.9121181223
O  O55  1  0.92444000  0.73614000  0.03070000  1.0 -0.9121181223
O  O56  1  0.70544000  0.89374000  0.96930000  1.0 -0.9121181223
O  O57  1  0.22186000  0.14496000  0.01930000  1.0 -1.0478469286
O  O58  1  0.12566000  0.20256000  0.98070000  1.0 -1.0478469286
O  O59  1  0.87434000  0.85504000  0.07690000  1.0 -1.0478469286
O  O60  1  0.77814000  0.79744000  0.92310000  1.0 -1.0478469286
O  O61  1  0.23380000  0.14330000  0.71770000  1.0 -0.5330760333
O  O62  1  0.42560000  0.51610000  0.28230000  1.0 -0.5330760333
O  O63  1  0.57440000  0.85670000  0.09050000  1.0 -0.5330760333
O  O64  1  0.76620000  0.48390000  0.90950000  1.0 -0.5330760333
O  O65  1  0.00301000  0.92661000  0.27700000  1.0 -0.482702807
O  O66  1  0.64961000  0.72601000  0.72300000  1.0 -0.482702807
O  O67  1  0.35039000  0.07339000  0.07640000  1.0 -0.482702807
O  O68  1  0.99699000  0.27399000  0.92360000  1.0 -0.482702807
O  O69  1  0.38803000  0.96573000  0.50030000  1.0 -0.8725795004
O  O70  1  0.46543000  0.88773000  0.49970000  1.0 -0.8725795004
O  O71  1  0.53457000  0.03427000  0.42230000  1.0 -0.8725795004
O  O72  1  0.61197000  0.11227000  0.57770000  1.0 -0.8725795004
O  O73  1  0.30430000  0.88860000  0.32870000  1.0 -0.9293223687
O  O74  1  0.55990000  0.97560000  0.67130000  1.0 -0.9293223687
O  O75  1  0.44010000  0.11140000  0.41570000  1.0 -0.9293223687
O  O76  1  0.69570000  0.02440000  0.58430000  1.0 -0.9293223687
O  O77  1  0.39363000  0.79833000  0.32810000  1.0 -0.9293223687
O  O78  1  0.47023000  0.06553000  0.67190000  1.0 -0.9293223687
O  O79  1  0.52977000  0.20167000  0.59530000  1.0 -0.9293223687
O  O80  1  0.60637000  0.93447000  0.40470000  1.0 -0.9293223687
O  O81  1  0.34175000  0.02085000  0.40870000  1.0 -0.9577268663
O  O82  1  0.61215000  0.93305000  0.59130000  1.0 -0.9577268663
O  O83  1  0.38785000  0.97915000  0.32090000  1.0 -0.9577268663
O  O84  1  0.65825000  0.06695000  0.67910000  1.0 -0.9577268663
O  O85  1  0.44027000  0.12747000  0.60940000  1.0 -1.0088994059
O  O86  1  0.51807000  0.83087000  0.39060000  1.0 -1.0088994059
O  O87  1  0.48193000  0.87253000  0.31280000  1.0 -1.0088994059
O  O88  1  0.55973000  0.16913000  0.68720000  1.0 -1.0088994059
O  O89  1  0.30460000  0.08450000  0.55310000  1.0 -0.5677175078
O  O90  1  0.53140000  0.75150000  0.44690000  1.0 -0.5677175078
O  O91  1  0.46860000  0.91550000  0.22010000  1.0 -0.5677175078
O  O92  1  0.69540000  0.24850000  0.77990000  1.0 -0.5677175078
O  O93  1  0.24690000  0.99200000  0.41630000  1.0 -0.4987256977
O  O94  1  0.57570000  0.83060000  0.58370000  1.0 -0.4987256977
O  O95  1  0.42430000  0.00800000  0.25490000  1.0 -0.4987256977
O  O96  1  0.75310000  0.16940000  0.74510000  1.0 -0.4987256977
O  O97  1  0.34627000  0.83807000  0.23380000  1.0 -0.9429246903
O  O98  1  0.60427000  0.11247000  0.76620000  1.0 -0.9429246903
O  O99  1  0.39573000  0.16193000  0.50820000  1.0 -0.9429246903
O  O100  1  0.65373000  0.88753000  0.49180000  1.0 -0.9429246903
O  O101  1  0.15666000  0.06476000  0.65170000  1.0 -0.3991938237
O  O102  1  0.41306000  0.50496000  0.34830000  1.0 -0.3991938237
O  O103  1  0.58694000  0.93524000  0.09190000  1.0 -0.3991938237
O  O104  1  0.84334000  0.49504000  0.90810000  1.0 -0.3991938237
O  O105  1  0.99355000  0.91145000  0.34070000  1.0 -0.3827423009
O  O106  1  0.57075000  0.65285000  0.65930000  1.0 -0.3827423009
O  O107  1  0.42925000  0.08855000  0.08210000  1.0 -0.3827423009
O  O108  1  0.00645000  0.34715000  0.91790000  1.0 -0.3827423009
