# DDEC6 charges by PACMAN v1.1 (https://github.com/mtap-research/PACMAN-charge/)
data_IZOWEA_ASR_pacman
_symmetry_space_group_name_H-M   'P 1'
_cell_length_a   16.21400000
_cell_length_b   24.15600000
_cell_length_c   24.99200000
_cell_angle_alpha   90.00000000
_cell_angle_beta   90.00000000
_cell_angle_gamma   90.00000000
_symmetry_Int_Tables_number   1
_chemical_formula_structural   Zn4Mo12PH3C9O34
_chemical_formula_sum   'Zn16 Mo48 P4 H12 C36 O136'
_cell_volume   9788.50127693
_cell_formula_units_Z   4
loop_
 _symmetry_equiv_pos_site_id
 _symmetry_equiv_pos_as_xyz
  1  'x, y, z'
loop_
 _atom_site_type_symbol
 _atom_site_label
 _atom_site_symmetry_multiplicity
 _atom_site_fract_x
 _atom_site_fract_y
 _atom_site_fract_z
 _atom_site_occupancy
 _atom_site_charge
Zn  Zn1  1  0.00000000  0.97892000  0.42797000  1.0 1.0216706594
Zn  Zn2  1  0.00000000  0.02108000  0.57203000  1.0 1.0216706594
Zn  Zn3  1  0.50000000  0.52108000  0.92797000  1.0 1.0216706594
Zn  Zn4  1  0.50000000  0.47892000  0.07203000  1.0 1.0216706594
Zn  Zn5  1  0.50000000  0.28067000  0.20760000  1.0 1.0005657276
Zn  Zn6  1  0.50000000  0.71933000  0.79240000  1.0 1.0005657276
Zn  Zn7  1  0.00000000  0.21933000  0.70760000  1.0 1.0005657276
Zn  Zn8  1  0.00000000  0.78067000  0.29240000  1.0 1.0005657276
Zn  Zn9  1  0.17889000  0.22872000  0.48810000  1.0 1.0115217319
Zn  Zn10  1  0.17889000  0.77128000  0.51190000  1.0 1.0115217319
Zn  Zn11  1  0.32111000  0.27128000  0.98810000  1.0 1.0115217319
Zn  Zn12  1  0.32111000  0.72872000  0.01190000  1.0 1.0115217319
Zn  Zn13  1  0.82111000  0.77128000  0.51190000  1.0 1.0115217319
Zn  Zn14  1  0.82111000  0.22872000  0.48810000  1.0 1.0115217319
Zn  Zn15  1  0.67889000  0.72872000  0.01190000  1.0 1.0115217319
Zn  Zn16  1  0.67889000  0.27128000  0.98810000  1.0 1.0115217319
Mo  Mo1  1  0.89197000  0.09158000  0.46201000  1.0 1.6197073191
Mo  Mo2  1  0.89197000  0.90842000  0.53799000  1.0 1.6197073191
Mo  Mo3  1  0.60803000  0.40842000  0.96201000  1.0 1.6197073191
Mo  Mo4  1  0.60803000  0.59158000  0.03799000  1.0 1.6197073191
Mo  Mo5  1  0.10803000  0.90842000  0.53799000  1.0 1.6147252222
Mo  Mo6  1  0.10803000  0.09158000  0.46201000  1.0 1.6197073191
Mo  Mo7  1  0.39197000  0.59158000  0.03799000  1.0 1.6197073191
Mo  Mo8  1  0.39197000  0.40842000  0.96201000  1.0 1.6197073191
Mo  Mo9  1  0.00000000  0.20308000  0.41413000  1.0 2.0779215793
Mo  Mo10  1  0.00000000  0.79692000  0.58587000  1.0 2.0779215793
Mo  Mo11  1  0.50000000  0.29692000  0.91413000  1.0 2.0779215793
Mo  Mo12  1  0.50000000  0.70308000  0.08587000  1.0 2.0779215793
Mo  Mo13  1  0.80929000  0.09238000  0.55213000  1.0 1.8687526286
Mo  Mo14  1  0.80929000  0.90762000  0.44787000  1.0 1.8687526286
Mo  Mo15  1  0.69071000  0.40762000  0.05213000  1.0 1.8687526286
Mo  Mo16  1  0.69071000  0.59238000  0.94787000  1.0 1.8687526286
Mo  Mo17  1  0.19071000  0.90762000  0.44787000  1.0 1.8628014028
Mo  Mo18  1  0.19071000  0.09238000  0.55213000  1.0 1.8687526286
Mo  Mo19  1  0.30929000  0.59238000  0.94787000  1.0 1.8628014028
Mo  Mo20  1  0.30929000  0.40762000  0.05213000  1.0 1.8687526286
Mo  Mo21  1  0.90148000  0.90601000  0.32402000  1.0 2.0779215793
Mo  Mo22  1  0.90148000  0.09399000  0.67598000  1.0 2.0714808944
Mo  Mo23  1  0.59852000  0.59399000  0.82402000  1.0 2.0779215793
Mo  Mo24  1  0.59852000  0.40601000  0.17598000  1.0 2.0779215793
Mo  Mo25  1  0.09852000  0.09399000  0.67598000  1.0 2.0714808944
Mo  Mo26  1  0.09852000  0.90601000  0.32402000  1.0 2.0714808944
Mo  Mo27  1  0.40148000  0.40601000  0.17598000  1.0 2.0779215793
Mo  Mo28  1  0.40148000  0.59399000  0.82402000  1.0 2.0779215793
Mo  Mo29  1  0.18775000  0.21488000  0.63408000  1.0 1.8628014028
Mo  Mo30  1  0.18775000  0.78512000  0.36592000  1.0 1.8628014028
Mo  Mo31  1  0.31225000  0.28512000  0.13408000  1.0 1.8687526286
Mo  Mo32  1  0.31225000  0.71488000  0.86592000  1.0 1.8628014028
Mo  Mo33  1  0.81225000  0.78512000  0.36592000  1.0 1.8687526286
Mo  Mo34  1  0.81225000  0.21488000  0.63408000  1.0 1.8687526286
Mo  Mo35  1  0.68775000  0.71488000  0.86592000  1.0 1.8628014028
Mo  Mo36  1  0.68775000  0.28512000  0.13408000  1.0 1.8763736388
Mo  Mo37  1  0.00000000  0.31202000  0.48589000  1.0 2.0714808944
Mo  Mo38  1  0.00000000  0.68798000  0.51411000  1.0 2.0714808944
Mo  Mo39  1  0.50000000  0.18798000  0.98589000  1.0 2.0714808944
Mo  Mo40  1  0.50000000  0.81202000  0.01411000  1.0 2.0714808944
Mo  Mo41  1  0.10919000  0.30337000  0.60309000  1.0 1.7919483086
Mo  Mo42  1  0.10919000  0.69663000  0.39691000  1.0 1.7919483086
Mo  Mo43  1  0.39081000  0.19663000  0.10309000  1.0 1.7989837726
Mo  Mo44  1  0.39081000  0.80337000  0.89691000  1.0 1.7919483086
Mo  Mo45  1  0.89081000  0.69663000  0.39691000  1.0 1.7989837726
Mo  Mo46  1  0.89081000  0.30337000  0.60309000  1.0 1.7989837726
Mo  Mo47  1  0.60919000  0.80337000  0.89691000  1.0 1.7919483086
Mo  Mo48  1  0.60919000  0.19663000  0.10309000  1.0 1.7989837726
P  P1  1  0.00000000  0.17736000  0.56308000  1.0 1.4082125922
P  P2  1  0.00000000  0.82264000  0.43692000  1.0 1.4082125922
P  P3  1  0.50000000  0.32264000  0.06308000  1.0 1.4082125922
P  P4  1  0.50000000  0.67736000  0.93692000  1.0 1.4082125922
H  H1  1  0.37540000  0.25870000  0.37750000  1.0 0.1030204123
H  H2  1  0.37540000  0.74130000  0.62250000  1.0 0.1030204123
H  H3  1  0.12460000  0.24130000  0.87750000  1.0 0.1030204123
H  H4  1  0.12460000  0.75870000  0.12250000  1.0 0.1030204123
H  H5  1  0.62460000  0.74130000  0.62250000  1.0 0.1030204123
H  H6  1  0.62460000  0.25870000  0.37750000  1.0 0.1030204123
H  H7  1  0.87540000  0.75870000  0.12250000  1.0 0.1030204123
H  H8  1  0.87540000  0.24130000  0.87750000  1.0 0.1030204123
H  H9  1  0.50000000  0.22700000  0.51080000  1.0 0.0814725024
H  H10  1  0.50000000  0.77300000  0.48920000  1.0 0.0814725024
H  H11  1  0.00000000  0.27300000  0.01080000  1.0 0.0814725024
H  H12  1  0.00000000  0.72700000  0.98920000  1.0 0.0814725024
C  C1  1  0.42470000  0.25210000  0.39530000  1.0 -0.1138951263
C  C2  1  0.42470000  0.74790000  0.60470000  1.0 -0.1138951263
C  C3  1  0.07530000  0.24790000  0.89530000  1.0 -0.1138951263
C  C4  1  0.07530000  0.75210000  0.10470000  1.0 -0.1138951263
C  C5  1  0.57530000  0.74790000  0.60470000  1.0 -0.1138951263
C  C6  1  0.57530000  0.25210000  0.39530000  1.0 -0.1138951263
C  C7  1  0.92470000  0.75210000  0.10470000  1.0 -0.1138951263
C  C8  1  0.92470000  0.24790000  0.89530000  1.0 -0.1138951263
C  C9  1  0.42380000  0.24050000  0.44870000  1.0 -0.0991481129
C  C10  1  0.42380000  0.75950000  0.55130000  1.0 -0.0991481129
C  C11  1  0.07620000  0.25950000  0.94870000  1.0 -0.0991481129
C  C12  1  0.07620000  0.74050000  0.05130000  1.0 -0.0991481129
C  C13  1  0.57620000  0.75950000  0.55130000  1.0 -0.0991481129
C  C14  1  0.57620000  0.24050000  0.44870000  1.0 -0.0991481129
C  C15  1  0.92380000  0.74050000  0.05130000  1.0 -0.0991481129
C  C16  1  0.92380000  0.25950000  0.94870000  1.0 -0.0991481129
C  C17  1  0.50000000  0.23490000  0.47440000  1.0 -0.0877335646
C  C18  1  0.50000000  0.76510000  0.52560000  1.0 -0.0877335646
C  C19  1  0.00000000  0.26510000  0.97440000  1.0 -0.0877335646
C  C20  1  0.00000000  0.73490000  0.02560000  1.0 -0.0877335646
C  C21  1  0.50000000  0.25420000  0.36690000  1.0 -0.0461246982
C  C22  1  0.50000000  0.74580000  0.63310000  1.0 -0.0461246982
C  C23  1  0.00000000  0.24580000  0.86690000  1.0 -0.0461246982
C  C24  1  0.00000000  0.75420000  0.13310000  1.0 -0.0461246982
C  C25  1  0.34780000  0.23160000  0.47790000  1.0 0.5048468014
C  C26  1  0.34780000  0.76840000  0.52210000  1.0 0.5052894255
C  C27  1  0.15220000  0.26840000  0.97790000  1.0 0.5048468014
C  C28  1  0.15220000  0.73160000  0.02210000  1.0 0.5052894255
C  C29  1  0.65220000  0.76840000  0.52210000  1.0 0.5052894255
C  C30  1  0.65220000  0.23160000  0.47790000  1.0 0.5048468014
C  C31  1  0.84780000  0.73160000  0.02210000  1.0 0.5052894255
C  C32  1  0.84780000  0.26840000  0.97790000  1.0 0.5048468014
C  C33  1  0.50000000  0.26600000  0.30630000  1.0 0.4708331128
C  C34  1  0.50000000  0.73400000  0.69370000  1.0 0.4708331128
C  C35  1  0.00000000  0.23400000  0.80630000  1.0 0.4708331128
C  C36  1  0.00000000  0.76600000  0.19370000  1.0 0.4708331128
O  O1  1  0.00000000  0.24250000  0.56460000  1.0 -0.8995434443
O  O2  1  0.00000000  0.75750000  0.43540000  1.0 -0.8995434443
O  O3  1  0.50000000  0.25750000  0.06460000  1.0 -0.8995434443
O  O4  1  0.50000000  0.74250000  0.93540000  1.0 -0.8995434443
O  O5  1  0.00000000  0.15460000  0.50500000  1.0 -0.8898192296
O  O6  1  0.00000000  0.84540000  0.49500000  1.0 -0.8898192296
O  O7  1  0.50000000  0.34540000  0.00500000  1.0 -0.8898192296
O  O8  1  0.50000000  0.65460000  0.99500000  1.0 -0.8898192296
O  O9  1  0.92180000  0.15740000  0.59150000  1.0 -0.8995434443
O  O10  1  0.92180000  0.84260000  0.40850000  1.0 -0.8995434443
O  O11  1  0.57820000  0.34260000  0.09150000  1.0 -0.8995434443
O  O12  1  0.57820000  0.65740000  0.90850000  1.0 -0.8995434443
O  O13  1  0.07820000  0.84260000  0.40850000  1.0 -0.8995434443
O  O14  1  0.07820000  0.15740000  0.59150000  1.0 -0.8995434443
O  O15  1  0.42180000  0.65740000  0.90850000  1.0 -0.8995434443
O  O16  1  0.42180000  0.34260000  0.09150000  1.0 -0.8995434443
O  O17  1  0.00000000  0.05990000  0.43840000  1.0 -0.9689624408
O  O18  1  0.00000000  0.94010000  0.56160000  1.0 -0.9689624408
O  O19  1  0.50000000  0.44010000  0.93840000  1.0 -0.9689624408
O  O20  1  0.50000000  0.55990000  0.06160000  1.0 -0.9689624408
O  O21  1  0.00000000  0.94440000  0.35770000  1.0 -1.0571110646
O  O22  1  0.00000000  0.05560000  0.64230000  1.0 -1.0571110646
O  O23  1  0.50000000  0.55560000  0.85770000  1.0 -1.0571110646
O  O24  1  0.50000000  0.44440000  0.14230000  1.0 -1.0571110646
O  O25  1  0.90780000  0.05290000  0.53030000  1.0 -0.9311105708
O  O26  1  0.90780000  0.94710000  0.46970000  1.0 -0.9311105708
O  O27  1  0.59220000  0.44710000  0.03030000  1.0 -0.9311105708
O  O28  1  0.59220000  0.55290000  0.96970000  1.0 -0.9311105708
O  O29  1  0.09220000  0.94710000  0.46970000  1.0 -0.9311105708
O  O30  1  0.09220000  0.05290000  0.53030000  1.0 -0.9311105708
O  O31  1  0.40780000  0.55290000  0.96970000  1.0 -0.9311105708
O  O32  1  0.40780000  0.44710000  0.03030000  1.0 -0.9311105708
O  O33  1  0.28240000  0.24740000  0.45430000  1.0 -0.5414656425
O  O34  1  0.28240000  0.75260000  0.54570000  1.0 -0.5414656425
O  O35  1  0.21760000  0.25260000  0.95430000  1.0 -0.5414656425
O  O36  1  0.21760000  0.74740000  0.04570000  1.0 -0.5414656425
O  O37  1  0.71760000  0.75260000  0.54570000  1.0 -0.5414656425
O  O38  1  0.71760000  0.24740000  0.45430000  1.0 -0.5414656425
O  O39  1  0.78240000  0.74740000  0.04570000  1.0 -0.5414656425
O  O40  1  0.78240000  0.25260000  0.95430000  1.0 -0.5414656425
O  O41  1  0.50000000  0.36350000  0.19770000  1.0 -1.0097624013
O  O42  1  0.50000000  0.63650000  0.80230000  1.0 -1.0097624013
O  O43  1  0.00000000  0.13650000  0.69770000  1.0 -1.0097624013
O  O44  1  0.00000000  0.86350000  0.30230000  1.0 -1.0097624013
O  O45  1  0.81850000  0.14740000  0.49590000  1.0 -0.9392946362
O  O46  1  0.81850000  0.85260000  0.50410000  1.0 -0.9392946362
O  O47  1  0.68150000  0.35260000  0.99590000  1.0 -0.9392946362
O  O48  1  0.68150000  0.64740000  0.00410000  1.0 -0.9392946362
O  O49  1  0.18150000  0.85260000  0.50410000  1.0 -0.9392946362
O  O50  1  0.18150000  0.14740000  0.49590000  1.0 -0.9392946362
O  O51  1  0.31850000  0.64740000  0.00410000  1.0 -0.9392946362
O  O52  1  0.31850000  0.35260000  0.99590000  1.0 -0.9392946362
O  O53  1  0.07520000  0.25330000  0.45580000  1.0 -1.0475410918
O  O54  1  0.07520000  0.74670000  0.54420000  1.0 -1.0475410918
O  O55  1  0.42480000  0.24670000  0.95580000  1.0 -1.0475410918
O  O56  1  0.42480000  0.75330000  0.04420000  1.0 -1.0475410918
O  O57  1  0.92480000  0.74670000  0.54420000  1.0 -1.0475410918
O  O58  1  0.92480000  0.25330000  0.45580000  1.0 -1.0475410918
O  O59  1  0.57520000  0.75330000  0.04420000  1.0 -1.0475410918
O  O60  1  0.57520000  0.24670000  0.95580000  1.0 -1.0475410918
O  O61  1  0.18190000  0.25070000  0.56410000  1.0 -0.9392946362
O  O62  1  0.18190000  0.74930000  0.43590000  1.0 -0.9392946362
O  O63  1  0.31810000  0.24930000  0.06410000  1.0 -0.9474785327
O  O64  1  0.31810000  0.75070000  0.93590000  1.0 -0.9392946362
O  O65  1  0.81810000  0.74930000  0.43590000  1.0 -0.9474785327
O  O66  1  0.81810000  0.25070000  0.56410000  1.0 -0.9474785327
O  O67  1  0.68190000  0.75070000  0.93590000  1.0 -0.9392946362
O  O68  1  0.68190000  0.24930000  0.06410000  1.0 -0.9474785327
O  O69  1  0.09150000  0.25110000  0.66450000  1.0 -0.9474785327
O  O70  1  0.09150000  0.74890000  0.33550000  1.0 -0.9474785327
O  O71  1  0.40850000  0.24890000  0.16450000  1.0 -0.9474785327
O  O72  1  0.40850000  0.75110000  0.83550000  1.0 -0.9474785327
O  O73  1  0.90850000  0.74890000  0.33550000  1.0 -0.9474785327
O  O74  1  0.90850000  0.25110000  0.66450000  1.0 -0.9474785327
O  O75  1  0.59150000  0.75110000  0.83550000  1.0 -0.9474785327
O  O76  1  0.59150000  0.24890000  0.16450000  1.0 -0.9474785327
O  O77  1  0.00000000  0.33950000  0.62660000  1.0 -0.9689624408
O  O78  1  0.00000000  0.66050000  0.37340000  1.0 -0.9759202996
O  O79  1  0.50000000  0.16050000  0.12660000  1.0 -0.9759202996
O  O80  1  0.50000000  0.83950000  0.87340000  1.0 -0.9689624408
O  O81  1  0.91650000  0.15350000  0.41000000  1.0 -0.8627162675
O  O82  1  0.91650000  0.84650000  0.59000000  1.0 -0.8627162675
O  O83  1  0.58350000  0.34650000  0.91000000  1.0 -0.8627162675
O  O84  1  0.58350000  0.65350000  0.09000000  1.0 -0.8627162675
O  O85  1  0.08350000  0.84650000  0.59000000  1.0 -0.8627162675
O  O86  1  0.08350000  0.15350000  0.41000000  1.0 -0.8627162675
O  O87  1  0.41650000  0.65350000  0.09000000  1.0 -0.8627162675
O  O88  1  0.41650000  0.34650000  0.91000000  1.0 -0.8627162675
O  O89  1  0.83500000  0.06400000  0.62410000  1.0 -0.8995434443
O  O90  1  0.83500000  0.93600000  0.37590000  1.0 -0.8995434443
O  O91  1  0.66500000  0.43600000  0.12410000  1.0 -0.8995434443
O  O92  1  0.66500000  0.56400000  0.87590000  1.0 -0.8995434443
O  O93  1  0.16500000  0.93600000  0.37590000  1.0 -0.8995434443
O  O94  1  0.16500000  0.06400000  0.62410000  1.0 -0.8995434443
O  O95  1  0.33500000  0.56400000  0.87590000  1.0 -0.8995434443
O  O96  1  0.33500000  0.43600000  0.12410000  1.0 -0.8995434443
O  O97  1  0.74280000  0.15590000  0.59160000  1.0 -1.0097624013
O  O98  1  0.74280000  0.84410000  0.40840000  1.0 -1.0097624013
O  O99  1  0.75720000  0.34410000  0.09160000  1.0 -1.0097624013
O  O100  1  0.75720000  0.65590000  0.90840000  1.0 -1.0097624013
O  O101  1  0.25720000  0.84410000  0.40840000  1.0 -1.0097624013
O  O102  1  0.25720000  0.15590000  0.59160000  1.0 -1.0097624013
O  O103  1  0.24280000  0.65590000  0.90840000  1.0 -1.0097624013
O  O104  1  0.24280000  0.34410000  0.09160000  1.0 -1.0097624013
O  O105  1  0.16150000  0.15490000  0.68740000  1.0 -0.8898192296
O  O106  1  0.16150000  0.84510000  0.31260000  1.0 -0.8808398495
O  O107  1  0.33850000  0.34510000  0.18740000  1.0 -0.8898192296
O  O108  1  0.33850000  0.65490000  0.81260000  1.0 -0.8808398495
O  O109  1  0.83850000  0.84510000  0.31260000  1.0 -0.8808398495
O  O110  1  0.83850000  0.15490000  0.68740000  1.0 -0.8898192296
O  O111  1  0.66150000  0.65490000  0.81260000  1.0 -0.8808398495
O  O112  1  0.66150000  0.34510000  0.18740000  1.0 -0.8898192296
O  O113  1  0.91460000  0.33220000  0.52990000  1.0 -0.8995434443
O  O114  1  0.91460000  0.66780000  0.47010000  1.0 -0.8995434443
O  O115  1  0.58540000  0.16780000  0.02990000  1.0 -0.8995434443
O  O116  1  0.58540000  0.83220000  0.97010000  1.0 -0.8995434443
O  O117  1  0.08540000  0.66780000  0.47010000  1.0 -0.8995434443
O  O118  1  0.08540000  0.33220000  0.52990000  1.0 -0.8995434443
O  O119  1  0.41460000  0.83220000  0.97010000  1.0 -0.8995434443
O  O120  1  0.41460000  0.16780000  0.02990000  1.0 -0.8995434443
O  O121  1  0.34720000  0.21000000  0.52340000  1.0 -0.4797176482
O  O122  1  0.34720000  0.79000000  0.47660000  1.0 -0.4797176482
O  O123  1  0.15280000  0.29000000  0.02340000  1.0 -0.4797176482
O  O124  1  0.15280000  0.71000000  0.97660000  1.0 -0.4797176482
O  O125  1  0.65280000  0.79000000  0.47660000  1.0 -0.4797176482
O  O126  1  0.65280000  0.21000000  0.52340000  1.0 -0.4797176482
O  O127  1  0.84720000  0.71000000  0.97660000  1.0 -0.4797176482
O  O128  1  0.84720000  0.29000000  0.02340000  1.0 -0.4797176482
O  O129  1  0.56350000  0.26830000  0.28070000  1.0 -0.4442993799
O  O130  1  0.56350000  0.73170000  0.71930000  1.0 -0.4442993799
O  O131  1  0.93650000  0.23170000  0.78070000  1.0 -0.4451601902
O  O132  1  0.93650000  0.76830000  0.21930000  1.0 -0.4442993799
O  O133  1  0.43650000  0.73170000  0.71930000  1.0 -0.4442993799
O  O134  1  0.43650000  0.26830000  0.28070000  1.0 -0.4442993799
O  O135  1  0.06350000  0.76830000  0.21930000  1.0 -0.4442993799
O  O136  1  0.06350000  0.23170000  0.78070000  1.0 -0.4451601902
