# DDEC6 charges by PACMAN v1.1 (https://github.com/mtap-research/PACMAN-charge/)
data_IZULUL_ASR_pacman
_symmetry_space_group_name_H-M   'P 1'
_cell_length_a   22.89510000
_cell_length_b   22.89510000
_cell_length_c   9.34540000
_cell_angle_alpha   90.00000000
_cell_angle_beta   90.00000000
_cell_angle_gamma   90.00000000
_symmetry_Int_Tables_number   1
_chemical_formula_structural   ZnSnH24C44N8O3
_chemical_formula_sum   'Zn4 Sn4 H96 C176 N32 O12'
_cell_volume   4898.72414372
_cell_formula_units_Z   4
loop_
 _symmetry_equiv_pos_site_id
 _symmetry_equiv_pos_as_xyz
  1  'x, y, z'
loop_
 _atom_site_type_symbol
 _atom_site_label
 _atom_site_symmetry_multiplicity
 _atom_site_fract_x
 _atom_site_fract_y
 _atom_site_fract_z
 _atom_site_occupancy
 _atom_site_charge
Zn  Zn1  1  0.58532000  0.91468000  0.00000000  1.0 0.3523980409
Zn  Zn2  1  0.41468000  0.08532000  0.00000000  1.0 0.3523980409
Zn  Zn3  1  0.91468000  0.41468000  0.00000000  1.0 0.3523980409
Zn  Zn4  1  0.08532000  0.58532000  0.00000000  1.0 0.3523980409
Sn  Sn1  1  0.00000000  0.00000000  0.11757000  1.0 0.699129048
Sn  Sn2  1  0.50000000  0.50000000  0.88243000  1.0 0.7104100913
Sn  Sn3  1  0.00000000  0.00000000  0.88243000  1.0 0.7104100913
Sn  Sn4  1  0.50000000  0.50000000  0.11757000  1.0 0.699129048
H  H1  1  0.83700000  0.84260000  0.09990000  1.0 0.1096525145
H  H2  1  0.16300000  0.15740000  0.09990000  1.0 0.1096525145
H  H3  1  0.84260000  0.16300000  0.09990000  1.0 0.1096525145
H  H4  1  0.15740000  0.83700000  0.09990000  1.0 0.1096525145
H  H5  1  0.33700000  0.65740000  0.90010000  1.0 0.1096525145
H  H6  1  0.66300000  0.34260000  0.90010000  1.0 0.1096525145
H  H7  1  0.34260000  0.33700000  0.90010000  1.0 0.1096525145
H  H8  1  0.65740000  0.66300000  0.90010000  1.0 0.1096525145
H  H9  1  0.16300000  0.15740000  0.90010000  1.0 0.1096525145
H  H10  1  0.83700000  0.84260000  0.90010000  1.0 0.1096525145
H  H11  1  0.15740000  0.83700000  0.90010000  1.0 0.1096525145
H  H12  1  0.84260000  0.16300000  0.90010000  1.0 0.1096525145
H  H13  1  0.66300000  0.34260000  0.09990000  1.0 0.1096525145
H  H14  1  0.33700000  0.65740000  0.09990000  1.0 0.1096525145
H  H15  1  0.65740000  0.66300000  0.09990000  1.0 0.1096525145
H  H16  1  0.34260000  0.33700000  0.09990000  1.0 0.1096525145
H  H17  1  0.93130000  0.78380000  0.10790000  1.0 0.1175650574
H  H18  1  0.06870000  0.21620000  0.10790000  1.0 0.1175650574
H  H19  1  0.78380000  0.06870000  0.10790000  1.0 0.1175650574
H  H20  1  0.21620000  0.93130000  0.10790000  1.0 0.1175650574
H  H21  1  0.43130000  0.71620000  0.89210000  1.0 0.1175650574
H  H22  1  0.56870000  0.28380000  0.89210000  1.0 0.1175650574
H  H23  1  0.28380000  0.43130000  0.89210000  1.0 0.1175650574
H  H24  1  0.71620000  0.56870000  0.89210000  1.0 0.1175650574
H  H25  1  0.06870000  0.21620000  0.89210000  1.0 0.1175650574
H  H26  1  0.93130000  0.78380000  0.89210000  1.0 0.1175650574
H  H27  1  0.21620000  0.93130000  0.89210000  1.0 0.1175650574
H  H28  1  0.78380000  0.06870000  0.89210000  1.0 0.1175650574
H  H29  1  0.56870000  0.28380000  0.10790000  1.0 0.1175650574
H  H30  1  0.43130000  0.71620000  0.10790000  1.0 0.1175650574
H  H31  1  0.71620000  0.56870000  0.10790000  1.0 0.1175650574
H  H32  1  0.28380000  0.43130000  0.10790000  1.0 0.1175650574
H  H33  1  0.67160000  0.91550000  0.25250000  1.0 0.0811468103
H  H34  1  0.32840000  0.08450000  0.25250000  1.0 0.0811468103
H  H35  1  0.91550000  0.32840000  0.25250000  1.0 0.0811468103
H  H36  1  0.08450000  0.67160000  0.25250000  1.0 0.0811468103
H  H37  1  0.17160000  0.58450000  0.74750000  1.0 0.0811468103
H  H38  1  0.82840000  0.41550000  0.74750000  1.0 0.0811468103
H  H39  1  0.41550000  0.17160000  0.74750000  1.0 0.0811468103
H  H40  1  0.58450000  0.82840000  0.74750000  1.0 0.0811468103
H  H41  1  0.32840000  0.08450000  0.74750000  1.0 0.0811468103
H  H42  1  0.67160000  0.91550000  0.74750000  1.0 0.0811468103
H  H43  1  0.08450000  0.67160000  0.74750000  1.0 0.0811468103
H  H44  1  0.91550000  0.32840000  0.74750000  1.0 0.0811468103
H  H45  1  0.82840000  0.41550000  0.25250000  1.0 0.0811468103
H  H46  1  0.17160000  0.58450000  0.25250000  1.0 0.0811468103
H  H47  1  0.58450000  0.82840000  0.25250000  1.0 0.0811468103
H  H48  1  0.41550000  0.17160000  0.25250000  1.0 0.0811468103
H  H49  1  0.76160000  0.96730000  0.29680000  1.0 0.1282086998
H  H50  1  0.23840000  0.03270000  0.29680000  1.0 0.1282086998
H  H51  1  0.96730000  0.23840000  0.29680000  1.0 0.1282086998
H  H52  1  0.03270000  0.76160000  0.29680000  1.0 0.1282086998
H  H53  1  0.26160000  0.53270000  0.70320000  1.0 0.1282086998
H  H54  1  0.73840000  0.46730000  0.70320000  1.0 0.1282086998
H  H55  1  0.46730000  0.26160000  0.70320000  1.0 0.1282086998
H  H56  1  0.53270000  0.73840000  0.70320000  1.0 0.1282086998
H  H57  1  0.23840000  0.03270000  0.70320000  1.0 0.1282086998
H  H58  1  0.76160000  0.96730000  0.70320000  1.0 0.1282086998
H  H59  1  0.03270000  0.76160000  0.70320000  1.0 0.1282086998
H  H60  1  0.96730000  0.23840000  0.70320000  1.0 0.1282086998
H  H61  1  0.73840000  0.46730000  0.29680000  1.0 0.1282086998
H  H62  1  0.26160000  0.53270000  0.29680000  1.0 0.1282086998
H  H63  1  0.53270000  0.73840000  0.29680000  1.0 0.1282086998
H  H64  1  0.46730000  0.26160000  0.29680000  1.0 0.1282086998
H  H65  1  0.79480000  0.94550000  0.12870000  1.0 0.0906315103
H  H66  1  0.20520000  0.05450000  0.12870000  1.0 0.0906315103
H  H67  1  0.94550000  0.20520000  0.12870000  1.0 0.0906315103
H  H68  1  0.05450000  0.79480000  0.12870000  1.0 0.0906315103
H  H69  1  0.29480000  0.55450000  0.87130000  1.0 0.0906315103
H  H70  1  0.70520000  0.44550000  0.87130000  1.0 0.0906315103
H  H71  1  0.44550000  0.29480000  0.87130000  1.0 0.0906315103
H  H72  1  0.55450000  0.70520000  0.87130000  1.0 0.0906315103
H  H73  1  0.20520000  0.05450000  0.87130000  1.0 0.0906315103
H  H74  1  0.79480000  0.94550000  0.87130000  1.0 0.0906315103
H  H75  1  0.05450000  0.79480000  0.87130000  1.0 0.0906315103
H  H76  1  0.94550000  0.20520000  0.87130000  1.0 0.0906315103
H  H77  1  0.70520000  0.44550000  0.12870000  1.0 0.0906315103
H  H78  1  0.29480000  0.55450000  0.12870000  1.0 0.0906315103
H  H79  1  0.55450000  0.70520000  0.12870000  1.0 0.0906315103
H  H80  1  0.44550000  0.29480000  0.12870000  1.0 0.0906315103
H  H81  1  0.69580000  0.92000000  0.16220000  1.0 0.1096525145
H  H82  1  0.30420000  0.08000000  0.16220000  1.0 0.1096525145
H  H83  1  0.92000000  0.30420000  0.16220000  1.0 0.1096525145
H  H84  1  0.08000000  0.69580000  0.16220000  1.0 0.1096525145
H  H85  1  0.19580000  0.58000000  0.83780000  1.0 0.1096525145
H  H86  1  0.80420000  0.42000000  0.83780000  1.0 0.1096525145
H  H87  1  0.42000000  0.19580000  0.83780000  1.0 0.1096525145
H  H88  1  0.58000000  0.80420000  0.83780000  1.0 0.1096525145
H  H89  1  0.30420000  0.08000000  0.83780000  1.0 0.1096525145
H  H90  1  0.69580000  0.92000000  0.83780000  1.0 0.1096525145
H  H91  1  0.08000000  0.69580000  0.83780000  1.0 0.1096525145
H  H92  1  0.92000000  0.30420000  0.83780000  1.0 0.1096525145
H  H93  1  0.80420000  0.42000000  0.16220000  1.0 0.1096525145
H  H94  1  0.19580000  0.58000000  0.16220000  1.0 0.1096525145
H  H95  1  0.58000000  0.80420000  0.16220000  1.0 0.1096525145
H  H96  1  0.42000000  0.19580000  0.16220000  1.0 0.1096525145
C  C1  1  0.87680000  0.85800000  0.10600000  1.0 -0.1426361495
C  C2  1  0.12320000  0.14200000  0.10600000  1.0 -0.1426361495
C  C3  1  0.85800000  0.12320000  0.10600000  1.0 -0.1426361495
C  C4  1  0.14200000  0.87680000  0.10600000  1.0 -0.1426361495
C  C5  1  0.37680000  0.64200000  0.89400000  1.0 -0.1426361495
C  C6  1  0.62320000  0.35800000  0.89400000  1.0 -0.1426361495
C  C7  1  0.35800000  0.37680000  0.89400000  1.0 -0.1426361495
C  C8  1  0.64200000  0.62320000  0.89400000  1.0 -0.1426361495
C  C9  1  0.12320000  0.14200000  0.89400000  1.0 -0.1426361495
C  C10  1  0.87680000  0.85800000  0.89400000  1.0 -0.1426361495
C  C11  1  0.14200000  0.87680000  0.89400000  1.0 -0.1426361495
C  C12  1  0.85800000  0.12320000  0.89400000  1.0 -0.1426361495
C  C13  1  0.62320000  0.35800000  0.10600000  1.0 -0.1426361495
C  C14  1  0.37680000  0.64200000  0.10600000  1.0 -0.1426361495
C  C15  1  0.64200000  0.62320000  0.10600000  1.0 -0.1426361495
C  C16  1  0.35800000  0.37680000  0.10600000  1.0 -0.1426361495
C  C17  1  0.89250000  0.91840000  0.11350000  1.0 0.1364022746
C  C18  1  0.10750000  0.08160000  0.11350000  1.0 0.1364022746
C  C19  1  0.91840000  0.10750000  0.11350000  1.0 0.1364022746
C  C20  1  0.08160000  0.89250000  0.11350000  1.0 0.1364022746
C  C21  1  0.39250000  0.58160000  0.88650000  1.0 0.1364022746
C  C22  1  0.60750000  0.41840000  0.88650000  1.0 0.1364022746
C  C23  1  0.41840000  0.39250000  0.88650000  1.0 0.1364022746
C  C24  1  0.58160000  0.60750000  0.88650000  1.0 0.1364022746
C  C25  1  0.10750000  0.08160000  0.88650000  1.0 0.1364022746
C  C26  1  0.89250000  0.91840000  0.88650000  1.0 0.1364022746
C  C27  1  0.08160000  0.89250000  0.88650000  1.0 0.1364022746
C  C28  1  0.91840000  0.10750000  0.88650000  1.0 0.1364022746
C  C29  1  0.60750000  0.41840000  0.11350000  1.0 0.1364022746
C  C30  1  0.39250000  0.58160000  0.11350000  1.0 0.1364022746
C  C31  1  0.58160000  0.60750000  0.11350000  1.0 0.1364022746
C  C32  1  0.41840000  0.39250000  0.11350000  1.0 0.1364022746
C  C33  1  0.85300000  0.96590000  0.10260000  1.0 -0.1121674146
C  C34  1  0.14700000  0.03410000  0.10260000  1.0 -0.1121674146
C  C35  1  0.96590000  0.14700000  0.10260000  1.0 -0.1121674146
C  C36  1  0.03410000  0.85300000  0.10260000  1.0 -0.1121674146
C  C37  1  0.35300000  0.53410000  0.89740000  1.0 -0.1121674146
C  C38  1  0.64700000  0.46590000  0.89740000  1.0 -0.1121674146
C  C39  1  0.46590000  0.35300000  0.89740000  1.0 -0.1121674146
C  C40  1  0.53410000  0.64700000  0.89740000  1.0 -0.1121674146
C  C41  1  0.14700000  0.03410000  0.89740000  1.0 -0.1121674146
C  C42  1  0.85300000  0.96590000  0.89740000  1.0 -0.1121674146
C  C43  1  0.03410000  0.85300000  0.89740000  1.0 -0.1121674146
C  C44  1  0.96590000  0.14700000  0.89740000  1.0 -0.1121674146
C  C45  1  0.64700000  0.46590000  0.10260000  1.0 -0.1121674146
C  C46  1  0.35300000  0.53410000  0.10260000  1.0 -0.1121674146
C  C47  1  0.53410000  0.64700000  0.10260000  1.0 -0.1121674146
C  C48  1  0.46590000  0.35300000  0.10260000  1.0 -0.1121674146
C  C49  1  0.97490000  0.86680000  0.11670000  1.0 0.0906315103
C  C50  1  0.02510000  0.13320000  0.11670000  1.0 0.0906315103
C  C51  1  0.86680000  0.02510000  0.11670000  1.0 0.0906315103
C  C52  1  0.13320000  0.97490000  0.11670000  1.0 0.0906315103
C  C53  1  0.47490000  0.63320000  0.88330000  1.0 0.0811468103
C  C54  1  0.52510000  0.36680000  0.88330000  1.0 0.0811468103
C  C55  1  0.36680000  0.47490000  0.88330000  1.0 0.0811468103
C  C56  1  0.63320000  0.52510000  0.88330000  1.0 0.0811468103
C  C57  1  0.02510000  0.13320000  0.88330000  1.0 0.0811468103
C  C58  1  0.97490000  0.86680000  0.88330000  1.0 0.0811468103
C  C59  1  0.13320000  0.97490000  0.88330000  1.0 0.0811468103
C  C60  1  0.86680000  0.02510000  0.88330000  1.0 0.0811468103
C  C61  1  0.52510000  0.36680000  0.11670000  1.0 0.0906315103
C  C62  1  0.47490000  0.63320000  0.11670000  1.0 0.0906315103
C  C63  1  0.63320000  0.52510000  0.11670000  1.0 0.0906315103
C  C64  1  0.36680000  0.47490000  0.11670000  1.0 0.0906315103
C  C65  1  0.92760000  0.82630000  0.10900000  1.0 -0.1426361495
C  C66  1  0.07240000  0.17370000  0.10900000  1.0 -0.1426361495
C  C67  1  0.82630000  0.07240000  0.10900000  1.0 -0.1426361495
C  C68  1  0.17370000  0.92760000  0.10900000  1.0 -0.1426361495
C  C69  1  0.42760000  0.67370000  0.89100000  1.0 -0.1426361495
C  C70  1  0.57240000  0.32630000  0.89100000  1.0 -0.1426361495
C  C71  1  0.32630000  0.42760000  0.89100000  1.0 -0.1426361495
C  C72  1  0.67370000  0.57240000  0.89100000  1.0 -0.1426361495
C  C73  1  0.07240000  0.17370000  0.89100000  1.0 -0.1426361495
C  C74  1  0.92760000  0.82630000  0.89100000  1.0 -0.1426361495
C  C75  1  0.17370000  0.92760000  0.89100000  1.0 -0.1426361495
C  C76  1  0.82630000  0.07240000  0.89100000  1.0 -0.1426361495
C  C77  1  0.57240000  0.32630000  0.10900000  1.0 -0.1426361495
C  C78  1  0.42760000  0.67370000  0.10900000  1.0 -0.1426361495
C  C79  1  0.67370000  0.57240000  0.10900000  1.0 -0.1426361495
C  C80  1  0.32630000  0.42760000  0.10900000  1.0 -0.1426361495
C  C81  1  0.69390000  0.93840000  0.18370000  1.0 -0.1484972023
C  C82  1  0.30610000  0.06160000  0.18370000  1.0 -0.1484972023
C  C83  1  0.93840000  0.30610000  0.18370000  1.0 -0.1484972023
C  C84  1  0.06160000  0.69390000  0.18370000  1.0 -0.1484972023
C  C85  1  0.19390000  0.56160000  0.81630000  1.0 -0.1484972023
C  C86  1  0.80610000  0.43840000  0.81630000  1.0 -0.1484972023
C  C87  1  0.43840000  0.19390000  0.81630000  1.0 -0.1484972023
C  C88  1  0.56160000  0.80610000  0.81630000  1.0 -0.1484972023
C  C89  1  0.30610000  0.06160000  0.81630000  1.0 -0.1484972023
C  C90  1  0.69390000  0.93840000  0.81630000  1.0 -0.1484972023
C  C91  1  0.06160000  0.69390000  0.81630000  1.0 -0.1484972023
C  C92  1  0.93840000  0.30610000  0.81630000  1.0 -0.1484972023
C  C93  1  0.80610000  0.43840000  0.18370000  1.0 -0.1484972023
C  C94  1  0.19390000  0.56160000  0.18370000  1.0 -0.1484972023
C  C95  1  0.56160000  0.80610000  0.18370000  1.0 -0.1484972023
C  C96  1  0.43840000  0.19390000  0.18370000  1.0 -0.1484972023
C  C97  1  0.75270000  0.95100000  0.20380000  1.0 -0.1343855438
C  C98  1  0.24730000  0.04900000  0.20380000  1.0 -0.1343855438
C  C99  1  0.95100000  0.24730000  0.20380000  1.0 -0.1343855438
C  C100  1  0.04900000  0.75270000  0.20380000  1.0 -0.1343855438
C  C101  1  0.25270000  0.54900000  0.79620000  1.0 -0.1343855438
C  C102  1  0.74730000  0.45100000  0.79620000  1.0 -0.1343855438
C  C103  1  0.45100000  0.25270000  0.79620000  1.0 -0.1343855438
C  C104  1  0.54900000  0.74730000  0.79620000  1.0 -0.1343855438
C  C105  1  0.24730000  0.04900000  0.79620000  1.0 -0.1343855438
C  C106  1  0.75270000  0.95100000  0.79620000  1.0 -0.1343855438
C  C107  1  0.04900000  0.75270000  0.79620000  1.0 -0.1343855438
C  C108  1  0.95100000  0.24730000  0.79620000  1.0 -0.1343855438
C  C109  1  0.74730000  0.45100000  0.20380000  1.0 -0.1343855438
C  C110  1  0.25270000  0.54900000  0.20380000  1.0 -0.1343855438
C  C111  1  0.54900000  0.74730000  0.20380000  1.0 -0.1343855438
C  C112  1  0.45100000  0.25270000  0.20380000  1.0 -0.1343855438
C  C113  1  0.79050000  0.95180000  0.08750000  1.0 0.0309353193
C  C114  1  0.20950000  0.04820000  0.08750000  1.0 0.0309353193
C  C115  1  0.95180000  0.20950000  0.08750000  1.0 0.0309353193
C  C116  1  0.04820000  0.79050000  0.08750000  1.0 0.0309353193
C  C117  1  0.29050000  0.54820000  0.91250000  1.0 0.0309353193
C  C118  1  0.70950000  0.45180000  0.91250000  1.0 0.0309353193
C  C119  1  0.45180000  0.29050000  0.91250000  1.0 0.0309353193
C  C120  1  0.54820000  0.70950000  0.91250000  1.0 0.0309353193
C  C121  1  0.20950000  0.04820000  0.91250000  1.0 0.0309353193
C  C122  1  0.79050000  0.95180000  0.91250000  1.0 0.0309353193
C  C123  1  0.04820000  0.79050000  0.91250000  1.0 0.0309353193
C  C124  1  0.95180000  0.20950000  0.91250000  1.0 0.0309353193
C  C125  1  0.70950000  0.45180000  0.08750000  1.0 0.0309353193
C  C126  1  0.29050000  0.54820000  0.08750000  1.0 0.0309353193
C  C127  1  0.54820000  0.70950000  0.08750000  1.0 0.0309353193
C  C128  1  0.45180000  0.29050000  0.08750000  1.0 0.0309353193
C  C129  1  0.76950000  0.94000000  0.95100000  1.0 -0.0501014915
C  C130  1  0.23050000  0.06000000  0.95100000  1.0 -0.0501014915
C  C131  1  0.94000000  0.23050000  0.95100000  1.0 -0.0501014915
C  C132  1  0.06000000  0.76950000  0.95100000  1.0 -0.0501014915
C  C133  1  0.26950000  0.56000000  0.04900000  1.0 -0.0501014915
C  C134  1  0.73050000  0.44000000  0.04900000  1.0 -0.0501014915
C  C135  1  0.44000000  0.26950000  0.04900000  1.0 -0.0501014915
C  C136  1  0.56000000  0.73050000  0.04900000  1.0 -0.0501014915
C  C137  1  0.23050000  0.06000000  0.04900000  1.0 -0.0501014915
C  C138  1  0.76950000  0.94000000  0.04900000  1.0 -0.0501014915
C  C139  1  0.06000000  0.76950000  0.04900000  1.0 -0.0501014915
C  C140  1  0.94000000  0.23050000  0.04900000  1.0 -0.0501014915
C  C141  1  0.73050000  0.44000000  0.95100000  1.0 -0.0501014915
C  C142  1  0.26950000  0.56000000  0.95100000  1.0 -0.0501014915
C  C143  1  0.56000000  0.73050000  0.95100000  1.0 -0.0501014915
C  C144  1  0.44000000  0.26950000  0.95100000  1.0 -0.0501014915
C  C145  1  0.71070000  0.92740000  0.06920000  1.0 0.0207039601
C  C146  1  0.28930000  0.07260000  0.06920000  1.0 0.0207039601
C  C147  1  0.92740000  0.28930000  0.06920000  1.0 0.0207039601
C  C148  1  0.07260000  0.71070000  0.06920000  1.0 0.0207039601
C  C149  1  0.21070000  0.57260000  0.93080000  1.0 0.0207039601
C  C150  1  0.78930000  0.42740000  0.93080000  1.0 0.0207039601
C  C151  1  0.42740000  0.21070000  0.93080000  1.0 0.0207039601
C  C152  1  0.57260000  0.78930000  0.93080000  1.0 0.0207039601
C  C153  1  0.28930000  0.07260000  0.93080000  1.0 0.0207039601
C  C154  1  0.71070000  0.92740000  0.93080000  1.0 0.0207039601
C  C155  1  0.07260000  0.71070000  0.93080000  1.0 0.0207039601
C  C156  1  0.92740000  0.28930000  0.93080000  1.0 0.0207039601
C  C157  1  0.78930000  0.42740000  0.06920000  1.0 0.0207039601
C  C158  1  0.21070000  0.57260000  0.06920000  1.0 0.0207039601
C  C159  1  0.57260000  0.78930000  0.06920000  1.0 0.0207039601
C  C160  1  0.42740000  0.21070000  0.06920000  1.0 0.0207039601
C  C161  1  0.04870000  0.97800000  0.47700000  1.0 0.0072302526
C  C162  1  0.95130000  0.02200000  0.47700000  1.0 0.0043913367
C  C163  1  0.97800000  0.95130000  0.47700000  1.0 0.0072302526
C  C164  1  0.02200000  0.04870000  0.47700000  1.0 0.0072302526
C  C165  1  0.54870000  0.52200000  0.52300000  1.0 0.0072302526
C  C166  1  0.45130000  0.47800000  0.52300000  1.0 0.0072302526
C  C167  1  0.47800000  0.54870000  0.52300000  1.0 0.0072302526
C  C168  1  0.52200000  0.45130000  0.52300000  1.0 0.0072302526
C  C169  1  0.95130000  0.02200000  0.52300000  1.0 0.0043913367
C  C170  1  0.04870000  0.97800000  0.52300000  1.0 0.0072302526
C  C171  1  0.02200000  0.04870000  0.52300000  1.0 0.0072302526
C  C172  1  0.97800000  0.95130000  0.52300000  1.0 0.0072302526
C  C173  1  0.45130000  0.47800000  0.47700000  1.0 0.0072302526
C  C174  1  0.54870000  0.52200000  0.47700000  1.0 0.0072302526
C  C175  1  0.52200000  0.45130000  0.47700000  1.0 0.0072302526
C  C176  1  0.47800000  0.54870000  0.47700000  1.0 0.0072302526
N  N1  1  0.95030000  0.92320000  0.11630000  1.0 -0.3493186895
N  N2  1  0.04970000  0.07680000  0.11630000  1.0 -0.3493186895
N  N3  1  0.92320000  0.04970000  0.11630000  1.0 -0.3493186895
N  N4  1  0.07680000  0.95030000  0.11630000  1.0 -0.3493186895
N  N5  1  0.45030000  0.57680000  0.88370000  1.0 -0.3493186895
N  N6  1  0.54970000  0.42320000  0.88370000  1.0 -0.3493186895
N  N7  1  0.42320000  0.45030000  0.88370000  1.0 -0.3493186895
N  N8  1  0.57680000  0.54970000  0.88370000  1.0 -0.3493186895
N  N9  1  0.04970000  0.07680000  0.88370000  1.0 -0.3493186895
N  N10  1  0.95030000  0.92320000  0.88370000  1.0 -0.3493186895
N  N11  1  0.07680000  0.95030000  0.88370000  1.0 -0.3493186895
N  N12  1  0.92320000  0.04970000  0.88370000  1.0 -0.3493186895
N  N13  1  0.54970000  0.42320000  0.11630000  1.0 -0.3493186895
N  N14  1  0.45030000  0.57680000  0.11630000  1.0 -0.3493186895
N  N15  1  0.57680000  0.54970000  0.11630000  1.0 -0.3493186895
N  N16  1  0.42320000  0.45030000  0.11630000  1.0 -0.3493186895
N  N17  1  0.67290000  0.92660000  0.04720000  1.0 -0.0968705014
N  N18  1  0.32710000  0.07340000  0.04720000  1.0 -0.0968705014
N  N19  1  0.92660000  0.32710000  0.04720000  1.0 -0.0968705014
N  N20  1  0.07340000  0.67290000  0.04720000  1.0 -0.0968705014
N  N21  1  0.17290000  0.57340000  0.95280000  1.0 -0.0968705014
N  N22  1  0.82710000  0.42660000  0.95280000  1.0 -0.0968705014
N  N23  1  0.42660000  0.17290000  0.95280000  1.0 -0.0968705014
N  N24  1  0.57340000  0.82710000  0.95280000  1.0 -0.0968705014
N  N25  1  0.32710000  0.07340000  0.95280000  1.0 -0.0968705014
N  N26  1  0.67290000  0.92660000  0.95280000  1.0 -0.0968705014
N  N27  1  0.07340000  0.67290000  0.95280000  1.0 -0.0968705014
N  N28  1  0.92660000  0.32710000  0.95280000  1.0 -0.0968705014
N  N29  1  0.82710000  0.42660000  0.04720000  1.0 -0.0968705014
N  N30  1  0.17290000  0.57340000  0.04720000  1.0 -0.0968705014
N  N31  1  0.57340000  0.82710000  0.04720000  1.0 -0.0968705014
N  N32  1  0.42660000  0.17290000  0.04720000  1.0 -0.0968705014
O  O1  1  0.00000000  0.00000000  0.34400000  1.0 -0.0627757989
O  O2  1  0.50000000  0.50000000  0.65600000  1.0 -0.0627757989
O  O3  1  0.00000000  0.00000000  0.65600000  1.0 -0.0627757989
O  O4  1  0.50000000  0.50000000  0.34400000  1.0 -0.0627757989
O  O5  1  0.04480000  0.96160000  0.50000000  1.0 0.0207039601
O  O6  1  0.95520000  0.03840000  0.50000000  1.0 0.0207039601
O  O7  1  0.96160000  0.95520000  0.50000000  1.0 0.0207039601
O  O8  1  0.03840000  0.04480000  0.50000000  1.0 0.0207039601
O  O9  1  0.54480000  0.53840000  0.50000000  1.0 0.0207039601
O  O10  1  0.45520000  0.46160000  0.50000000  1.0 0.0207039601
O  O11  1  0.46160000  0.54480000  0.50000000  1.0 0.0207039601
O  O12  1  0.53840000  0.45520000  0.50000000  1.0 0.0207039601
