# DDEC6 charges by PACMAN v1.1 (https://github.com/mtap-research/PACMAN-charge/)
data_IZUMUM_ASR_pacman
_symmetry_space_group_name_H-M   'P 1'
_cell_length_a   15.61310000
_cell_length_b   15.61310000
_cell_length_c   15.61310000
_cell_angle_alpha   121.33100000
_cell_angle_beta   121.33100000
_cell_angle_gamma   87.71020000
_symmetry_Int_Tables_number   1
_chemical_formula_structural   CuH7C7N5O2
_chemical_formula_sum   'Cu8 H56 C56 N40 O16'
_cell_volume   2634.79958359
_cell_formula_units_Z   8
loop_
 _symmetry_equiv_pos_site_id
 _symmetry_equiv_pos_as_xyz
  1  'x, y, z'
loop_
 _atom_site_type_symbol
 _atom_site_label
 _atom_site_symmetry_multiplicity
 _atom_site_fract_x
 _atom_site_fract_y
 _atom_site_fract_z
 _atom_site_occupancy
 _atom_site_charge
Cu  Cu1  1  0.44937000  0.14093000  0.22864000  1.0 0.6618813377
Cu  Cu2  1  0.91229000  0.22073000  0.77136000  1.0 0.6618813377
Cu  Cu3  1  0.89093000  0.16229000  0.19156000  1.0 0.6618813377
Cu  Cu4  1  0.97073000  0.69937000  0.80844000  1.0 0.6618813377
Cu  Cu5  1  0.30063000  0.10907000  0.27136000  1.0 0.6618813377
Cu  Cu6  1  0.83771000  0.02927000  0.72864000  1.0 0.6618813377
Cu  Cu7  1  0.85907000  0.08771000  0.30844000  1.0 0.6618813377
Cu  Cu8  1  0.77927000  0.55063000  0.69156000  1.0 0.6618813377
H  H1  1  0.41800000  0.99310000  0.97650000  1.0 0.1137241821
H  H2  1  0.01660000  0.44150000  0.02350000  1.0 0.1137241821
H  H3  1  0.74310000  0.26660000  0.07510000  1.0 0.1137241821
H  H4  1  0.19150000  0.66800000  0.92490000  1.0 0.1137241821
H  H5  1  0.33200000  0.25690000  0.52350000  1.0 0.1137241821
H  H6  1  0.73340000  0.80850000  0.47650000  1.0 0.1137241821
H  H7  1  0.00690000  0.98340000  0.42490000  1.0 0.1137241821
H  H8  1  0.55850000  0.58200000  0.57510000  1.0 0.1137241821
H  H9  1  0.08020000  0.69080000  0.69300000  1.0 0.3076848115
H  H10  1  0.99780000  0.38720000  0.30700000  1.0 0.3076848115
H  H11  1  0.44080000  0.24780000  0.11060000  1.0 0.3076848115
H  H12  1  0.13720000  0.33020000  0.88940000  1.0 0.3076848115
H  H13  1  0.66980000  0.55920000  0.80700000  1.0 0.3076848115
H  H14  1  0.75220000  0.86280000  0.19300000  1.0 0.3076848115
H  H15  1  0.30920000  0.00220000  0.38940000  1.0 0.3076848115
H  H16  1  0.61280000  0.91980000  0.61060000  1.0 0.3076848115
H  H17  1  0.14640000  0.70400000  0.65580000  1.0 0.3076848115
H  H18  1  0.04820000  0.49060000  0.34420000  1.0 0.3076848115
H  H19  1  0.45400000  0.29820000  0.05760000  1.0 0.3076848115
H  H20  1  0.24060000  0.39640000  0.94240000  1.0 0.3076848115
H  H21  1  0.60360000  0.54600000  0.84420000  1.0 0.3076848115
H  H22  1  0.70180000  0.75940000  0.15580000  1.0 0.3076848115
H  H23  1  0.29600000  0.95180000  0.44240000  1.0 0.3076848115
H  H24  1  0.50940000  0.85360000  0.55760000  1.0 0.3076848115
H  H25  1  0.10150000  0.90760000  0.06010000  1.0 0.1157366808
H  H26  1  0.84750000  0.04140000  0.93990000  1.0 0.1157366808
H  H27  1  0.65760000  0.09750000  0.30610000  1.0 0.1157366808
H  H28  1  0.79140000  0.35150000  0.69390000  1.0 0.1157366808
H  H29  1  0.64850000  0.34240000  0.43990000  1.0 0.1157366808
H  H30  1  0.90250000  0.20860000  0.56010000  1.0 0.1157366808
H  H31  1  0.09240000  0.15250000  0.19390000  1.0 0.1157366808
H  H32  1  0.95860000  0.89850000  0.80610000  1.0 0.1157366808
H  H33  1  0.26980000  0.33920000  0.12740000  1.0 0.1559065755
H  H34  1  0.21180000  0.14240000  0.87260000  1.0 0.1559065755
H  H35  1  0.08920000  0.46180000  0.56940000  1.0 0.1559065755
H  H36  1  0.89240000  0.51980000  0.43060000  1.0 0.1559065755
H  H37  1  0.48020000  0.91080000  0.37260000  1.0 0.1559065755
H  H38  1  0.53820000  0.10760000  0.62740000  1.0 0.1559065755
H  H39  1  0.66080000  0.78820000  0.93060000  1.0 0.1559065755
H  H40  1  0.85760000  0.73020000  0.06940000  1.0 0.1559065755
H  H41  1  0.16400000  0.27760000  0.08660000  1.0 0.1699615873
H  H42  1  0.19100000  0.07740000  0.91340000  1.0 0.1699615873
H  H43  1  0.02760000  0.44100000  0.61360000  1.0 0.1699615873
H  H44  1  0.82740000  0.41400000  0.38640000  1.0 0.1699615873
H  H45  1  0.58600000  0.97240000  0.41340000  1.0 0.1699615873
H  H46  1  0.55900000  0.17260000  0.58660000  1.0 0.1699615873
H  H47  1  0.72240000  0.80900000  0.88640000  1.0 0.1699615873
H  H48  1  0.92260000  0.83600000  0.11360000  1.0 0.1699615873
H  H49  1  0.24390000  0.37640000  0.22350000  1.0 0.1699615873
H  H50  1  0.15290000  0.02040000  0.77650000  1.0 0.1699615873
H  H51  1  0.12640000  0.40290000  0.63250000  1.0 0.1699615873
H  H52  1  0.77040000  0.49390000  0.36750000  1.0 0.1699615873
H  H53  1  0.50610000  0.87360000  0.27650000  1.0 0.1699615873
H  H54  1  0.59710000  0.22960000  0.72350000  1.0 0.1699615873
H  H55  1  0.62360000  0.84710000  0.86750000  1.0 0.1699615873
H  H56  1  0.97960000  0.75610000  0.13250000  1.0 0.1699615873
C  C1  1  0.35750000  0.96240000  0.96130000  1.0 0.2250642504
C  C2  1  0.00110000  0.39620000  0.03870000  1.0 0.2250642504
C  C3  1  0.71240000  0.25110000  0.10490000  1.0 0.2250642504
C  C4  1  0.14620000  0.60750000  0.89510000  1.0 0.2250642504
C  C5  1  0.39250000  0.28760000  0.53870000  1.0 0.2250642504
C  C6  1  0.74890000  0.85380000  0.46130000  1.0 0.2250642504
C  C7  1  0.03760000  0.99890000  0.39510000  1.0 0.2250642504
C  C8  1  0.60380000  0.64250000  0.60490000  1.0 0.2250642504
C  C9  1  0.25940000  0.95880000  0.02440000  1.0 0.2784313846
C  C10  1  0.93440000  0.23500000  0.97560000  1.0 0.2784313846
C  C11  1  0.70880000  0.18440000  0.19940000  1.0 0.2784313846
C  C12  1  0.98500000  0.50940000  0.80060000  1.0 0.2784313846
C  C13  1  0.49060000  0.29120000  0.47560000  1.0 0.2784313846
C  C14  1  0.81560000  0.01500000  0.52440000  1.0 0.2784313846
C  C15  1  0.04120000  0.06560000  0.30060000  1.0 0.2784313846
C  C16  1  0.76500000  0.74060000  0.69940000  1.0 0.2784313846
C  C17  1  0.18510000  0.86080000  0.91190000  1.0 -0.0216740348
C  C18  1  0.94890000  0.27320000  0.08810000  1.0 -0.0216740348
C  C19  1  0.61080000  0.19890000  0.17570000  1.0 -0.0216740348
C  C20  1  0.02320000  0.43510000  0.82430000  1.0 -0.0216740348
C  C21  1  0.56490000  0.38920000  0.58810000  1.0 -0.0216740348
C  C22  1  0.80110000  0.97680000  0.41190000  1.0 -0.0216740348
C  C23  1  0.13920000  0.05110000  0.32430000  1.0 -0.0216740348
C  C24  1  0.72680000  0.81490000  0.67570000  1.0 -0.0216740348
C  C25  1  0.19900000  0.82040000  0.82360000  1.0 0.3019433345
C  C26  1  0.99680000  0.37540000  0.17640000  1.0 0.3019433345
C  C27  1  0.57040000  0.24680000  0.12140000  1.0 0.3019433345
C  C28  1  0.12540000  0.44900000  0.87860000  1.0 0.3019433345
C  C29  1  0.55100000  0.42960000  0.67640000  1.0 0.3019433345
C  C30  1  0.75320000  0.87460000  0.32360000  1.0 0.3019433345
C  C31  1  0.17960000  0.00320000  0.37860000  1.0 0.3019433345
C  C32  1  0.62460000  0.80100000  0.62140000  1.0 0.3019433345
C  C33  1  0.13910000  0.90790000  0.02960000  1.0 0.1838127698
C  C34  1  0.87830000  0.10950000  0.97040000  1.0 0.1838127698
C  C35  1  0.65790000  0.12830000  0.26880000  1.0 0.1838127698
C  C36  1  0.85950000  0.38910000  0.73120000  1.0 0.1838127698
C  C37  1  0.61090000  0.34210000  0.47040000  1.0 0.1838127698
C  C38  1  0.87170000  0.14050000  0.52960000  1.0 0.1838127698
C  C39  1  0.09210000  0.12170000  0.23120000  1.0 0.1838127698
C  C40  1  0.89050000  0.86090000  0.76880000  1.0 0.1838127698
C  C41  1  0.29200000  0.24490000  0.18710000  1.0 0.6768418725
C  C42  1  0.05780000  0.10490000  0.81290000  1.0 0.6768418725
C  C43  1  0.99490000  0.30780000  0.45290000  1.0 0.6768418725
C  C44  1  0.85490000  0.54200000  0.54710000  1.0 0.6768418725
C  C45  1  0.45800000  0.00510000  0.31290000  1.0 0.6768418725
C  C46  1  0.69220000  0.14510000  0.68710000  1.0 0.6768418725
C  C47  1  0.75510000  0.94220000  0.04710000  1.0 0.6768418725
C  C48  1  0.89510000  0.70800000  0.95290000  1.0 0.6768418725
C  C49  1  0.23740000  0.31600000  0.15300000  1.0 -0.5845069859
C  C50  1  0.16300000  0.08440000  0.84700000  1.0 -0.5845069859
C  C51  1  0.06600000  0.41300000  0.57860000  1.0 -0.5845069859
C  C52  1  0.83440000  0.48740000  0.42140000  1.0 -0.5845069859
C  C53  1  0.51260000  0.93400000  0.34700000  1.0 -0.5845069859
C  C54  1  0.58700000  0.16560000  0.65300000  1.0 -0.5845069859
C  C55  1  0.68400000  0.83700000  0.92140000  1.0 -0.5845069859
C  C56  1  0.91560000  0.76260000  0.07860000  1.0 -0.5845069859
N  N1  1  0.29100000  0.87570000  0.85090000  1.0 -0.3922625978
N  N2  1  0.02480000  0.44010000  0.14910000  1.0 -0.3922625978
N  N3  1  0.62570000  0.27480000  0.08470000  1.0 -0.3922625978
N  N4  1  0.19010000  0.54100000  0.91530000  1.0 -0.3922625978
N  N5  1  0.45900000  0.37430000  0.64910000  1.0 -0.3922625978
N  N6  1  0.72520000  0.80990000  0.35090000  1.0 -0.3922625978
N  N7  1  0.12430000  0.97520000  0.41530000  1.0 -0.3922625978
N  N8  1  0.55990000  0.70900000  0.58470000  1.0 -0.3922625978
N  N9  1  0.34820000  0.01170000  0.05430000  1.0 -0.3622770228
N  N10  1  0.95740000  0.29390000  0.94570000  1.0 -0.3622770228
N  N11  1  0.76170000  0.20740000  0.16350000  1.0 -0.3622770228
N  N12  1  0.04390000  0.59820000  0.83650000  1.0 -0.3622770228
N  N13  1  0.40180000  0.23830000  0.44570000  1.0 -0.3622770228
N  N14  1  0.79260000  0.95610000  0.55430000  1.0 -0.3622770228
N  N15  1  0.98830000  0.04260000  0.33650000  1.0 -0.3622770228
N  N16  1  0.70610000  0.65180000  0.66350000  1.0 -0.3622770228
N  N17  1  0.13390000  0.72690000  0.71020000  1.0 -0.5566153054
N  N18  1  0.01670000  0.42370000  0.28980000  1.0 -0.5566153054
N  N19  1  0.47690000  0.26670000  0.09300000  1.0 -0.5566153054
N  N20  1  0.17370000  0.38390000  0.90700000  1.0 -0.5566153054
N  N21  1  0.61610000  0.52310000  0.78980000  1.0 -0.5566153054
N  N22  1  0.73330000  0.82630000  0.21020000  1.0 -0.5566153054
N  N23  1  0.27310000  0.98330000  0.40700000  1.0 -0.5566153054
N  N24  1  0.57630000  0.86610000  0.59300000  1.0 -0.5566153054
N  N25  1  0.10860000  0.83040000  0.91580000  1.0 -0.3358316769
N  N26  1  0.91460000  0.19280000  0.08420000  1.0 -0.3358316769
N  N27  1  0.58040000  0.16460000  0.22180000  1.0 -0.3358316769
N  N28  1  0.94280000  0.35860000  0.77820000  1.0 -0.3358316769
N  N29  1  0.64140000  0.41960000  0.58420000  1.0 -0.3358316769
N  N30  1  0.83540000  0.05720000  0.41580000  1.0 -0.3358316769
N  N31  1  0.16960000  0.08540000  0.27820000  1.0 -0.3358316769
N  N32  1  0.80720000  0.89140000  0.72180000  1.0 -0.3358316769
N  N33  1  0.22760000  0.98630000  0.09710000  1.0 -0.3622770228
N  N34  1  0.88920000  0.13050000  0.90290000  1.0 -0.3622770228
N  N35  1  0.73630000  0.13920000  0.25870000  1.0 -0.3622770228
N  N36  1  0.88050000  0.47760000  0.74130000  1.0 -0.3622770228
N  N37  1  0.52240000  0.26370000  0.40290000  1.0 -0.3622770228
N  N38  1  0.86080000  0.11950000  0.59710000  1.0 -0.3622770228
N  N39  1  0.01370000  0.11080000  0.24130000  1.0 -0.3622770228
N  N40  1  0.86950000  0.77240000  0.75870000  1.0 -0.3622770228
O  O1  1  0.36540000  0.22530000  0.17690000  1.0 -0.5265952695
O  O2  1  0.04840000  0.18850000  0.82310000  1.0 -0.5265952695
O  O3  1  0.97530000  0.29840000  0.35990000  1.0 -0.5265952695
O  O4  1  0.93850000  0.61540000  0.64010000  1.0 -0.5265952695
O  O5  1  0.38460000  0.02470000  0.32310000  1.0 -0.5265952695
O  O6  1  0.70160000  0.06150000  0.67690000  1.0 -0.5265952695
O  O7  1  0.77470000  0.95160000  0.14010000  1.0 -0.5265952695
O  O8  1  0.81150000  0.63460000  0.85990000  1.0 -0.5265952695
O  O9  1  0.25430000  0.20700000  0.21810000  1.0 -0.5265952695
O  O10  1  0.98890000  0.03620000  0.78190000  1.0 -0.5265952695
O  O11  1  0.95700000  0.23890000  0.45270000  1.0 -0.5265952695
O  O12  1  0.78620000  0.50430000  0.54730000  1.0 -0.5265952695
O  O13  1  0.49570000  0.04300000  0.28190000  1.0 -0.5265952695
O  O14  1  0.76110000  0.21380000  0.71810000  1.0 -0.5265952695
O  O15  1  0.79300000  0.01110000  0.04730000  1.0 -0.5265952695
O  O16  1  0.96380000  0.74570000  0.95270000  1.0 -0.5265952695
