# DDEC6 charges by PACMAN v1.1 (https://github.com/mtap-research/PACMAN-charge/)
data_JABJIJ_ASR_pacman
_symmetry_space_group_name_H-M   'P 1'
_cell_length_a   7.83220000
_cell_length_b   10.12300000
_cell_length_c   13.32190000
_cell_angle_alpha   68.26500000
_cell_angle_beta   85.13000000
_cell_angle_gamma   80.06400000
_symmetry_Int_Tables_number   1
_chemical_formula_structural   ZrC8O5
_chemical_formula_sum   'Zr4 C32 O20'
_cell_volume   966.16992061
_cell_formula_units_Z   4
loop_
 _symmetry_equiv_pos_site_id
 _symmetry_equiv_pos_as_xyz
  1  'x, y, z'
loop_
 _atom_site_type_symbol
 _atom_site_label
 _atom_site_symmetry_multiplicity
 _atom_site_fract_x
 _atom_site_fract_y
 _atom_site_fract_z
 _atom_site_occupancy
 _atom_site_charge
Zr  Zr1  1  0.59590000  0.09240000  0.07140000  1.0 2.2412762876
Zr  Zr2  1  0.90920000  0.85790000  0.97320000  1.0 2.3037067886
Zr  Zr3  1  0.40410000  0.90760000  0.92860000  1.0 2.2412762876
Zr  Zr4  1  0.09080000  0.14210000  0.02680000  1.0 2.3037067886
C  C1  1  0.68000000  0.21000000  0.84000000  1.0 0.6562896605
C  C2  1  0.70000000  0.29700000  0.72300000  1.0 -0.0781500403
C  C3  1  0.64000000  0.44400000  0.67600000  1.0 -0.0078234055
C  C4  1  0.68000000  0.53100000  0.56900000  1.0 0.0264416748
C  C5  1  0.78000000  0.46400000  0.50600000  1.0 0.0264416748
C  C6  1  0.83000000  0.30800000  0.55200000  1.0 0.0168473433
C  C7  1  0.80000000  0.23100000  0.65900000  1.0 0.0072613353
C  C8  1  0.62000000  0.67700000  0.52300000  1.0 0.053426427
C  C9  1  0.66000000  0.76300000  0.41700000  1.0 0.0072613353
C  C10  1  0.75000000  0.69700000  0.35300000  1.0 -0.0688482636
C  C11  1  0.82000000  0.54100000  0.39900000  1.0 -0.0688482636
C  C12  1  0.78000000  0.78300000  0.23700000  1.0 0.6730794843
C  C13  1  0.29000000  0.17000000  0.21000000  1.0 0.6935030158
C  C14  1  0.29000000  0.26000000  0.28000000  1.0 -0.3411013846
C  C15  1  0.79000000  0.36000000  0.06000000  1.0 0.6524968679
C  C16  1  0.82000000  0.45000000  0.12000000  1.0 -0.1701515828
C  C17  1  0.32000000  0.79000000  0.16000000  1.0 0.6562896605
C  C18  1  0.30000000  0.70300000  0.27700000  1.0 -0.0781500403
C  C19  1  0.36000000  0.55600000  0.32400000  1.0 -0.0078234055
C  C20  1  0.32000000  0.46900000  0.43100000  1.0 0.0264416748
C  C21  1  0.22000000  0.53600000  0.49400000  1.0 0.0264416748
C  C22  1  0.17000000  0.69200000  0.44800000  1.0 0.0168473433
C  C23  1  0.20000000  0.76900000  0.34100000  1.0 0.0072613353
C  C24  1  0.38000000  0.32300000  0.47700000  1.0 0.053426427
C  C25  1  0.34000000  0.23700000  0.58300000  1.0 0.0072613353
C  C26  1  0.25000000  0.30300000  0.64700000  1.0 -0.0688482636
C  C27  1  0.18000000  0.45900000  0.60100000  1.0 -0.0781500403
C  C28  1  0.22000000  0.21700000  0.76300000  1.0 0.6730794843
C  C29  1  0.71000000  0.83000000  0.79000000  1.0 0.6935030158
C  C30  1  0.71000000  0.74000000  0.72000000  1.0 -0.3613636557
C  C31  1  0.21000000  0.64000000  0.94000000  1.0 0.6524968679
C  C32  1  0.18000000  0.55000000  0.88000000  1.0 -0.1701515828
O  O1  1  0.86700000  0.02500000  0.03500000  1.0 -1.0227973227
O  O2  1  0.35000000  0.05400000  0.02000000  1.0 -0.9021237258
O  O3  1  0.58100000  0.24000000  0.91200000  1.0 -0.6180537109
O  O4  1  0.77900000  0.08900000  0.86500000  1.0 -0.4212950979
O  O5  1  0.69100000  0.91000000  0.22200000  1.0 -0.6065782074
O  O6  1  0.85700000  0.76000000  0.15500000  1.0 -0.5811396007
O  O7  1  0.16000000  0.20000000  0.15000000  1.0 -0.6667326753
O  O8  1  0.41000000  0.06000000  0.23000000  1.0 -0.5999649231
O  O9  1  0.68000000  0.28000000  0.10000000  1.0 -0.5923965041
O  O10  1  0.88000000  0.35000000  0.98000000  1.0 -0.5999649231
O  O11  1  0.13300000  0.97500000  0.96500000  1.0 -1.0132198099
O  O12  1  0.65000000  0.94600000  0.98000000  1.0 -0.9062617187
O  O13  1  0.41900000  0.76000000  0.08800000  1.0 -0.6180537109
O  O14  1  0.22100000  0.91100000  0.13500000  1.0 -0.4212950979
O  O15  1  0.30900000  0.09000000  0.77800000  1.0 -0.6065782074
O  O16  1  0.14300000  0.24000000  0.84500000  1.0 -0.5811396007
O  O17  1  0.84000000  0.80000000  0.85000000  1.0 -0.6667326753
O  O18  1  0.59000000  0.94000000  0.77000000  1.0 -0.5999649231
O  O19  1  0.32000000  0.72000000  0.90000000  1.0 -0.5923965041
O  O20  1  0.12000000  0.65000000  0.02000000  1.0 -0.5999649231
