# DDEC6 charges by PACMAN v1.1 (https://github.com/mtap-research/PACMAN-charge/)
data_JAGTAP_ASR_pacman
_symmetry_space_group_name_H-M   'P 1'
_cell_length_a   16.76290000
_cell_length_b   16.76290000
_cell_length_c   16.76290000
_cell_angle_alpha   67.10220000
_cell_angle_beta   67.10220000
_cell_angle_gamma   67.10220000
_symmetry_Int_Tables_number   1
_chemical_formula_structural   CuH9(C5O2)3
_chemical_formula_sum   'Cu6 H54 C90 O36'
_cell_volume   3837.18926322
_cell_formula_units_Z   6
loop_
 _symmetry_equiv_pos_site_id
 _symmetry_equiv_pos_as_xyz
  1  'x, y, z'
loop_
 _atom_site_type_symbol
 _atom_site_label
 _atom_site_symmetry_multiplicity
 _atom_site_fract_x
 _atom_site_fract_y
 _atom_site_fract_z
 _atom_site_occupancy
 _atom_site_charge
Cu  Cu1  1  0.42405000  0.99626000  0.99626000  1.0 0.887882985
Cu  Cu2  1  0.99626000  0.99626000  0.42405000  1.0 0.887882985
Cu  Cu3  1  0.99626000  0.42405000  0.99626000  1.0 0.887882985
Cu  Cu4  1  0.57595000  0.00374000  0.00374000  1.0 0.887882985
Cu  Cu5  1  0.00374000  0.57595000  0.00374000  1.0 0.887882985
Cu  Cu6  1  0.00374000  0.00374000  0.57595000  1.0 0.887882985
H  H1  1  0.69560000  0.38420000  0.87200000  1.0 0.1306908213
H  H2  1  0.69160000  0.35660000  0.79470000  1.0 0.1223463557
H  H3  1  0.68240000  0.45730000  0.78150000  1.0 0.1306908213
H  H4  1  0.50200000  0.28550000  0.98400000  1.0 0.1306908213
H  H5  1  0.38420000  0.87200000  0.69560000  1.0 0.1306908213
H  H6  1  0.35660000  0.79470000  0.69160000  1.0 0.1223463557
H  H7  1  0.45730000  0.78150000  0.68240000  1.0 0.1306908213
H  H8  1  0.28550000  0.98400000  0.50200000  1.0 0.1306908213
H  H9  1  0.87200000  0.69560000  0.38420000  1.0 0.1306908213
H  H10  1  0.79470000  0.69160000  0.35660000  1.0 0.1223463557
H  H11  1  0.78150000  0.68240000  0.45730000  1.0 0.1306908213
H  H12  1  0.98400000  0.50200000  0.28550000  1.0 0.1306908213
H  H13  1  0.30440000  0.12800000  0.61580000  1.0 0.1306908213
H  H14  1  0.30840000  0.20530000  0.64340000  1.0 0.1223463557
H  H15  1  0.31760000  0.21850000  0.54270000  1.0 0.1306908213
H  H16  1  0.49800000  0.01600000  0.71450000  1.0 0.1306908213
H  H17  1  0.61580000  0.30440000  0.12800000  1.0 0.1306908213
H  H18  1  0.64340000  0.30840000  0.20530000  1.0 0.1223463557
H  H19  1  0.54270000  0.31760000  0.21850000  1.0 0.1306908213
H  H20  1  0.71450000  0.49800000  0.01600000  1.0 0.1306908213
H  H21  1  0.12800000  0.61580000  0.30440000  1.0 0.1306908213
H  H22  1  0.20530000  0.64340000  0.30840000  1.0 0.1223463557
H  H23  1  0.21850000  0.54270000  0.31760000  1.0 0.1306908213
H  H24  1  0.01600000  0.71450000  0.49800000  1.0 0.1306908213
H  H25  1  0.30440000  0.61580000  0.12800000  1.0 0.1306908213
H  H26  1  0.30840000  0.64340000  0.20530000  1.0 0.1223463557
H  H27  1  0.31760000  0.54270000  0.21850000  1.0 0.1306908213
H  H28  1  0.49800000  0.71450000  0.01600000  1.0 0.1306908213
H  H29  1  0.61580000  0.12800000  0.30440000  1.0 0.1306908213
H  H30  1  0.64340000  0.20530000  0.30840000  1.0 0.1223463557
H  H31  1  0.54270000  0.21850000  0.31760000  1.0 0.1306908213
H  H32  1  0.71450000  0.01600000  0.49800000  1.0 0.1306908213
H  H33  1  0.12800000  0.30440000  0.61580000  1.0 0.1306908213
H  H34  1  0.20530000  0.30840000  0.64340000  1.0 0.1223463557
H  H35  1  0.21850000  0.31760000  0.54270000  1.0 0.1306908213
H  H36  1  0.01600000  0.49800000  0.71450000  1.0 0.1306908213
H  H37  1  0.69560000  0.87200000  0.38420000  1.0 0.1306908213
H  H38  1  0.69160000  0.79470000  0.35660000  1.0 0.1223463557
H  H39  1  0.68240000  0.78150000  0.45730000  1.0 0.1306908213
H  H40  1  0.50200000  0.98400000  0.28550000  1.0 0.1306908213
H  H41  1  0.38420000  0.69560000  0.87200000  1.0 0.1306908213
H  H42  1  0.35660000  0.69160000  0.79470000  1.0 0.1223463557
H  H43  1  0.45730000  0.68240000  0.78150000  1.0 0.1306908213
H  H44  1  0.28550000  0.50200000  0.98400000  1.0 0.1306908213
H  H45  1  0.87200000  0.38420000  0.69560000  1.0 0.1306908213
H  H46  1  0.79470000  0.35660000  0.69160000  1.0 0.1223463557
H  H47  1  0.78150000  0.45730000  0.68240000  1.0 0.1306908213
H  H48  1  0.98400000  0.28550000  0.50200000  1.0 0.1306908213
H  H49  1  0.27085000  0.27085000  0.97450000  1.0 0.1397158428
H  H50  1  0.27085000  0.97450000  0.27085000  1.0 0.1397158428
H  H51  1  0.97450000  0.27085000  0.27085000  1.0 0.1397158428
H  H52  1  0.72915000  0.02550000  0.72915000  1.0 0.1397158428
H  H53  1  0.72915000  0.72915000  0.02550000  1.0 0.1397158428
H  H54  1  0.02550000  0.72915000  0.72915000  1.0 0.1397158428
C  C1  1  0.66900000  0.40300000  0.82400000  1.0 -0.2623064519
C  C2  1  0.43608000  0.16768000  0.97988000  1.0 0.5839530402
C  C3  1  0.39443000  0.26413000  0.97533000  1.0 -0.0225224676
C  C4  1  0.44277000  0.31287000  0.98097000  1.0 -0.1523050239
C  C5  1  0.53930000  0.45900000  0.92530000  1.0 0.1306908213
C  C6  1  0.49150000  0.41410000  0.06570000  1.0 -0.1142673524
C  C7  1  0.40300000  0.82400000  0.66900000  1.0 -0.2623064519
C  C8  1  0.16768000  0.97988000  0.43608000  1.0 0.5839530402
C  C9  1  0.26413000  0.97533000  0.39443000  1.0 -0.0225224676
C  C10  1  0.31287000  0.98097000  0.44277000  1.0 -0.1523050239
C  C11  1  0.45900000  0.92530000  0.53930000  1.0 0.1306908213
C  C12  1  0.41410000  0.06570000  0.49150000  1.0 -0.1142673524
C  C13  1  0.82400000  0.66900000  0.40300000  1.0 -0.2623064519
C  C14  1  0.97988000  0.43608000  0.16768000  1.0 0.5839530402
C  C15  1  0.97533000  0.39443000  0.26413000  1.0 -0.0225224676
C  C16  1  0.98097000  0.44277000  0.31287000  1.0 -0.1523050239
C  C17  1  0.92530000  0.53930000  0.45900000  1.0 0.1306908213
C  C18  1  0.06570000  0.49150000  0.41410000  1.0 -0.1166804993
C  C19  1  0.33100000  0.17600000  0.59700000  1.0 -0.2623064519
C  C20  1  0.56392000  0.02012000  0.83232000  1.0 0.5839530402
C  C21  1  0.60557000  0.02467000  0.73587000  1.0 -0.0225224676
C  C22  1  0.55723000  0.01903000  0.68713000  1.0 -0.1523050239
C  C23  1  0.46070000  0.07470000  0.54100000  1.0 0.1306908213
C  C24  1  0.50850000  0.93430000  0.58590000  1.0 -0.1142673524
C  C25  1  0.59700000  0.33100000  0.17600000  1.0 -0.2623064519
C  C26  1  0.83232000  0.56392000  0.02012000  1.0 0.5839530402
C  C27  1  0.73587000  0.60557000  0.02467000  1.0 -0.0225224676
C  C28  1  0.68713000  0.55723000  0.01903000  1.0 -0.1523050239
C  C29  1  0.54100000  0.46070000  0.07470000  1.0 0.1306908213
C  C30  1  0.58590000  0.50850000  0.93430000  1.0 -0.1142673524
C  C31  1  0.17600000  0.59700000  0.33100000  1.0 -0.2623064519
C  C32  1  0.02012000  0.83232000  0.56392000  1.0 0.5839530402
C  C33  1  0.02467000  0.73587000  0.60557000  1.0 -0.0225224676
C  C34  1  0.01903000  0.68713000  0.55723000  1.0 -0.1523050239
C  C35  1  0.07470000  0.54100000  0.46070000  1.0 0.1306908213
C  C36  1  0.93430000  0.58590000  0.50850000  1.0 -0.1142673524
C  C37  1  0.33100000  0.59700000  0.17600000  1.0 -0.2623064519
C  C38  1  0.56392000  0.83232000  0.02012000  1.0 0.5839530402
C  C39  1  0.60557000  0.73587000  0.02467000  1.0 -0.0225224676
C  C40  1  0.55723000  0.68713000  0.01903000  1.0 -0.1523050239
C  C41  1  0.46070000  0.54100000  0.07470000  1.0 0.1306908213
C  C42  1  0.50850000  0.58590000  0.93430000  1.0 -0.1142673524
C  C43  1  0.59700000  0.17600000  0.33100000  1.0 -0.2623064519
C  C44  1  0.83232000  0.02012000  0.56392000  1.0 0.5839530402
C  C45  1  0.73587000  0.02467000  0.60557000  1.0 -0.0225224676
C  C46  1  0.68713000  0.01903000  0.55723000  1.0 -0.1523050239
C  C47  1  0.54100000  0.07470000  0.46070000  1.0 0.1306908213
C  C48  1  0.58590000  0.93430000  0.50850000  1.0 -0.1142673524
C  C49  1  0.17600000  0.33100000  0.59700000  1.0 -0.2623064519
C  C50  1  0.02012000  0.56392000  0.83232000  1.0 0.5839530402
C  C51  1  0.02467000  0.60557000  0.73587000  1.0 -0.0225224676
C  C52  1  0.01903000  0.55723000  0.68713000  1.0 -0.1523050239
C  C53  1  0.07470000  0.46070000  0.54100000  1.0 0.1306908213
C  C54  1  0.93430000  0.50850000  0.58590000  1.0 -0.1166804993
C  C55  1  0.66900000  0.82400000  0.40300000  1.0 -0.2623064519
C  C56  1  0.43608000  0.97988000  0.16768000  1.0 0.5839530402
C  C57  1  0.39443000  0.97533000  0.26413000  1.0 -0.0225224676
C  C58  1  0.44277000  0.98097000  0.31287000  1.0 -0.1523050239
C  C59  1  0.53930000  0.92530000  0.45900000  1.0 0.1306908213
C  C60  1  0.49150000  0.06570000  0.41410000  1.0 -0.1142673524
C  C61  1  0.40300000  0.66900000  0.82400000  1.0 -0.2623064519
C  C62  1  0.16768000  0.43608000  0.97988000  1.0 0.5839530402
C  C63  1  0.26413000  0.39443000  0.97533000  1.0 -0.0225224676
C  C64  1  0.31287000  0.44277000  0.98097000  1.0 -0.1523050239
C  C65  1  0.45900000  0.53930000  0.92530000  1.0 0.1306908213
C  C66  1  0.41410000  0.49150000  0.06570000  1.0 -0.1142673524
C  C67  1  0.82400000  0.40300000  0.66900000  1.0 -0.2623064519
C  C68  1  0.97988000  0.16768000  0.43608000  1.0 0.5839530402
C  C69  1  0.97533000  0.26413000  0.39443000  1.0 -0.0225224676
C  C70  1  0.98097000  0.31287000  0.44277000  1.0 -0.1523050239
C  C71  1  0.92530000  0.45900000  0.53930000  1.0 0.1306908213
C  C72  1  0.06570000  0.41410000  0.49150000  1.0 -0.1142673524
C  C73  1  0.30395000  0.30395000  0.97490000  1.0 -0.0946643527
C  C74  1  0.40170000  0.40170000  0.98190000  1.0 0.0891292615
C  C75  1  0.45280000  0.45280000  0.99160000  1.0 0.0191470936
C  C76  1  0.30395000  0.97490000  0.30395000  1.0 -0.0946643527
C  C77  1  0.40170000  0.98190000  0.40170000  1.0 0.0891292615
C  C78  1  0.45280000  0.99160000  0.45280000  1.0 0.0191470936
C  C79  1  0.97490000  0.30395000  0.30395000  1.0 -0.0946643527
C  C80  1  0.98190000  0.40170000  0.40170000  1.0 0.0891292615
C  C81  1  0.99160000  0.45280000  0.45280000  1.0 0.0191470936
C  C82  1  0.69605000  0.02510000  0.69605000  1.0 -0.0946643527
C  C83  1  0.59830000  0.01810000  0.59830000  1.0 0.0891292615
C  C84  1  0.54720000  0.00840000  0.54720000  1.0 0.0191470936
C  C85  1  0.69605000  0.69605000  0.02510000  1.0 -0.0946643527
C  C86  1  0.59830000  0.59830000  0.01810000  1.0 0.0891292615
C  C87  1  0.54720000  0.54720000  0.00840000  1.0 0.0191470936
C  C88  1  0.02510000  0.69605000  0.69605000  1.0 -0.0946643527
C  C89  1  0.01810000  0.59830000  0.59830000  1.0 0.0891292615
C  C90  1  0.00840000  0.54720000  0.54720000  1.0 0.0191470936
O  O1  1  0.57340000  0.41990000  0.86070000  1.0 -0.1523050239
O  O2  1  0.38655000  0.12545000  0.98005000  1.0 -0.5286270704
O  O3  1  0.51598000  0.13218000  0.98588000  1.0 -0.516932515
O  O4  1  0.41990000  0.86070000  0.57340000  1.0 -0.1523050239
O  O5  1  0.12545000  0.98005000  0.38655000  1.0 -0.5286270704
O  O6  1  0.13218000  0.98588000  0.51598000  1.0 -0.516932515
O  O7  1  0.86070000  0.57340000  0.41990000  1.0 -0.1523050239
O  O8  1  0.98005000  0.38655000  0.12545000  1.0 -0.5286270704
O  O9  1  0.98588000  0.51598000  0.13218000  1.0 -0.516932515
O  O10  1  0.42660000  0.13930000  0.58010000  1.0 -0.1523050239
O  O11  1  0.61345000  0.01995000  0.87455000  1.0 -0.5286270704
O  O12  1  0.48402000  0.01412000  0.86782000  1.0 -0.516932515
O  O13  1  0.58010000  0.42660000  0.13930000  1.0 -0.1523050239
O  O14  1  0.87455000  0.61345000  0.01995000  1.0 -0.5286270704
O  O15  1  0.86782000  0.48402000  0.01412000  1.0 -0.516932515
O  O16  1  0.13930000  0.58010000  0.42660000  1.0 -0.1523050239
O  O17  1  0.01995000  0.87455000  0.61345000  1.0 -0.5286270704
O  O18  1  0.01412000  0.86782000  0.48402000  1.0 -0.516932515
O  O19  1  0.42660000  0.58010000  0.13930000  1.0 -0.1523050239
O  O20  1  0.61345000  0.87455000  0.01995000  1.0 -0.5286270704
O  O21  1  0.48402000  0.86782000  0.01412000  1.0 -0.516932515
O  O22  1  0.58010000  0.13930000  0.42660000  1.0 -0.1523050239
O  O23  1  0.87455000  0.01995000  0.61345000  1.0 -0.5286270704
O  O24  1  0.86782000  0.01412000  0.48402000  1.0 -0.516932515
O  O25  1  0.13930000  0.42660000  0.58010000  1.0 -0.1523050239
O  O26  1  0.01995000  0.61345000  0.87455000  1.0 -0.5286270704
O  O27  1  0.01412000  0.48402000  0.86782000  1.0 -0.516932515
O  O28  1  0.57340000  0.86070000  0.41990000  1.0 -0.1523050239
O  O29  1  0.38655000  0.98005000  0.12545000  1.0 -0.5286270704
O  O30  1  0.51598000  0.98588000  0.13218000  1.0 -0.516932515
O  O31  1  0.41990000  0.57340000  0.86070000  1.0 -0.1523050239
O  O32  1  0.12545000  0.38655000  0.98005000  1.0 -0.5286270704
O  O33  1  0.13218000  0.51598000  0.98588000  1.0 -0.516932515
O  O34  1  0.86070000  0.41990000  0.57340000  1.0 -0.1523050239
O  O35  1  0.98005000  0.12545000  0.38655000  1.0 -0.5286270704
O  O36  1  0.98588000  0.13218000  0.51598000  1.0 -0.516932515
