# DDEC6 charges by PACMAN v1.1 (https://github.com/mtap-research/PACMAN-charge/)
data_JAHNEM03_ASR_pacman
_symmetry_space_group_name_H-M   'P 1'
_cell_length_a   13.62060000
_cell_length_b   13.62060000
_cell_length_c   8.17510000
_cell_angle_alpha   90.00000000
_cell_angle_beta   90.00000000
_cell_angle_gamma   120.00000000
_symmetry_Int_Tables_number   1
_chemical_formula_structural   Mn3CrH21C15(N2O)6
_chemical_formula_sum   'Mn6 Cr2 H42 C30 N24 O12'
_cell_volume   1313.45798050
_cell_formula_units_Z   2
loop_
 _symmetry_equiv_pos_site_id
 _symmetry_equiv_pos_as_xyz
  1  'x, y, z'
loop_
 _atom_site_type_symbol
 _atom_site_label
 _atom_site_symmetry_multiplicity
 _atom_site_fract_x
 _atom_site_fract_y
 _atom_site_fract_z
 _atom_site_occupancy
 _atom_site_charge
Mn  Mn1  1  0.29561000  0.33426000  0.54383000  1.0 0.846351246
Mn  Mn2  1  0.70439000  0.66574000  0.04383000  1.0 0.846351246
Mn  Mn3  1  0.66574000  0.96135000  0.54383000  1.0 0.846351246
Mn  Mn4  1  0.03865000  0.70439000  0.54383000  1.0 0.846351246
Mn  Mn5  1  0.96135000  0.29561000  0.04383000  1.0 0.846351246
Mn  Mn6  1  0.33426000  0.03865000  0.04383000  1.0 0.846351246
Cr  Cr1  1  0.33333333  0.66666667  0.92457000  1.0 0.7390943467
Cr  Cr2  1  0.66666667  0.33333333  0.42457000  1.0 0.7390943467
H  H1  1  0.40890000  0.25780000  0.95050000  1.0 0.2890189215
H  H2  1  0.59110000  0.74220000  0.45050000  1.0 0.2890189215
H  H3  1  0.74220000  0.15110000  0.95050000  1.0 0.2890189215
H  H4  1  0.84890000  0.59110000  0.95050000  1.0 0.2890189215
H  H5  1  0.15110000  0.40890000  0.45050000  1.0 0.2890189215
H  H6  1  0.25780000  0.84890000  0.45050000  1.0 0.2890189215
H  H7  1  0.28520000  0.20130000  0.94510000  1.0 0.3018079995
H  H8  1  0.71480000  0.79870000  0.44510000  1.0 0.3018079995
H  H9  1  0.79870000  0.08390000  0.94510000  1.0 0.3018079995
H  H10  1  0.91610000  0.71480000  0.94510000  1.0 0.3018079995
H  H11  1  0.08390000  0.28520000  0.44510000  1.0 0.3018079995
H  H12  1  0.20130000  0.91610000  0.44510000  1.0 0.3018079995
H  H13  1  0.42100000  0.28680000  0.21080000  1.0 0.1072118133
H  H14  1  0.57900000  0.71320000  0.71080000  1.0 0.1072118133
H  H15  1  0.71320000  0.13420000  0.21080000  1.0 0.1072118133
H  H16  1  0.86580000  0.57900000  0.21080000  1.0 0.1072118133
H  H17  1  0.13420000  0.42100000  0.71080000  1.0 0.1072118133
H  H18  1  0.28680000  0.86580000  0.71080000  1.0 0.1072118133
H  H19  1  0.34650000  0.48110000  0.29950000  1.0 0.2890189215
H  H20  1  0.65350000  0.51890000  0.79950000  1.0 0.2890189215
H  H21  1  0.51890000  0.86540000  0.29950000  1.0 0.2890189215
H  H22  1  0.13460000  0.65350000  0.29950000  1.0 0.2890189215
H  H23  1  0.86540000  0.34650000  0.79950000  1.0 0.2890189215
H  H24  1  0.48110000  0.13460000  0.79950000  1.0 0.2890189215
H  H25  1  0.43910000  0.45740000  0.30760000  1.0 0.2835534512
H  H26  1  0.56090000  0.54260000  0.80760000  1.0 0.2835534512
H  H27  1  0.54260000  0.98170000  0.30760000  1.0 0.2835534512
H  H28  1  0.01830000  0.56090000  0.30760000  1.0 0.2835534512
H  H29  1  0.98170000  0.43910000  0.80760000  1.0 0.2835534512
H  H30  1  0.45740000  0.01830000  0.80760000  1.0 0.2835534512
H  H31  1  0.35250000  0.39750000  0.06370000  1.0 0.1072118133
H  H32  1  0.64750000  0.60250000  0.56370000  1.0 0.1072118133
H  H33  1  0.60250000  0.95500000  0.06370000  1.0 0.1072118133
H  H34  1  0.04500000  0.64750000  0.06370000  1.0 0.1072118133
H  H35  1  0.95500000  0.35250000  0.56370000  1.0 0.1072118133
H  H36  1  0.39750000  0.04500000  0.56370000  1.0 0.1072118133
H  H37  1  0.23720000  0.32160000  0.15460000  1.0 0.1192311197
H  H38  1  0.76280000  0.67840000  0.65460000  1.0 0.1192311197
H  H39  1  0.67840000  0.91560000  0.15460000  1.0 0.1192311197
H  H40  1  0.08440000  0.76280000  0.15460000  1.0 0.1192311197
H  H41  1  0.91560000  0.23720000  0.65460000  1.0 0.1192311197
H  H42  1  0.32160000  0.08440000  0.65460000  1.0 0.1192311197
C  C1  1  0.53030000  0.32170000  0.55370000  1.0 -0.1328268201
C  C2  1  0.46970000  0.67830000  0.05370000  1.0 -0.1328268201
C  C3  1  0.67830000  0.20860000  0.55370000  1.0 -0.1328268201
C  C4  1  0.79140000  0.46970000  0.55370000  1.0 -0.1328268201
C  C5  1  0.20860000  0.53030000  0.05370000  1.0 -0.1328268201
C  C6  1  0.32170000  0.79140000  0.05370000  1.0 -0.1328268201
C  C7  1  0.35430000  0.55610000  0.77550000  1.0 -0.104716938
C  C8  1  0.64570000  0.44390000  0.27550000  1.0 -0.104716938
C  C9  1  0.44390000  0.79820000  0.77550000  1.0 -0.104716938
C  C10  1  0.20180000  0.64570000  0.77550000  1.0 -0.104716938
C  C11  1  0.79820000  0.35430000  0.27550000  1.0 -0.104716938
C  C12  1  0.55610000  0.20180000  0.27550000  1.0 -0.104716938
C  C13  1  0.26700000  0.15880000  0.28020000  1.0 0.5707661509
C  C14  1  0.73300000  0.84120000  0.78020000  1.0 0.5707661509
C  C15  1  0.84120000  0.10820000  0.28020000  1.0 0.5707661509
C  C16  1  0.89180000  0.73300000  0.28020000  1.0 0.5707661509
C  C17  1  0.10820000  0.26700000  0.78020000  1.0 0.5707661509
C  C18  1  0.15880000  0.89180000  0.78020000  1.0 0.5707661509
C  C19  1  0.34400000  0.25500000  0.16720000  1.0 -0.0311784261
C  C20  1  0.65600000  0.74500000  0.66720000  1.0 -0.0311784261
C  C21  1  0.74500000  0.08900000  0.16720000  1.0 -0.0311784261
C  C22  1  0.91100000  0.65600000  0.16720000  1.0 -0.0311784261
C  C23  1  0.08900000  0.34400000  0.66720000  1.0 -0.0311784261
C  C24  1  0.25500000  0.91100000  0.66720000  1.0 -0.0311784261
C  C25  1  0.31850000  0.35230000  0.16100000  1.0 -0.0602871292
C  C26  1  0.68150000  0.64770000  0.66100000  1.0 -0.0602871292
C  C27  1  0.64770000  0.96620000  0.16100000  1.0 -0.0602871292
C  C28  1  0.03380000  0.68150000  0.16100000  1.0 -0.0602871292
C  C29  1  0.96620000  0.31850000  0.66100000  1.0 -0.0602871292
C  C30  1  0.35230000  0.03380000  0.66100000  1.0 -0.0602871292
N  N1  1  0.34480000  0.21010000  0.00420000  1.0 -0.5586732925
N  N2  1  0.65520000  0.78990000  0.50420000  1.0 -0.5586732925
N  N3  1  0.78990000  0.13470000  0.00420000  1.0 -0.5586732925
N  N4  1  0.86530000  0.65520000  0.00420000  1.0 -0.5586732925
N  N5  1  0.13470000  0.34480000  0.50420000  1.0 -0.5586732925
N  N6  1  0.21010000  0.86530000  0.50420000  1.0 -0.5586732925
N  N7  1  0.36310000  0.42510000  0.30700000  1.0 -0.5317003032
N  N8  1  0.63690000  0.57490000  0.80700000  1.0 -0.5317003032
N  N9  1  0.57490000  0.93800000  0.30700000  1.0 -0.5317003032
N  N10  1  0.06200000  0.63690000  0.30700000  1.0 -0.5317003032
N  N11  1  0.93800000  0.36310000  0.80700000  1.0 -0.5317003032
N  N12  1  0.42510000  0.06200000  0.80700000  1.0 -0.5317003032
N  N13  1  0.44990000  0.31930000  0.60350000  1.0 -0.3505477111
N  N14  1  0.55010000  0.68070000  0.10350000  1.0 -0.3505477111
N  N15  1  0.68070000  0.13060000  0.60350000  1.0 -0.3505477111
N  N16  1  0.86940000  0.55010000  0.60350000  1.0 -0.3505477111
N  N17  1  0.13060000  0.44990000  0.10350000  1.0 -0.3505477111
N  N18  1  0.31930000  0.86940000  0.10350000  1.0 -0.3505477111
N  N19  1  0.36600000  0.49540000  0.69160000  1.0 -0.3505477111
N  N20  1  0.63400000  0.50460000  0.19160000  1.0 -0.3505477111
N  N21  1  0.50460000  0.87060000  0.69160000  1.0 -0.3505477111
N  N22  1  0.12940000  0.63400000  0.69160000  1.0 -0.3505477111
N  N23  1  0.87060000  0.36600000  0.19160000  1.0 -0.3505477111
N  N24  1  0.49540000  0.12940000  0.19160000  1.0 -0.3505477111
O  O1  1  0.22820000  0.18040000  0.40510000  1.0 -0.5083575845
O  O2  1  0.77180000  0.81960000  0.90510000  1.0 -0.5083575845
O  O3  1  0.81960000  0.04780000  0.40510000  1.0 -0.5083575845
O  O4  1  0.95220000  0.77180000  0.40510000  1.0 -0.5083575845
O  O5  1  0.04780000  0.22820000  0.90510000  1.0 -0.5083575845
O  O6  1  0.18040000  0.95220000  0.90510000  1.0 -0.5083575845
O  O7  1  0.24430000  0.05870000  0.24650000  1.0 -0.5317003032
O  O8  1  0.75570000  0.94130000  0.74650000  1.0 -0.5317003032
O  O9  1  0.94130000  0.18560000  0.24650000  1.0 -0.5317003032
O  O10  1  0.81440000  0.75570000  0.24650000  1.0 -0.5317003032
O  O11  1  0.18560000  0.24430000  0.74650000  1.0 -0.5317003032
O  O12  1  0.05870000  0.81440000  0.74650000  1.0 -0.5317003032
