# DDEC6 charges by PACMAN v1.1 (https://github.com/mtap-research/PACMAN-charge/)
data_JAHNEM_ASR_pacman
_symmetry_space_group_name_H-M   'P 1'
_cell_length_a   13.68020000
_cell_length_b   13.68020000
_cell_length_c   8.15300000
_cell_angle_alpha   90.00000000
_cell_angle_beta   90.00000000
_cell_angle_gamma   120.00000000
_symmetry_Int_Tables_number   1
_chemical_formula_structural   Mn3CrH21C15(N2O)6
_chemical_formula_sum   'Mn6 Cr2 H42 C30 N24 O12'
_cell_volume   1321.39593776
_cell_formula_units_Z   2
loop_
 _symmetry_equiv_pos_site_id
 _symmetry_equiv_pos_as_xyz
  1  'x, y, z'
loop_
 _atom_site_type_symbol
 _atom_site_label
 _atom_site_symmetry_multiplicity
 _atom_site_fract_x
 _atom_site_fract_y
 _atom_site_fract_z
 _atom_site_occupancy
 _atom_site_charge
Mn  Mn1  1  0.66573000  0.70361000  0.79308000  1.0 0.8421585384
Mn  Mn2  1  0.33427000  0.29639000  0.29308000  1.0 0.8421585384
Mn  Mn3  1  0.29639000  0.96212000  0.79308000  1.0 0.8421585384
Mn  Mn4  1  0.03788000  0.33427000  0.79308000  1.0 0.8421585384
Mn  Mn5  1  0.96212000  0.66573000  0.29308000  1.0 0.8421585384
Mn  Mn6  1  0.70361000  0.03788000  0.29308000  1.0 0.8421585384
Cr  Cr1  1  0.33333333  0.66666667  0.41040000  1.0 0.7397046609
Cr  Cr2  1  0.66666667  0.33333333  0.91040000  1.0 0.7397046609
H  H1  1  0.74570000  0.59380000  0.39050000  1.0 0.2885120641
H  H2  1  0.25430000  0.40620000  0.89050000  1.0 0.2885120641
H  H3  1  0.40620000  0.15190000  0.39050000  1.0 0.2885120641
H  H4  1  0.84810000  0.25430000  0.39050000  1.0 0.2885120641
H  H5  1  0.15190000  0.74570000  0.89050000  1.0 0.2885120641
H  H6  1  0.59380000  0.84810000  0.89050000  1.0 0.2885120641
H  H7  1  0.80280000  0.71700000  0.39420000  1.0 0.3030031247
H  H8  1  0.19720000  0.28300000  0.89420000  1.0 0.3030031247
H  H9  1  0.28300000  0.08580000  0.39420000  1.0 0.3030031247
H  H10  1  0.91420000  0.19720000  0.39420000  1.0 0.3030031247
H  H11  1  0.08580000  0.80280000  0.89420000  1.0 0.3030031247
H  H12  1  0.71700000  0.91420000  0.89420000  1.0 0.3030031247
H  H13  1  0.71420000  0.58020000  0.13080000  1.0 0.1093964538
H  H14  1  0.28580000  0.41980000  0.63080000  1.0 0.1093964538
H  H15  1  0.41980000  0.13400000  0.13080000  1.0 0.1093964538
H  H16  1  0.86600000  0.28580000  0.13080000  1.0 0.1093964538
H  H17  1  0.13400000  0.71420000  0.63080000  1.0 0.1093964538
H  H18  1  0.58020000  0.86600000  0.63080000  1.0 0.1093964538
H  H19  1  0.60460000  0.64800000  0.27590000  1.0 0.1093964538
H  H20  1  0.39540000  0.35200000  0.77590000  1.0 0.1093964538
H  H21  1  0.35200000  0.95660000  0.27590000  1.0 0.1093964538
H  H22  1  0.04340000  0.39540000  0.27590000  1.0 0.1093964538
H  H23  1  0.95660000  0.60460000  0.77590000  1.0 0.1093964538
H  H24  1  0.64800000  0.04340000  0.77590000  1.0 0.1093964538
H  H25  1  0.67960000  0.76240000  0.18370000  1.0 0.1209368034
H  H26  1  0.32040000  0.23760000  0.68370000  1.0 0.1209368034
H  H27  1  0.23760000  0.91720000  0.18370000  1.0 0.1209368034
H  H28  1  0.08280000  0.32040000  0.18370000  1.0 0.1209368034
H  H29  1  0.91720000  0.67960000  0.68370000  1.0 0.1209368034
H  H30  1  0.76240000  0.08280000  0.68370000  1.0 0.1209368034
H  H31  1  0.51980000  0.65300000  0.03980000  1.0 0.2885120641
H  H32  1  0.48020000  0.34700000  0.53980000  1.0 0.2885120641
H  H33  1  0.34700000  0.86680000  0.03980000  1.0 0.2885120641
H  H34  1  0.13320000  0.48020000  0.03980000  1.0 0.2885120641
H  H35  1  0.86680000  0.51980000  0.53980000  1.0 0.2885120641
H  H36  1  0.65300000  0.13320000  0.53980000  1.0 0.2885120641
H  H37  1  0.54340000  0.56060000  0.03140000  1.0 0.284339778
H  H38  1  0.45660000  0.43940000  0.53140000  1.0 0.284339778
H  H39  1  0.43940000  0.98280000  0.03140000  1.0 0.2885120641
H  H40  1  0.01720000  0.45660000  0.03140000  1.0 0.284339778
H  H41  1  0.98280000  0.54340000  0.53140000  1.0 0.284339778
H  H42  1  0.56060000  0.01720000  0.53140000  1.0 0.284339778
C  C1  1  0.44340000  0.64600000  0.56090000  1.0 -0.1205476748
C  C2  1  0.55660000  0.35400000  0.06090000  1.0 -0.1205476748
C  C3  1  0.35400000  0.79740000  0.56090000  1.0 -0.1205476748
C  C4  1  0.20260000  0.55660000  0.56090000  1.0 -0.1205476748
C  C5  1  0.79740000  0.44340000  0.06090000  1.0 -0.1205476748
C  C6  1  0.64600000  0.20260000  0.06090000  1.0 -0.1205476748
C  C7  1  0.74590000  0.65710000  0.17340000  1.0 -0.0212247466
C  C8  1  0.25410000  0.34290000  0.67340000  1.0 -0.0212247466
C  C9  1  0.34290000  0.08880000  0.17340000  1.0 -0.0212247466
C  C10  1  0.91120000  0.25410000  0.17340000  1.0 -0.0212247466
C  C11  1  0.08880000  0.74590000  0.67340000  1.0 -0.0212247466
C  C12  1  0.65710000  0.91120000  0.67340000  1.0 -0.0212247466
C  C13  1  0.64930000  0.68150000  0.17790000  1.0 -0.0590520726
C  C14  1  0.35070000  0.31850000  0.67790000  1.0 -0.0590520726
C  C15  1  0.31850000  0.96780000  0.17790000  1.0 -0.0590520726
C  C16  1  0.03220000  0.35070000  0.17790000  1.0 -0.0590520726
C  C17  1  0.96780000  0.64930000  0.67790000  1.0 -0.0590520726
C  C18  1  0.68150000  0.03220000  0.67790000  1.0 -0.0590520726
C  C19  1  0.32050000  0.53030000  0.27890000  1.0 -0.1413483025
C  C20  1  0.67950000  0.46970000  0.77890000  1.0 -0.1413483025
C  C21  1  0.46970000  0.79020000  0.27890000  1.0 -0.1413483025
C  C22  1  0.20980000  0.67950000  0.27890000  1.0 -0.1413483025
C  C23  1  0.79020000  0.32050000  0.77890000  1.0 -0.1413483025
C  C24  1  0.53030000  0.20980000  0.77890000  1.0 -0.1413483025
C  C25  1  0.84140000  0.73340000  0.05520000  1.0 0.5687225385
C  C26  1  0.15860000  0.26660000  0.55520000  1.0 0.5687225385
C  C27  1  0.26660000  0.10800000  0.05520000  1.0 0.5687225385
C  C28  1  0.89200000  0.15860000  0.05520000  1.0 0.5687225385
C  C29  1  0.10800000  0.84140000  0.55520000  1.0 0.5687225385
C  C30  1  0.73340000  0.89200000  0.55520000  1.0 0.5687225385
N  N1  1  0.79290000  0.65710000  0.33530000  1.0 -0.5560409503
N  N2  1  0.20710000  0.34290000  0.83530000  1.0 -0.5560409503
N  N3  1  0.34290000  0.13580000  0.33530000  1.0 -0.5560409503
N  N4  1  0.86420000  0.20710000  0.33530000  1.0 -0.5560409503
N  N5  1  0.13580000  0.79290000  0.83530000  1.0 -0.5560409503
N  N6  1  0.65710000  0.86420000  0.83530000  1.0 -0.5560409503
N  N7  1  0.50450000  0.63390000  0.64640000  1.0 -0.356488752
N  N8  1  0.49550000  0.36610000  0.14640000  1.0 -0.356488752
N  N9  1  0.36610000  0.87060000  0.64640000  1.0 -0.356488752
N  N10  1  0.12940000  0.49550000  0.64640000  1.0 -0.356488752
N  N11  1  0.87060000  0.50450000  0.14640000  1.0 -0.356488752
N  N12  1  0.63390000  0.12940000  0.14640000  1.0 -0.356488752
N  N13  1  0.31960000  0.44950000  0.23120000  1.0 -0.3529919263
N  N14  1  0.68040000  0.55050000  0.73120000  1.0 -0.3529919263
N  N15  1  0.55050000  0.87010000  0.23120000  1.0 -0.3529919263
N  N16  1  0.12990000  0.68040000  0.23120000  1.0 -0.3529919263
N  N17  1  0.87010000  0.31960000  0.73120000  1.0 -0.3529919263
N  N18  1  0.44950000  0.12990000  0.73120000  1.0 -0.3529919263
N  N19  1  0.57550000  0.63630000  0.03180000  1.0 -0.5303658522
N  N20  1  0.42450000  0.36370000  0.53180000  1.0 -0.5303658522
N  N21  1  0.36370000  0.93920000  0.03180000  1.0 -0.5303658522
N  N22  1  0.06080000  0.42450000  0.03180000  1.0 -0.5303658522
N  N23  1  0.93920000  0.57550000  0.53180000  1.0 -0.5303658522
N  N24  1  0.63630000  0.06080000  0.53180000  1.0 -0.5303658522
O  O1  1  0.82030000  0.77250000  0.93360000  1.0 -0.4836655733
O  O2  1  0.17970000  0.22750000  0.43360000  1.0 -0.4836655733
O  O3  1  0.22750000  0.04780000  0.93360000  1.0 -0.4836655733
O  O4  1  0.95220000  0.17970000  0.93360000  1.0 -0.4836655733
O  O5  1  0.04780000  0.82030000  0.43360000  1.0 -0.4836655733
O  O6  1  0.77250000  0.95220000  0.43360000  1.0 -0.4836655733
O  O7  1  0.94230000  0.75540000  0.08970000  1.0 -0.5405155695
O  O8  1  0.05770000  0.24460000  0.58970000  1.0 -0.5405155695
O  O9  1  0.24460000  0.18690000  0.08970000  1.0 -0.5405155695
O  O10  1  0.81310000  0.05770000  0.08970000  1.0 -0.5405155695
O  O11  1  0.18690000  0.94230000  0.58970000  1.0 -0.5405155695
O  O12  1  0.75540000  0.81310000  0.58970000  1.0 -0.5405155695
