# DDEC6 charges by PACMAN v1.1 (https://github.com/mtap-research/PACMAN-charge/)
data_JAJZAY_ASR_pacman
_symmetry_space_group_name_H-M   'P 1'
_cell_length_a   16.76880000
_cell_length_b   16.76880000
_cell_length_c   16.76880000
_cell_angle_alpha   69.84750000
_cell_angle_beta   69.84750000
_cell_angle_gamma   69.84750000
_symmetry_Int_Tables_number   1
_chemical_formula_structural   ZnH3C13S2(NO)4
_chemical_formula_sum   'Zn6 H18 C78 S12 N24 O24'
_cell_volume   4016.84756431
_cell_formula_units_Z   6
loop_
 _symmetry_equiv_pos_site_id
 _symmetry_equiv_pos_as_xyz
  1  'x, y, z'
loop_
 _atom_site_type_symbol
 _atom_site_label
 _atom_site_symmetry_multiplicity
 _atom_site_fract_x
 _atom_site_fract_y
 _atom_site_fract_z
 _atom_site_occupancy
 _atom_site_charge
Zn  Zn1  1  0.99069000  0.41847000  0.99069000  1.0 0.9536487524
Zn  Zn2  1  0.41847000  0.99068000  0.99069000  1.0 0.9536487524
Zn  Zn3  1  0.99069000  0.99068000  0.41847000  1.0 0.9536487524
Zn  Zn4  1  0.00931000  0.00932000  0.58153000  1.0 0.9536487524
Zn  Zn5  1  0.00931000  0.58153000  0.00932000  1.0 0.9536487524
Zn  Zn6  1  0.58153000  0.00932000  0.00932000  1.0 0.9536487524
H  H1  1  0.26665000  0.26665000  0.96800000  1.0 0.1394334797
H  H2  1  0.26665000  0.96800000  0.26665000  1.0 0.1394334797
H  H3  1  0.96800000  0.26665000  0.26665000  1.0 0.1394334797
H  H4  1  0.73335000  0.03200000  0.73335000  1.0 0.1394334797
H  H5  1  0.03200000  0.73335000  0.73335000  1.0 0.1394334797
H  H6  1  0.73335000  0.73335000  0.03200000  1.0 0.1394334797
H  H7  1  0.28530000  0.49110000  0.98410000  1.0 0.149626968
H  H8  1  0.49110000  0.98410000  0.28530000  1.0 0.149626968
H  H9  1  0.98410000  0.28530000  0.49110000  1.0 0.149626968
H  H10  1  0.71470000  0.01590000  0.50890000  1.0 0.149626968
H  H11  1  0.01590000  0.50890000  0.71470000  1.0 0.149626968
H  H12  1  0.50890000  0.71470000  0.01590000  1.0 0.149626968
H  H13  1  0.71470000  0.50890000  0.01590000  1.0 0.149626968
H  H14  1  0.50890000  0.01590000  0.71470000  1.0 0.149626968
H  H15  1  0.01590000  0.71470000  0.50890000  1.0 0.149626968
H  H16  1  0.28530000  0.98410000  0.49110000  1.0 0.149626968
H  H17  1  0.98410000  0.49110000  0.28530000  1.0 0.149626968
H  H18  1  0.49110000  0.28530000  0.98410000  1.0 0.149626968
C  C1  1  0.29870000  0.29870000  0.97440000  1.0 -0.1052646661
C  C2  1  0.29870000  0.97440000  0.29870000  1.0 -0.1044233055
C  C3  1  0.97440000  0.29870000  0.29870000  1.0 -0.1044233055
C  C4  1  0.70130000  0.02560000  0.70130000  1.0 -0.1052646661
C  C5  1  0.02560000  0.70130000  0.70130000  1.0 -0.1052646661
C  C6  1  0.70130000  0.70130000  0.02560000  1.0 -0.1052646661
C  C7  1  0.44870000  0.44870000  0.99390000  1.0 0.0447056457
C  C8  1  0.44870000  0.99390000  0.44870000  1.0 0.0512469388
C  C9  1  0.99390000  0.44870000  0.44870000  1.0 0.0512469388
C  C10  1  0.55130000  0.00610000  0.55130000  1.0 0.0447056457
C  C11  1  0.00610000  0.55130000  0.55130000  1.0 0.0447056457
C  C12  1  0.55130000  0.55130000  0.00610000  1.0 0.0512469388
C  C13  1  0.16400000  0.42770000  0.98280000  1.0 0.6045694117
C  C14  1  0.42770000  0.98280000  0.16400000  1.0 0.6045694117
C  C15  1  0.98280000  0.16400000  0.42770000  1.0 0.6045694117
C  C16  1  0.83600000  0.01720000  0.57230000  1.0 0.6045694117
C  C17  1  0.01720000  0.57230000  0.83600000  1.0 0.6045694117
C  C18  1  0.57230000  0.83600000  0.01720000  1.0 0.6045694117
C  C19  1  0.83600000  0.57230000  0.01720000  1.0 0.6045694117
C  C20  1  0.57230000  0.01720000  0.83600000  1.0 0.6045694117
C  C21  1  0.01720000  0.83600000  0.57230000  1.0 0.6045694117
C  C22  1  0.16400000  0.98280000  0.42770000  1.0 0.6045694117
C  C23  1  0.98280000  0.42770000  0.16400000  1.0 0.6045694117
C  C24  1  0.42770000  0.16400000  0.98280000  1.0 0.6045694117
C  C25  1  0.25950000  0.38490000  0.97900000  1.0 -0.0070004089
C  C26  1  0.38490000  0.97900000  0.25950000  1.0 -0.0070004089
C  C27  1  0.97900000  0.25950000  0.38490000  1.0 -0.0070004089
C  C28  1  0.74050000  0.02100000  0.61510000  1.0 -0.0070004089
C  C29  1  0.02100000  0.61510000  0.74050000  1.0 -0.0070004089
C  C30  1  0.61510000  0.74050000  0.02100000  1.0 -0.0070004089
C  C31  1  0.74050000  0.61510000  0.02100000  1.0 -0.0070004089
C  C32  1  0.61510000  0.02100000  0.74050000  1.0 -0.0070004089
C  C33  1  0.02100000  0.74050000  0.61510000  1.0 -0.0070004089
C  C34  1  0.25950000  0.97900000  0.38490000  1.0 -0.0070004089
C  C35  1  0.97900000  0.38490000  0.25950000  1.0 -0.0070004089
C  C36  1  0.38490000  0.25950000  0.97900000  1.0 -0.0070004089
C  C37  1  0.53460000  0.44100000  0.94930000  1.0 0.0512469388
C  C38  1  0.44100000  0.94930000  0.53460000  1.0 0.0512469388
C  C39  1  0.94930000  0.53460000  0.44100000  1.0 0.0609634452
C  C40  1  0.46540000  0.05070000  0.55900000  1.0 0.0609634452
C  C41  1  0.05070000  0.55900000  0.46540000  1.0 0.0512469388
C  C42  1  0.55900000  0.46540000  0.05070000  1.0 0.0609634452
C  C43  1  0.46540000  0.55900000  0.05070000  1.0 0.0609634452
C  C44  1  0.55900000  0.05070000  0.46540000  1.0 0.0512469388
C  C45  1  0.05070000  0.46540000  0.55900000  1.0 0.0609634452
C  C46  1  0.53460000  0.94930000  0.44100000  1.0 0.0609634452
C  C47  1  0.94930000  0.44100000  0.53460000  1.0 0.0512469388
C  C48  1  0.44100000  0.53460000  0.94930000  1.0 0.0512469388
C  C49  1  0.39760000  0.39760000  0.98510000  1.0 0.1202536885
C  C50  1  0.39760000  0.98510000  0.39760000  1.0 0.1202536885
C  C51  1  0.98510000  0.39760000  0.39760000  1.0 0.1202536885
C  C52  1  0.60240000  0.01490000  0.60240000  1.0 0.1202536885
C  C53  1  0.01490000  0.60240000  0.60240000  1.0 0.1202536885
C  C54  1  0.60240000  0.60240000  0.01490000  1.0 0.1202536885
C  C55  1  0.31090000  0.43250000  0.98290000  1.0 -0.1245391369
C  C56  1  0.43250000  0.98290000  0.31090000  1.0 -0.1245391369
C  C57  1  0.98290000  0.31090000  0.43250000  1.0 -0.1245391369
C  C58  1  0.68910000  0.01710000  0.56750000  1.0 -0.1259121285
C  C59  1  0.01710000  0.56750000  0.68910000  1.0 -0.1245391369
C  C60  1  0.56750000  0.68910000  0.01710000  1.0 -0.1245391369
C  C61  1  0.68910000  0.56750000  0.01710000  1.0 -0.1245391369
C  C62  1  0.56750000  0.01710000  0.68910000  1.0 -0.1245391369
C  C63  1  0.01710000  0.68910000  0.56750000  1.0 -0.1245391369
C  C64  1  0.31090000  0.98290000  0.43250000  1.0 -0.1245391369
C  C65  1  0.98290000  0.43250000  0.31090000  1.0 -0.1245391369
C  C66  1  0.43250000  0.31090000  0.98290000  1.0 -0.1245391369
C  C67  1  0.50670000  0.41270000  0.04720000  1.0 0.0609634452
C  C68  1  0.41270000  0.04720000  0.50670000  1.0 0.0666978493
C  C69  1  0.04720000  0.50670000  0.41270000  1.0 0.0609634452
C  C70  1  0.49330000  0.95280000  0.58730000  1.0 0.0609634452
C  C71  1  0.95280000  0.58730000  0.49330000  1.0 0.0666978493
C  C72  1  0.58730000  0.49330000  0.95280000  1.0 0.0666978493
C  C73  1  0.49330000  0.58730000  0.95280000  1.0 0.0609634452
C  C74  1  0.58730000  0.95280000  0.49330000  1.0 0.0609634452
C  C75  1  0.95280000  0.49330000  0.58730000  1.0 0.0609634452
C  C76  1  0.50670000  0.04720000  0.41270000  1.0 0.0609634452
C  C77  1  0.04720000  0.41270000  0.50670000  1.0 0.0666978493
C  C78  1  0.41270000  0.50670000  0.04720000  1.0 0.0666978493
S  S1  1  0.58980000  0.31790000  0.16090000  1.0 0.6100345682
S  S2  1  0.31790000  0.16090000  0.58980000  1.0 0.6100345682
S  S3  1  0.16090000  0.58980000  0.31790000  1.0 0.6100345682
S  S4  1  0.41020000  0.83910000  0.68210000  1.0 0.6100345682
S  S5  1  0.83910000  0.68210000  0.41020000  1.0 0.6100345682
S  S6  1  0.68210000  0.41020000  0.83910000  1.0 0.6336479648
S  S7  1  0.41020000  0.68210000  0.83910000  1.0 0.6362248822
S  S8  1  0.68210000  0.83910000  0.41020000  1.0 0.6336479648
S  S9  1  0.83910000  0.41020000  0.68210000  1.0 0.6100345682
S  S10  1  0.58980000  0.16090000  0.31790000  1.0 0.6100345682
S  S11  1  0.16090000  0.31790000  0.58980000  1.0 0.6100345682
S  S12  1  0.31790000  0.58980000  0.16090000  1.0 0.6100345682
N  N1  1  0.60340000  0.41240000  0.14940000  1.0 -0.4568473236
N  N2  1  0.41240000  0.14940000  0.60340000  1.0 -0.4568473236
N  N3  1  0.14940000  0.60340000  0.41240000  1.0 -0.4568473236
N  N4  1  0.39660000  0.85060000  0.58760000  1.0 -0.4568473236
N  N5  1  0.85060000  0.58760000  0.39660000  1.0 -0.4568473236
N  N6  1  0.58760000  0.39660000  0.85060000  1.0 -0.4568473236
N  N7  1  0.39660000  0.58760000  0.85060000  1.0 -0.4568473236
N  N8  1  0.58760000  0.85060000  0.39660000  1.0 -0.4568473236
N  N9  1  0.85060000  0.39660000  0.58760000  1.0 -0.4568473236
N  N10  1  0.60340000  0.14940000  0.41240000  1.0 -0.4568473236
N  N11  1  0.14940000  0.41240000  0.60340000  1.0 -0.4568473236
N  N12  1  0.41240000  0.60340000  0.14940000  1.0 -0.4568473236
N  N13  1  0.51990000  0.30990000  0.12690000  1.0 -0.4335672096
N  N14  1  0.30990000  0.12690000  0.51990000  1.0 -0.4335672096
N  N15  1  0.12690000  0.51990000  0.30990000  1.0 -0.4335672096
N  N16  1  0.48010000  0.87310000  0.69010000  1.0 -0.4335672096
N  N17  1  0.87310000  0.69010000  0.48010000  1.0 -0.4335672096
N  N18  1  0.69010000  0.48010000  0.87310000  1.0 -0.4335672096
N  N19  1  0.48010000  0.69010000  0.87310000  1.0 -0.4335672096
N  N20  1  0.69010000  0.87310000  0.48010000  1.0 -0.4335672096
N  N21  1  0.87310000  0.48010000  0.69010000  1.0 -0.4335672096
N  N22  1  0.51990000  0.12690000  0.30990000  1.0 -0.4335672096
N  N23  1  0.12690000  0.30990000  0.51990000  1.0 -0.4335672096
N  N24  1  0.30990000  0.51990000  0.12690000  1.0 -0.4335672096
O  O1  1  0.12225000  0.37955000  0.97715000  1.0 -0.5422989613
O  O2  1  0.37955000  0.97715000  0.12225000  1.0 -0.5422989613
O  O3  1  0.97715000  0.12225000  0.37955000  1.0 -0.5422989613
O  O4  1  0.87775000  0.02285000  0.62045000  1.0 -0.5422989613
O  O5  1  0.02285000  0.62045000  0.87775000  1.0 -0.5422989613
O  O6  1  0.62045000  0.87775000  0.02285000  1.0 -0.5422989613
O  O7  1  0.87775000  0.62045000  0.02285000  1.0 -0.5422989613
O  O8  1  0.62045000  0.02285000  0.87775000  1.0 -0.5422989613
O  O9  1  0.02285000  0.87775000  0.62045000  1.0 -0.5422989613
O  O10  1  0.12225000  0.97715000  0.37955000  1.0 -0.5422989613
O  O11  1  0.97715000  0.37955000  0.12225000  1.0 -0.5422989613
O  O12  1  0.37955000  0.12225000  0.97715000  1.0 -0.5422989613
O  O13  1  0.13434000  0.50404000  0.98724000  1.0 -0.5050479607
O  O14  1  0.50404000  0.98724000  0.13434000  1.0 -0.5028813542
O  O15  1  0.98724000  0.13434000  0.50404000  1.0 -0.5050479607
O  O16  1  0.86566000  0.01276000  0.49596000  1.0 -0.5050479607
O  O17  1  0.01276000  0.49596000  0.86566000  1.0 -0.5028813542
O  O18  1  0.49596000  0.86566000  0.01276000  1.0 -0.5028813542
O  O19  1  0.86566000  0.49596000  0.01276000  1.0 -0.5028813542
O  O20  1  0.49596000  0.01276000  0.86566000  1.0 -0.5050479607
O  O21  1  0.01276000  0.86566000  0.49596000  1.0 -0.5028813542
O  O22  1  0.13434000  0.98724000  0.50404000  1.0 -0.5028813542
O  O23  1  0.98724000  0.50404000  0.13434000  1.0 -0.5028813542
O  O24  1  0.50404000  0.13434000  0.98724000  1.0 -0.5028813542
