# DDEC6 charges by PACMAN v1.1 (https://github.com/mtap-research/PACMAN-charge/)
data_JAKBUV_FSR_pacman
_symmetry_space_group_name_H-M   'P 1'
_cell_length_a   10.09800000
_cell_length_b   12.15600000
_cell_length_c   17.11900000
_cell_angle_alpha   90.00000000
_cell_angle_beta   96.32000000
_cell_angle_gamma   90.00000000
_symmetry_Int_Tables_number   1
_chemical_formula_structural   Mn(C2N3)3
_chemical_formula_sum   'Mn4 C24 N36'
_cell_volume   2088.60835654
_cell_formula_units_Z   4
loop_
 _symmetry_equiv_pos_site_id
 _symmetry_equiv_pos_as_xyz
  1  'x, y, z'
loop_
 _atom_site_type_symbol
 _atom_site_label
 _atom_site_symmetry_multiplicity
 _atom_site_fract_x
 _atom_site_fract_y
 _atom_site_fract_z
 _atom_site_occupancy
 _atom_site_charge
Mn  Mn1  1  0.26890000  0.22545000  0.78770000  1.0 0.9860214778
Mn  Mn2  1  0.73110000  0.72545000  0.71230000  1.0 0.9860214778
Mn  Mn3  1  0.73110000  0.77455000  0.21230000  1.0 0.9838487692
Mn  Mn4  1  0.26890000  0.27455000  0.28770000  1.0 0.9838487692
C  C1  1  0.34740000  0.96270000  0.80714000  1.0 0.4183173478
C  C2  1  0.65260000  0.46270000  0.69286000  1.0 0.4183173478
C  C3  1  0.65260000  0.03730000  0.19286000  1.0 0.4183173478
C  C4  1  0.34740000  0.53730000  0.30714000  1.0 0.4183173478
C  C5  1  0.17740000  0.48690000  0.74911000  1.0 0.4183173478
C  C6  1  0.82260000  0.98690000  0.75089000  1.0 0.4183173478
C  C7  1  0.82260000  0.51310000  0.25089000  1.0 0.4183173478
C  C8  1  0.17740000  0.01310000  0.24911000  1.0 0.4183173478
C  C9  1  0.03750000  0.63040000  0.72090000  1.0 0.4306204505
C  C10  1  0.96250000  0.13040000  0.77910000  1.0 0.4306204505
C  C11  1  0.96250000  0.36960000  0.27910000  1.0 0.4306204505
C  C12  1  0.03750000  0.86960000  0.22090000  1.0 0.4306204505
C  C13  1  0.24140000  0.16140000  0.59669000  1.0 0.4395296462
C  C14  1  0.75860000  0.66140000  0.90331000  1.0 0.4395296462
C  C15  1  0.75860000  0.83860000  0.40331000  1.0 0.4395296462
C  C16  1  0.24140000  0.33860000  0.09669000  1.0 0.4395296462
C  C17  1  0.45000000  0.81420000  0.76342000  1.0 0.4065169432
C  C18  1  0.55000000  0.31420000  0.73658000  1.0 0.4065169432
C  C19  1  0.55000000  0.18580000  0.23658000  1.0 0.4065169432
C  C20  1  0.45000000  0.68580000  0.26342000  1.0 0.4065169432
C  C21  1  0.26820000  0.18340000  0.46833000  1.0 0.4395296462
C  C22  1  0.73180000  0.68340000  0.03167000  1.0 0.4395296462
C  C23  1  0.73180000  0.81660000  0.53167000  1.0 0.4395296462
C  C24  1  0.26820000  0.31660000  0.96833000  1.0 0.4395296462
N  N1  1  0.32640000  0.05360000  0.81529000  1.0 -0.3997571715
N  N2  1  0.67360000  0.55360000  0.68471000  1.0 -0.3997571715
N  N3  1  0.67360000  0.94640000  0.18471000  1.0 -0.3997571715
N  N4  1  0.32640000  0.44640000  0.31529000  1.0 -0.3997571715
N  N5  1  0.20850000  0.39810000  0.76072000  1.0 -0.4098185711
N  N6  1  0.79150000  0.89810000  0.73928000  1.0 -0.4098185711
N  N7  1  0.79150000  0.60190000  0.23928000  1.0 -0.4098185711
N  N8  1  0.20850000  0.10190000  0.26072000  1.0 -0.4098185711
N  N9  1  0.36270000  0.85670000  0.80480000  1.0 -0.3412341587
N  N10  1  0.63730000  0.35670000  0.69520000  1.0 -0.3412341587
N  N11  1  0.63730000  0.14330000  0.19520000  1.0 -0.3412341587
N  N12  1  0.36270000  0.64330000  0.30480000  1.0 -0.3412341587
N  N13  1  0.15660000  0.59090000  0.73580000  1.0 -0.3530760519
N  N14  1  0.84340000  0.09090000  0.76420000  1.0 -0.3530760519
N  N15  1  0.84340000  0.40910000  0.26420000  1.0 -0.3562572263
N  N16  1  0.15660000  0.90910000  0.23580000  1.0 -0.3562572263
N  N17  1  0.24290000  0.18390000  0.66053000  1.0 -0.4208711684
N  N18  1  0.75710000  0.68390000  0.83947000  1.0 -0.4208711684
N  N19  1  0.75710000  0.81610000  0.33947000  1.0 -0.4208711684
N  N20  1  0.24290000  0.31610000  0.16053000  1.0 -0.4208711684
N  N21  1  0.23300000  0.12430000  0.52569000  1.0 -0.3885179348
N  N22  1  0.76700000  0.62430000  0.97431000  1.0 -0.3885179348
N  N23  1  0.76700000  0.87570000  0.47431000  1.0 -0.3885179348
N  N24  1  0.23300000  0.37570000  0.02569000  1.0 -0.3885179348
N  N25  1  0.94080000  0.67590000  0.70610000  1.0 -0.4098185711
N  N26  1  0.05920000  0.17590000  0.79390000  1.0 -0.3997571715
N  N27  1  0.05920000  0.32410000  0.29390000  1.0 -0.3997571715
N  N28  1  0.94080000  0.82410000  0.20610000  1.0 -0.3997571715
N  N29  1  0.52140000  0.76890000  0.72740000  1.0 -0.3997571715
N  N30  1  0.47860000  0.26890000  0.77260000  1.0 -0.3997571715
N  N31  1  0.47860000  0.23110000  0.27260000  1.0 -0.3997571715
N  N32  1  0.52140000  0.73110000  0.22740000  1.0 -0.3997571715
N  N33  1  0.29470000  0.22530000  0.41330000  1.0 -0.4208711684
N  N34  1  0.70530000  0.72530000  0.08670000  1.0 -0.4208711684
N  N35  1  0.70530000  0.77470000  0.58670000  1.0 -0.4208711684
N  N36  1  0.29470000  0.27470000  0.91330000  1.0 -0.4208711684
