# DDEC6 charges by PACMAN v1.1 (https://github.com/mtap-research/PACMAN-charge/)
data_JAKPET_ASR_pacman
_symmetry_space_group_name_H-M   'P 1'
_cell_length_a   17.47220000
_cell_length_b   17.47220000
_cell_length_c   14.45080000
_cell_angle_alpha   90.00000000
_cell_angle_beta   90.00000000
_cell_angle_gamma   90.00000000
_symmetry_Int_Tables_number   1
_chemical_formula_structural   H27Pb2C42(NO5)3
_chemical_formula_sum   'H108 Pb8 C168 N12 O60'
_cell_volume   4411.50803976
_cell_formula_units_Z   4
loop_
 _symmetry_equiv_pos_site_id
 _symmetry_equiv_pos_as_xyz
  1  'x, y, z'
loop_
 _atom_site_type_symbol
 _atom_site_label
 _atom_site_symmetry_multiplicity
 _atom_site_fract_x
 _atom_site_fract_y
 _atom_site_fract_z
 _atom_site_occupancy
 _atom_site_charge
H  H1  1  0.04000000  0.03620000  0.26820000  1.0 0.1208565398
H  H2  1  0.03620000  0.96000000  0.51820000  1.0 0.1208565398
H  H3  1  0.96000000  0.96380000  0.76820000  1.0 0.1208565398
H  H4  1  0.96380000  0.04000000  0.01820000  1.0 0.1208565398
H  H5  1  0.23960000  0.08950000  0.14250000  1.0 0.1393680808
H  H6  1  0.08950000  0.76040000  0.39250000  1.0 0.1393680808
H  H7  1  0.76040000  0.91050000  0.64250000  1.0 0.1393680808
H  H8  1  0.91050000  0.23960000  0.89250000  1.0 0.1393680808
H  H9  1  0.20020000  0.15680000  0.40350000  1.0 0.1491376944
H  H10  1  0.15680000  0.79980000  0.65350000  1.0 0.1491376944
H  H11  1  0.79980000  0.84320000  0.90350000  1.0 0.1491376944
H  H12  1  0.84320000  0.20020000  0.15350000  1.0 0.1491376944
H  H13  1  0.40430000  0.17710000  0.22970000  1.0 0.1293034505
H  H14  1  0.17710000  0.59570000  0.47970000  1.0 0.1293034505
H  H15  1  0.59570000  0.82290000  0.72970000  1.0 0.1293034505
H  H16  1  0.82290000  0.40430000  0.97970000  1.0 0.1293034505
H  H17  1  0.35650000  0.11380000  0.17900000  1.0 0.1293034505
H  H18  1  0.11380000  0.64350000  0.42900000  1.0 0.1293034505
H  H19  1  0.64350000  0.88620000  0.67900000  1.0 0.1293034505
H  H20  1  0.88620000  0.35650000  0.92900000  1.0 0.1293034505
H  H21  1  0.31900000  0.31660000  0.21380000  1.0 0.1393680808
H  H22  1  0.31660000  0.68100000  0.46380000  1.0 0.1393680808
H  H23  1  0.68100000  0.68340000  0.71380000  1.0 0.1393680808
H  H24  1  0.68340000  0.31900000  0.96380000  1.0 0.1393680808
H  H25  1  0.28490000  0.39480000  0.10110000  1.0 0.1293034505
H  H26  1  0.39480000  0.71510000  0.35110000  1.0 0.1293034505
H  H27  1  0.71510000  0.60520000  0.60110000  1.0 0.1293034505
H  H28  1  0.60520000  0.28490000  0.85110000  1.0 0.1293034505
H  H29  1  0.28080000  0.36420000  0.95380000  1.0 0.1393680808
H  H30  1  0.36420000  0.71920000  0.20380000  1.0 0.1393680808
H  H31  1  0.71920000  0.63580000  0.45380000  1.0 0.1393680808
H  H32  1  0.63580000  0.28080000  0.70380000  1.0 0.1393680808
H  H33  1  0.30720000  0.24010000  0.91610000  1.0 0.1085311137
H  H34  1  0.24010000  0.69280000  0.16610000  1.0 0.1085311137
H  H35  1  0.69280000  0.75990000  0.41610000  1.0 0.1085311137
H  H36  1  0.75990000  0.30720000  0.66610000  1.0 0.1085311137
H  H37  1  0.70360000  0.84360000  0.28430000  1.0 0.1393680808
H  H38  1  0.84360000  0.29640000  0.53430000  1.0 0.1393680808
H  H39  1  0.29640000  0.15640000  0.78430000  1.0 0.1393680808
H  H40  1  0.15640000  0.70360000  0.03430000  1.0 0.1393680808
H  H41  1  0.47470000  0.84290000  0.28310000  1.0 0.1293034505
H  H42  1  0.84290000  0.52530000  0.53310000  1.0 0.1293034505
H  H43  1  0.52530000  0.15710000  0.78310000  1.0 0.1293034505
H  H44  1  0.15710000  0.47470000  0.03310000  1.0 0.1293034505
H  H45  1  0.58840000  0.02910000  0.37200000  1.0 0.1393680808
H  H46  1  0.02910000  0.41160000  0.62200000  1.0 0.1393680808
H  H47  1  0.41160000  0.97090000  0.87200000  1.0 0.1393680808
H  H48  1  0.97090000  0.58840000  0.12200000  1.0 0.1393680808
H  H49  1  0.39470000  0.89920000  0.39210000  1.0 0.1208565398
H  H50  1  0.89920000  0.60530000  0.64210000  1.0 0.1208565398
H  H51  1  0.60530000  0.10080000  0.89210000  1.0 0.1208565398
H  H52  1  0.10080000  0.39470000  0.14210000  1.0 0.1208565398
H  H53  1  0.35180000  0.97780000  0.39760000  1.0 0.1208565398
H  H54  1  0.97780000  0.64820000  0.64760000  1.0 0.1208565398
H  H55  1  0.64820000  0.02220000  0.89760000  1.0 0.1208565398
H  H56  1  0.02220000  0.35180000  0.14760000  1.0 0.1208565398
H  H57  1  0.24440000  0.88900000  0.33840000  1.0 0.1393680808
H  H58  1  0.88900000  0.75560000  0.58840000  1.0 0.1393680808
H  H59  1  0.75560000  0.11100000  0.83840000  1.0 0.1393680808
H  H60  1  0.11100000  0.24440000  0.08840000  1.0 0.1393680808
H  H61  1  0.17750000  0.85780000  0.20880000  1.0 0.1393680808
H  H62  1  0.85780000  0.82250000  0.45880000  1.0 0.1393680808
H  H63  1  0.82250000  0.14220000  0.70880000  1.0 0.1393680808
H  H64  1  0.14220000  0.17750000  0.95880000  1.0 0.1393680808
H  H65  1  0.22430000  0.87230000  0.06690000  1.0 0.1393680808
H  H66  1  0.87230000  0.77570000  0.31690000  1.0 0.1393680808
H  H67  1  0.77570000  0.12770000  0.56690000  1.0 0.1393680808
H  H68  1  0.12770000  0.22430000  0.81690000  1.0 0.1393680808
H  H69  1  0.34120000  0.91840000  0.05160000  1.0 0.1293034505
H  H70  1  0.91840000  0.65880000  0.30160000  1.0 0.1293034505
H  H71  1  0.65880000  0.08160000  0.55160000  1.0 0.1293034505
H  H72  1  0.08160000  0.34120000  0.80160000  1.0 0.1293034505
H  H73  1  0.48670000  0.54990000  0.63420000  1.0 0.1208565398
H  H74  1  0.54990000  0.51330000  0.88420000  1.0 0.1208565398
H  H75  1  0.51330000  0.45010000  0.13420000  1.0 0.1208565398
H  H76  1  0.45010000  0.48670000  0.38420000  1.0 0.1208565398
H  H77  1  0.41030000  0.74720000  0.74580000  1.0 0.1393680808
H  H78  1  0.74720000  0.58970000  0.99580000  1.0 0.1393680808
H  H79  1  0.58970000  0.25280000  0.24580000  1.0 0.1393680808
H  H80  1  0.25280000  0.41030000  0.49580000  1.0 0.1393680808
H  H81  1  0.49920000  0.74580000  0.49060000  1.0 0.1491376944
H  H82  1  0.74580000  0.50080000  0.74060000  1.0 0.1491376944
H  H83  1  0.50080000  0.25420000  0.99060000  1.0 0.1491376944
H  H84  1  0.25420000  0.49920000  0.24060000  1.0 0.1491376944
H  H85  1  0.33980000  0.84410000  0.66200000  1.0 0.1293034505
H  H86  1  0.84410000  0.66020000  0.91200000  1.0 0.1293034505
H  H87  1  0.66020000  0.15590000  0.16200000  1.0 0.1293034505
H  H88  1  0.15590000  0.33980000  0.41200000  1.0 0.1293034505
H  H89  1  0.40830000  0.87850000  0.71890000  1.0 0.1208565398
H  H90  1  0.87850000  0.59170000  0.96890000  1.0 0.1208565398
H  H91  1  0.59170000  0.12150000  0.21890000  1.0 0.1208565398
H  H92  1  0.12150000  0.40830000  0.46890000  1.0 0.1208565398
H  H93  1  0.47820000  0.98240000  0.58700000  1.0 0.1393680808
H  H94  1  0.98240000  0.52180000  0.83700000  1.0 0.1393680808
H  H95  1  0.52180000  0.01760000  0.08700000  1.0 0.1393680808
H  H96  1  0.01760000  0.47820000  0.33700000  1.0 0.1393680808
H  H97  1  0.44140000  0.10360000  0.53410000  1.0 0.1393680808
H  H98  1  0.10360000  0.55860000  0.78410000  1.0 0.1393680808
H  H99  1  0.55860000  0.89640000  0.03410000  1.0 0.1393680808
H  H100  1  0.89640000  0.44140000  0.28410000  1.0 0.1393680808
H  H101  1  0.32700000  0.14210000  0.52150000  1.0 0.1393680808
H  H102  1  0.14210000  0.67300000  0.77150000  1.0 0.1393680808
H  H103  1  0.67300000  0.85790000  0.02150000  1.0 0.1393680808
H  H104  1  0.85790000  0.32700000  0.27150000  1.0 0.1393680808
H  H105  1  0.23410000  0.06660000  0.57190000  1.0 0.1293034505
H  H106  1  0.06660000  0.76590000  0.82190000  1.0 0.1293034505
H  H107  1  0.76590000  0.93340000  0.07190000  1.0 0.1293034505
H  H108  1  0.93340000  0.23410000  0.32190000  1.0 0.1293034505
Pb  Pb1  1  0.87644000  0.03376000  0.39710000  1.0 1.0813911594
Pb  Pb2  1  0.03376000  0.12356000  0.64710000  1.0 1.0813911594
Pb  Pb3  1  0.12356000  0.96624000  0.89710000  1.0 1.0813911594
Pb  Pb4  1  0.96624000  0.87644000  0.14710000  1.0 1.0813911594
Pb  Pb5  1  0.58766000  0.59635000  0.25793000  1.0 1.101789806
Pb  Pb6  1  0.59635000  0.41234000  0.50793000  1.0 1.101789806
Pb  Pb7  1  0.41234000  0.40365000  0.75793000  1.0 1.101789806
Pb  Pb8  1  0.40365000  0.58766000  0.00793000  1.0 1.101789806
C  C1  1  0.11270000  0.09800000  0.34670000  1.0 0.0097908315
C  C2  1  0.09800000  0.88730000  0.59670000  1.0 0.0097908315
C  C3  1  0.88730000  0.90200000  0.84670000  1.0 0.0097908315
C  C4  1  0.90200000  0.11270000  0.09670000  1.0 0.0097908315
C  C5  1  0.08810000  0.05890000  0.26930000  1.0 -0.1556742825
C  C6  1  0.05890000  0.91190000  0.51930000  1.0 -0.1556742825
C  C7  1  0.91190000  0.94110000  0.76930000  1.0 -0.1556742825
C  C8  1  0.94110000  0.08810000  0.01930000  1.0 -0.1556742825
C  C9  1  0.13630000  0.05380000  0.19290000  1.0 0.0034793978
C  C10  1  0.05380000  0.86370000  0.44290000  1.0 0.0034793978
C  C11  1  0.86370000  0.94620000  0.69290000  1.0 0.0034793978
C  C12  1  0.94620000  0.13630000  0.94290000  1.0 0.0034793978
C  C13  1  0.20850000  0.09020000  0.19470000  1.0 -0.2297277563
C  C14  1  0.09020000  0.79150000  0.44470000  1.0 -0.2297277563
C  C15  1  0.79150000  0.90980000  0.69470000  1.0 -0.2297277563
C  C16  1  0.90980000  0.20850000  0.94470000  1.0 -0.2297277563
C  C17  1  0.23270000  0.12680000  0.27380000  1.0 0.2692709602
C  C18  1  0.12680000  0.76730000  0.52380000  1.0 0.2692709602
C  C19  1  0.76730000  0.87320000  0.77380000  1.0 0.2692709602
C  C20  1  0.87320000  0.23270000  0.02380000  1.0 0.2692709602
C  C21  1  0.18430000  0.13140000  0.35030000  1.0 -0.2191166245
C  C22  1  0.13140000  0.81570000  0.60030000  1.0 -0.2191166245
C  C23  1  0.81570000  0.86860000  0.85030000  1.0 -0.2191166245
C  C24  1  0.86860000  0.18430000  0.10030000  1.0 -0.2191166245
C  C25  1  0.05870000  0.10380000  0.42860000  1.0 0.5823829296
C  C26  1  0.10380000  0.94130000  0.67860000  1.0 0.5823829296
C  C27  1  0.94130000  0.89620000  0.92860000  1.0 0.5851545967
C  C28  1  0.89620000  0.05870000  0.17860000  1.0 0.5823829296
C  C29  1  0.11230000  0.01030000  0.10890000  1.0 0.5693476386
C  C30  1  0.01030000  0.88770000  0.35890000  1.0 0.5693476386
C  C31  1  0.88770000  0.98970000  0.60890000  1.0 0.5693476386
C  C32  1  0.98970000  0.11230000  0.85890000  1.0 0.5693476386
C  C33  1  0.35370000  0.16410000  0.20710000  1.0 -0.1010480188
C  C34  1  0.16410000  0.64630000  0.45710000  1.0 -0.1010480188
C  C35  1  0.64630000  0.83590000  0.70710000  1.0 -0.1010480188
C  C36  1  0.83590000  0.35370000  0.95710000  1.0 -0.1010480188
C  C37  1  0.33060000  0.22040000  0.13630000  1.0 0.1996680893
C  C38  1  0.22040000  0.66940000  0.38630000  1.0 0.1996680893
C  C39  1  0.66940000  0.77960000  0.63630000  1.0 0.1996680893
C  C40  1  0.77960000  0.33060000  0.88630000  1.0 0.1996680893
C  C41  1  0.31570000  0.29790000  0.15370000  1.0 -0.1781792753
C  C42  1  0.29790000  0.68430000  0.40370000  1.0 -0.1781792753
C  C43  1  0.68430000  0.70210000  0.65370000  1.0 -0.1781792753
C  C44  1  0.70210000  0.31570000  0.90370000  1.0 -0.1781792753
C  C45  1  0.29680000  0.34470000  0.08490000  1.0 -0.0621551127
C  C46  1  0.34470000  0.70320000  0.33490000  1.0 -0.0621551127
C  C47  1  0.70320000  0.65530000  0.58490000  1.0 -0.0621551127
C  C48  1  0.65530000  0.29680000  0.83490000  1.0 -0.0621551127
C  C49  1  0.29310000  0.32820000  0.99880000  1.0 -0.1368503235
C  C50  1  0.32820000  0.70690000  0.24880000  1.0 -0.1368503235
C  C51  1  0.70690000  0.67180000  0.49880000  1.0 -0.1368503235
C  C52  1  0.67180000  0.29310000  0.74880000  1.0 -0.1368503235
C  C53  1  0.30850000  0.25430000  0.97810000  1.0 0.0577360093
C  C54  1  0.25430000  0.69150000  0.22810000  1.0 0.0577360093
C  C55  1  0.69150000  0.74570000  0.47810000  1.0 0.0577360093
C  C56  1  0.74570000  0.30850000  0.72810000  1.0 0.0577360093
C  C57  1  0.65800000  0.94150000  0.33160000  1.0 0.0034793978
C  C58  1  0.94150000  0.34200000  0.58160000  1.0 0.0034793978
C  C59  1  0.34200000  0.05850000  0.83160000  1.0 0.0034793978
C  C60  1  0.05850000  0.65800000  0.08160000  1.0 0.0034793978
C  C61  1  0.65770000  0.86880000  0.29590000  1.0 -0.1301241573
C  C62  1  0.86880000  0.34230000  0.54590000  1.0 -0.1301241573
C  C63  1  0.34230000  0.13120000  0.79590000  1.0 -0.1301241573
C  C64  1  0.13120000  0.65770000  0.04590000  1.0 -0.1301241573
C  C65  1  0.58820000  0.83300000  0.27710000  1.0 0.0097908315
C  C66  1  0.83300000  0.41180000  0.52710000  1.0 0.0097908315
C  C67  1  0.41180000  0.16700000  0.77710000  1.0 0.0097908315
C  C68  1  0.16700000  0.58820000  0.02710000  1.0 0.0097908315
C  C69  1  0.52060000  0.86850000  0.29350000  1.0 -0.2081065551
C  C70  1  0.86850000  0.47940000  0.54350000  1.0 -0.2081065551
C  C71  1  0.47940000  0.13150000  0.79350000  1.0 -0.2081065551
C  C72  1  0.13150000  0.52060000  0.04350000  1.0 -0.2081065551
C  C73  1  0.52030000  0.94340000  0.32600000  1.0 0.2604406215
C  C74  1  0.94340000  0.47970000  0.57600000  1.0 0.2604406215
C  C75  1  0.47970000  0.05660000  0.82600000  1.0 0.2604406215
C  C76  1  0.05660000  0.52030000  0.07600000  1.0 0.2604406215
C  C77  1  0.58860000  0.97990000  0.34740000  1.0 -0.2191166245
C  C78  1  0.97990000  0.41140000  0.59740000  1.0 -0.2191166245
C  C79  1  0.41140000  0.02010000  0.84740000  1.0 -0.2191166245
C  C80  1  0.02010000  0.58860000  0.09740000  1.0 -0.2191166245
C  C81  1  0.73240000  0.97950000  0.35240000  1.0 0.5506877787
C  C82  1  0.97950000  0.26760000  0.60240000  1.0 0.5506877787
C  C83  1  0.26760000  0.02050000  0.85240000  1.0 0.5506877787
C  C84  1  0.02050000  0.73240000  0.10240000  1.0 0.5506877787
C  C85  1  0.59080000  0.75010000  0.24660000  1.0 0.5407645144
C  C86  1  0.75010000  0.40920000  0.49660000  1.0 0.5407645144
C  C87  1  0.40920000  0.24990000  0.74660000  1.0 0.5407645144
C  C88  1  0.24990000  0.59080000  0.99660000  1.0 0.5407645144
C  C89  1  0.38380000  0.94600000  0.35840000  1.0 -0.0890306048
C  C90  1  0.94600000  0.61620000  0.60840000  1.0 -0.0890306048
C  C91  1  0.61620000  0.05400000  0.85840000  1.0 -0.0890306048
C  C92  1  0.05400000  0.38380000  0.10840000  1.0 -0.0890306048
C  C93  1  0.33980000  0.92600000  0.27260000  1.0 0.2053572274
C  C94  1  0.92600000  0.66020000  0.52260000  1.0 0.1996680893
C  C95  1  0.66020000  0.07400000  0.77260000  1.0 0.1996680893
C  C96  1  0.07400000  0.33980000  0.02260000  1.0 0.2053572274
C  C97  1  0.26640000  0.89620000  0.28040000  1.0 -0.1781792753
C  C98  1  0.89620000  0.73360000  0.53040000  1.0 -0.1781792753
C  C99  1  0.73360000  0.10380000  0.78040000  1.0 -0.1781792753
C  C100  1  0.10380000  0.26640000  0.03040000  1.0 -0.1781792753
C  C101  1  0.22660000  0.87750000  0.20190000  1.0 -0.0508992561
C  C102  1  0.87750000  0.77340000  0.45190000  1.0 -0.0508992561
C  C103  1  0.77340000  0.12250000  0.70190000  1.0 -0.0508992561
C  C104  1  0.12250000  0.22660000  0.95190000  1.0 -0.0508992561
C  C105  1  0.25310000  0.88560000  0.11860000  1.0 -0.1301241573
C  C106  1  0.88560000  0.74690000  0.36860000  1.0 -0.1301241573
C  C107  1  0.74690000  0.11440000  0.61860000  1.0 -0.1301241573
C  C108  1  0.11440000  0.25310000  0.86860000  1.0 -0.1301241573
C  C109  1  0.32170000  0.91320000  0.11110000  1.0 0.0396598763
C  C110  1  0.91320000  0.67830000  0.36110000  1.0 0.0396598763
C  C111  1  0.67830000  0.08680000  0.61110000  1.0 0.0396598763
C  C112  1  0.08680000  0.32170000  0.86110000  1.0 0.0396598763
C  C113  1  0.50220000  0.64200000  0.54920000  1.0 -0.0059470353
C  C114  1  0.64200000  0.49780000  0.79920000  1.0 -0.0059470353
C  C115  1  0.49780000  0.35800000  0.04920000  1.0 -0.0059470353
C  C116  1  0.35800000  0.50220000  0.29920000  1.0 -0.0059470353
C  C117  1  0.47910000  0.60250000  0.63000000  1.0 -0.1532652341
C  C118  1  0.60250000  0.52090000  0.88000000  1.0 -0.1532652341
C  C119  1  0.52090000  0.39750000  0.13000000  1.0 -0.1532652341
C  C120  1  0.39750000  0.47910000  0.38000000  1.0 -0.1532652341
C  C121  1  0.44570000  0.64090000  0.70200000  1.0 0.0097908315
C  C122  1  0.64090000  0.55430000  0.95200000  1.0 0.0097908315
C  C123  1  0.55430000  0.35910000  0.20200000  1.0 0.0097908315
C  C124  1  0.35910000  0.44570000  0.45200000  1.0 0.0097908315
C  C125  1  0.43190000  0.72070000  0.69650000  1.0 -0.2523949706
C  C126  1  0.72070000  0.56810000  0.94650000  1.0 -0.2523949706
C  C127  1  0.56810000  0.27930000  0.19650000  1.0 -0.2523949706
C  C128  1  0.27930000  0.43190000  0.44650000  1.0 -0.2523949706
C  C129  1  0.45170000  0.75810000  0.61500000  1.0 0.2528380192
C  C130  1  0.75810000  0.54830000  0.86500000  1.0 0.2528380192
C  C131  1  0.54830000  0.24190000  0.11500000  1.0 0.2528380192
C  C132  1  0.24190000  0.45170000  0.36500000  1.0 0.2528380192
C  C133  1  0.48620000  0.71930000  0.54410000  1.0 -0.2081065551
C  C134  1  0.71930000  0.51380000  0.79410000  1.0 -0.2081065551
C  C135  1  0.51380000  0.28070000  0.04410000  1.0 -0.2081065551
C  C136  1  0.28070000  0.48620000  0.29410000  1.0 -0.2081065551
C  C137  1  0.53980000  0.59990000  0.47160000  1.0 0.5693476386
C  C138  1  0.59990000  0.46020000  0.72160000  1.0 0.5693476386
C  C139  1  0.46020000  0.40010000  0.97160000  1.0 0.5693476386
C  C140  1  0.40010000  0.53980000  0.22160000  1.0 0.5693476386
C  C141  1  0.42180000  0.59850000  0.78720000  1.0 0.5823829296
C  C142  1  0.59850000  0.57820000  0.03720000  1.0 0.5823829296
C  C143  1  0.57820000  0.40150000  0.28720000  1.0 0.5823829296
C  C144  1  0.40150000  0.42180000  0.53720000  1.0 0.5823829296
C  C145  1  0.38680000  0.87330000  0.65730000  1.0 -0.0890306048
C  C146  1  0.87330000  0.61320000  0.90730000  1.0 -0.0890306048
C  C147  1  0.61320000  0.12670000  0.15730000  1.0 -0.0890306048
C  C148  1  0.12670000  0.38680000  0.40730000  1.0 -0.0890306048
C  C149  1  0.37070000  0.94920000  0.61850000  1.0 0.1996680893
C  C150  1  0.94920000  0.62930000  0.86850000  1.0 0.1996680893
C  C151  1  0.62930000  0.05080000  0.11850000  1.0 0.1996680893
C  C152  1  0.05080000  0.37070000  0.36850000  1.0 0.1996680893
C  C153  1  0.42700000  0.99680000  0.58670000  1.0 -0.1781792753
C  C154  1  0.99680000  0.57300000  0.83670000  1.0 -0.1781792753
C  C155  1  0.57300000  0.00320000  0.08670000  1.0 -0.1781792753
C  C156  1  0.00320000  0.42700000  0.33670000  1.0 -0.1781792753
C  C157  1  0.40280000  0.07040000  0.55290000  1.0 -0.0621551127
C  C158  1  0.07040000  0.59720000  0.80290000  1.0 -0.0621551127
C  C159  1  0.59720000  0.92960000  0.05290000  1.0 -0.0621551127
C  C160  1  0.92960000  0.40280000  0.30290000  1.0 -0.0621551127
C  C161  1  0.33780000  0.09410000  0.54620000  1.0 -0.1368503235
C  C162  1  0.09410000  0.66220000  0.79620000  1.0 -0.1368503235
C  C163  1  0.66220000  0.90590000  0.04620000  1.0 -0.1368503235
C  C164  1  0.90590000  0.33780000  0.29620000  1.0 -0.1368503235
C  C165  1  0.28430000  0.04900000  0.57530000  1.0 0.022364947
C  C166  1  0.04900000  0.71570000  0.82530000  1.0 0.022364947
C  C167  1  0.71570000  0.95100000  0.07530000  1.0 0.022364947
C  C168  1  0.95100000  0.28430000  0.32530000  1.0 0.022364947
N  N1  1  0.32590000  0.19870000  0.04150000  1.0 -0.3072109186
N  N2  1  0.19870000  0.67410000  0.29150000  1.0 -0.3072109186
N  N3  1  0.67410000  0.80130000  0.54150000  1.0 -0.3072109186
N  N4  1  0.80130000  0.32590000  0.79150000  1.0 -0.3072109186
N  N5  1  0.36840000  0.93560000  0.18330000  1.0 -0.3072109186
N  N6  1  0.93560000  0.63160000  0.43330000  1.0 -0.3072109186
N  N7  1  0.63160000  0.06440000  0.68330000  1.0 -0.3072109186
N  N8  1  0.06440000  0.36840000  0.93330000  1.0 -0.3072109186
N  N9  1  0.29640000  0.97500000  0.61180000  1.0 -0.3072109186
N  N10  1  0.97500000  0.70360000  0.86180000  1.0 -0.3072109186
N  N11  1  0.70360000  0.02500000  0.11180000  1.0 -0.3072109186
N  N12  1  0.02500000  0.29640000  0.36180000  1.0 -0.3072109186
O  O1  1  0.98940000  0.09240000  0.41690000  1.0 -0.5013540574
O  O2  1  0.09240000  0.01060000  0.66690000  1.0 -0.5013540574
O  O3  1  0.01060000  0.90760000  0.91690000  1.0 -0.5013540574
O  O4  1  0.90760000  0.98940000  0.16690000  1.0 -0.5013540574
O  O5  1  0.08750000  0.12340000  0.50600000  1.0 -0.5109323425
O  O6  1  0.12340000  0.91250000  0.75600000  1.0 -0.5109323425
O  O7  1  0.91250000  0.87660000  0.00600000  1.0 -0.5109323425
O  O8  1  0.87660000  0.08750000  0.25600000  1.0 -0.5109323425
O  O9  1  0.06070000  0.95950000  0.11780000  1.0 -0.5197247305
O  O10  1  0.95950000  0.93930000  0.36780000  1.0 -0.5197247305
O  O11  1  0.93930000  0.04050000  0.61780000  1.0 -0.5197247305
O  O12  1  0.04050000  0.06070000  0.86780000  1.0 -0.5197247305
O  O13  1  0.14380000  0.02450000  0.03310000  1.0 -0.488900777
O  O14  1  0.02450000  0.85620000  0.28310000  1.0 -0.488900777
O  O15  1  0.85620000  0.97550000  0.53310000  1.0 -0.488900777
O  O16  1  0.97550000  0.14380000  0.78310000  1.0 -0.488900777
O  O17  1  0.30160000  0.16160000  0.28360000  1.0 -0.1781792753
O  O18  1  0.16160000  0.69840000  0.53360000  1.0 -0.1781792753
O  O19  1  0.69840000  0.83840000  0.78360000  1.0 -0.1781792753
O  O20  1  0.83840000  0.30160000  0.03360000  1.0 -0.1781792753
O  O21  1  0.79490000  0.94120000  0.33730000  1.0 -0.5277903639
O  O22  1  0.94120000  0.20510000  0.58730000  1.0 -0.5277903639
O  O23  1  0.20510000  0.05880000  0.83730000  1.0 -0.5277903639
O  O24  1  0.05880000  0.79490000  0.08730000  1.0 -0.5277903639
O  O25  1  0.73750000  0.04430000  0.38680000  1.0 -0.5109323425
O  O26  1  0.04430000  0.26250000  0.63680000  1.0 -0.5109323425
O  O27  1  0.26250000  0.95570000  0.88680000  1.0 -0.5109323425
O  O28  1  0.95570000  0.73750000  0.13680000  1.0 -0.5109323425
O  O29  1  0.65290000  0.71260000  0.25350000  1.0 -0.5197247305
O  O30  1  0.71260000  0.34710000  0.50350000  1.0 -0.5197247305
O  O31  1  0.34710000  0.28740000  0.75350000  1.0 -0.5197247305
O  O32  1  0.28740000  0.65290000  0.00350000  1.0 -0.5197247305
O  O33  1  0.53080000  0.71610000  0.22260000  1.0 -0.5013540574
O  O34  1  0.71610000  0.46920000  0.47260000  1.0 -0.5013540574
O  O35  1  0.46920000  0.28390000  0.72260000  1.0 -0.5013540574
O  O36  1  0.28390000  0.53080000  0.97260000  1.0 -0.5013540574
O  O37  1  0.45450000  0.98540000  0.34190000  1.0 -0.1781792753
O  O38  1  0.98540000  0.54550000  0.59190000  1.0 -0.1781792753
O  O39  1  0.54550000  0.01460000  0.84190000  1.0 -0.1781792753
O  O40  1  0.01460000  0.45450000  0.09190000  1.0 -0.1781792753
O  O41  1  0.54620000  0.63490000  0.39540000  1.0 -0.5013540574
O  O42  1  0.63490000  0.45380000  0.64540000  1.0 -0.5013540574
O  O43  1  0.45380000  0.36510000  0.89540000  1.0 -0.5013540574
O  O44  1  0.36510000  0.54620000  0.14540000  1.0 -0.5013540574
O  O45  1  0.56170000  0.53350000  0.48390000  1.0 -0.4831226208
O  O46  1  0.53350000  0.43830000  0.73390000  1.0 -0.4831226208
O  O47  1  0.43830000  0.46650000  0.98390000  1.0 -0.4831226208
O  O48  1  0.46650000  0.56170000  0.23390000  1.0 -0.4831226208
O  O49  1  0.40520000  0.52930000  0.77890000  1.0 -0.5109323425
O  O50  1  0.52930000  0.59480000  0.02890000  1.0 -0.5109323425
O  O51  1  0.59480000  0.47070000  0.27890000  1.0 -0.5109323425
O  O52  1  0.47070000  0.40520000  0.52890000  1.0 -0.5109323425
O  O53  1  0.42300000  0.63280000  0.86290000  1.0 -0.5013540574
O  O54  1  0.63280000  0.57700000  0.11290000  1.0 -0.5013540574
O  O55  1  0.57700000  0.36720000  0.36290000  1.0 -0.5013540574
O  O56  1  0.36720000  0.42300000  0.61290000  1.0 -0.5013540574
O  O57  1  0.43930000  0.83470000  0.59890000  1.0 -0.1781792753
O  O58  1  0.83470000  0.56070000  0.84890000  1.0 -0.1781792753
O  O59  1  0.56070000  0.16530000  0.09890000  1.0 -0.1781792753
O  O60  1  0.16530000  0.43930000  0.34890000  1.0 -0.1781792753
