# DDEC6 charges by PACMAN v1.1 (https://github.com/mtap-research/PACMAN-charge/)
data_JAKQIZ_ASR_pacman
_symmetry_space_group_name_H-M   'P 1'
_cell_length_a   17.74000000
_cell_length_b   15.82900000
_cell_length_c   29.88300000
_cell_angle_alpha   90.00000000
_cell_angle_beta   126.13100000
_cell_angle_gamma   90.00000000
_symmetry_Int_Tables_number   1
_chemical_formula_structural   Mn3P3H27C44N3O20
_chemical_formula_sum   'Mn12 P12 H108 C176 N12 O80'
_cell_volume   6777.44135022
_cell_formula_units_Z   4
loop_
 _symmetry_equiv_pos_site_id
 _symmetry_equiv_pos_as_xyz
  1  'x, y, z'
loop_
 _atom_site_type_symbol
 _atom_site_label
 _atom_site_symmetry_multiplicity
 _atom_site_fract_x
 _atom_site_fract_y
 _atom_site_fract_z
 _atom_site_occupancy
 _atom_site_charge
Mn  Mn1  1  0.37411000  0.11112000  0.60782000  1.0 0.9890677628
Mn  Mn2  1  0.52601000  0.26174000  0.72250000  1.0 1.0933230219
Mn  Mn3  1  0.36333000  0.60470000  0.15748000  1.0 1.025796443
Mn  Mn4  1  0.62589000  0.61112000  0.89218000  1.0 0.9890677628
Mn  Mn5  1  0.47399000  0.76174000  0.77750000  1.0 1.0933230219
Mn  Mn6  1  0.63667000  0.10470000  0.34252000  1.0 1.025796443
Mn  Mn7  1  0.62589000  0.88888000  0.39218000  1.0 0.9890677628
Mn  Mn8  1  0.47399000  0.73826000  0.27750000  1.0 1.0933230219
Mn  Mn9  1  0.63667000  0.39530000  0.84252000  1.0 1.025796443
Mn  Mn10  1  0.37411000  0.38888000  0.10782000  1.0 0.9890677628
Mn  Mn11  1  0.52601000  0.23826000  0.22250000  1.0 1.0933230219
Mn  Mn12  1  0.36333000  0.89530000  0.65748000  1.0 1.025796443
P  P1  1  0.03287000  0.55594000  0.40124000  1.0 1.3145483432
P  P2  1  0.01296000  0.52483000  0.30541000  1.0 1.3178469536
P  P3  1  0.99312000  0.68707000  0.33094000  1.0 1.3178469536
P  P4  1  0.96713000  0.05594000  0.09876000  1.0 1.3145483432
P  P5  1  0.98704000  0.02483000  0.19459000  1.0 1.3178469536
P  P6  1  0.00688000  0.18707000  0.16906000  1.0 1.3178469536
P  P7  1  0.96713000  0.44406000  0.59876000  1.0 1.3145483432
P  P8  1  0.98704000  0.47517000  0.69459000  1.0 1.3178469536
P  P9  1  0.00688000  0.31293000  0.66906000  1.0 1.3178469536
P  P10  1  0.03287000  0.94406000  0.90124000  1.0 1.3145483432
P  P11  1  0.01296000  0.97517000  0.80541000  1.0 1.3178469536
P  P12  1  0.99312000  0.81293000  0.83094000  1.0 1.3178469536
H  H1  1  0.99220000  0.37736000  0.47147000  1.0 0.14730788
H  H2  1  0.82407000  0.53340000  0.34372000  1.0 0.141753032
H  H3  1  0.87205000  0.28191000  0.43640000  1.0 0.1280252824
H  H4  1  0.70358000  0.43619000  0.30887000  1.0 0.1280252824
H  H5  1  0.88405000  0.34759000  0.27841000  1.0 0.14730788
H  H6  1  0.80058000  0.54637000  0.17981000  1.0 0.141753032
H  H7  1  0.73158000  0.31439000  0.24043000  1.0 0.1237679095
H  H8  1  0.64598000  0.51206000  0.14144000  1.0 0.1280252824
H  H9  1  0.82636000  0.73535000  0.34611000  1.0 0.14730788
H  H10  1  0.77859000  0.71914000  0.19766000  1.0 0.141753032
H  H11  1  0.67378000  0.69327000  0.30645000  1.0 0.1280252824
H  H12  1  0.62615000  0.68219000  0.15857000  1.0 0.1237679095
H  H13  1  0.16064000  0.71729000  0.45422000  1.0 0.141753032
H  H14  1  0.09805000  0.90794000  0.34960000  1.0 0.141753032
H  H15  1  0.23691000  0.81063000  0.52898000  1.0 0.1280252824
H  H16  1  0.18021000  0.99874000  0.42270000  1.0 0.1237679095
H  H17  1  0.12463000  0.42406000  0.24985000  1.0 0.141753032
H  H18  1  0.19517000  0.63679000  0.33381000  1.0 0.141753032
H  H19  1  0.20441000  0.46489000  0.21491000  1.0 0.1280252824
H  H20  1  0.28236000  0.67187000  0.30126000  1.0 0.1280252824
H  H21  1  0.21152000  0.54565000  0.55101000  1.0 0.1280252824
H  H22  1  0.20343000  0.43399000  0.42948000  1.0 0.141753032
H  H23  1  0.31246000  0.44210000  0.61290000  1.0 0.1237679095
H  H24  1  0.28993000  0.32099000  0.48940000  1.0 0.1280252824
H  H25  1  0.48425000  0.99689000  0.77848000  1.0 0.1752051857
H  H26  1  0.52822000  0.08689000  0.79979000  1.0 0.1700460387
H  H27  1  0.42562000  0.06976000  0.77968000  1.0 0.1700460387
H  H28  1  0.00780000  0.87736000  0.02853000  1.0 0.14730788
H  H29  1  0.17593000  0.03340000  0.15628000  1.0 0.141753032
H  H30  1  0.12795000  0.78191000  0.06360000  1.0 0.1280252824
H  H31  1  0.29642000  0.93619000  0.19113000  1.0 0.1280252824
H  H32  1  0.11595000  0.84759000  0.22159000  1.0 0.14730788
H  H33  1  0.19942000  0.04637000  0.32019000  1.0 0.141753032
H  H34  1  0.26842000  0.81439000  0.25957000  1.0 0.1237679095
H  H35  1  0.35402000  0.01206000  0.35856000  1.0 0.1280252824
H  H36  1  0.17364000  0.23535000  0.15389000  1.0 0.14730788
H  H37  1  0.22141000  0.21914000  0.30234000  1.0 0.141753032
H  H38  1  0.32622000  0.19327000  0.19355000  1.0 0.1280252824
H  H39  1  0.37385000  0.18219000  0.34143000  1.0 0.1237679095
H  H40  1  0.83936000  0.21729000  0.04578000  1.0 0.141753032
H  H41  1  0.90195000  0.40794000  0.15040000  1.0 0.141753032
H  H42  1  0.76309000  0.31063000  0.97102000  1.0 0.1280252824
H  H43  1  0.81979000  0.49874000  0.07730000  1.0 0.1237679095
H  H44  1  0.87537000  0.92406000  0.25015000  1.0 0.141753032
H  H45  1  0.80483000  0.13679000  0.16619000  1.0 0.141753032
H  H46  1  0.79559000  0.96489000  0.28509000  1.0 0.1280252824
H  H47  1  0.71764000  0.17187000  0.19874000  1.0 0.1280252824
H  H48  1  0.78848000  0.04565000  0.94899000  1.0 0.1280252824
H  H49  1  0.79657000  0.93399000  0.07052000  1.0 0.141753032
H  H50  1  0.68754000  0.94210000  0.88710000  1.0 0.1237679095
H  H51  1  0.71007000  0.82099000  0.01060000  1.0 0.1280252824
H  H52  1  0.51575000  0.49689000  0.72152000  1.0 0.1752051857
H  H53  1  0.47178000  0.58689000  0.70021000  1.0 0.1700460387
H  H54  1  0.57438000  0.56976000  0.72032000  1.0 0.1700460387
H  H55  1  0.00780000  0.62264000  0.52853000  1.0 0.14730788
H  H56  1  0.17593000  0.46660000  0.65628000  1.0 0.141753032
H  H57  1  0.12795000  0.71809000  0.56360000  1.0 0.1280252824
H  H58  1  0.29642000  0.56381000  0.69113000  1.0 0.1280252824
H  H59  1  0.11595000  0.65241000  0.72159000  1.0 0.14730788
H  H60  1  0.19942000  0.45363000  0.82019000  1.0 0.141753032
H  H61  1  0.26842000  0.68561000  0.75957000  1.0 0.1237679095
H  H62  1  0.35402000  0.48794000  0.85856000  1.0 0.1280252824
H  H63  1  0.17364000  0.26465000  0.65389000  1.0 0.14730788
H  H64  1  0.22141000  0.28086000  0.80234000  1.0 0.141753032
H  H65  1  0.32622000  0.30673000  0.69355000  1.0 0.1280252824
H  H66  1  0.37385000  0.31781000  0.84143000  1.0 0.1237679095
H  H67  1  0.83936000  0.28271000  0.54578000  1.0 0.141753032
H  H68  1  0.90195000  0.09206000  0.65040000  1.0 0.141753032
H  H69  1  0.76309000  0.18937000  0.47102000  1.0 0.1280252824
H  H70  1  0.81979000  0.00126000  0.57730000  1.0 0.1237679095
H  H71  1  0.87537000  0.57594000  0.75015000  1.0 0.141753032
H  H72  1  0.80483000  0.36321000  0.66619000  1.0 0.141753032
H  H73  1  0.79559000  0.53511000  0.78509000  1.0 0.1280252824
H  H74  1  0.71764000  0.32813000  0.69874000  1.0 0.1280252824
H  H75  1  0.78848000  0.45435000  0.44899000  1.0 0.1280252824
H  H76  1  0.79657000  0.56601000  0.57052000  1.0 0.141753032
H  H77  1  0.68754000  0.55790000  0.38710000  1.0 0.1237679095
H  H78  1  0.71007000  0.67901000  0.51060000  1.0 0.1280252824
H  H79  1  0.51575000  0.00311000  0.22152000  1.0 0.1752051857
H  H80  1  0.47178000  0.91311000  0.20021000  1.0 0.1700460387
H  H81  1  0.57438000  0.93024000  0.22032000  1.0 0.1700460387
H  H82  1  0.99220000  0.12264000  0.97147000  1.0 0.14730788
H  H83  1  0.82407000  0.96660000  0.84372000  1.0 0.141753032
H  H84  1  0.87205000  0.21809000  0.93640000  1.0 0.1280252824
H  H85  1  0.70358000  0.06381000  0.80887000  1.0 0.1237679095
H  H86  1  0.88405000  0.15241000  0.77841000  1.0 0.14730788
H  H87  1  0.80058000  0.95363000  0.67981000  1.0 0.141753032
H  H88  1  0.73158000  0.18561000  0.74043000  1.0 0.1237679095
H  H89  1  0.64598000  0.98794000  0.64144000  1.0 0.1280252824
H  H90  1  0.82636000  0.76465000  0.84611000  1.0 0.14730788
H  H91  1  0.77859000  0.78086000  0.69766000  1.0 0.141753032
H  H92  1  0.67378000  0.80673000  0.80645000  1.0 0.1280252824
H  H93  1  0.62615000  0.81781000  0.65857000  1.0 0.1237679095
H  H94  1  0.16064000  0.78271000  0.95422000  1.0 0.141753032
H  H95  1  0.09805000  0.59206000  0.84960000  1.0 0.141753032
H  H96  1  0.23691000  0.68937000  0.02898000  1.0 0.1280252824
H  H97  1  0.18021000  0.50126000  0.92270000  1.0 0.1237679095
H  H98  1  0.12463000  0.07594000  0.74985000  1.0 0.141753032
H  H99  1  0.19517000  0.86321000  0.83381000  1.0 0.141753032
H  H100  1  0.20441000  0.03511000  0.71491000  1.0 0.1280252824
H  H101  1  0.28236000  0.82813000  0.80126000  1.0 0.1280252824
H  H102  1  0.21152000  0.95435000  0.05101000  1.0 0.1280252824
H  H103  1  0.20343000  0.06601000  0.92948000  1.0 0.141753032
H  H104  1  0.31246000  0.05790000  0.11290000  1.0 0.1237679095
H  H105  1  0.28993000  0.17901000  0.98940000  1.0 0.1280252824
H  H106  1  0.48425000  0.50311000  0.27848000  1.0 0.1752051857
H  H107  1  0.52822000  0.41311000  0.29979000  1.0 0.1700460387
H  H108  1  0.42562000  0.43024000  0.27968000  1.0 0.1700460387
C  C1  1  0.91885000  0.46230000  0.40965000  1.0 0.2861980197
C  C2  1  0.93423000  0.38860000  0.43853000  1.0 -0.1801860589
C  C3  1  0.83347000  0.48250000  0.36187000  1.0 -0.206436694
C  C4  1  0.86225000  0.33230000  0.41765000  1.0 -0.0812123723
C  C5  1  0.76166000  0.42430000  0.34156000  1.0 -0.0812123723
C  C6  1  0.77472000  0.34900000  0.36892000  1.0 -0.0495160411
C  C7  1  0.69641000  0.28640000  0.34481000  1.0 0.5803691742
C  C8  1  0.85535000  0.44940000  0.23155000  1.0 0.2668866177
C  C9  1  0.83600000  0.38090000  0.25030000  1.0 -0.1801860589
C  C10  1  0.78660000  0.49880000  0.19190000  1.0 -0.1970992687
C  C11  1  0.74460000  0.36140000  0.22740000  1.0 -0.0812123723
C  C12  1  0.69420000  0.47830000  0.16900000  1.0 -0.0812123723
C  C13  1  0.67457000  0.40700000  0.18757000  1.0 -0.0299922759
C  C14  1  0.57430000  0.38160000  0.16310000  1.0 0.5892648595
C  C15  1  0.81740000  0.72980000  0.27660000  1.0 0.2861980197
C  C16  1  0.78640000  0.72360000  0.30840000  1.0 -0.1970992687
C  C17  1  0.75731000  0.71450000  0.21951000  1.0 -0.189158045
C  C18  1  0.69448000  0.69960000  0.28438000  1.0 -0.0812123723
C  C19  1  0.66666667  0.69250000  0.19640000  1.0 -0.0812123723
C  C20  1  0.63460000  0.68540000  0.22890000  1.0 -0.0384810886
C  C21  1  0.53500000  0.65940000  0.20240000  1.0 0.5738144216
C  C22  1  0.12131000  0.80420000  0.39571000  1.0 0.2861980197
C  C23  1  0.16343000  0.77450000  0.44833000  1.0 -0.189158045
C  C24  1  0.12691000  0.88850000  0.38561000  1.0 -0.189158045
C  C25  1  0.21073000  0.82990000  0.49323000  1.0 -0.0742044899
C  C26  1  0.17530000  0.94220000  0.42920000  1.0 -0.0812123723
C  C27  1  0.27083000  0.97250000  0.53263000  1.0 0.5803691742
C  C28  1  0.14870000  0.52880000  0.29170000  1.0 0.2668866177
C  C29  1  0.15350000  0.47660000  0.25890000  1.0 -0.1801860589
C  C30  1  0.19600000  0.60180000  0.30910000  1.0 -0.1801860589
C  C31  1  0.20240000  0.50160000  0.23850000  1.0 -0.0875106196
C  C32  1  0.24670000  0.62280000  0.28850000  1.0 -0.0875106196
C  C33  1  0.24620000  0.57430000  0.25040000  1.0 -0.0384810886
C  C34  1  0.30120000  0.60210000  0.22970000  1.0 0.5892648595
C  C35  1  0.19594000  0.49760000  0.48534000  1.0 0.2816533742
C  C36  1  0.22850000  0.50090000  0.53850000  1.0 -0.189158045
C  C37  1  0.22160000  0.43360000  0.46570000  1.0 -0.1801860589
C  C38  1  0.28790000  0.43810000  0.57560000  1.0 -0.0812123723
C  C39  1  0.27630000  0.36760000  0.50240000  1.0 -0.0812123723
C  C40  1  0.30956000  0.37110000  0.55676000  1.0 -0.0299922759
C  C41  1  0.36930000  0.30010000  0.59720000  1.0 0.5892648595
C  C42  1  0.43577000  0.08170000  0.71497000  1.0 0.7019995746
C  C43  1  0.47180000  0.05650000  0.77370000  1.0 -0.6089512411
C  C44  1  0.21794000  0.91510000  0.48344000  1.0 -0.0299922759
C  C45  1  0.08115000  0.96230000  0.09035000  1.0 0.2861980197
C  C46  1  0.06577000  0.88860000  0.06147000  1.0 -0.1801860589
C  C47  1  0.16653000  0.98250000  0.13813000  1.0 -0.206436694
C  C48  1  0.13775000  0.83230000  0.08235000  1.0 -0.0812123723
C  C49  1  0.23834000  0.92430000  0.15844000  1.0 -0.0812123723
C  C50  1  0.22528000  0.84900000  0.13108000  1.0 -0.0495160411
C  C51  1  0.30359000  0.78640000  0.15519000  1.0 0.5803691742
C  C52  1  0.14465000  0.94940000  0.26845000  1.0 0.2668866177
C  C53  1  0.16400000  0.88090000  0.24970000  1.0 -0.1801860589
C  C54  1  0.21340000  0.99880000  0.30810000  1.0 -0.1970992687
C  C55  1  0.25540000  0.86140000  0.27260000  1.0 -0.0812123723
C  C56  1  0.30580000  0.97830000  0.33100000  1.0 -0.0812123723
C  C57  1  0.32543000  0.90700000  0.31243000  1.0 -0.0299922759
C  C58  1  0.42570000  0.88160000  0.33690000  1.0 0.5892648595
C  C59  1  0.18260000  0.22980000  0.22340000  1.0 0.2861980197
C  C60  1  0.21360000  0.22360000  0.19160000  1.0 -0.1970992687
C  C61  1  0.24269000  0.21450000  0.28049000  1.0 -0.189158045
C  C62  1  0.30552000  0.19960000  0.21562000  1.0 -0.0812123723
C  C63  1  0.33333333  0.19250000  0.30360000  1.0 -0.0812123723
C  C64  1  0.36540000  0.18540000  0.27110000  1.0 -0.0384810886
C  C65  1  0.46500000  0.15940000  0.29760000  1.0 0.5738144216
C  C66  1  0.87869000  0.30420000  0.10429000  1.0 0.2861980197
C  C67  1  0.83657000  0.27450000  0.05167000  1.0 -0.189158045
C  C68  1  0.87309000  0.38850000  0.11439000  1.0 -0.189158045
C  C69  1  0.78927000  0.32990000  0.00677000  1.0 -0.0742044899
C  C70  1  0.82470000  0.44220000  0.07080000  1.0 -0.0812123723
C  C71  1  0.72917000  0.47250000  0.96737000  1.0 0.5803691742
C  C72  1  0.85130000  0.02880000  0.20830000  1.0 0.2668866177
C  C73  1  0.84650000  0.97660000  0.24110000  1.0 -0.1801860589
C  C74  1  0.80400000  0.10180000  0.19090000  1.0 -0.1801860589
C  C75  1  0.79760000  0.00160000  0.26150000  1.0 -0.0875106196
C  C76  1  0.75330000  0.12280000  0.21150000  1.0 -0.0875106196
C  C77  1  0.75380000  0.07430000  0.24960000  1.0 -0.0384810886
C  C78  1  0.69880000  0.10210000  0.27030000  1.0 0.5892648595
C  C79  1  0.80406000  0.99760000  0.01466000  1.0 0.2816533742
C  C80  1  0.77150000  0.00090000  0.96150000  1.0 -0.189158045
C  C81  1  0.77840000  0.93360000  0.03430000  1.0 -0.1801860589
C  C82  1  0.71210000  0.93810000  0.92440000  1.0 -0.0812123723
C  C83  1  0.72370000  0.86760000  0.99760000  1.0 -0.0812123723
C  C84  1  0.69044000  0.87110000  0.94324000  1.0 -0.0299922759
C  C85  1  0.63070000  0.80010000  0.90280000  1.0 0.5892648595
C  C86  1  0.56423000  0.58170000  0.78503000  1.0 0.7019995746
C  C87  1  0.52820000  0.55650000  0.72630000  1.0 -0.6089512411
C  C88  1  0.78206000  0.41510000  0.01656000  1.0 -0.0299922759
C  C89  1  0.08115000  0.53770000  0.59035000  1.0 0.2861980197
C  C90  1  0.06577000  0.61140000  0.56147000  1.0 -0.1801860589
C  C91  1  0.16653000  0.51750000  0.63813000  1.0 -0.206436694
C  C92  1  0.13775000  0.66770000  0.58235000  1.0 -0.0812123723
C  C93  1  0.23834000  0.57570000  0.65844000  1.0 -0.0812123723
C  C94  1  0.22528000  0.65100000  0.63108000  1.0 -0.0495160411
C  C95  1  0.30359000  0.71360000  0.65519000  1.0 0.5803691742
C  C96  1  0.14465000  0.55060000  0.76845000  1.0 0.2668866177
C  C97  1  0.16400000  0.61910000  0.74970000  1.0 -0.1801860589
C  C98  1  0.21340000  0.50120000  0.80810000  1.0 -0.1970992687
C  C99  1  0.25540000  0.63860000  0.77260000  1.0 -0.0812123723
C  C100  1  0.30580000  0.52170000  0.83100000  1.0 -0.0812123723
C  C101  1  0.32543000  0.59300000  0.81243000  1.0 -0.0299922759
C  C102  1  0.42570000  0.61840000  0.83690000  1.0 0.5892648595
C  C103  1  0.18260000  0.27020000  0.72340000  1.0 0.2861980197
C  C104  1  0.21360000  0.27640000  0.69160000  1.0 -0.1970992687
C  C105  1  0.24269000  0.28550000  0.78049000  1.0 -0.189158045
C  C106  1  0.30552000  0.30040000  0.71562000  1.0 -0.0812123723
C  C107  1  0.33333333  0.30750000  0.80360000  1.0 -0.0812123723
C  C108  1  0.36540000  0.31460000  0.77110000  1.0 -0.0384810886
C  C109  1  0.46500000  0.34060000  0.79760000  1.0 0.5738144216
C  C110  1  0.87869000  0.19580000  0.60429000  1.0 0.2861980197
C  C111  1  0.83657000  0.22550000  0.55167000  1.0 -0.189158045
C  C112  1  0.87309000  0.11150000  0.61439000  1.0 -0.189158045
C  C113  1  0.78927000  0.17010000  0.50677000  1.0 -0.0742044899
C  C114  1  0.82470000  0.05780000  0.57080000  1.0 -0.0812123723
C  C115  1  0.72917000  0.02750000  0.46737000  1.0 0.5803691742
C  C116  1  0.85130000  0.47120000  0.70830000  1.0 0.2668866177
C  C117  1  0.84650000  0.52340000  0.74110000  1.0 -0.1801860589
C  C118  1  0.80400000  0.39820000  0.69090000  1.0 -0.1801860589
C  C119  1  0.79760000  0.49840000  0.76150000  1.0 -0.0875106196
C  C120  1  0.75330000  0.37720000  0.71150000  1.0 -0.0875106196
C  C121  1  0.75380000  0.42570000  0.74960000  1.0 -0.0384810886
C  C122  1  0.69880000  0.39790000  0.77030000  1.0 0.5892648595
C  C123  1  0.80406000  0.50240000  0.51466000  1.0 0.2816533742
C  C124  1  0.77150000  0.49910000  0.46150000  1.0 -0.189158045
C  C125  1  0.77840000  0.56640000  0.53430000  1.0 -0.1801860589
C  C126  1  0.71210000  0.56190000  0.42440000  1.0 -0.0812123723
C  C127  1  0.72370000  0.63240000  0.49760000  1.0 -0.0812123723
C  C128  1  0.69044000  0.62890000  0.44324000  1.0 -0.0299922759
C  C129  1  0.63070000  0.69990000  0.40280000  1.0 0.5892648595
C  C130  1  0.56423000  0.91830000  0.28503000  1.0 0.7019995746
C  C131  1  0.52820000  0.94350000  0.22630000  1.0 -0.6089512411
C  C132  1  0.78206000  0.08490000  0.51656000  1.0 -0.0299922759
C  C133  1  0.91885000  0.03770000  0.90965000  1.0 0.2861980197
C  C134  1  0.93423000  0.11140000  0.93853000  1.0 -0.1801860589
C  C135  1  0.83347000  0.01750000  0.86187000  1.0 -0.206436694
C  C136  1  0.86225000  0.16770000  0.91765000  1.0 -0.0812123723
C  C137  1  0.76166000  0.07570000  0.84156000  1.0 -0.0812123723
C  C138  1  0.77472000  0.15100000  0.86892000  1.0 -0.0495160411
C  C139  1  0.69641000  0.21360000  0.84481000  1.0 0.5803691742
C  C140  1  0.85535000  0.05060000  0.73155000  1.0 0.2668866177
C  C141  1  0.83600000  0.11910000  0.75030000  1.0 -0.1801860589
C  C142  1  0.78660000  0.00120000  0.69190000  1.0 -0.1970992687
C  C143  1  0.74460000  0.13860000  0.72740000  1.0 -0.0812123723
C  C144  1  0.69420000  0.02170000  0.66900000  1.0 -0.0812123723
C  C145  1  0.67457000  0.09300000  0.68757000  1.0 -0.0299922759
C  C146  1  0.57430000  0.11840000  0.66310000  1.0 0.5892648595
C  C147  1  0.81740000  0.77020000  0.77660000  1.0 0.2861980197
C  C148  1  0.78640000  0.77640000  0.80840000  1.0 -0.1970992687
C  C149  1  0.75731000  0.78550000  0.71951000  1.0 -0.189158045
C  C150  1  0.69448000  0.80040000  0.78438000  1.0 -0.0812123723
C  C151  1  0.66666667  0.80750000  0.69640000  1.0 -0.0812123723
C  C152  1  0.63460000  0.81460000  0.72890000  1.0 -0.0384810886
C  C153  1  0.53500000  0.84060000  0.70240000  1.0 0.5738144216
C  C154  1  0.12131000  0.69580000  0.89571000  1.0 0.2861980197
C  C155  1  0.16343000  0.72550000  0.94833000  1.0 -0.189158045
C  C156  1  0.12691000  0.61150000  0.88561000  1.0 -0.189158045
C  C157  1  0.21073000  0.67010000  0.99323000  1.0 -0.0742044899
C  C158  1  0.17530000  0.55780000  0.92920000  1.0 -0.0812123723
C  C159  1  0.27083000  0.52750000  0.03263000  1.0 0.5803691742
C  C160  1  0.14870000  0.97120000  0.79170000  1.0 0.2668866177
C  C161  1  0.15350000  0.02340000  0.75890000  1.0 -0.1801860589
C  C162  1  0.19600000  0.89820000  0.80910000  1.0 -0.1801860589
C  C163  1  0.20240000  0.99840000  0.73850000  1.0 -0.0875106196
C  C164  1  0.24670000  0.87720000  0.78850000  1.0 -0.0875106196
C  C165  1  0.24620000  0.92570000  0.75040000  1.0 -0.0384810886
C  C166  1  0.30120000  0.89790000  0.72970000  1.0 0.5892648595
C  C167  1  0.19594000  0.00240000  0.98534000  1.0 0.2816533742
C  C168  1  0.22850000  0.99910000  0.03850000  1.0 -0.189158045
C  C169  1  0.22160000  0.06640000  0.96570000  1.0 -0.1801860589
C  C170  1  0.28790000  0.06190000  0.07560000  1.0 -0.0812123723
C  C171  1  0.27630000  0.13240000  0.00240000  1.0 -0.0812123723
C  C172  1  0.30956000  0.12890000  0.05676000  1.0 -0.0299922759
C  C173  1  0.36930000  0.19990000  0.09720000  1.0 0.5892648595
C  C174  1  0.43577000  0.41830000  0.21497000  1.0 0.7019995746
C  C175  1  0.47180000  0.44350000  0.27370000  1.0 -0.6089512411
C  C176  1  0.21794000  0.58490000  0.98344000  1.0 -0.0299922759
N  N1  1  0.99792000  0.64990000  0.38140000  1.0 -0.8202702108
N  N2  1  0.01510000  0.49100000  0.35603000  1.0 -0.8202702108
N  N3  1  0.98760000  0.62090000  0.28863000  1.0 -0.8058166655
N  N4  1  0.00208000  0.14990000  0.11860000  1.0 -0.8202702108
N  N5  1  0.98490000  0.99100000  0.14397000  1.0 -0.8202702108
N  N6  1  0.01240000  0.12090000  0.21137000  1.0 -0.8058166655
N  N7  1  0.00208000  0.35010000  0.61860000  1.0 -0.8202702108
N  N8  1  0.98490000  0.50900000  0.64397000  1.0 -0.8202702108
N  N9  1  0.01240000  0.37910000  0.71137000  1.0 -0.8058166655
N  N10  1  0.99792000  0.85010000  0.88140000  1.0 -0.8202702108
N  N11  1  0.01510000  0.00900000  0.85603000  1.0 -0.8202702108
N  N12  1  0.98760000  0.87910000  0.78863000  1.0 -0.8058166655
O  O1  1  0.99422000  0.51973000  0.43297000  1.0 -0.4207508616
O  O2  1  0.62359000  0.30260000  0.29839000  1.0 -0.5684431198
O  O3  1  0.70992000  0.22109000  0.37320000  1.0 -0.5527948839
O  O4  1  0.94831000  0.46690000  0.25206000  1.0 -0.4262741037
O  O5  1  0.50860000  0.42570000  0.12718000  1.0 -0.4986483308
O  O6  1  0.56587000  0.31330000  0.18067000  1.0 -0.5684431198
O  O7  1  0.91045000  0.75360000  0.29965000  1.0 -0.4207508616
O  O8  1  0.48287000  0.64020000  0.15224000  1.0 -0.4986483308
O  O9  1  0.50537000  0.65428000  0.23209000  1.0 -0.5902976098
O  O10  1  0.14090000  0.56493000  0.45077000  1.0 -0.4262741037
O  O11  1  0.36627000  0.23127000  0.57531000  1.0 -0.5356755259
O  O12  1  0.41640000  0.31730000  0.64726000  1.0 -0.5527948839
O  O13  1  0.41079000  0.02747000  0.67881000  1.0 -0.5356755259
O  O14  1  0.42866000  0.15830000  0.70256000  1.0 -0.5783747735
O  O15  1  0.07817000  0.74822000  0.34971000  1.0 -0.4262741037
O  O16  1  0.28369000  0.94830000  0.57649000  1.0 -0.5576041641
O  O17  1  0.29990000  0.04232000  0.52778000  1.0 -0.5261735621
O  O18  1  0.11162000  0.50020000  0.31996000  1.0 -0.4207508616
O  O19  1  0.28100000  0.57130000  0.18600000  1.0 -0.5067352953
O  O20  1  0.36550000  0.65320000  0.25880000  1.0 -0.5527948839
O  O21  1  0.00578000  0.01973000  0.06703000  1.0 -0.4207508616
O  O22  1  0.37641000  0.80260000  0.20161000  1.0 -0.5684431198
O  O23  1  0.29008000  0.72109000  0.12680000  1.0 -0.5527948839
O  O24  1  0.05169000  0.96690000  0.24794000  1.0 -0.4262741037
O  O25  1  0.49140000  0.92570000  0.37282000  1.0 -0.4986483308
O  O26  1  0.43413000  0.81330000  0.31933000  1.0 -0.5684431198
O  O27  1  0.08955000  0.25360000  0.20035000  1.0 -0.4207508616
O  O28  1  0.51713000  0.14020000  0.34776000  1.0 -0.4986483308
O  O29  1  0.49463000  0.15428000  0.26791000  1.0 -0.5902976098
O  O30  1  0.85910000  0.06493000  0.04923000  1.0 -0.4262741037
O  O31  1  0.63373000  0.73127000  0.92469000  1.0 -0.5356755259
O  O32  1  0.58360000  0.81730000  0.85274000  1.0 -0.5527948839
O  O33  1  0.58921000  0.52747000  0.82119000  1.0 -0.5356755259
O  O34  1  0.57134000  0.65830000  0.79744000  1.0 -0.5783747735
O  O35  1  0.92183000  0.24822000  0.15029000  1.0 -0.4262741037
O  O36  1  0.71631000  0.44830000  0.92351000  1.0 -0.5576041641
O  O37  1  0.70010000  0.54232000  0.97222000  1.0 -0.5261735621
O  O38  1  0.88838000  0.00020000  0.18004000  1.0 -0.4207508616
O  O39  1  0.71900000  0.07130000  0.31400000  1.0 -0.5067352953
O  O40  1  0.63450000  0.15320000  0.24120000  1.0 -0.5527948839
O  O41  1  0.00578000  0.48027000  0.56703000  1.0 -0.4207508616
O  O42  1  0.37641000  0.69740000  0.70161000  1.0 -0.5684431198
O  O43  1  0.29008000  0.77891000  0.62680000  1.0 -0.5527948839
O  O44  1  0.05169000  0.53310000  0.74794000  1.0 -0.4262741037
O  O45  1  0.49140000  0.57430000  0.87282000  1.0 -0.4986483308
O  O46  1  0.43413000  0.68670000  0.81933000  1.0 -0.5684431198
O  O47  1  0.08955000  0.24640000  0.70035000  1.0 -0.4207508616
O  O48  1  0.51713000  0.35980000  0.84776000  1.0 -0.4986483308
O  O49  1  0.49463000  0.34572000  0.76791000  1.0 -0.5902976098
O  O50  1  0.85910000  0.43507000  0.54923000  1.0 -0.4262741037
O  O51  1  0.63373000  0.76873000  0.42469000  1.0 -0.5356755259
O  O52  1  0.58360000  0.68270000  0.35274000  1.0 -0.5527948839
O  O53  1  0.58921000  0.97253000  0.32119000  1.0 -0.5356755259
O  O54  1  0.57134000  0.84170000  0.29744000  1.0 -0.5783747735
O  O55  1  0.92183000  0.25178000  0.65029000  1.0 -0.4262741037
O  O56  1  0.71631000  0.05170000  0.42351000  1.0 -0.5576041641
O  O57  1  0.70010000  0.95768000  0.47222000  1.0 -0.5261735621
O  O58  1  0.88838000  0.49980000  0.68004000  1.0 -0.4207508616
O  O59  1  0.71900000  0.42870000  0.81400000  1.0 -0.5067352953
O  O60  1  0.63450000  0.34680000  0.74120000  1.0 -0.5527948839
O  O61  1  0.99422000  0.98027000  0.93297000  1.0 -0.4207508616
O  O62  1  0.62359000  0.19740000  0.79839000  1.0 -0.5684431198
O  O63  1  0.70992000  0.27891000  0.87320000  1.0 -0.5527948839
O  O64  1  0.94831000  0.03310000  0.75206000  1.0 -0.4262741037
O  O65  1  0.50860000  0.07430000  0.62718000  1.0 -0.4986483308
O  O66  1  0.56587000  0.18670000  0.68067000  1.0 -0.5684431198
O  O67  1  0.91045000  0.74640000  0.79965000  1.0 -0.4207508616
O  O68  1  0.48287000  0.85980000  0.65224000  1.0 -0.4986483308
O  O69  1  0.50537000  0.84572000  0.73209000  1.0 -0.5902976098
O  O70  1  0.14090000  0.93507000  0.95077000  1.0 -0.4262741037
O  O71  1  0.36627000  0.26873000  0.07531000  1.0 -0.5356755259
O  O72  1  0.41640000  0.18270000  0.14726000  1.0 -0.5527948839
O  O73  1  0.41079000  0.47253000  0.17881000  1.0 -0.5356755259
O  O74  1  0.42866000  0.34170000  0.20256000  1.0 -0.5783747735
O  O75  1  0.07817000  0.75178000  0.84971000  1.0 -0.4262741037
O  O76  1  0.28369000  0.55170000  0.07649000  1.0 -0.5576041641
O  O77  1  0.29990000  0.45768000  0.02778000  1.0 -0.5261735621
O  O78  1  0.11162000  0.99980000  0.81996000  1.0 -0.4207508616
O  O79  1  0.28100000  0.92870000  0.68600000  1.0 -0.5067352953
O  O80  1  0.36550000  0.84680000  0.75880000  1.0 -0.5527948839
