# DDEC6 charges by PACMAN v1.1 (https://github.com/mtap-research/PACMAN-charge/)
data_JALGOV_ASR_pacman
_symmetry_space_group_name_H-M   'P 1'
_cell_length_a   7.46790000
_cell_length_b   14.49200000
_cell_length_c   8.41250000
_cell_angle_alpha   90.00000000
_cell_angle_beta   116.05300000
_cell_angle_gamma   90.00000000
_symmetry_Int_Tables_number   1
_chemical_formula_structural   FeAg2(CN)4
_chemical_formula_sum   'Fe2 Ag4 C8 N8'
_cell_volume   817.92958093
_cell_formula_units_Z   2
loop_
 _symmetry_equiv_pos_site_id
 _symmetry_equiv_pos_as_xyz
  1  'x, y, z'
loop_
 _atom_site_type_symbol
 _atom_site_label
 _atom_site_symmetry_multiplicity
 _atom_site_fract_x
 _atom_site_fract_y
 _atom_site_fract_z
 _atom_site_occupancy
 _atom_site_charge
Fe  Fe1  1  0.50000000  0.50000000  0.00000000  1.0 0.8440945745
Fe  Fe2  1  0.00000000  0.00000000  0.00000000  1.0 0.8451801538
Ag  Ag1  1  0.66700000  0.27651000  0.54574000  1.0 0.0689076409
Ag  Ag2  1  0.83300000  0.77651000  0.45426000  1.0 0.0689076409
Ag  Ag3  1  0.33300000  0.72349000  0.45426000  1.0 0.0689076409
Ag  Ag4  1  0.16700000  0.22349000  0.54574000  1.0 0.0689076409
C  C1  1  0.57960000  0.37380000  0.35020000  1.0 0.157055363
C  C2  1  0.77480000  0.17170000  0.72800000  1.0 0.1492904872
C  C3  1  0.92040000  0.87380000  0.64980000  1.0 0.157055363
C  C4  1  0.72520000  0.67170000  0.27200000  1.0 0.1492904872
C  C5  1  0.42040000  0.62620000  0.64980000  1.0 0.157055363
C  C6  1  0.22520000  0.82830000  0.27200000  1.0 0.1492904872
C  C7  1  0.07960000  0.12620000  0.35020000  1.0 0.157055363
C  C8  1  0.27480000  0.32830000  0.72800000  1.0 0.1449279338
N  N1  1  0.53620000  0.42260000  0.23250000  1.0 -0.4194100797
N  N2  1  0.84450000  0.11410000  0.82590000  1.0 -0.3779476285
N  N3  1  0.96380000  0.92260000  0.76750000  1.0 -0.4194100797
N  N4  1  0.65550000  0.61410000  0.17410000  1.0 -0.3779476285
N  N5  1  0.46380000  0.57740000  0.76750000  1.0 -0.4194100797
N  N6  1  0.15550000  0.88590000  0.17410000  1.0 -0.374442935
N  N7  1  0.03620000  0.07740000  0.23250000  1.0 -0.4194100797
N  N8  1  0.34450000  0.38590000  0.82590000  1.0 -0.3779476285
