# DDEC6 charges by PACMAN v1.1 (https://github.com/mtap-research/PACMAN-charge/)
data_JALLEQ_ASR_pacman
_symmetry_space_group_name_H-M   'P 1'
_cell_length_a   28.22730000
_cell_length_b   28.22730000
_cell_length_c   28.22730000
_cell_angle_alpha   60.00000000
_cell_angle_beta   60.00000000
_cell_angle_gamma   60.00000000
_symmetry_Int_Tables_number   1
_chemical_formula_structural   Ce3C10(NO3)4
_chemical_formula_sum   'Ce36 C120 N48 O144'
_cell_volume   15903.51119964
_cell_formula_units_Z   12
loop_
 _symmetry_equiv_pos_site_id
 _symmetry_equiv_pos_as_xyz
  1  'x, y, z'
loop_
 _atom_site_type_symbol
 _atom_site_label
 _atom_site_symmetry_multiplicity
 _atom_site_fract_x
 _atom_site_fract_y
 _atom_site_fract_z
 _atom_site_occupancy
 _atom_site_charge
Ce  Ce1  1  0.11487000  0.98079000  0.45217000  1.0 2.1900451082
Ce  Ce2  1  0.98079000  0.11487000  0.45217000  1.0 2.1900451082
Ce  Ce3  1  0.88513000  0.54783000  0.01921000  1.0 2.1900451082
Ce  Ce4  1  0.54783000  0.01921000  0.54783000  1.0 2.1900451082
Ce  Ce5  1  0.45217000  0.45217000  0.11487000  1.0 2.1900451082
Ce  Ce6  1  0.01921000  0.88513000  0.54783000  1.0 2.1900451082
Ce  Ce7  1  0.45217000  0.98079000  0.45217000  1.0 2.1900451082
Ce  Ce8  1  0.11487000  0.45217000  0.98079000  1.0 2.1900451082
Ce  Ce9  1  0.54783000  0.54783000  0.88513000  1.0 2.1900451082
Ce  Ce10  1  0.11487000  0.45217000  0.45217000  1.0 2.1837716398
Ce  Ce11  1  0.54783000  0.01921000  0.88513000  1.0 2.1900451082
Ce  Ce12  1  0.54783000  0.88513000  0.01921000  1.0 2.1837716398
Ce  Ce13  1  0.98079000  0.45217000  0.45217000  1.0 2.1837716398
Ce  Ce14  1  0.45217000  0.98079000  0.11487000  1.0 2.1900451082
Ce  Ce15  1  0.88513000  0.54783000  0.54783000  1.0 2.1837716398
Ce  Ce16  1  0.01921000  0.54783000  0.54783000  1.0 2.1900451082
Ce  Ce17  1  0.45217000  0.11487000  0.98079000  1.0 2.1960479316
Ce  Ce18  1  0.54783000  0.54783000  0.01921000  1.0 2.1837716398
Ce  Ce19  1  0.45217000  0.11487000  0.45217000  1.0 2.1900451082
Ce  Ce20  1  0.98079000  0.45217000  0.11487000  1.0 2.1900451082
Ce  Ce21  1  0.88513000  0.01921000  0.54783000  1.0 2.1960479316
Ce  Ce22  1  0.45217000  0.45217000  0.98079000  1.0 2.1900451082
Ce  Ce23  1  0.01921000  0.54783000  0.88513000  1.0 2.1837716398
Ce  Ce24  1  0.54783000  0.88513000  0.54783000  1.0 2.1960479316
Ce  Ce25  1  0.00000000  0.00000000  0.40302000  1.0 2.1715717479
Ce  Ce26  1  0.00000000  0.00000000  0.59698000  1.0 2.1900451082
Ce  Ce27  1  0.00000000  0.59698000  0.00000000  1.0 2.1715717479
Ce  Ce28  1  0.40302000  0.00000000  0.59698000  1.0 2.1715717479
Ce  Ce29  1  0.40302000  0.59698000  0.00000000  1.0 2.1715717479
Ce  Ce30  1  0.00000000  0.40302000  0.59698000  1.0 2.1715717479
Ce  Ce31  1  0.59698000  0.00000000  0.00000000  1.0 2.1900451082
Ce  Ce32  1  0.40302000  0.00000000  0.00000000  1.0 2.1900451082
Ce  Ce33  1  0.00000000  0.59698000  0.40302000  1.0 2.1715717479
Ce  Ce34  1  0.59698000  0.40302000  0.00000000  1.0 2.1715717479
Ce  Ce35  1  0.59698000  0.00000000  0.40302000  1.0 2.1715717479
Ce  Ce36  1  0.00000000  0.40302000  0.00000000  1.0 2.1715717479
C  C1  1  0.98130000  0.23690000  0.23690000  1.0 -0.0882715968
C  C2  1  0.23690000  0.98130000  0.54490000  1.0 -0.0802460934
C  C3  1  0.01870000  0.76310000  0.76310000  1.0 -0.0802460934
C  C4  1  0.45510000  0.76310000  0.76310000  1.0 -0.0882715968
C  C5  1  0.23690000  0.54490000  0.98130000  1.0 -0.0882715968
C  C6  1  0.76310000  0.01870000  0.76310000  1.0 -0.0802460934
C  C7  1  0.23690000  0.23690000  0.54490000  1.0 -0.0882715968
C  C8  1  0.98130000  0.54490000  0.23690000  1.0 -0.0882715968
C  C9  1  0.45510000  0.76310000  0.01870000  1.0 -0.0882715968
C  C10  1  0.98130000  0.23690000  0.54490000  1.0 -0.0882715968
C  C11  1  0.76310000  0.76310000  0.01870000  1.0 -0.0802460934
C  C12  1  0.45510000  0.01870000  0.76310000  1.0 -0.0802460934
C  C13  1  0.23690000  0.54490000  0.23690000  1.0 -0.0802460934
C  C14  1  0.54490000  0.23690000  0.98130000  1.0 -0.0802460934
C  C15  1  0.01870000  0.45510000  0.76310000  1.0 -0.0882715968
C  C16  1  0.76310000  0.76310000  0.45510000  1.0 -0.0802460934
C  C17  1  0.23690000  0.98130000  0.23690000  1.0 -0.0802460934
C  C18  1  0.76310000  0.45510000  0.76310000  1.0 -0.0882715968
C  C19  1  0.54490000  0.98130000  0.23690000  1.0 -0.0882715968
C  C20  1  0.23690000  0.23690000  0.98130000  1.0 -0.0802460934
C  C21  1  0.01870000  0.76310000  0.45510000  1.0 -0.0882715968
C  C22  1  0.54490000  0.23690000  0.23690000  1.0 -0.0882715968
C  C23  1  0.76310000  0.45510000  0.01870000  1.0 -0.0802460934
C  C24  1  0.76310000  0.01870000  0.45510000  1.0 -0.0882715968
C  C25  1  0.98483000  0.13537000  0.32423000  1.0 0.6586710895
C  C26  1  0.13537000  0.98483000  0.55557000  1.0 0.6586710895
C  C27  1  0.01517000  0.67577000  0.86463000  1.0 0.6586710895
C  C28  1  0.44443000  0.86463000  0.67577000  1.0 0.6586710895
C  C29  1  0.32423000  0.55557000  0.98483000  1.0 0.6586710895
C  C30  1  0.86463000  0.01517000  0.67577000  1.0 0.6586710895
C  C31  1  0.32423000  0.13537000  0.55557000  1.0 0.6586710895
C  C32  1  0.98483000  0.55557000  0.13537000  1.0 0.6586710895
C  C33  1  0.44443000  0.67577000  0.01517000  1.0 0.6586710895
C  C34  1  0.98483000  0.32423000  0.55557000  1.0 0.6586710895
C  C35  1  0.67577000  0.86463000  0.01517000  1.0 0.6586710895
C  C36  1  0.44443000  0.01517000  0.86463000  1.0 0.6586710895
C  C37  1  0.13537000  0.55557000  0.32423000  1.0 0.6586710895
C  C38  1  0.55557000  0.13537000  0.98483000  1.0 0.6586710895
C  C39  1  0.01517000  0.44443000  0.67577000  1.0 0.6586710895
C  C40  1  0.86463000  0.67577000  0.44443000  1.0 0.6586710895
C  C41  1  0.32423000  0.98483000  0.13537000  1.0 0.6586710895
C  C42  1  0.67577000  0.44443000  0.86463000  1.0 0.6586710895
C  C43  1  0.55557000  0.98483000  0.32423000  1.0 0.6586710895
C  C44  1  0.13537000  0.32423000  0.98483000  1.0 0.6586710895
C  C45  1  0.01517000  0.86463000  0.44443000  1.0 0.6586710895
C  C46  1  0.55557000  0.32423000  0.13537000  1.0 0.6586710895
C  C47  1  0.86463000  0.44443000  0.01517000  1.0 0.6586710895
C  C48  1  0.67577000  0.01517000  0.44443000  1.0 0.6586710895
C  C49  1  0.01517000  0.86463000  0.67577000  1.0 0.6586710895
C  C50  1  0.86463000  0.01517000  0.44443000  1.0 0.6586710895
C  C51  1  0.98483000  0.32423000  0.13537000  1.0 0.6586710895
C  C52  1  0.55557000  0.13537000  0.32423000  1.0 0.6586710895
C  C53  1  0.67577000  0.44443000  0.01517000  1.0 0.6586710895
C  C54  1  0.13537000  0.98483000  0.32423000  1.0 0.6586710895
C  C55  1  0.67577000  0.86463000  0.44443000  1.0 0.6586710895
C  C56  1  0.01517000  0.44443000  0.86463000  1.0 0.6586710895
C  C57  1  0.55557000  0.32423000  0.98483000  1.0 0.6586710895
C  C58  1  0.01517000  0.67577000  0.44443000  1.0 0.6586710895
C  C59  1  0.32423000  0.13537000  0.98483000  1.0 0.6586710895
C  C60  1  0.55557000  0.98483000  0.13537000  1.0 0.6586710895
C  C61  1  0.86463000  0.44443000  0.67577000  1.0 0.6586710895
C  C62  1  0.44443000  0.86463000  0.01517000  1.0 0.6586710895
C  C63  1  0.98483000  0.55557000  0.32423000  1.0 0.6586710895
C  C64  1  0.13537000  0.32423000  0.55557000  1.0 0.6586710895
C  C65  1  0.67577000  0.01517000  0.86463000  1.0 0.6586710895
C  C66  1  0.32423000  0.55557000  0.13537000  1.0 0.6586710895
C  C67  1  0.44443000  0.01517000  0.67577000  1.0 0.6586710895
C  C68  1  0.86463000  0.67577000  0.01517000  1.0 0.6586710895
C  C69  1  0.98483000  0.13537000  0.55557000  1.0 0.6586710895
C  C70  1  0.44443000  0.67577000  0.86463000  1.0 0.6586710895
C  C71  1  0.13537000  0.55557000  0.98483000  1.0 0.6586710895
C  C72  1  0.32423000  0.98483000  0.55557000  1.0 0.6586710895
C  C73  1  0.99064000  0.17764000  0.26116000  1.0 0.0525166854
C  C74  1  0.17764000  0.99064000  0.57056000  1.0 0.0525166854
C  C75  1  0.00936000  0.73884000  0.82236000  1.0 0.0525166854
C  C76  1  0.42944000  0.82236000  0.73884000  1.0 0.0568628481
C  C77  1  0.26116000  0.57056000  0.99064000  1.0 0.0568628481
C  C78  1  0.82236000  0.00936000  0.73884000  1.0 0.0568628481
C  C79  1  0.26116000  0.17764000  0.57056000  1.0 0.0568628481
C  C80  1  0.99064000  0.57056000  0.17764000  1.0 0.0568628481
C  C81  1  0.42944000  0.73884000  0.00936000  1.0 0.0568628481
C  C82  1  0.99064000  0.26116000  0.57056000  1.0 0.0568628481
C  C83  1  0.73884000  0.82236000  0.00936000  1.0 0.0525166854
C  C84  1  0.42944000  0.00936000  0.82236000  1.0 0.0568628481
C  C85  1  0.17764000  0.57056000  0.26116000  1.0 0.0568628481
C  C86  1  0.57056000  0.17764000  0.99064000  1.0 0.0568628481
C  C87  1  0.00936000  0.42944000  0.73884000  1.0 0.0568628481
C  C88  1  0.82236000  0.73884000  0.42944000  1.0 0.0525166854
C  C89  1  0.26116000  0.99064000  0.17764000  1.0 0.0525166854
C  C90  1  0.73884000  0.42944000  0.82236000  1.0 0.0568628481
C  C91  1  0.57056000  0.99064000  0.26116000  1.0 0.0525166854
C  C92  1  0.17764000  0.26116000  0.99064000  1.0 0.0568628481
C  C93  1  0.00936000  0.82236000  0.42944000  1.0 0.0525166854
C  C94  1  0.57056000  0.26116000  0.17764000  1.0 0.0568628481
C  C95  1  0.82236000  0.42944000  0.00936000  1.0 0.0525166854
C  C96  1  0.73884000  0.00936000  0.42944000  1.0 0.0568628481
C  C97  1  0.00936000  0.82236000  0.73884000  1.0 0.0525166854
C  C98  1  0.82236000  0.00936000  0.42944000  1.0 0.0568628481
C  C99  1  0.99064000  0.26116000  0.17764000  1.0 0.0525166854
C  C100  1  0.57056000  0.17764000  0.26116000  1.0 0.0568628481
C  C101  1  0.73884000  0.42944000  0.00936000  1.0 0.0525166854
C  C102  1  0.17764000  0.99064000  0.26116000  1.0 0.0525166854
C  C103  1  0.73884000  0.82236000  0.42944000  1.0 0.0525166854
C  C104  1  0.00936000  0.42944000  0.82236000  1.0 0.0568628481
C  C105  1  0.57056000  0.26116000  0.99064000  1.0 0.0525166854
C  C106  1  0.00936000  0.73884000  0.42944000  1.0 0.0568628481
C  C107  1  0.26116000  0.17764000  0.99064000  1.0 0.0568628481
C  C108  1  0.57056000  0.99064000  0.17764000  1.0 0.0525166854
C  C109  1  0.82236000  0.42944000  0.73884000  1.0 0.0568628481
C  C110  1  0.42944000  0.82236000  0.00936000  1.0 0.0568628481
C  C111  1  0.99064000  0.57056000  0.26116000  1.0 0.0568628481
C  C112  1  0.17764000  0.26116000  0.57056000  1.0 0.0568628481
C  C113  1  0.73884000  0.00936000  0.82236000  1.0 0.0568628481
C  C114  1  0.26116000  0.57056000  0.17764000  1.0 0.0568628481
C  C115  1  0.42944000  0.00936000  0.73884000  1.0 0.0568628481
C  C116  1  0.82236000  0.73884000  0.00936000  1.0 0.0525166854
C  C117  1  0.99064000  0.17764000  0.57056000  1.0 0.0568628481
C  C118  1  0.42944000  0.73884000  0.82236000  1.0 0.0568628481
C  C119  1  0.17764000  0.57056000  0.99064000  1.0 0.0568628481
C  C120  1  0.26116000  0.99064000  0.57056000  1.0 0.0525166854
N  N1  1  0.00311000  0.16453000  0.21449000  1.0 -0.0802460934
N  N2  1  0.16453000  0.00311000  0.61787000  1.0 -0.0802460934
N  N3  1  0.99689000  0.78551000  0.83547000  1.0 -0.0706189919
N  N4  1  0.38213000  0.83547000  0.78551000  1.0 -0.0802460934
N  N5  1  0.21449000  0.61787000  0.00311000  1.0 -0.0706189919
N  N6  1  0.83547000  0.99689000  0.78551000  1.0 -0.0706189919
N  N7  1  0.21449000  0.16453000  0.61787000  1.0 -0.0706189919
N  N8  1  0.00311000  0.61787000  0.16453000  1.0 -0.0706189919
N  N9  1  0.38213000  0.78551000  0.99689000  1.0 -0.0706189919
N  N10  1  0.00311000  0.21449000  0.61787000  1.0 -0.0706189919
N  N11  1  0.78551000  0.83547000  0.99689000  1.0 -0.0882715968
N  N12  1  0.38213000  0.99689000  0.83547000  1.0 -0.0802460934
N  N13  1  0.16453000  0.61787000  0.21449000  1.0 -0.0706189919
N  N14  1  0.61787000  0.16453000  0.00311000  1.0 -0.0706189919
N  N15  1  0.99689000  0.38213000  0.78551000  1.0 -0.0706189919
N  N16  1  0.83547000  0.78551000  0.38213000  1.0 -0.0802460934
N  N17  1  0.21449000  0.00311000  0.16453000  1.0 -0.0802460934
N  N18  1  0.78551000  0.38213000  0.83547000  1.0 -0.0802460934
N  N19  1  0.61787000  0.00311000  0.21449000  1.0 -0.0802460934
N  N20  1  0.16453000  0.21449000  0.00311000  1.0 -0.0706189919
N  N21  1  0.99689000  0.83547000  0.38213000  1.0 -0.0706189919
N  N22  1  0.61787000  0.21449000  0.16453000  1.0 -0.0802460934
N  N23  1  0.83547000  0.38213000  0.99689000  1.0 -0.0802460934
N  N24  1  0.78551000  0.99689000  0.38213000  1.0 -0.0706189919
N  N25  1  0.99689000  0.83547000  0.78551000  1.0 -0.0706189919
N  N26  1  0.83547000  0.99689000  0.38213000  1.0 -0.0802460934
N  N27  1  0.00311000  0.21449000  0.16453000  1.0 -0.0802460934
N  N28  1  0.61787000  0.16453000  0.21449000  1.0 -0.0706189919
N  N29  1  0.78551000  0.38213000  0.99689000  1.0 -0.0802460934
N  N30  1  0.16453000  0.00311000  0.21449000  1.0 -0.0706189919
N  N31  1  0.78551000  0.83547000  0.38213000  1.0 -0.0802460934
N  N32  1  0.99689000  0.38213000  0.83547000  1.0 -0.0706189919
N  N33  1  0.61787000  0.21449000  0.00311000  1.0 -0.0802460934
N  N34  1  0.99689000  0.78551000  0.38213000  1.0 -0.0706189919
N  N35  1  0.21449000  0.16453000  0.00311000  1.0 -0.0706189919
N  N36  1  0.61787000  0.00311000  0.16453000  1.0 -0.0706189919
N  N37  1  0.83547000  0.38213000  0.78551000  1.0 -0.0706189919
N  N38  1  0.38213000  0.83547000  0.99689000  1.0 -0.0802460934
N  N39  1  0.00311000  0.61787000  0.21449000  1.0 -0.0802460934
N  N40  1  0.16453000  0.21449000  0.61787000  1.0 -0.0706189919
N  N41  1  0.78551000  0.99689000  0.83547000  1.0 -0.0706189919
N  N42  1  0.21449000  0.61787000  0.16453000  1.0 -0.0706189919
N  N43  1  0.38213000  0.99689000  0.78551000  1.0 -0.0802460934
N  N44  1  0.83547000  0.78551000  0.99689000  1.0 -0.0802460934
N  N45  1  0.00311000  0.16453000  0.61787000  1.0 -0.0706189919
N  N46  1  0.38213000  0.78551000  0.83547000  1.0 -0.0706189919
N  N47  1  0.16453000  0.61787000  0.00311000  1.0 -0.0706189919
N  N48  1  0.21449000  0.00311000  0.61787000  1.0 -0.0706189919
O  O1  1  0.04860000  0.04860000  0.40440000  1.0 -1.1000296944
O  O2  1  0.04860000  0.04860000  0.49840000  1.0 -1.0831387642
O  O3  1  0.95140000  0.59560000  0.95140000  1.0 -1.0874339365
O  O4  1  0.50160000  0.95140000  0.59560000  1.0 -1.0874339365
O  O5  1  0.40440000  0.49840000  0.04860000  1.0 -1.0874339365
O  O6  1  0.95140000  0.95140000  0.59560000  1.0 -1.0874339365
O  O7  1  0.40440000  0.04860000  0.49840000  1.0 -1.0874339365
O  O8  1  0.04860000  0.49840000  0.04860000  1.0 -1.0874339365
O  O9  1  0.50160000  0.59560000  0.95140000  1.0 -1.1000296944
O  O10  1  0.04860000  0.40440000  0.49840000  1.0 -1.0874339365
O  O11  1  0.59560000  0.95140000  0.95140000  1.0 -1.0831387642
O  O12  1  0.50160000  0.95140000  0.95140000  1.0 -1.1000296944
O  O13  1  0.04860000  0.49840000  0.40440000  1.0 -1.1000296944
O  O14  1  0.49840000  0.04860000  0.04860000  1.0 -1.0874339365
O  O15  1  0.95140000  0.50160000  0.59560000  1.0 -1.1000296944
O  O16  1  0.95140000  0.59560000  0.50160000  1.0 -1.0831387642
O  O17  1  0.40440000  0.04860000  0.04860000  1.0 -1.0874339365
O  O18  1  0.59560000  0.50160000  0.95140000  1.0 -1.0831387642
O  O19  1  0.49840000  0.04860000  0.40440000  1.0 -1.0874339365
O  O20  1  0.04860000  0.40440000  0.04860000  1.0 -1.0874339365
O  O21  1  0.95140000  0.95140000  0.50160000  1.0 -1.0874339365
O  O22  1  0.49840000  0.40440000  0.04860000  1.0 -1.0874339365
O  O23  1  0.95140000  0.50160000  0.95140000  1.0 -1.0874339365
O  O24  1  0.59560000  0.95140000  0.50160000  1.0 -1.0874339365
O  O25  1  0.06010000  0.93990000  0.54390000  1.0 -1.1093010116
O  O26  1  0.93990000  0.06010000  0.45610000  1.0 -1.1093010116
O  O27  1  0.93990000  0.45610000  0.06010000  1.0 -1.1093010116
O  O28  1  0.54390000  0.06010000  0.45610000  1.0 -1.1184675636
O  O29  1  0.54390000  0.45610000  0.06010000  1.0 -1.1093010116
O  O30  1  0.06010000  0.93990000  0.45610000  1.0 -1.1093010116
O  O31  1  0.54390000  0.93990000  0.45610000  1.0 -1.1093010116
O  O32  1  0.06010000  0.45610000  0.93990000  1.0 -1.1184675636
O  O33  1  0.54390000  0.45610000  0.93990000  1.0 -1.1184675636
O  O34  1  0.06010000  0.54390000  0.45610000  1.0 -1.1093010116
O  O35  1  0.45610000  0.06010000  0.93990000  1.0 -1.1093010116
O  O36  1  0.54390000  0.93990000  0.06010000  1.0 -1.1093010116
O  O37  1  0.93990000  0.45610000  0.54390000  1.0 -1.1000296944
O  O38  1  0.45610000  0.93990000  0.06010000  1.0 -1.1093010116
O  O39  1  0.93990000  0.54390000  0.45610000  1.0 -1.1093010116
O  O40  1  0.06010000  0.45610000  0.54390000  1.0 -1.1093010116
O  O41  1  0.54390000  0.06010000  0.93990000  1.0 -1.1093010116
O  O42  1  0.45610000  0.54390000  0.06010000  1.0 -1.1093010116
O  O43  1  0.45610000  0.06010000  0.54390000  1.0 -1.1093010116
O  O44  1  0.93990000  0.54390000  0.06010000  1.0 -1.1184675636
O  O45  1  0.93990000  0.06010000  0.54390000  1.0 -1.1184675636
O  O46  1  0.45610000  0.54390000  0.93990000  1.0 -1.1093010116
O  O47  1  0.06010000  0.54390000  0.93990000  1.0 -1.1000296944
O  O48  1  0.45610000  0.93990000  0.54390000  1.0 -1.1093010116
O  O49  1  0.98524000  0.08818000  0.33022000  1.0 -0.5591930931
O  O50  1  0.08818000  0.98524000  0.59636000  1.0 -0.5591930931
O  O51  1  0.01476000  0.66978000  0.91182000  1.0 -0.5727374529
O  O52  1  0.40364000  0.91182000  0.66978000  1.0 -0.5591930931
O  O53  1  0.33022000  0.59636000  0.98524000  1.0 -0.5591930931
O  O54  1  0.91182000  0.01476000  0.66978000  1.0 -0.5591930931
O  O55  1  0.33022000  0.08818000  0.59636000  1.0 -0.5591930931
O  O56  1  0.98524000  0.59636000  0.08818000  1.0 -0.5591930931
O  O57  1  0.40364000  0.66978000  0.01476000  1.0 -0.5591930931
O  O58  1  0.98524000  0.33022000  0.59636000  1.0 -0.5591930931
O  O59  1  0.66978000  0.91182000  0.01476000  1.0 -0.5591930931
O  O60  1  0.40364000  0.01476000  0.91182000  1.0 -0.5591930931
O  O61  1  0.08818000  0.59636000  0.33022000  1.0 -0.5591930931
O  O62  1  0.59636000  0.08818000  0.98524000  1.0 -0.5591930931
O  O63  1  0.01476000  0.40364000  0.66978000  1.0 -0.5591930931
O  O64  1  0.91182000  0.66978000  0.40364000  1.0 -0.5591930931
O  O65  1  0.33022000  0.98524000  0.08818000  1.0 -0.5591930931
O  O66  1  0.66978000  0.40364000  0.91182000  1.0 -0.5591930931
O  O67  1  0.59636000  0.98524000  0.33022000  1.0 -0.5591930931
O  O68  1  0.08818000  0.33022000  0.98524000  1.0 -0.5591930931
O  O69  1  0.01476000  0.91182000  0.40364000  1.0 -0.5591930931
O  O70  1  0.59636000  0.33022000  0.08818000  1.0 -0.5591930931
O  O71  1  0.91182000  0.40364000  0.01476000  1.0 -0.5591930931
O  O72  1  0.66978000  0.01476000  0.40364000  1.0 -0.5591930931
O  O73  1  0.01476000  0.91182000  0.66978000  1.0 -0.5591930931
O  O74  1  0.91182000  0.01476000  0.40364000  1.0 -0.5591930931
O  O75  1  0.98524000  0.33022000  0.08818000  1.0 -0.5591930931
O  O76  1  0.59636000  0.08818000  0.33022000  1.0 -0.5591930931
O  O77  1  0.66978000  0.40364000  0.01476000  1.0 -0.5591930931
O  O78  1  0.08818000  0.98524000  0.33022000  1.0 -0.5591930931
O  O79  1  0.66978000  0.91182000  0.40364000  1.0 -0.5591930931
O  O80  1  0.01476000  0.40364000  0.91182000  1.0 -0.5727374529
O  O81  1  0.59636000  0.33022000  0.98524000  1.0 -0.5591930931
O  O82  1  0.01476000  0.66978000  0.40364000  1.0 -0.5591930931
O  O83  1  0.33022000  0.08818000  0.98524000  1.0 -0.5591930931
O  O84  1  0.59636000  0.98524000  0.08818000  1.0 -0.5591930931
O  O85  1  0.91182000  0.40364000  0.66978000  1.0 -0.5591930931
O  O86  1  0.40364000  0.91182000  0.01476000  1.0 -0.5591930931
O  O87  1  0.98524000  0.59636000  0.33022000  1.0 -0.5591930931
O  O88  1  0.08818000  0.33022000  0.59636000  1.0 -0.5591930931
O  O89  1  0.66978000  0.01476000  0.91182000  1.0 -0.5591930931
O  O90  1  0.33022000  0.59636000  0.08818000  1.0 -0.5591930931
O  O91  1  0.40364000  0.01476000  0.66978000  1.0 -0.5591930931
O  O92  1  0.91182000  0.66978000  0.01476000  1.0 -0.5591930931
O  O93  1  0.98524000  0.08818000  0.59636000  1.0 -0.5591930931
O  O94  1  0.40364000  0.66978000  0.91182000  1.0 -0.5591930931
O  O95  1  0.08818000  0.59636000  0.98524000  1.0 -0.5591930931
O  O96  1  0.33022000  0.98524000  0.59636000  1.0 -0.5591930931
O  O97  1  0.98032000  0.15706000  0.35732000  1.0 -0.5765356722
O  O98  1  0.15706000  0.98032000  0.50530000  1.0 -0.5765356722
O  O99  1  0.01968000  0.64268000  0.84294000  1.0 -0.5765356722
O  O100  1  0.49470000  0.84294000  0.64268000  1.0 -0.5765356722
O  O101  1  0.35732000  0.50530000  0.98032000  1.0 -0.5765356722
O  O102  1  0.84294000  0.01968000  0.64268000  1.0 -0.5765356722
O  O103  1  0.35732000  0.15706000  0.50530000  1.0 -0.5765356722
O  O104  1  0.98032000  0.50530000  0.15706000  1.0 -0.5765356722
O  O105  1  0.49470000  0.64268000  0.01968000  1.0 -0.5727374529
O  O106  1  0.98032000  0.35732000  0.50530000  1.0 -0.5727374529
O  O107  1  0.64268000  0.84294000  0.01968000  1.0 -0.5727374529
O  O108  1  0.49470000  0.01968000  0.84294000  1.0 -0.5765356722
O  O109  1  0.15706000  0.50530000  0.35732000  1.0 -0.5727374529
O  O110  1  0.50530000  0.15706000  0.98032000  1.0 -0.5765356722
O  O111  1  0.01968000  0.49470000  0.64268000  1.0 -0.5765356722
O  O112  1  0.84294000  0.64268000  0.49470000  1.0 -0.5765356722
O  O113  1  0.35732000  0.98032000  0.15706000  1.0 -0.5765356722
O  O114  1  0.64268000  0.49470000  0.84294000  1.0 -0.5765356722
O  O115  1  0.50530000  0.98032000  0.35732000  1.0 -0.5765356722
O  O116  1  0.15706000  0.35732000  0.98032000  1.0 -0.5765356722
O  O117  1  0.01968000  0.84294000  0.49470000  1.0 -0.5765356722
O  O118  1  0.50530000  0.35732000  0.15706000  1.0 -0.5727374529
O  O119  1  0.84294000  0.49470000  0.01968000  1.0 -0.5765356722
O  O120  1  0.64268000  0.01968000  0.49470000  1.0 -0.5727374529
O  O121  1  0.01968000  0.84294000  0.64268000  1.0 -0.5765356722
O  O122  1  0.84294000  0.01968000  0.49470000  1.0 -0.5765356722
O  O123  1  0.98032000  0.35732000  0.15706000  1.0 -0.5765356722
O  O124  1  0.50530000  0.15706000  0.35732000  1.0 -0.5765356722
O  O125  1  0.64268000  0.49470000  0.01968000  1.0 -0.5765356722
O  O126  1  0.15706000  0.98032000  0.35732000  1.0 -0.5765356722
O  O127  1  0.64268000  0.84294000  0.49470000  1.0 -0.5765356722
O  O128  1  0.01968000  0.49470000  0.84294000  1.0 -0.5765356722
O  O129  1  0.50530000  0.35732000  0.98032000  1.0 -0.5765356722
O  O130  1  0.01968000  0.64268000  0.49470000  1.0 -0.5765356722
O  O131  1  0.35732000  0.15706000  0.98032000  1.0 -0.5765356722
O  O132  1  0.50530000  0.98032000  0.15706000  1.0 -0.5727374529
O  O133  1  0.84294000  0.49470000  0.64268000  1.0 -0.5765356722
O  O134  1  0.49470000  0.84294000  0.01968000  1.0 -0.5727374529
O  O135  1  0.98032000  0.50530000  0.35732000  1.0 -0.5765356722
O  O136  1  0.15706000  0.35732000  0.50530000  1.0 -0.5765356722
O  O137  1  0.64268000  0.01968000  0.84294000  1.0 -0.5765356722
O  O138  1  0.35732000  0.50530000  0.15706000  1.0 -0.5765356722
O  O139  1  0.49470000  0.01968000  0.64268000  1.0 -0.5765356722
O  O140  1  0.84294000  0.64268000  0.01968000  1.0 -0.5765356722
O  O141  1  0.98032000  0.15706000  0.50530000  1.0 -0.5727374529
O  O142  1  0.49470000  0.64268000  0.84294000  1.0 -0.5765356722
O  O143  1  0.15706000  0.50530000  0.98032000  1.0 -0.5765356722
O  O144  1  0.35732000  0.98032000  0.50530000  1.0 -0.5765356722
