# DDEC6 charges by PACMAN v1.1 (https://github.com/mtap-research/PACMAN-charge/)
data_JALTUL_FSR_pacman
_symmetry_space_group_name_H-M   'P 1'
_cell_length_a   13.26700000
_cell_length_b   8.56100000
_cell_length_c   14.72400000
_cell_angle_alpha   90.00000000
_cell_angle_beta   104.11000000
_cell_angle_gamma   90.00000000
_symmetry_Int_Tables_number   1
_chemical_formula_structural   LiH16(CN)4
_chemical_formula_sum   'Li4 H64 C16 N16'
_cell_volume   1621.87887439
_cell_formula_units_Z   4
loop_
 _symmetry_equiv_pos_site_id
 _symmetry_equiv_pos_as_xyz
  1  'x, y, z'
loop_
 _atom_site_type_symbol
 _atom_site_label
 _atom_site_symmetry_multiplicity
 _atom_site_fract_x
 _atom_site_fract_y
 _atom_site_fract_z
 _atom_site_occupancy
 _atom_site_charge
Li  Li1  1  0.50700000  0.95990000  0.75170000  1.0 0.6827410648
Li  Li2  1  0.99300000  0.45990000  0.24830000  1.0 0.6855122039
Li  Li3  1  0.49300000  0.04010000  0.24830000  1.0 0.6827410648
Li  Li4  1  0.00700000  0.54010000  0.75170000  1.0 0.6827410648
H  H1  1  0.68800000  0.95500000  0.82500000  1.0 0.2499640661
H  H2  1  0.81200000  0.45500000  0.17500000  1.0 0.2499640661
H  H3  1  0.31200000  0.04500000  0.17500000  1.0 0.2499640661
H  H4  1  0.18800000  0.54500000  0.82500000  1.0 0.2499640661
H  H5  1  0.65700000  0.78600000  0.83900000  1.0 0.2583582143
H  H6  1  0.84300000  0.28600000  0.16100000  1.0 0.2583582143
H  H7  1  0.34300000  0.21400000  0.16100000  1.0 0.2583582143
H  H8  1  0.15700000  0.71400000  0.83900000  1.0 0.2583582143
H  H9  1  0.83200000  0.57300000  0.67600000  1.0 0.2416707317
H  H10  1  0.66800000  0.07300000  0.32400000  1.0 0.2416707317
H  H11  1  0.16800000  0.42700000  0.32400000  1.0 0.2416707317
H  H12  1  0.33200000  0.92700000  0.67600000  1.0 0.2416707317
H  H13  1  0.86600000  0.73600000  0.66000000  1.0 0.2499640661
H  H14  1  0.63400000  0.23600000  0.34000000  1.0 0.2499640661
H  H15  1  0.13400000  0.26400000  0.34000000  1.0 0.2499640661
H  H16  1  0.36600000  0.76400000  0.66000000  1.0 0.2499640661
H  H17  1  0.42700000  0.10100000  0.86000000  1.0 0.1742214898
H  H18  1  0.07300000  0.60100000  0.14000000  1.0 0.1798067729
H  H19  1  0.57300000  0.89900000  0.14000000  1.0 0.1798067729
H  H20  1  0.92700000  0.39900000  0.86000000  1.0 0.1798067729
H  H21  1  0.52300000  0.16500000  0.88800000  1.0 0.189007662
H  H22  1  0.97700000  0.66500000  0.11200000  1.0 0.189007662
H  H23  1  0.47700000  0.83500000  0.11200000  1.0 0.189007662
H  H24  1  0.02300000  0.33500000  0.88800000  1.0 0.189007662
H  H25  1  0.47800000  0.15500000  0.61200000  1.0 0.189007662
H  H26  1  0.02200000  0.65500000  0.38800000  1.0 0.189007662
H  H27  1  0.52200000  0.84500000  0.38800000  1.0 0.189007662
H  H28  1  0.97800000  0.34500000  0.61200000  1.0 0.189007662
H  H29  1  0.57900000  0.10500000  0.63900000  1.0 0.1798067729
H  H30  1  0.92100000  0.60500000  0.36100000  1.0 0.1798067729
H  H31  1  0.42100000  0.89500000  0.36100000  1.0 0.1798067729
H  H32  1  0.07900000  0.39500000  0.63900000  1.0 0.189007662
H  H33  1  0.66100000  0.70900000  0.68500000  1.0 0.0468671361
H  H34  1  0.83900000  0.20900000  0.31500000  1.0 0.0468671361
H  H35  1  0.33900000  0.29100000  0.31500000  1.0 0.0468671361
H  H36  1  0.16100000  0.79100000  0.68500000  1.0 0.0468671361
H  H37  1  0.71300000  0.89500000  0.68600000  1.0 0.0603965266
H  H38  1  0.78700000  0.39500000  0.31400000  1.0 0.0603965266
H  H39  1  0.28700000  0.10500000  0.31400000  1.0 0.0603965266
H  H40  1  0.21300000  0.60500000  0.68600000  1.0 0.0603965266
H  H41  1  0.86000000  0.82300000  0.80900000  1.0 0.0700539688
H  H42  1  0.64000000  0.32300000  0.19100000  1.0 0.0700539688
H  H43  1  0.14000000  0.17700000  0.19100000  1.0 0.0700539688
H  H44  1  0.36000000  0.67700000  0.80900000  1.0 0.0700539688
H  H45  1  0.81000000  0.64500000  0.81500000  1.0 0.0700539688
H  H46  1  0.69000000  0.14500000  0.18500000  1.0 0.0700539688
H  H47  1  0.19000000  0.35500000  0.18500000  1.0 0.0700539688
H  H48  1  0.31000000  0.85500000  0.81500000  1.0 0.0700539688
H  H49  1  0.52600000  0.85400000  0.56000000  1.0 0.0603965266
H  H50  1  0.97400000  0.35400000  0.44000000  1.0 0.0603965266
H  H51  1  0.47400000  0.14600000  0.44000000  1.0 0.0603965266
H  H52  1  0.02600000  0.64600000  0.56000000  1.0 0.0603965266
H  H53  1  0.41400000  0.93800000  0.52800000  1.0 0.0603965266
H  H54  1  0.08600000  0.43800000  0.47200000  1.0 0.0603965266
H  H55  1  0.58600000  0.06200000  0.47200000  1.0 0.0603965266
H  H56  1  0.91400000  0.56200000  0.52800000  1.0 0.0603965266
H  H57  1  0.49000000  0.85800000  0.94200000  1.0 0.0603965266
H  H58  1  0.01000000  0.35800000  0.05800000  1.0 0.0603965266
H  H59  1  0.51000000  0.14200000  0.05800000  1.0 0.0603965266
H  H60  1  0.99000000  0.64200000  0.94200000  1.0 0.0603965266
H  H61  1  0.59700000  0.95500000  0.98000000  1.0 0.0603965266
H  H62  1  0.90300000  0.45500000  0.02000000  1.0 0.0603965266
H  H63  1  0.40300000  0.04500000  0.02000000  1.0 0.0603965266
H  H64  1  0.09700000  0.54500000  0.98000000  1.0 0.0603965266
C  C1  1  0.70850000  0.80020000  0.72780000  1.0 -0.0468288825
C  C2  1  0.79150000  0.30020000  0.27220000  1.0 -0.0468288825
C  C3  1  0.29150000  0.19980000  0.27220000  1.0 -0.0468288825
C  C4  1  0.20850000  0.69980000  0.72780000  1.0 -0.0468288825
C  C5  1  0.81520000  0.73380000  0.77250000  1.0 -0.0903575828
C  C6  1  0.68480000  0.23380000  0.22750000  1.0 -0.0903575828
C  C7  1  0.18480000  0.26620000  0.22750000  1.0 -0.0903575828
C  C8  1  0.31520000  0.76620000  0.77250000  1.0 -0.0903575828
C  C9  1  0.51690000  0.96810000  0.95760000  1.0 -0.0663337901
C  C10  1  0.98310000  0.46810000  0.04240000  1.0 -0.0663337901
C  C11  1  0.48310000  0.03190000  0.04240000  1.0 -0.0663337901
C  C12  1  0.01690000  0.53190000  0.95760000  1.0 -0.0663337901
C  C13  1  0.49020000  0.96430000  0.54420000  1.0 -0.0663337901
C  C14  1  0.00980000  0.46430000  0.45580000  1.0 -0.0663337901
C  C15  1  0.50980000  0.03570000  0.45580000  1.0 -0.0663337901
C  C16  1  0.99020000  0.53570000  0.54420000  1.0 -0.0663337901
N  N1  1  0.65330000  0.86260000  0.79630000  1.0 -0.6766260078
N  N2  1  0.84670000  0.36260000  0.20370000  1.0 -0.6766260078
N  N3  1  0.34670000  0.13740000  0.20370000  1.0 -0.6766260078
N  N4  1  0.15330000  0.63740000  0.79630000  1.0 -0.6766260078
N  N5  1  0.86670000  0.66060000  0.70490000  1.0 -0.6531857958
N  N6  1  0.63330000  0.16060000  0.29510000  1.0 -0.6564151059
N  N7  1  0.13330000  0.33940000  0.29510000  1.0 -0.6564151059
N  N8  1  0.36670000  0.83940000  0.70490000  1.0 -0.6564151059
N  N9  1  0.49060000  0.06660000  0.87380000  1.0 -0.6531857958
N  N10  1  0.00940000  0.56660000  0.12620000  1.0 -0.6531857958
N  N11  1  0.50940000  0.93340000  0.12620000  1.0 -0.6531857958
N  N12  1  0.99060000  0.43340000  0.87380000  1.0 -0.6531857958
N  N13  1  0.51450000  0.06520000  0.62680000  1.0 -0.6564151059
N  N14  1  0.98550000  0.56520000  0.37320000  1.0 -0.6564151059
N  N15  1  0.48550000  0.93480000  0.37320000  1.0 -0.6564151059
N  N16  1  0.01450000  0.43480000  0.62680000  1.0 -0.6531857958
