# DDEC6 charges by PACMAN v1.1 (https://github.com/mtap-research/PACMAN-charge/)
data_JAVKAW_ASR_pacman
_symmetry_space_group_name_H-M   'P 1'
_cell_length_a   28.49100000
_cell_length_b   28.49100000
_cell_length_c   15.71400000
_cell_angle_alpha   90.00000000
_cell_angle_beta   90.00000000
_cell_angle_gamma   90.00000000
_symmetry_Int_Tables_number   1
_chemical_formula_structural   Zr3H28C40S(NO7)2
_chemical_formula_sum   'Zr12 H112 C160 S4 N8 O56'
_cell_volume   12755.63649083
_cell_formula_units_Z   4
loop_
 _symmetry_equiv_pos_site_id
 _symmetry_equiv_pos_as_xyz
  1  'x, y, z'
loop_
 _atom_site_type_symbol
 _atom_site_label
 _atom_site_symmetry_multiplicity
 _atom_site_fract_x
 _atom_site_fract_y
 _atom_site_fract_z
 _atom_site_occupancy
 _atom_site_charge
Zr  Zr1  1  0.08623000  0.50000000  0.00000000  1.0 2.382802411
Zr  Zr2  1  0.91377000  0.50000000  0.00000000  1.0 2.382802411
Zr  Zr3  1  0.50000000  0.91377000  0.00000000  1.0 2.382802411
Zr  Zr4  1  0.50000000  0.08623000  0.00000000  1.0 2.382802411
Zr  Zr5  1  0.00000000  0.43741000  0.11120000  1.0 2.4923383138
Zr  Zr6  1  0.00000000  0.56259000  0.11120000  1.0 2.4923383138
Zr  Zr7  1  0.43741000  0.00000000  0.11120000  1.0 2.4923383138
Zr  Zr8  1  0.56259000  0.00000000  0.11120000  1.0 2.4923383138
Zr  Zr9  1  0.00000000  0.56259000  0.88880000  1.0 2.4923383138
Zr  Zr10  1  0.00000000  0.43741000  0.88880000  1.0 2.4923383138
Zr  Zr11  1  0.43741000  0.00000000  0.88880000  1.0 2.4923383138
Zr  Zr12  1  0.56259000  0.00000000  0.88880000  1.0 2.4923383138
H  H1  1  0.11249000  0.34755000  0.24778000  1.0 0.1028418094
H  H2  1  0.20271000  0.43841000  0.14053000  1.0 0.1120440494
H  H3  1  0.17484000  0.30801000  0.31006000  1.0 0.11952662
H  H4  1  0.26505000  0.39886000  0.20281000  1.0 0.11952662
H  H5  1  0.27214000  0.37070000  0.39559000  1.0 0.1324137291
H  H6  1  0.27333000  0.23639000  0.18057000  1.0 0.275911062
H  H7  1  0.23744000  0.27438000  0.17828000  1.0 0.275911062
H  H8  1  0.88751000  0.65245000  0.24778000  1.0 0.1028418094
H  H9  1  0.79729000  0.56159000  0.14053000  1.0 0.1120440494
H  H10  1  0.82516000  0.69199000  0.31006000  1.0 0.11952662
H  H11  1  0.73495000  0.60114000  0.20281000  1.0 0.11952662
H  H12  1  0.72786000  0.62930000  0.39559000  1.0 0.1324137291
H  H13  1  0.72667000  0.76361000  0.18057000  1.0 0.275911062
H  H14  1  0.76256000  0.72562000  0.17828000  1.0 0.275911062
H  H15  1  0.34755000  0.88751000  0.24778000  1.0 0.1028418094
H  H16  1  0.43841000  0.79729000  0.14053000  1.0 0.1120440494
H  H17  1  0.30801000  0.82516000  0.31006000  1.0 0.11952662
H  H18  1  0.39886000  0.73495000  0.20281000  1.0 0.11952662
H  H19  1  0.37070000  0.72786000  0.39559000  1.0 0.1324137291
H  H20  1  0.23639000  0.72667000  0.18057000  1.0 0.275911062
H  H21  1  0.27438000  0.76256000  0.17828000  1.0 0.275911062
H  H22  1  0.65245000  0.11249000  0.24778000  1.0 0.1028418094
H  H23  1  0.56159000  0.20271000  0.14053000  1.0 0.1120440494
H  H24  1  0.69199000  0.17484000  0.31006000  1.0 0.11952662
H  H25  1  0.60114000  0.26505000  0.20281000  1.0 0.11952662
H  H26  1  0.62930000  0.27214000  0.39559000  1.0 0.1324137291
H  H27  1  0.76361000  0.27333000  0.18057000  1.0 0.275911062
H  H28  1  0.72562000  0.23744000  0.17828000  1.0 0.275911062
H  H29  1  0.11249000  0.65245000  0.75222000  1.0 0.1028418094
H  H30  1  0.20271000  0.56159000  0.85947000  1.0 0.1120440494
H  H31  1  0.17484000  0.69199000  0.68994000  1.0 0.11952662
H  H32  1  0.26505000  0.60114000  0.79719000  1.0 0.11952662
H  H33  1  0.27214000  0.62930000  0.60441000  1.0 0.1324137291
H  H34  1  0.27333000  0.76361000  0.81943000  1.0 0.275911062
H  H35  1  0.23744000  0.72562000  0.82172000  1.0 0.275911062
H  H36  1  0.88751000  0.34755000  0.75222000  1.0 0.1028418094
H  H37  1  0.79729000  0.43841000  0.85947000  1.0 0.1120440494
H  H38  1  0.82516000  0.30801000  0.68994000  1.0 0.11952662
H  H39  1  0.73495000  0.39886000  0.79719000  1.0 0.11952662
H  H40  1  0.72786000  0.37070000  0.60441000  1.0 0.1324137291
H  H41  1  0.72667000  0.23639000  0.81943000  1.0 0.275911062
H  H42  1  0.76256000  0.27438000  0.82172000  1.0 0.275911062
H  H43  1  0.34755000  0.11249000  0.75222000  1.0 0.1028418094
H  H44  1  0.43841000  0.20271000  0.85947000  1.0 0.1120440494
H  H45  1  0.30801000  0.17484000  0.68994000  1.0 0.11952662
H  H46  1  0.39886000  0.26505000  0.79719000  1.0 0.11952662
H  H47  1  0.37070000  0.27214000  0.60441000  1.0 0.1324137291
H  H48  1  0.23639000  0.27333000  0.81943000  1.0 0.275911062
H  H49  1  0.27438000  0.23744000  0.82172000  1.0 0.275911062
H  H50  1  0.65245000  0.88751000  0.75222000  1.0 0.1028418094
H  H51  1  0.56159000  0.79729000  0.85947000  1.0 0.1120440494
H  H52  1  0.69199000  0.82516000  0.68994000  1.0 0.11952662
H  H53  1  0.60114000  0.73495000  0.79719000  1.0 0.11952662
H  H54  1  0.62930000  0.72786000  0.60441000  1.0 0.1324137291
H  H55  1  0.76361000  0.72667000  0.81943000  1.0 0.275911062
H  H56  1  0.72562000  0.76256000  0.82172000  1.0 0.275911062
H  H57  1  0.88751000  0.65245000  0.75222000  1.0 0.1028418094
H  H58  1  0.79729000  0.56159000  0.85947000  1.0 0.1120440494
H  H59  1  0.82516000  0.69199000  0.68994000  1.0 0.11952662
H  H60  1  0.73495000  0.60114000  0.79719000  1.0 0.11952662
H  H61  1  0.72786000  0.62930000  0.60441000  1.0 0.1324137291
H  H62  1  0.72667000  0.76361000  0.81943000  1.0 0.275911062
H  H63  1  0.76256000  0.72562000  0.82172000  1.0 0.275911062
H  H64  1  0.11249000  0.34755000  0.75222000  1.0 0.1028418094
H  H65  1  0.20271000  0.43841000  0.85947000  1.0 0.1120440494
H  H66  1  0.17484000  0.30801000  0.68994000  1.0 0.11952662
H  H67  1  0.26505000  0.39886000  0.79719000  1.0 0.11952662
H  H68  1  0.27214000  0.37070000  0.60441000  1.0 0.1324137291
H  H69  1  0.27333000  0.23639000  0.81943000  1.0 0.275911062
H  H70  1  0.23744000  0.27438000  0.82172000  1.0 0.275911062
H  H71  1  0.65245000  0.11249000  0.75222000  1.0 0.1028418094
H  H72  1  0.56159000  0.20271000  0.85947000  1.0 0.1120440494
H  H73  1  0.69199000  0.17484000  0.68994000  1.0 0.11952662
H  H74  1  0.60114000  0.26505000  0.79719000  1.0 0.11952662
H  H75  1  0.62930000  0.27214000  0.60441000  1.0 0.1324137291
H  H76  1  0.76361000  0.27333000  0.81943000  1.0 0.275911062
H  H77  1  0.72562000  0.23744000  0.82172000  1.0 0.275911062
H  H78  1  0.34755000  0.88751000  0.75222000  1.0 0.1028418094
H  H79  1  0.43841000  0.79729000  0.85947000  1.0 0.1120440494
H  H80  1  0.30801000  0.82516000  0.68994000  1.0 0.11952662
H  H81  1  0.39886000  0.73495000  0.79719000  1.0 0.11952662
H  H82  1  0.37070000  0.72786000  0.60441000  1.0 0.1324137291
H  H83  1  0.23639000  0.72667000  0.81943000  1.0 0.275911062
H  H84  1  0.27438000  0.76256000  0.82172000  1.0 0.275911062
H  H85  1  0.88751000  0.34755000  0.24778000  1.0 0.1028418094
H  H86  1  0.79729000  0.43841000  0.14053000  1.0 0.1120440494
H  H87  1  0.82516000  0.30801000  0.31006000  1.0 0.11952662
H  H88  1  0.73495000  0.39886000  0.20281000  1.0 0.11952662
H  H89  1  0.72786000  0.37070000  0.39559000  1.0 0.1324137291
H  H90  1  0.72667000  0.23639000  0.18057000  1.0 0.275911062
H  H91  1  0.76256000  0.27438000  0.17828000  1.0 0.275911062
H  H92  1  0.11249000  0.65245000  0.24778000  1.0 0.1028418094
H  H93  1  0.20271000  0.56159000  0.14053000  1.0 0.1120440494
H  H94  1  0.17484000  0.69199000  0.31006000  1.0 0.11952662
H  H95  1  0.26505000  0.60114000  0.20281000  1.0 0.11952662
H  H96  1  0.27214000  0.62930000  0.39559000  1.0 0.1324137291
H  H97  1  0.27333000  0.76361000  0.18057000  1.0 0.275911062
H  H98  1  0.23744000  0.72562000  0.17828000  1.0 0.275911062
H  H99  1  0.65245000  0.88751000  0.24778000  1.0 0.1028418094
H  H100  1  0.56159000  0.79729000  0.14053000  1.0 0.1120440494
H  H101  1  0.69199000  0.82516000  0.31006000  1.0 0.11952662
H  H102  1  0.60114000  0.73495000  0.20281000  1.0 0.11952662
H  H103  1  0.62930000  0.72786000  0.39559000  1.0 0.1324137291
H  H104  1  0.76361000  0.72667000  0.18057000  1.0 0.275911062
H  H105  1  0.72562000  0.76256000  0.17828000  1.0 0.275911062
H  H106  1  0.34755000  0.11249000  0.24778000  1.0 0.1028418094
H  H107  1  0.43841000  0.20271000  0.14053000  1.0 0.1120440494
H  H108  1  0.30801000  0.17484000  0.31006000  1.0 0.11952662
H  H109  1  0.39886000  0.26505000  0.20281000  1.0 0.11952662
H  H110  1  0.37070000  0.27214000  0.39559000  1.0 0.1324137291
H  H111  1  0.23639000  0.27333000  0.18057000  1.0 0.275911062
H  H112  1  0.27438000  0.23744000  0.17828000  1.0 0.275911062
C  C1  1  0.11790000  0.42140000  0.14030000  1.0 0.5830906621
C  C2  1  0.15140000  0.39690000  0.18800000  1.0 -0.1230503615
C  C3  1  0.14310000  0.35780000  0.23880000  1.0 -0.0732677253
C  C4  1  0.19710000  0.41230000  0.17450000  1.0 -0.0822631204
C  C5  1  0.18040000  0.33410000  0.27610000  1.0 -0.1938769193
C  C6  1  0.23450000  0.38860000  0.21180000  1.0 -0.1834038803
C  C7  1  0.22610000  0.34950000  0.26260000  1.0 0.0472349343
C  C8  1  0.26590000  0.32530000  0.30530000  1.0 -0.0462262733
C  C9  1  0.28680000  0.34420000  0.37340000  1.0 -0.1518814647
C  C10  1  0.88210000  0.57860000  0.14030000  1.0 0.5830906621
C  C11  1  0.84860000  0.60310000  0.18800000  1.0 -0.1230503615
C  C12  1  0.85690000  0.64220000  0.23880000  1.0 -0.0732677253
C  C13  1  0.80290000  0.58770000  0.17450000  1.0 -0.0822631204
C  C14  1  0.81960000  0.66590000  0.27610000  1.0 -0.1938769193
C  C15  1  0.76550000  0.61140000  0.21180000  1.0 -0.1834038803
C  C16  1  0.77390000  0.65050000  0.26260000  1.0 0.0472349343
C  C17  1  0.73410000  0.67470000  0.30530000  1.0 -0.0462262733
C  C18  1  0.71320000  0.65580000  0.37340000  1.0 -0.1518814647
C  C19  1  0.42140000  0.88210000  0.14030000  1.0 0.5830906621
C  C20  1  0.39690000  0.84860000  0.18800000  1.0 -0.1230503615
C  C21  1  0.35780000  0.85690000  0.23880000  1.0 -0.0732677253
C  C22  1  0.41230000  0.80290000  0.17450000  1.0 -0.0822631204
C  C23  1  0.33410000  0.81960000  0.27610000  1.0 -0.1938769193
C  C24  1  0.38860000  0.76550000  0.21180000  1.0 -0.1834038803
C  C25  1  0.34950000  0.77390000  0.26260000  1.0 0.0472349343
C  C26  1  0.32530000  0.73410000  0.30530000  1.0 -0.0462262733
C  C27  1  0.34420000  0.71320000  0.37340000  1.0 -0.1518814647
C  C28  1  0.57860000  0.11790000  0.14030000  1.0 0.5830906621
C  C29  1  0.60310000  0.15140000  0.18800000  1.0 -0.1230503615
C  C30  1  0.64220000  0.14310000  0.23880000  1.0 -0.0732677253
C  C31  1  0.58770000  0.19710000  0.17450000  1.0 -0.0822631204
C  C32  1  0.66590000  0.18040000  0.27610000  1.0 -0.1938769193
C  C33  1  0.61140000  0.23450000  0.21180000  1.0 -0.1834038803
C  C34  1  0.65050000  0.22610000  0.26260000  1.0 0.0472349343
C  C35  1  0.67470000  0.26590000  0.30530000  1.0 -0.0462262733
C  C36  1  0.65580000  0.28680000  0.37340000  1.0 -0.1518814647
C  C37  1  0.11790000  0.57860000  0.85970000  1.0 0.5830906621
C  C38  1  0.15140000  0.60310000  0.81200000  1.0 -0.1230503615
C  C39  1  0.14310000  0.64220000  0.76120000  1.0 -0.0732677253
C  C40  1  0.19710000  0.58770000  0.82550000  1.0 -0.0822631204
C  C41  1  0.18040000  0.66590000  0.72390000  1.0 -0.1938769193
C  C42  1  0.23450000  0.61140000  0.78820000  1.0 -0.1834038803
C  C43  1  0.22610000  0.65050000  0.73740000  1.0 0.0472349343
C  C44  1  0.26590000  0.67470000  0.69470000  1.0 -0.0443044035
C  C45  1  0.28680000  0.65580000  0.62660000  1.0 -0.1518814647
C  C46  1  0.88210000  0.42140000  0.85970000  1.0 0.5830906621
C  C47  1  0.84860000  0.39690000  0.81200000  1.0 -0.1230503615
C  C48  1  0.85690000  0.35780000  0.76120000  1.0 -0.0732677253
C  C49  1  0.80290000  0.41230000  0.82550000  1.0 -0.0822631204
C  C50  1  0.81960000  0.33410000  0.72390000  1.0 -0.1938769193
C  C51  1  0.76550000  0.38860000  0.78820000  1.0 -0.1834038803
C  C52  1  0.77390000  0.34950000  0.73740000  1.0 0.0472349343
C  C53  1  0.73410000  0.32530000  0.69470000  1.0 -0.0443044035
C  C54  1  0.71320000  0.34420000  0.62660000  1.0 -0.1518814647
C  C55  1  0.42140000  0.11790000  0.85970000  1.0 0.5830906621
C  C56  1  0.39690000  0.15140000  0.81200000  1.0 -0.1230503615
C  C57  1  0.35780000  0.14310000  0.76120000  1.0 -0.0732677253
C  C58  1  0.41230000  0.19710000  0.82550000  1.0 -0.0822631204
C  C59  1  0.33410000  0.18040000  0.72390000  1.0 -0.1938769193
C  C60  1  0.38860000  0.23450000  0.78820000  1.0 -0.1834038803
C  C61  1  0.34950000  0.22610000  0.73740000  1.0 0.0472349343
C  C62  1  0.32530000  0.26590000  0.69470000  1.0 -0.0443044035
C  C63  1  0.34420000  0.28680000  0.62660000  1.0 -0.1518814647
C  C64  1  0.57860000  0.88210000  0.85970000  1.0 0.5830906621
C  C65  1  0.60310000  0.84860000  0.81200000  1.0 -0.1230503615
C  C66  1  0.64220000  0.85690000  0.76120000  1.0 -0.0732677253
C  C67  1  0.58770000  0.80290000  0.82550000  1.0 -0.0822631204
C  C68  1  0.66590000  0.81960000  0.72390000  1.0 -0.1938769193
C  C69  1  0.61140000  0.76550000  0.78820000  1.0 -0.1834038803
C  C70  1  0.65050000  0.77390000  0.73740000  1.0 0.0472349343
C  C71  1  0.67470000  0.73410000  0.69470000  1.0 -0.0443044035
C  C72  1  0.65580000  0.71320000  0.62660000  1.0 -0.1518814647
C  C73  1  0.88210000  0.57860000  0.85970000  1.0 0.5830906621
C  C74  1  0.84860000  0.60310000  0.81200000  1.0 -0.1230503615
C  C75  1  0.85690000  0.64220000  0.76120000  1.0 -0.0732677253
C  C76  1  0.80290000  0.58770000  0.82550000  1.0 -0.0822631204
C  C77  1  0.81960000  0.66590000  0.72390000  1.0 -0.1938769193
C  C78  1  0.76550000  0.61140000  0.78820000  1.0 -0.1834038803
C  C79  1  0.77390000  0.65050000  0.73740000  1.0 0.0472349343
C  C80  1  0.73410000  0.67470000  0.69470000  1.0 -0.0443044035
C  C81  1  0.71320000  0.65580000  0.62660000  1.0 -0.1518814647
C  C82  1  0.11790000  0.42140000  0.85970000  1.0 0.5830906621
C  C83  1  0.15140000  0.39690000  0.81200000  1.0 -0.1230503615
C  C84  1  0.14310000  0.35780000  0.76120000  1.0 -0.0732677253
C  C85  1  0.19710000  0.41230000  0.82550000  1.0 -0.0822631204
C  C86  1  0.18040000  0.33410000  0.72390000  1.0 -0.1938769193
C  C87  1  0.23450000  0.38860000  0.78820000  1.0 -0.1834038803
C  C88  1  0.22610000  0.34950000  0.73740000  1.0 0.0472349343
C  C89  1  0.26590000  0.32530000  0.69470000  1.0 -0.0443044035
C  C90  1  0.28680000  0.34420000  0.62660000  1.0 -0.1518814647
C  C91  1  0.57860000  0.11790000  0.85970000  1.0 0.5830906621
C  C92  1  0.60310000  0.15140000  0.81200000  1.0 -0.1230503615
C  C93  1  0.64220000  0.14310000  0.76120000  1.0 -0.0732677253
C  C94  1  0.58770000  0.19710000  0.82550000  1.0 -0.0822631204
C  C95  1  0.66590000  0.18040000  0.72390000  1.0 -0.1938769193
C  C96  1  0.61140000  0.23450000  0.78820000  1.0 -0.1834038803
C  C97  1  0.65050000  0.22610000  0.73740000  1.0 0.0472349343
C  C98  1  0.67470000  0.26590000  0.69470000  1.0 -0.0443044035
C  C99  1  0.65580000  0.28680000  0.62660000  1.0 -0.1518814647
C  C100  1  0.42140000  0.88210000  0.85970000  1.0 0.5830906621
C  C101  1  0.39690000  0.84860000  0.81200000  1.0 -0.1230503615
C  C102  1  0.35780000  0.85690000  0.76120000  1.0 -0.0732677253
C  C103  1  0.41230000  0.80290000  0.82550000  1.0 -0.0822631204
C  C104  1  0.33410000  0.81960000  0.72390000  1.0 -0.1938769193
C  C105  1  0.38860000  0.76550000  0.78820000  1.0 -0.1834038803
C  C106  1  0.34950000  0.77390000  0.73740000  1.0 0.0472349343
C  C107  1  0.32530000  0.73410000  0.69470000  1.0 -0.0443044035
C  C108  1  0.34420000  0.71320000  0.62660000  1.0 -0.1518814647
C  C109  1  0.88210000  0.42140000  0.14030000  1.0 0.5830906621
C  C110  1  0.84860000  0.39690000  0.18800000  1.0 -0.1230503615
C  C111  1  0.85690000  0.35780000  0.23880000  1.0 -0.0732677253
C  C112  1  0.80290000  0.41230000  0.17450000  1.0 -0.0822631204
C  C113  1  0.81960000  0.33410000  0.27610000  1.0 -0.1938769193
C  C114  1  0.76550000  0.38860000  0.21180000  1.0 -0.1834038803
C  C115  1  0.77390000  0.34950000  0.26260000  1.0 0.0472349343
C  C116  1  0.73410000  0.32530000  0.30530000  1.0 -0.0462262733
C  C117  1  0.71320000  0.34420000  0.37340000  1.0 -0.1518814647
C  C118  1  0.11790000  0.57860000  0.14030000  1.0 0.5830906621
C  C119  1  0.15140000  0.60310000  0.18800000  1.0 -0.1230503615
C  C120  1  0.14310000  0.64220000  0.23880000  1.0 -0.0732677253
C  C121  1  0.19710000  0.58770000  0.17450000  1.0 -0.0822631204
C  C122  1  0.18040000  0.66590000  0.27610000  1.0 -0.1938769193
C  C123  1  0.23450000  0.61140000  0.21180000  1.0 -0.1834038803
C  C124  1  0.22610000  0.65050000  0.26260000  1.0 0.0472349343
C  C125  1  0.26590000  0.67470000  0.30530000  1.0 -0.0462262733
C  C126  1  0.28680000  0.65580000  0.37340000  1.0 -0.1518814647
C  C127  1  0.57860000  0.88210000  0.14030000  1.0 0.5830906621
C  C128  1  0.60310000  0.84860000  0.18800000  1.0 -0.1230503615
C  C129  1  0.64220000  0.85690000  0.23880000  1.0 -0.0732677253
C  C130  1  0.58770000  0.80290000  0.17450000  1.0 -0.0822631204
C  C131  1  0.66590000  0.81960000  0.27610000  1.0 -0.1938769193
C  C132  1  0.61140000  0.76550000  0.21180000  1.0 -0.1834038803
C  C133  1  0.65050000  0.77390000  0.26260000  1.0 0.0472349343
C  C134  1  0.67470000  0.73410000  0.30530000  1.0 -0.0462262733
C  C135  1  0.65580000  0.71320000  0.37340000  1.0 -0.1518814647
C  C136  1  0.42140000  0.11790000  0.14030000  1.0 0.5830906621
C  C137  1  0.39690000  0.15140000  0.18800000  1.0 -0.1230503615
C  C138  1  0.35780000  0.14310000  0.23880000  1.0 -0.0732677253
C  C139  1  0.41230000  0.19710000  0.17450000  1.0 -0.0822631204
C  C140  1  0.33410000  0.18040000  0.27610000  1.0 -0.1938769193
C  C141  1  0.38860000  0.23450000  0.21180000  1.0 -0.1834038803
C  C142  1  0.34950000  0.22610000  0.26260000  1.0 0.0472349343
C  C143  1  0.32530000  0.26590000  0.30530000  1.0 -0.0462262733
C  C144  1  0.34420000  0.28680000  0.37340000  1.0 -0.1518814647
C  C145  1  0.28400000  0.28400000  0.26600000  1.0 0.042384732
C  C146  1  0.32940000  0.32940000  0.41800000  1.0 -0.1142203977
C  C147  1  0.71600000  0.71600000  0.26600000  1.0 0.042384732
C  C148  1  0.67060000  0.67060000  0.41800000  1.0 -0.1142203977
C  C149  1  0.28400000  0.71600000  0.26600000  1.0 0.042384732
C  C150  1  0.32940000  0.67060000  0.41800000  1.0 -0.1230503615
C  C151  1  0.71600000  0.28400000  0.26600000  1.0 0.042384732
C  C152  1  0.67060000  0.32940000  0.41800000  1.0 -0.1142203977
C  C153  1  0.28400000  0.71600000  0.73400000  1.0 0.042384732
C  C154  1  0.32940000  0.67060000  0.58200000  1.0 -0.1142203977
C  C155  1  0.71600000  0.28400000  0.73400000  1.0 0.042384732
C  C156  1  0.67060000  0.32940000  0.58200000  1.0 -0.1142203977
C  C157  1  0.28400000  0.28400000  0.73400000  1.0 0.042384732
C  C158  1  0.32940000  0.32940000  0.58200000  1.0 -0.1142203977
C  C159  1  0.71600000  0.71600000  0.73400000  1.0 0.042384732
C  C160  1  0.67060000  0.67060000  0.58200000  1.0 -0.1142203977
S  S1  1  0.35480000  0.35480000  0.50000000  1.0 0.9167753002
S  S2  1  0.64520000  0.64520000  0.50000000  1.0 0.9167753002
S  S3  1  0.35480000  0.64520000  0.50000000  1.0 0.9167753002
S  S4  1  0.64520000  0.35480000  0.50000000  1.0 0.9167753002
N  N1  1  0.26230000  0.26230000  0.20030000  1.0 -0.4775476912
N  N2  1  0.73770000  0.73770000  0.20030000  1.0 -0.4775476912
N  N3  1  0.26230000  0.73770000  0.20030000  1.0 -0.4775476912
N  N4  1  0.73770000  0.26230000  0.20030000  1.0 -0.4775476912
N  N5  1  0.26230000  0.73770000  0.79970000  1.0 -0.4775476912
N  N6  1  0.73770000  0.26230000  0.79970000  1.0 -0.4775476912
N  N7  1  0.26230000  0.26230000  0.79970000  1.0 -0.4775476912
N  N8  1  0.73770000  0.73770000  0.79970000  1.0 -0.4775476912
O  O1  1  0.12470000  0.45170000  0.08460000  1.0 -0.5436380068
O  O2  1  0.07090000  0.41180000  0.15660000  1.0 -0.69301276
O  O3  1  0.87530000  0.54830000  0.08460000  1.0 -0.5436380068
O  O4  1  0.92910000  0.58820000  0.15660000  1.0 -0.69301276
O  O5  1  0.45170000  0.87530000  0.08460000  1.0 -0.5436380068
O  O6  1  0.41180000  0.92910000  0.15660000  1.0 -0.69301276
O  O7  1  0.54830000  0.12470000  0.08460000  1.0 -0.5436380068
O  O8  1  0.58820000  0.07090000  0.15660000  1.0 -0.69301276
O  O9  1  0.12470000  0.54830000  0.91540000  1.0 -0.5436380068
O  O10  1  0.07090000  0.58820000  0.84340000  1.0 -0.69301276
O  O11  1  0.87530000  0.45170000  0.91540000  1.0 -0.5436380068
O  O12  1  0.92910000  0.41180000  0.84340000  1.0 -0.69301276
O  O13  1  0.45170000  0.12470000  0.91540000  1.0 -0.5436380068
O  O14  1  0.41180000  0.07090000  0.84340000  1.0 -0.69301276
O  O15  1  0.54830000  0.87530000  0.91540000  1.0 -0.5436380068
O  O16  1  0.58820000  0.92910000  0.84340000  1.0 -0.69301276
O  O17  1  0.87530000  0.54830000  0.91540000  1.0 -0.5436380068
O  O18  1  0.92910000  0.58820000  0.84340000  1.0 -0.69301276
O  O19  1  0.12470000  0.45170000  0.91540000  1.0 -0.5436380068
O  O20  1  0.07090000  0.41180000  0.84340000  1.0 -0.69301276
O  O21  1  0.54830000  0.12470000  0.91540000  1.0 -0.5436380068
O  O22  1  0.58820000  0.07090000  0.84340000  1.0 -0.69301276
O  O23  1  0.45170000  0.87530000  0.91540000  1.0 -0.5436380068
O  O24  1  0.41180000  0.92910000  0.84340000  1.0 -0.69301276
O  O25  1  0.87530000  0.45170000  0.08460000  1.0 -0.5436380068
O  O26  1  0.92910000  0.41180000  0.15660000  1.0 -0.69301276
O  O27  1  0.12470000  0.54830000  0.08460000  1.0 -0.5436380068
O  O28  1  0.07090000  0.58820000  0.15660000  1.0 -0.69301276
O  O29  1  0.54830000  0.87530000  0.08460000  1.0 -0.5436380068
O  O30  1  0.58820000  0.92910000  0.15660000  1.0 -0.69301276
O  O31  1  0.45170000  0.12470000  0.08460000  1.0 -0.5436380068
O  O32  1  0.41180000  0.07090000  0.15660000  1.0 -0.69301276
O  O33  1  0.04390000  0.50000000  0.11750000  1.0 -1.2037347714
O  O34  1  0.95610000  0.50000000  0.11750000  1.0 -1.2037347714
O  O35  1  0.50000000  0.95610000  0.11750000  1.0 -1.2037347714
O  O36  1  0.50000000  0.04390000  0.11750000  1.0 -1.2037347714
O  O37  1  0.04390000  0.50000000  0.88250000  1.0 -1.2037347714
O  O38  1  0.95610000  0.50000000  0.88250000  1.0 -1.2037347714
O  O39  1  0.50000000  0.04390000  0.88250000  1.0 -1.2037347714
O  O40  1  0.50000000  0.95610000  0.88250000  1.0 -1.2037347714
O  O41  1  0.04360000  0.56180000  0.00000000  1.0 -1.2174569526
O  O42  1  0.95640000  0.43820000  0.00000000  1.0 -1.2174569526
O  O43  1  0.56180000  0.95640000  0.00000000  1.0 -1.2174569526
O  O44  1  0.43820000  0.04360000  0.00000000  1.0 -1.2174569526
O  O45  1  0.04360000  0.43820000  0.00000000  1.0 -1.2174569526
O  O46  1  0.95640000  0.56180000  0.00000000  1.0 -1.2174569526
O  O47  1  0.56180000  0.04360000  0.00000000  1.0 -1.2174569526
O  O48  1  0.43820000  0.95640000  0.00000000  1.0 -1.2174569526
O  O49  1  0.34410000  0.40300000  0.50000000  1.0 -0.5281302864
O  O50  1  0.65590000  0.59700000  0.50000000  1.0 -0.5281302864
O  O51  1  0.40300000  0.65590000  0.50000000  1.0 -0.5281302864
O  O52  1  0.59700000  0.34410000  0.50000000  1.0 -0.5281302864
O  O53  1  0.34410000  0.59700000  0.50000000  1.0 -0.5281302864
O  O54  1  0.65590000  0.40300000  0.50000000  1.0 -0.5281302864
O  O55  1  0.40300000  0.34410000  0.50000000  1.0 -0.5281302864
O  O56  1  0.59700000  0.65590000  0.50000000  1.0 -0.5281302864
