# DDEC6 charges by PACMAN v1.1 (https://github.com/mtap-research/PACMAN-charge/)
data_JAVNIE_ASR_pacman
_symmetry_space_group_name_H-M   'P 1'
_cell_length_a   12.33050000
_cell_length_b   15.50690000
_cell_length_c   15.64120000
_cell_angle_alpha   90.00000000
_cell_angle_beta   90.00000000
_cell_angle_gamma   90.00000000
_symmetry_Int_Tables_number   1
_chemical_formula_structural   Cu3H16C24(N10Cl)2
_chemical_formula_sum   'Cu6 H32 C48 N40 Cl4'
_cell_volume   2990.71991763
_cell_formula_units_Z   2
loop_
 _symmetry_equiv_pos_site_id
 _symmetry_equiv_pos_as_xyz
  1  'x, y, z'
loop_
 _atom_site_type_symbol
 _atom_site_label
 _atom_site_symmetry_multiplicity
 _atom_site_fract_x
 _atom_site_fract_y
 _atom_site_fract_z
 _atom_site_occupancy
 _atom_site_charge
Cu  Cu1  1  0.00000000  0.00000000  0.00000000  1.0 0.5715329473
Cu  Cu2  1  0.50000000  0.50000000  0.50000000  1.0 0.5715329473
Cu  Cu3  1  0.84749000  0.00000000  0.80784000  1.0 0.5245844249
Cu  Cu4  1  0.65251000  0.50000000  0.30784000  1.0 0.5245844249
Cu  Cu5  1  0.34749000  0.50000000  0.69216000  1.0 0.5245844249
Cu  Cu6  1  0.15251000  0.00000000  0.19216000  1.0 0.5245844249
H  H1  1  0.22630000  0.71620000  0.90270000  1.0 0.1507688456
H  H2  1  0.27370000  0.78380000  0.40270000  1.0 0.1507688456
H  H3  1  0.72630000  0.78380000  0.59730000  1.0 0.1507688456
H  H4  1  0.77370000  0.71620000  0.09730000  1.0 0.1507688456
H  H5  1  0.77370000  0.28380000  0.09730000  1.0 0.1507688456
H  H6  1  0.72630000  0.21620000  0.59730000  1.0 0.1507688456
H  H7  1  0.27370000  0.21620000  0.40270000  1.0 0.1507688456
H  H8  1  0.22630000  0.28380000  0.90270000  1.0 0.1507688456
H  H9  1  0.32140000  0.60050000  0.84990000  1.0 0.1080363665
H  H10  1  0.17860000  0.89950000  0.34990000  1.0 0.1080363665
H  H11  1  0.82140000  0.89950000  0.65010000  1.0 0.1080363665
H  H12  1  0.67860000  0.60050000  0.15010000  1.0 0.1080363665
H  H13  1  0.67860000  0.39950000  0.15010000  1.0 0.1080363665
H  H14  1  0.82140000  0.10050000  0.65010000  1.0 0.1080363665
H  H15  1  0.17860000  0.10050000  0.34990000  1.0 0.1080363665
H  H16  1  0.32140000  0.39950000  0.84990000  1.0 0.1080363665
H  H17  1  0.15760000  0.60390000  0.64150000  1.0 0.1181246091
H  H18  1  0.34240000  0.89610000  0.14150000  1.0 0.1181246091
H  H19  1  0.65760000  0.89610000  0.85850000  1.0 0.1181246091
H  H20  1  0.84240000  0.60390000  0.35850000  1.0 0.1181246091
H  H21  1  0.84240000  0.39610000  0.35850000  1.0 0.1181246091
H  H22  1  0.65760000  0.10390000  0.85850000  1.0 0.1181246091
H  H23  1  0.34240000  0.10390000  0.14150000  1.0 0.1181246091
H  H24  1  0.15760000  0.39610000  0.64150000  1.0 0.1181246091
H  H25  1  0.05670000  0.71880000  0.68880000  1.0 0.1422245477
H  H26  1  0.44330000  0.78120000  0.18880000  1.0 0.1422245477
H  H27  1  0.55670000  0.78120000  0.81120000  1.0 0.1422245477
H  H28  1  0.94330000  0.71880000  0.31120000  1.0 0.1422245477
H  H29  1  0.94330000  0.28120000  0.31120000  1.0 0.1422245477
H  H30  1  0.55670000  0.21880000  0.81120000  1.0 0.1422245477
H  H31  1  0.44330000  0.21880000  0.18880000  1.0 0.1422245477
H  H32  1  0.05670000  0.28120000  0.68880000  1.0 0.1422245477
C  C1  1  0.06650000  0.80540000  0.83310000  1.0 0.2301115406
C  C2  1  0.43350000  0.69460000  0.33310000  1.0 0.2301115406
C  C3  1  0.56650000  0.69460000  0.66690000  1.0 0.2301115406
C  C4  1  0.93350000  0.80540000  0.16690000  1.0 0.2301115406
C  C5  1  0.93350000  0.19460000  0.16690000  1.0 0.2301115406
C  C6  1  0.56650000  0.30540000  0.66690000  1.0 0.2301115406
C  C7  1  0.43350000  0.30540000  0.33310000  1.0 0.2301115406
C  C8  1  0.06650000  0.19460000  0.83310000  1.0 0.2301115406
C  C9  1  0.12840000  0.72990000  0.80140000  1.0 0.080821587
C  C10  1  0.37160000  0.77010000  0.30140000  1.0 0.080821587
C  C11  1  0.62840000  0.77010000  0.69860000  1.0 0.080821587
C  C12  1  0.87160000  0.72990000  0.19860000  1.0 0.080821587
C  C13  1  0.87160000  0.27010000  0.19860000  1.0 0.080821587
C  C14  1  0.62840000  0.22990000  0.69860000  1.0 0.080821587
C  C15  1  0.37160000  0.22990000  0.30140000  1.0 0.080821587
C  C16  1  0.12840000  0.27010000  0.80140000  1.0 0.080821587
C  C17  1  0.20980000  0.69430000  0.84890000  1.0 -0.1680468775
C  C18  1  0.29020000  0.80570000  0.34890000  1.0 -0.1680468775
C  C19  1  0.70980000  0.80570000  0.65110000  1.0 -0.1680468775
C  C20  1  0.79020000  0.69430000  0.15110000  1.0 -0.1680468775
C  C21  1  0.79020000  0.30570000  0.15110000  1.0 -0.1680468775
C  C22  1  0.70980000  0.19430000  0.65110000  1.0 -0.1680468775
C  C23  1  0.29020000  0.19430000  0.34890000  1.0 -0.1680468775
C  C24  1  0.20980000  0.30570000  0.84890000  1.0 -0.1680468775
C  C25  1  0.26760000  0.62500000  0.81610000  1.0 0.0683917648
C  C26  1  0.23240000  0.87500000  0.31610000  1.0 0.0683917648
C  C27  1  0.76760000  0.87500000  0.68390000  1.0 0.0683917648
C  C28  1  0.73240000  0.62500000  0.18390000  1.0 0.0683917648
C  C29  1  0.73240000  0.37500000  0.18390000  1.0 0.0683917648
C  C30  1  0.76760000  0.12500000  0.68390000  1.0 0.0683917648
C  C31  1  0.23240000  0.12500000  0.31610000  1.0 0.0683917648
C  C32  1  0.26760000  0.37500000  0.81610000  1.0 0.0683917648
C  C33  1  0.17230000  0.62680000  0.69520000  1.0 0.080821587
C  C34  1  0.32770000  0.87320000  0.19520000  1.0 0.080821587
C  C35  1  0.67230000  0.87320000  0.80480000  1.0 0.080821587
C  C36  1  0.82770000  0.62680000  0.30480000  1.0 0.080821587
C  C37  1  0.82770000  0.37320000  0.30480000  1.0 0.080821587
C  C38  1  0.67230000  0.12680000  0.80480000  1.0 0.080821587
C  C39  1  0.32770000  0.12680000  0.19520000  1.0 0.080821587
C  C40  1  0.17230000  0.37320000  0.69520000  1.0 0.080821587
C  C41  1  0.11060000  0.69590000  0.72360000  1.0 -0.1645447041
C  C42  1  0.38940000  0.80410000  0.22360000  1.0 -0.1645447041
C  C43  1  0.61060000  0.80410000  0.77640000  1.0 -0.1645447041
C  C44  1  0.88940000  0.69590000  0.27640000  1.0 -0.1645447041
C  C45  1  0.88940000  0.30410000  0.27640000  1.0 -0.1645447041
C  C46  1  0.61060000  0.19590000  0.77640000  1.0 -0.1645447041
C  C47  1  0.38940000  0.19590000  0.22360000  1.0 -0.1645447041
C  C48  1  0.11060000  0.30410000  0.72360000  1.0 -0.1645447041
N  N1  1  0.01480000  0.90816000  0.90895000  1.0 -0.0091097879
N  N2  1  0.48520000  0.59184000  0.40895000  1.0 -0.0091097879
N  N3  1  0.51480000  0.59184000  0.59105000  1.0 -0.0091097879
N  N4  1  0.98520000  0.90816000  0.09105000  1.0 -0.0091097879
N  N5  1  0.98520000  0.09184000  0.09105000  1.0 -0.0091097879
N  N6  1  0.51480000  0.40816000  0.59105000  1.0 -0.0091097879
N  N7  1  0.48520000  0.40816000  0.40895000  1.0 -0.0091097879
N  N8  1  0.01480000  0.09184000  0.90895000  1.0 -0.0091097879
N  N9  1  0.96000000  0.90936000  0.83611000  1.0 -0.0341646596
N  N10  1  0.54000000  0.59064000  0.33611000  1.0 -0.0341646596
N  N11  1  0.46000000  0.59064000  0.66389000  1.0 -0.0341646596
N  N12  1  0.04000000  0.90936000  0.16389000  1.0 -0.0341646596
N  N13  1  0.04000000  0.09064000  0.16389000  1.0 -0.0341646596
N  N14  1  0.46000000  0.40936000  0.66389000  1.0 -0.0341646596
N  N15  1  0.54000000  0.40936000  0.33611000  1.0 -0.0341646596
N  N16  1  0.96000000  0.09064000  0.83611000  1.0 -0.0341646596
N  N17  1  0.99130000  0.84487000  0.78680000  1.0 -0.2707723442
N  N18  1  0.50870000  0.65513000  0.28680000  1.0 -0.2707723442
N  N19  1  0.49130000  0.65513000  0.71320000  1.0 -0.2707723442
N  N20  1  0.00870000  0.84487000  0.21320000  1.0 -0.2707723442
N  N21  1  0.00870000  0.15513000  0.21320000  1.0 -0.2707723442
N  N22  1  0.49130000  0.34487000  0.71320000  1.0 -0.2707723442
N  N23  1  0.50870000  0.34487000  0.28680000  1.0 -0.2707723442
N  N24  1  0.99130000  0.15513000  0.78680000  1.0 -0.2707723442
N  N25  1  0.08360000  0.84209000  0.90859000  1.0 -0.2315194185
N  N26  1  0.41640000  0.65791000  0.40859000  1.0 -0.2315194185
N  N27  1  0.58360000  0.65791000  0.59141000  1.0 -0.2315194185
N  N28  1  0.91640000  0.84209000  0.09141000  1.0 -0.2315194185
N  N29  1  0.91640000  0.15791000  0.09141000  1.0 -0.2315194185
N  N30  1  0.58360000  0.34209000  0.59141000  1.0 -0.2315194185
N  N31  1  0.41640000  0.34209000  0.40859000  1.0 -0.2315194185
N  N32  1  0.08360000  0.15791000  0.90859000  1.0 -0.2315194185
N  N33  1  0.25030000  0.59244000  0.74049000  1.0 -0.1914412554
N  N34  1  0.24970000  0.90756000  0.24049000  1.0 -0.1914412554
N  N35  1  0.75030000  0.90756000  0.75951000  1.0 -0.1914412554
N  N36  1  0.74970000  0.59244000  0.25951000  1.0 -0.1914412554
N  N37  1  0.74970000  0.40756000  0.25951000  1.0 -0.1914412554
N  N38  1  0.75030000  0.09244000  0.75951000  1.0 -0.1914412554
N  N39  1  0.24970000  0.09244000  0.24049000  1.0 -0.1914412554
N  N40  1  0.25030000  0.40756000  0.74049000  1.0 -0.1914412554
Cl  Cl1  1  0.78383000  0.00000000  0.96229000  1.0 -0.6297545011
Cl  Cl2  1  0.71617000  0.50000000  0.46229000  1.0 -0.6297545011
Cl  Cl3  1  0.28383000  0.50000000  0.53771000  1.0 -0.6297545011
Cl  Cl4  1  0.21617000  0.00000000  0.03771000  1.0 -0.6297545011
