# DDEC6 charges by PACMAN v1.1 (https://github.com/mtap-research/PACMAN-charge/)
data_JAVSUV_FSR_pacman
_symmetry_space_group_name_H-M   'P 1'
_cell_length_a   9.08970000
_cell_length_b   9.20750000
_cell_length_c   9.29140000
_cell_angle_alpha   103.45400000
_cell_angle_beta   92.70100000
_cell_angle_gamma   89.41100000
_symmetry_Int_Tables_number   1
_chemical_formula_structural   Al3P3O12F
_chemical_formula_sum   'Al6 P6 O24 F2'
_cell_volume   755.44814164
_cell_formula_units_Z   2
loop_
 _symmetry_equiv_pos_site_id
 _symmetry_equiv_pos_as_xyz
  1  'x, y, z'
loop_
 _atom_site_type_symbol
 _atom_site_label
 _atom_site_symmetry_multiplicity
 _atom_site_fract_x
 _atom_site_fract_y
 _atom_site_fract_z
 _atom_site_occupancy
 _atom_site_charge
Al  Al1  1  0.93448000  0.13236000  0.58746000  1.0 1.7318141408
Al  Al2  1  0.06552000  0.86764000  0.41254000  1.0 1.7318141408
Al  Al3  1  0.33965000  0.37442000  0.57431000  1.0 1.7412193961
Al  Al4  1  0.66035000  0.62558000  0.42569000  1.0 1.7412193961
Al  Al5  1  0.88106000  0.60880000  0.84198000  1.0 1.7318141408
Al  Al6  1  0.11894000  0.39120000  0.15802000  1.0 1.7412193961
P  P1  1  0.68693000  0.38131000  0.59715000  1.0 1.5411506442
P  P2  1  0.31307000  0.61869000  0.40285000  1.0 1.5411506442
P  P3  1  0.11726000  0.37208000  0.82308000  1.0 1.545164262
P  P4  1  0.88274000  0.62792000  0.17692000  1.0 1.5411506442
P  P5  1  0.85391000  0.83171000  0.64572000  1.0 1.530501281
P  P6  1  0.14609000  0.16829000  0.35428000  1.0 1.530501281
O  O1  1  0.76164000  0.23205000  0.57013000  1.0 -0.7314483775
O  O2  1  0.23836000  0.76795000  0.42987000  1.0 -0.7314483775
O  O3  1  0.00152000  0.25550000  0.76241000  1.0 -0.7580775721
O  O4  1  0.99848000  0.74450000  0.23759000  1.0 -0.7580775721
O  O5  1  0.84841000  0.00112000  0.68785000  1.0 -0.6918942583
O  O6  1  0.15159000  0.99888000  0.31215000  1.0 -0.6918942583
O  O7  1  0.25286000  0.35710000  0.73030000  1.0 -0.7580775721
O  O8  1  0.74714000  0.64290000  0.26970000  1.0 -0.7580775721
O  O9  1  0.96763000  0.76649000  0.53359000  1.0 -0.7580775721
O  O10  1  0.03237000  0.23351000  0.46641000  1.0 -0.7580775721
O  O11  1  0.05459000  0.52952000  0.83720000  1.0 -0.8037881208
O  O12  1  0.94541000  0.47048000  0.16280000  1.0 -0.8037881208
O  O13  1  0.88200000  0.77719000  0.78965000  1.0 -0.7580775721
O  O14  1  0.11800000  0.22281000  0.21035000  1.0 -0.7580775721
O  O15  1  0.75030000  0.48973000  0.73636000  1.0 -0.8109028888
O  O16  1  0.24970000  0.51027000  0.26364000  1.0 -0.8109028888
O  O17  1  0.52461000  0.36090000  0.62300000  1.0 -0.7847647322
O  O18  1  0.47539000  0.63910000  0.37700000  1.0 -0.7847647322
O  O19  1  0.69690000  0.45210000  0.46377000  1.0 -0.8109028888
O  O20  1  0.30310000  0.54790000  0.53623000  1.0 -0.8109028888
O  O21  1  0.70003000  0.76954000  0.58094000  1.0 -0.8109028888
O  O22  1  0.29997000  0.23046000  0.41906000  1.0 -0.8109028888
O  O23  1  0.17457000  0.35570000  0.97658000  1.0 -0.7746432675
O  O24  1  0.82543000  0.64430000  0.02342000  1.0 -0.7746432675
F  F1  1  0.89425000  0.98585000  0.41624000  1.0 -0.5728019727
F  F2  1  0.10575000  0.01415000  0.58376000  1.0 -0.5728019727
