# DDEC6 charges by PACMAN v1.1 (https://github.com/mtap-research/PACMAN-charge/)
data_JAZTAJ_FSR_pacman
_symmetry_space_group_name_H-M   'P 1'
_cell_length_a   14.07780000
_cell_length_b   14.07780000
_cell_length_c   20.63680000
_cell_angle_alpha   90.00000000
_cell_angle_beta   90.00000000
_cell_angle_gamma   136.93100000
_symmetry_Int_Tables_number   1
_chemical_formula_structural   Zn2H23C10N21O4
_chemical_formula_sum   'Zn8 H92 C40 N84 O16'
_cell_volume   2792.90042201
_cell_formula_units_Z   4
loop_
 _symmetry_equiv_pos_site_id
 _symmetry_equiv_pos_as_xyz
  1  'x, y, z'
loop_
 _atom_site_type_symbol
 _atom_site_label
 _atom_site_symmetry_multiplicity
 _atom_site_fract_x
 _atom_site_fract_y
 _atom_site_fract_z
 _atom_site_occupancy
 _atom_site_charge
Zn  Zn1  1  0.70698000  0.08726000  0.39874000  1.0 0.5658196785
Zn  Zn2  1  0.29302000  0.91274000  0.89874000  1.0 0.5565475516
Zn  Zn3  1  0.08726000  0.70698000  0.10126000  1.0 0.5658196785
Zn  Zn4  1  0.91274000  0.29302000  0.60126000  1.0 0.5658196785
Zn  Zn5  1  0.29302000  0.91274000  0.60126000  1.0 0.5658196785
Zn  Zn6  1  0.70698000  0.08726000  0.10126000  1.0 0.5658196785
Zn  Zn7  1  0.91274000  0.29302000  0.89874000  1.0 0.5658196785
Zn  Zn8  1  0.08726000  0.70698000  0.39874000  1.0 0.5658196785
H  H1  1  0.03642000  0.35912000  0.40185000  1.0 0.3097610963
H  H2  1  0.13256000  0.51174000  0.40855000  1.0 0.2973238421
H  H3  1  0.79509000  0.30893000  0.29054000  1.0 0.0366563048
H  H4  1  0.68815000  0.24715000  0.24195000  1.0 0.0973147681
H  H5  1  0.63745000  0.87963000  0.30699000  1.0 0.1782515638
H  H6  1  0.93218000  0.20114000  0.28602000  1.0 0.1497039968
H  H7  1  0.93044000  0.19362000  0.21398000  1.0 0.1607595129
H  H8  1  0.91973000  0.29735000  0.28600000  1.0 0.1214569179
H  H9  1  0.92438000  0.29386000  0.21400000  1.0 0.1214569179
H  H10  1  0.48082000  0.94992000  0.30621000  1.0 0.0973147681
H  H11  1  0.48827000  0.86357000  0.30647000  1.0 0.1214569179
H  H12  1  0.96358000  0.64088000  0.90185000  1.0 0.3097610963
H  H13  1  0.86744000  0.48826000  0.90855000  1.0 0.2973238421
H  H14  1  0.20491000  0.69107000  0.79054000  1.0 0.0366563048
H  H15  1  0.31185000  0.75285000  0.74195000  1.0 0.0973147681
H  H16  1  0.36255000  0.12037000  0.80699000  1.0 0.1782515638
H  H17  1  0.06782000  0.79886000  0.78602000  1.0 0.1497039968
H  H18  1  0.06956000  0.80638000  0.71398000  1.0 0.1607595129
H  H19  1  0.08027000  0.70265000  0.78600000  1.0 0.1214569179
H  H20  1  0.07562000  0.70614000  0.71400000  1.0 0.1214569179
H  H21  1  0.51918000  0.05008000  0.80621000  1.0 0.0973147681
H  H22  1  0.51173000  0.13643000  0.80647000  1.0 0.1214569179
H  H23  1  0.35912000  0.03642000  0.09815000  1.0 0.3097610963
H  H24  1  0.51174000  0.13256000  0.09145000  1.0 0.2973238421
H  H25  1  0.30893000  0.79509000  0.20946000  1.0 0.0366563048
H  H26  1  0.24715000  0.68815000  0.25805000  1.0 0.0973147681
H  H27  1  0.87963000  0.63745000  0.19301000  1.0 0.1782515638
H  H28  1  0.20114000  0.93218000  0.21398000  1.0 0.1497039968
H  H29  1  0.19362000  0.93044000  0.28602000  1.0 0.1607595129
H  H30  1  0.29735000  0.91973000  0.21400000  1.0 0.1214569179
H  H31  1  0.29386000  0.92438000  0.28600000  1.0 0.1214569179
H  H32  1  0.94992000  0.48082000  0.19379000  1.0 0.0973147681
H  H33  1  0.86357000  0.48827000  0.19353000  1.0 0.1214569179
H  H34  1  0.64088000  0.96358000  0.59815000  1.0 0.3097610963
H  H35  1  0.48826000  0.86744000  0.59145000  1.0 0.2973238421
H  H36  1  0.69107000  0.20491000  0.70946000  1.0 0.0366563048
H  H37  1  0.75285000  0.31185000  0.75805000  1.0 0.0973147681
H  H38  1  0.12037000  0.36255000  0.69301000  1.0 0.1782515638
H  H39  1  0.79886000  0.06782000  0.71398000  1.0 0.1497039968
H  H40  1  0.80638000  0.06956000  0.78602000  1.0 0.1607595129
H  H41  1  0.70265000  0.08027000  0.71400000  1.0 0.1214569179
H  H42  1  0.70614000  0.07562000  0.78600000  1.0 0.1214569179
H  H43  1  0.05008000  0.51918000  0.69379000  1.0 0.0973147681
H  H44  1  0.13643000  0.51173000  0.69353000  1.0 0.1214569179
H  H45  1  0.96358000  0.64088000  0.59815000  1.0 0.3097610963
H  H46  1  0.86744000  0.48826000  0.59145000  1.0 0.2973238421
H  H47  1  0.20491000  0.69107000  0.70946000  1.0 0.0366563048
H  H48  1  0.31185000  0.75285000  0.75805000  1.0 0.0973147681
H  H49  1  0.36255000  0.12037000  0.69301000  1.0 0.1782515638
H  H50  1  0.06782000  0.79886000  0.71398000  1.0 0.1497039968
H  H51  1  0.06956000  0.80638000  0.78602000  1.0 0.1607595129
H  H52  1  0.08027000  0.70265000  0.71400000  1.0 0.1214569179
H  H53  1  0.07562000  0.70614000  0.78600000  1.0 0.1214569179
H  H54  1  0.51918000  0.05008000  0.69379000  1.0 0.0973147681
H  H55  1  0.51173000  0.13643000  0.69353000  1.0 0.1214569179
H  H56  1  0.03642000  0.35912000  0.09815000  1.0 0.3097610963
H  H57  1  0.13256000  0.51174000  0.09145000  1.0 0.2973238421
H  H58  1  0.79509000  0.30893000  0.20946000  1.0 0.0366563048
H  H59  1  0.68815000  0.24715000  0.25805000  1.0 0.0973147681
H  H60  1  0.63745000  0.87963000  0.19301000  1.0 0.1782515638
H  H61  1  0.93218000  0.20114000  0.21398000  1.0 0.1497039968
H  H62  1  0.93044000  0.19362000  0.28602000  1.0 0.1607595129
H  H63  1  0.91973000  0.29735000  0.21400000  1.0 0.1214569179
H  H64  1  0.92438000  0.29386000  0.28600000  1.0 0.1214569179
H  H65  1  0.48082000  0.94992000  0.19379000  1.0 0.0973147681
H  H66  1  0.48827000  0.86357000  0.19353000  1.0 0.1214569179
H  H67  1  0.64088000  0.96358000  0.90185000  1.0 0.3097610963
H  H68  1  0.48826000  0.86744000  0.90855000  1.0 0.2973238421
H  H69  1  0.69107000  0.20491000  0.79054000  1.0 0.0366563048
H  H70  1  0.75285000  0.31185000  0.74195000  1.0 0.0973147681
H  H71  1  0.12037000  0.36255000  0.80699000  1.0 0.1782515638
H  H72  1  0.79886000  0.06782000  0.78602000  1.0 0.1497039968
H  H73  1  0.80638000  0.06956000  0.71398000  1.0 0.1607595129
H  H74  1  0.70265000  0.08027000  0.78600000  1.0 0.1214569179
H  H75  1  0.70614000  0.07562000  0.71400000  1.0 0.1214569179
H  H76  1  0.05008000  0.51918000  0.80621000  1.0 0.0973147681
H  H77  1  0.13643000  0.51173000  0.80647000  1.0 0.1214569179
H  H78  1  0.35912000  0.03642000  0.40185000  1.0 0.3097610963
H  H79  1  0.51174000  0.13256000  0.40855000  1.0 0.2973238421
H  H80  1  0.30893000  0.79509000  0.29054000  1.0 0.0366563048
H  H81  1  0.24715000  0.68815000  0.24195000  1.0 0.0973147681
H  H82  1  0.87963000  0.63745000  0.30699000  1.0 0.1782515638
H  H83  1  0.20114000  0.93218000  0.28602000  1.0 0.1497039968
H  H84  1  0.19362000  0.93044000  0.21398000  1.0 0.1607595129
H  H85  1  0.29735000  0.91973000  0.28600000  1.0 0.1214569179
H  H86  1  0.29386000  0.92438000  0.21400000  1.0 0.1214569179
H  H87  1  0.94992000  0.48082000  0.30621000  1.0 0.0973147681
H  H88  1  0.86357000  0.48827000  0.30647000  1.0 0.1214569179
H  H89  1  0.99801000  0.99801000  0.38808000  1.0 0.127045442
H  H90  1  0.00199000  0.00199000  0.88808000  1.0 0.127045442
H  H91  1  0.99801000  0.99801000  0.11192000  1.0 0.127045442
H  H92  1  0.00199000  0.00199000  0.61192000  1.0 0.127045442
C  C1  1  0.95180000  0.04420000  0.46630000  1.0 -0.0325387301
C  C2  1  0.94082000  0.40678000  0.41580000  1.0 0.3856703703
C  C3  1  0.89494000  0.08506000  0.42870000  1.0 0.5565475516
C  C4  1  0.04820000  0.95580000  0.96630000  1.0 -0.0325387301
C  C5  1  0.05918000  0.59322000  0.91580000  1.0 0.3847929729
C  C6  1  0.10506000  0.91494000  0.92870000  1.0 0.5565475516
C  C7  1  0.04420000  0.95180000  0.03370000  1.0 -0.0325387301
C  C8  1  0.40678000  0.94082000  0.08420000  1.0 0.3856703703
C  C9  1  0.08506000  0.89494000  0.07130000  1.0 0.5565475516
C  C10  1  0.95580000  0.04820000  0.53370000  1.0 -0.0325387301
C  C11  1  0.59322000  0.05918000  0.58420000  1.0 0.3856703703
C  C12  1  0.91494000  0.10506000  0.57130000  1.0 0.5565475516
C  C13  1  0.04820000  0.95580000  0.53370000  1.0 -0.0325387301
C  C14  1  0.05918000  0.59322000  0.58420000  1.0 0.3856703703
C  C15  1  0.10506000  0.91494000  0.57130000  1.0 0.5565475516
C  C16  1  0.95180000  0.04420000  0.03370000  1.0 -0.0325387301
C  C17  1  0.94082000  0.40678000  0.08420000  1.0 0.3856703703
C  C18  1  0.89494000  0.08506000  0.07130000  1.0 0.5565475516
C  C19  1  0.95580000  0.04820000  0.96630000  1.0 -0.0325387301
C  C20  1  0.59322000  0.05918000  0.91580000  1.0 0.3856703703
C  C21  1  0.91494000  0.10506000  0.92870000  1.0 0.5565475516
C  C22  1  0.04420000  0.95180000  0.46630000  1.0 -0.0325387301
C  C23  1  0.40678000  0.94082000  0.41580000  1.0 0.3856703703
C  C24  1  0.08506000  0.89494000  0.42870000  1.0 0.5565475516
C  C25  1  0.99800000  0.99800000  0.43310000  1.0 -0.1558238374
C  C26  1  0.00200000  0.00200000  0.93310000  1.0 -0.1558238374
C  C27  1  0.99800000  0.99800000  0.06690000  1.0 -0.1558238374
C  C28  1  0.00200000  0.00200000  0.56690000  1.0 -0.1558238374
C  C29  1  0.75890000  0.12510000  0.25000000  1.0 0.1497039968
C  C30  1  0.71360000  0.11980000  0.25000000  1.0 0.1497039968
C  C31  1  0.75230000  0.08970000  0.25000000  1.0 0.1782515638
C  C32  1  0.24110000  0.87490000  0.75000000  1.0 0.1497039968
C  C33  1  0.28640000  0.88020000  0.75000000  1.0 0.1497039968
C  C34  1  0.24770000  0.91030000  0.75000000  1.0 0.1782515638
C  C35  1  0.12510000  0.75890000  0.25000000  1.0 0.1497039968
C  C36  1  0.11980000  0.71360000  0.25000000  1.0 0.1497039968
C  C37  1  0.08970000  0.75230000  0.25000000  1.0 0.1782515638
C  C38  1  0.87490000  0.24110000  0.75000000  1.0 0.1497039968
C  C39  1  0.88020000  0.28640000  0.75000000  1.0 0.1497039968
C  C40  1  0.91030000  0.24770000  0.75000000  1.0 0.1782515638
N  N1  1  0.94746000  0.50534000  0.42450000  1.0 -0.3662589895
N  N2  1  0.80848000  0.28252000  0.41550000  1.0 -0.3823379981
N  N3  1  0.68553000  0.05447000  0.30280000  1.0 -0.2115993196
N  N4  1  0.81465000  0.43855000  0.42900000  1.0 -0.0769702396
N  N5  1  0.73182000  0.30698000  0.42350000  1.0 -0.1032049883
N  N6  1  0.04951000  0.42849000  0.40780000  1.0 -0.5949843036
N  N7  1  0.55640000  0.92960000  0.28200000  1.0 -0.0379881092
N  N8  1  0.65410000  0.93990000  0.28240000  1.0 -0.117726508
N  N9  1  0.54960000  0.98500000  0.28160000  1.0 -0.1032049883
N  N10  1  0.05254000  0.49466000  0.92450000  1.0 -0.3662589895
N  N11  1  0.19152000  0.71748000  0.91550000  1.0 -0.3823379981
N  N12  1  0.31447000  0.94553000  0.80280000  1.0 -0.2115993196
N  N13  1  0.18535000  0.56145000  0.92900000  1.0 -0.0769702396
N  N14  1  0.26818000  0.69302000  0.92350000  1.0 -0.1032049883
N  N15  1  0.95049000  0.57151000  0.90780000  1.0 -0.5954025494
N  N16  1  0.44360000  0.07040000  0.78200000  1.0 -0.0379881092
N  N17  1  0.34590000  0.06010000  0.78240000  1.0 -0.117726508
N  N18  1  0.45040000  0.01500000  0.78160000  1.0 -0.1032049883
N  N19  1  0.50534000  0.94746000  0.07550000  1.0 -0.3662589895
N  N20  1  0.28252000  0.80848000  0.08450000  1.0 -0.3823379981
N  N21  1  0.05447000  0.68553000  0.19720000  1.0 -0.2115993196
N  N22  1  0.43855000  0.81465000  0.07100000  1.0 -0.0769702396
N  N23  1  0.30698000  0.73182000  0.07650000  1.0 -0.1032049883
N  N24  1  0.42849000  0.04951000  0.09220000  1.0 -0.5949843036
N  N25  1  0.92960000  0.55640000  0.21800000  1.0 -0.0379881092
N  N26  1  0.93990000  0.65410000  0.21760000  1.0 -0.117726508
N  N27  1  0.98500000  0.54960000  0.21840000  1.0 -0.1032049883
N  N28  1  0.49466000  0.05254000  0.57550000  1.0 -0.3662589895
N  N29  1  0.71748000  0.19152000  0.58450000  1.0 -0.3823379981
N  N30  1  0.94553000  0.31447000  0.69720000  1.0 -0.2115993196
N  N31  1  0.56145000  0.18535000  0.57100000  1.0 -0.0769702396
N  N32  1  0.69302000  0.26818000  0.57650000  1.0 -0.1032049883
N  N33  1  0.57151000  0.95049000  0.59220000  1.0 -0.5954025494
N  N34  1  0.07040000  0.44360000  0.71800000  1.0 -0.0379881092
N  N35  1  0.06010000  0.34590000  0.71760000  1.0 -0.117726508
N  N36  1  0.01500000  0.45040000  0.71840000  1.0 -0.1032049883
N  N37  1  0.05254000  0.49466000  0.57550000  1.0 -0.3662589895
N  N38  1  0.19152000  0.71748000  0.58450000  1.0 -0.3823379981
N  N39  1  0.31447000  0.94553000  0.69720000  1.0 -0.2115993196
N  N40  1  0.18535000  0.56145000  0.57100000  1.0 -0.0769702396
N  N41  1  0.26818000  0.69302000  0.57650000  1.0 -0.1032049883
N  N42  1  0.95049000  0.57151000  0.59220000  1.0 -0.5954025494
N  N43  1  0.44360000  0.07040000  0.71800000  1.0 -0.0379881092
N  N44  1  0.34590000  0.06010000  0.71760000  1.0 -0.117726508
N  N45  1  0.45040000  0.01500000  0.71840000  1.0 -0.1032049883
N  N46  1  0.94746000  0.50534000  0.07550000  1.0 -0.3662589895
N  N47  1  0.80848000  0.28252000  0.08450000  1.0 -0.3823379981
N  N48  1  0.68553000  0.05447000  0.19720000  1.0 -0.2115993196
N  N49  1  0.81465000  0.43855000  0.07100000  1.0 -0.0769702396
N  N50  1  0.73182000  0.30698000  0.07650000  1.0 -0.1032049883
N  N51  1  0.04951000  0.42849000  0.09220000  1.0 -0.5949843036
N  N52  1  0.55640000  0.92960000  0.21800000  1.0 -0.0379881092
N  N53  1  0.65410000  0.93990000  0.21760000  1.0 -0.117726508
N  N54  1  0.54960000  0.98500000  0.21840000  1.0 -0.1032049883
N  N55  1  0.49466000  0.05254000  0.92450000  1.0 -0.3662589895
N  N56  1  0.71748000  0.19152000  0.91550000  1.0 -0.3823379981
N  N57  1  0.94553000  0.31447000  0.80280000  1.0 -0.2115993196
N  N58  1  0.56145000  0.18535000  0.92900000  1.0 -0.0769702396
N  N59  1  0.69302000  0.26818000  0.92350000  1.0 -0.1032049883
N  N60  1  0.57151000  0.95049000  0.90780000  1.0 -0.5954025494
N  N61  1  0.07040000  0.44360000  0.78200000  1.0 -0.0379881092
N  N62  1  0.06010000  0.34590000  0.78240000  1.0 -0.117726508
N  N63  1  0.01500000  0.45040000  0.78160000  1.0 -0.1032049883
N  N64  1  0.50534000  0.94746000  0.42450000  1.0 -0.3662589895
N  N65  1  0.28252000  0.80848000  0.41550000  1.0 -0.3823379981
N  N66  1  0.05447000  0.68553000  0.30280000  1.0 -0.2115993196
N  N67  1  0.43855000  0.81465000  0.42900000  1.0 -0.0769702396
N  N68  1  0.30698000  0.73182000  0.42350000  1.0 -0.1032049883
N  N69  1  0.42849000  0.04951000  0.40780000  1.0 -0.5949843036
N  N70  1  0.92960000  0.55640000  0.28200000  1.0 -0.0379881092
N  N71  1  0.93990000  0.65410000  0.28240000  1.0 -0.117726508
N  N72  1  0.98500000  0.54960000  0.28160000  1.0 -0.1032049883
N  N73  1  0.88110000  0.25290000  0.25000000  1.0 -0.0861963997
N  N74  1  0.75570000  0.24030000  0.25000000  1.0 -0.3214541035
N  N75  1  0.88720000  0.17080000  0.25000000  1.0 -0.199564557
N  N76  1  0.11890000  0.74710000  0.75000000  1.0 -0.0861963997
N  N77  1  0.24430000  0.75970000  0.75000000  1.0 -0.3214541035
N  N78  1  0.11280000  0.82920000  0.75000000  1.0 -0.199564557
N  N79  1  0.25290000  0.88110000  0.25000000  1.0 -0.0861963997
N  N80  1  0.24030000  0.75570000  0.25000000  1.0 -0.3214541035
N  N81  1  0.17080000  0.88720000  0.25000000  1.0 -0.199564557
N  N82  1  0.74710000  0.11890000  0.75000000  1.0 -0.0861963997
N  N83  1  0.75970000  0.24430000  0.75000000  1.0 -0.3214541035
N  N84  1  0.82920000  0.11280000  0.75000000  1.0 -0.199564557
O  O1  1  0.77616000  0.02844000  0.44692000  1.0 -0.5365224289
O  O2  1  0.96220000  0.16800000  0.38316000  1.0 -0.5547306644
O  O3  1  0.22384000  0.97156000  0.94692000  1.0 -0.5365224289
O  O4  1  0.03780000  0.83200000  0.88316000  1.0 -0.5557735669
O  O5  1  0.02844000  0.77616000  0.05308000  1.0 -0.5365224289
O  O6  1  0.16800000  0.96220000  0.11684000  1.0 -0.5557735669
O  O7  1  0.97156000  0.22384000  0.55308000  1.0 -0.5365224289
O  O8  1  0.83200000  0.03780000  0.61684000  1.0 -0.5557735669
O  O9  1  0.22384000  0.97156000  0.55308000  1.0 -0.5365224289
O  O10  1  0.03780000  0.83200000  0.61684000  1.0 -0.5557735669
O  O11  1  0.77616000  0.02844000  0.05308000  1.0 -0.5365224289
O  O12  1  0.96220000  0.16800000  0.11684000  1.0 -0.5547306644
O  O13  1  0.97156000  0.22384000  0.94692000  1.0 -0.5365224289
O  O14  1  0.83200000  0.03780000  0.88316000  1.0 -0.5557735669
O  O15  1  0.02844000  0.77616000  0.44692000  1.0 -0.5365224289
O  O16  1  0.16800000  0.96220000  0.38316000  1.0 -0.5557735669
