# DDEC6 charges by PACMAN v1.1 (https://github.com/mtap-research/PACMAN-charge/)
data_JEDVUM_ASR_pacman
_chemical_formula_sum              "Co4 C36 H12 O24 Li4"
_cell_length_a       13.2669
_cell_length_b       13.2669
_cell_length_c       17.6469
_cell_angle_alpha    90
_cell_angle_beta     90
_cell_angle_gamma    90

_symmetry_space_group_name_H-M    "P 1"
_symmetry_Int_Tables_number       1

loop_
  _symmetry_equiv_pos_as_xyz
  'x, y, z'

loop_
  _atom_site_type_symbol
  _atom_site_label
  _atom_site_symmetry_multiplicity
  _atom_site_fract_x
  _atom_site_fract_y
  _atom_site_fract_z
  _atom_site_occupancy
 _atom_site_charge
Co  Co1       1.0  0.97040  0.81936  0.03911  1.0000 0.938025061
C   C1        1.0  0.91420  0.98530  0.11780  1.0000 0.5892954804
C   C2        1.0  0.90110  0.05060  0.18672  1.0000 -0.0470788072
C   C3        1.0  0.82610  0.12310  0.18790  1.0000 -0.0814945454
H   H1        1.0  0.78320  0.12980  0.14650  1.0000 0.1224323921
O   O1        1.0  0.85880  0.00500  0.06255  1.0000 -0.619633132
O   O2        1.0  0.97690  0.91520  0.12030  1.0000 -0.6132210655
O   O3        1.0  0.75050  0.34130  0.29000  1.0000 -0.619633132
Li  Li1       1.0  0.81936  0.97040  0.96089  1.0000 0.9762322979
Co  Co2       1.0  0.02960  0.18064  0.53911  1.0000 0.9762322979
C   C4        1.0  0.08580  0.01470  0.61780  1.0000 0.5892954804
C   C5        1.0  0.09890  0.94940  0.68672  1.0000 -0.0470788072
C   C6        1.0  0.17390  0.87690  0.68790  1.0000 -0.0814945454
H   H2        1.0  0.21680  0.87020  0.64650  1.0000 0.1224323921
O   O4        1.0  0.14120  0.99500  0.56255  1.0000 -0.619633132
O   O5        1.0  0.02310  0.08480  0.62030  1.0000 -0.6132210655
O   O6        1.0  0.24950  0.65870  0.79000  1.0000 -0.619633132
Li  Li2       1.0  0.18064  0.02960  0.46089  1.0000 0.9762322979
Co  Co3       1.0  0.68064  0.47040  0.28911  1.0000 0.938025061
C   C7        1.0  0.51470  0.41420  0.36780  1.0000 0.5892954804
C   C8        1.0  0.44940  0.40110  0.43672  1.0000 -0.0470788072
C   C9        1.0  0.37690  0.32610  0.43790  1.0000 -0.0814945454
H   H3        1.0  0.37020  0.28320  0.39650  1.0000 0.1224323921
O   O7        1.0  0.49500  0.35880  0.31255  1.0000 -0.619633132
O   O8        1.0  0.58480  0.47690  0.37030  1.0000 -0.6132210655
O   O9        1.0  0.15870  0.25050  0.54000  1.0000 -0.619633132
Li  Li3       1.0  0.52960  0.31936  0.21089  1.0000 0.9762322979
Co  Co4       1.0  0.31936  0.52960  0.78911  1.0000 0.938025061
C   C10       1.0  0.48530  0.58580  0.86780  1.0000 0.5892954804
C   C11       1.0  0.55060  0.59890  0.93672  1.0000 -0.0470788072
C   C12       1.0  0.62310  0.67390  0.93790  1.0000 -0.0814945454
H   H4        1.0  0.62980  0.71680  0.89650  1.0000 0.1224323921
O   O10       1.0  0.50500  0.64120  0.81255  1.0000 -0.619633132
O   O11       1.0  0.41520  0.52310  0.87030  1.0000 -0.6132210655
O   O12       1.0  0.84130  0.74950  0.04000  1.0000 -0.619633132
Li  Li4       1.0  0.47040  0.68064  0.71089  1.0000 0.9762322979
C   C13       1.0  0.58580  0.48530  0.13220  1.0000 0.5892954804
C   C14       1.0  0.59890  0.55060  0.06328  1.0000 -0.0433523165
C   C15       1.0  0.67390  0.62310  0.06210  1.0000 -0.0814945454
H   H5        1.0  0.71680  0.62980  0.10350  1.0000 0.1224323921
O   O13       1.0  0.64120  0.50500  0.18745  1.0000 -0.6606580926
O   O14       1.0  0.52310  0.41520  0.12970  1.0000 -0.5791605128
O   O15       1.0  0.74950  0.84130  0.96000  1.0000 -0.5900488508
C   C16       1.0  0.41420  0.51470  0.63220  1.0000 0.5892954804
C   C17       1.0  0.40110  0.44940  0.56328  1.0000 -0.0433523165
C   C18       1.0  0.32610  0.37690  0.56210  1.0000 -0.0743537893
H   H6        1.0  0.28320  0.37020  0.60350  1.0000 0.1224323921
O   O16       1.0  0.35880  0.49500  0.68745  1.0000 -0.6606580926
O   O17       1.0  0.47690  0.58480  0.62970  1.0000 -0.5791605128
O   O18       1.0  0.25050  0.15870  0.46000  1.0000 -0.5900488508
C   C19       1.0  0.98530  0.91420  0.88220  1.0000 0.5892954804
C   C20       1.0  0.05060  0.90110  0.81328  1.0000 -0.0433523165
C   C21       1.0  0.12310  0.82610  0.81210  1.0000 -0.0743537893
H   H7        1.0  0.12980  0.78320  0.85350  1.0000 0.1224323921
O   O19       1.0  0.00500  0.85880  0.93745  1.0000 -0.6606580926
O   O20       1.0  0.91520  0.97690  0.87970  1.0000 -0.5791605128
O   O21       1.0  0.34130  0.75050  0.71000  1.0000 -0.5900488508
C   C22       1.0  0.01470  0.08580  0.38220  1.0000 0.5892954804
C   C23       1.0  0.94940  0.09890  0.31328  1.0000 -0.0433523165
C   C24       1.0  0.87690  0.17390  0.31210  1.0000 -0.0743537893
H   H8        1.0  0.87020  0.21680  0.35350  1.0000 0.1224323921
O   O22       1.0  0.99500  0.14120  0.43745  1.0000 -0.6606580926
O   O23       1.0  0.08480  0.02310  0.37970  1.0000 -0.5791605128
O   O24       1.0  0.65870  0.24950  0.21000  1.0000 -0.5900488508
C   C25       1.0  0.96280  0.03720  0.25000  1.0000 -0.0814945454
H   H9        1.0  0.01230  0.98770  0.25000  1.0000 0.1224323921
C   C26       1.0  0.81400  0.18600  0.25000  1.0000 -0.0470788072
C   C27       1.0  0.73440  0.26560  0.25000  1.0000 0.5892954804
C   C28       1.0  0.03720  0.96280  0.75000  1.0000 -0.0814945454
H   H10       1.0  0.98770  0.01230  0.75000  1.0000 0.1224323921
C   C29       1.0  0.18600  0.81400  0.75000  1.0000 -0.0470788072
C   C30       1.0  0.26560  0.73440  0.75000  1.0000 0.5892954804
C   C31       1.0  0.46280  0.46280  0.50000  1.0000 -0.0814945454
H   H11       1.0  0.51230  0.51230  0.50000  1.0000 0.1224323921
C   C32       1.0  0.31400  0.31400  0.50000  1.0000 -0.0470788072
C   C33       1.0  0.23440  0.23440  0.50000  1.0000 0.5892954804
C   C34       1.0  0.53720  0.53720  0.00000  1.0000 -0.0814945454
H   H12       1.0  0.48770  0.48770  0.00000  1.0000 0.1224323921
C   C35       1.0  0.68600  0.68600  0.00000  1.0000 -0.0470788072
C   C36       1.0  0.76560  0.76560  0.00000  1.0000 0.5892954804
  Li  Li5       1.0  0.97040  0.81936  0.03911  1.0000
  Co  Co5       1.0  0.81936  0.97040  0.96089  1.0000
  Li  Li6       1.0  0.02960  0.18064  0.53911  1.0000
  Co  Co6       1.0  0.18064  0.02960  0.46089  1.0000
  Li  Li7       1.0  0.68064  0.47040  0.28911  1.0000
  Co  Co7       1.0  0.52960  0.31936  0.21089  1.0000
  Li  Li8       1.0  0.31936  0.52960  0.78911  1.0000
  Co  Co8       1.0  0.47040  0.68064  0.71089  1.0000
