# DDEC6 charges by PACMAN v1.1 (https://github.com/mtap-research/PACMAN-charge/)
data_JEDVOG_ASR_pacman
_symmetry_space_group_name_H-M   'P 1'
_cell_length_a   18.71580000
_cell_length_b   18.71580000
_cell_length_c   18.71580000
_cell_angle_alpha   111.94200000
_cell_angle_beta   111.94200000
_cell_angle_gamma   111.94200000
_symmetry_Int_Tables_number   1
_chemical_formula_structural   Li2CdH4(C3O2)4
_chemical_formula_sum   'Li12 Cd6 H24 C72 O48'
_cell_volume   4526.67069572
_cell_formula_units_Z   6
loop_
 _symmetry_equiv_pos_site_id
 _symmetry_equiv_pos_as_xyz
  1  'x, y, z'
loop_
 _atom_site_type_symbol
 _atom_site_label
 _atom_site_symmetry_multiplicity
 _atom_site_fract_x
 _atom_site_fract_y
 _atom_site_fract_z
 _atom_site_occupancy
 _atom_site_charge
Li  Li1  1  0.60220000  0.94190000  0.39060000  1.0 0.8181212156
Li  Li2  1  0.76630000  0.78750000  0.51380000  1.0 0.8058020879
Li  Li3  1  0.94190000  0.39060000  0.60220000  1.0 0.8181212156
Li  Li4  1  0.78750000  0.51380000  0.76630000  1.0 0.8058020879
Li  Li5  1  0.39060000  0.60220000  0.94190000  1.0 0.8181212156
Li  Li6  1  0.51380000  0.76630000  0.78750000  1.0 0.8058020879
Li  Li7  1  0.10220000  0.89060000  0.44190000  1.0 0.8181212156
Li  Li8  1  0.26630000  0.01380000  0.28750000  1.0 0.8058020879
Li  Li9  1  0.44190000  0.10220000  0.89060000  1.0 0.8181212156
Li  Li10  1  0.28750000  0.26630000  0.01380000  1.0 0.8058020879
Li  Li11  1  0.89060000  0.44190000  0.10220000  1.0 0.8181212156
Li  Li12  1  0.01380000  0.28750000  0.26630000  1.0 0.8058020879
Cd  Cd1  1  0.62865000  0.86320000  0.50813000  1.0 0.992791137
Cd  Cd2  1  0.86320000  0.50813000  0.62865000  1.0 0.992791137
Cd  Cd3  1  0.50813000  0.62865000  0.86320000  1.0 0.992791137
Cd  Cd4  1  0.12865000  0.00813000  0.36320000  1.0 0.992791137
Cd  Cd5  1  0.36320000  0.12865000  0.00813000  1.0 0.992791137
Cd  Cd6  1  0.00813000  0.36320000  0.12865000  1.0 0.992791137
H  H1  1  0.86800000  0.89410000  0.42520000  1.0 0.1141147859
H  H2  1  0.78800000  0.80690000  0.16160000  1.0 0.1269115641
H  H3  1  0.58573000  0.73102000  0.68312000  1.0 0.1047202383
H  H4  1  0.60000000  0.78110000  0.22120000  1.0 0.1141147859
H  H5  1  0.89410000  0.42520000  0.86800000  1.0 0.1150260925
H  H6  1  0.80690000  0.16160000  0.78800000  1.0 0.1269115641
H  H7  1  0.73102000  0.68312000  0.58573000  1.0 0.1047202383
H  H8  1  0.78110000  0.22120000  0.60000000  1.0 0.1141147859
H  H9  1  0.42520000  0.86800000  0.89410000  1.0 0.1150260925
H  H10  1  0.16160000  0.78800000  0.80690000  1.0 0.1269115641
H  H11  1  0.68312000  0.58573000  0.73102000  1.0 0.1047202383
H  H12  1  0.22120000  0.60000000  0.78110000  1.0 0.1141147859
H  H13  1  0.36800000  0.92520000  0.39410000  1.0 0.1150260925
H  H14  1  0.28800000  0.66160000  0.30690000  1.0 0.1269115641
H  H15  1  0.08573000  0.18312000  0.23102000  1.0 0.1047202383
H  H16  1  0.10000000  0.72120000  0.28110000  1.0 0.1141147859
H  H17  1  0.39410000  0.36800000  0.92520000  1.0 0.1150260925
H  H18  1  0.30690000  0.28800000  0.66160000  1.0 0.1269115641
H  H19  1  0.23102000  0.08573000  0.18312000  1.0 0.1047202383
H  H20  1  0.28110000  0.10000000  0.72120000  1.0 0.1141147859
H  H21  1  0.92520000  0.39410000  0.36800000  1.0 0.1141147859
H  H22  1  0.66160000  0.30690000  0.28800000  1.0 0.1269115641
H  H23  1  0.18312000  0.23102000  0.08573000  1.0 0.1047202383
H  H24  1  0.72120000  0.28110000  0.10000000  1.0 0.1141147859
C  C1  1  0.94430000  0.89150000  0.33260000  1.0 0.5886105904
C  C2  1  0.84430000  0.85710000  0.29990000  1.0 -0.0482802632
C  C3  1  0.60200000  0.72870000  0.06820000  1.0 0.5886105904
C  C4  1  0.82190000  0.86830000  0.36240000  1.0 -0.0931071332
C  C5  1  0.68170000  0.78180000  0.17360000  1.0 -0.0374848445
C  C6  1  0.77270000  0.81390000  0.20470000  1.0 -0.0931071332
C  C7  1  0.64090000  0.76500000  0.58250000  1.0 0.5711978882
C  C8  1  0.70760000  0.85630000  0.40470000  1.0 0.5966386606
C  C9  1  0.61610000  0.70260000  0.67390000  1.0 -0.0967769539
C  C10  1  0.73080000  0.84160000  0.33350000  1.0 -0.0668980663
C  C11  1  0.66110000  0.79890000  0.24040000  1.0 -0.0967769539
C  C12  1  0.65210000  0.71150000  0.62390000  1.0 -0.0482802632
C  C13  1  0.89150000  0.33260000  0.94430000  1.0 0.5886105904
C  C14  1  0.85710000  0.29990000  0.84430000  1.0 -0.0482802632
C  C15  1  0.72870000  0.06820000  0.60200000  1.0 0.5886105904
C  C16  1  0.86830000  0.36240000  0.82190000  1.0 -0.0931071332
C  C17  1  0.78180000  0.17360000  0.68170000  1.0 -0.0374848445
C  C18  1  0.81390000  0.20470000  0.77270000  1.0 -0.0931071332
C  C19  1  0.76500000  0.58250000  0.64090000  1.0 0.5711978882
C  C20  1  0.85630000  0.40470000  0.70760000  1.0 0.5966386606
C  C21  1  0.70260000  0.67390000  0.61610000  1.0 -0.0967769539
C  C22  1  0.84160000  0.33350000  0.73080000  1.0 -0.0668980663
C  C23  1  0.79890000  0.24040000  0.66110000  1.0 -0.0967769539
C  C24  1  0.71150000  0.62390000  0.65210000  1.0 -0.0482802632
C  C25  1  0.33260000  0.94430000  0.89150000  1.0 0.5886105904
C  C26  1  0.29990000  0.84430000  0.85710000  1.0 -0.0482802632
C  C27  1  0.06820000  0.60200000  0.72870000  1.0 0.5886105904
C  C28  1  0.36240000  0.82190000  0.86830000  1.0 -0.0931071332
C  C29  1  0.17360000  0.68170000  0.78180000  1.0 -0.0374848445
C  C30  1  0.20470000  0.77270000  0.81390000  1.0 -0.0931071332
C  C31  1  0.58250000  0.64090000  0.76500000  1.0 0.5711978882
C  C32  1  0.40470000  0.70760000  0.85630000  1.0 0.5966386606
C  C33  1  0.67390000  0.61610000  0.70260000  1.0 -0.0967769539
C  C34  1  0.33350000  0.73080000  0.84160000  1.0 -0.0668980663
C  C35  1  0.24040000  0.66110000  0.79890000  1.0 -0.0967769539
C  C36  1  0.62390000  0.65210000  0.71150000  1.0 -0.0482802632
C  C37  1  0.44430000  0.83260000  0.39150000  1.0 0.5886105904
C  C38  1  0.34430000  0.79990000  0.35710000  1.0 -0.0482802632
C  C39  1  0.10200000  0.56820000  0.22870000  1.0 0.5886105904
C  C40  1  0.32190000  0.86240000  0.36830000  1.0 -0.0931071332
C  C41  1  0.18170000  0.67360000  0.28180000  1.0 -0.0374848445
C  C42  1  0.27270000  0.70470000  0.31390000  1.0 -0.0931071332
C  C43  1  0.14090000  0.08250000  0.26500000  1.0 0.5711978882
C  C44  1  0.20760000  0.90470000  0.35630000  1.0 0.5966386606
C  C45  1  0.11610000  0.17390000  0.20260000  1.0 -0.0967769539
C  C46  1  0.23080000  0.83350000  0.34160000  1.0 -0.0668980663
C  C47  1  0.16110000  0.74040000  0.29890000  1.0 -0.0967769539
C  C48  1  0.15210000  0.12390000  0.21150000  1.0 -0.0482802632
C  C49  1  0.39150000  0.44430000  0.83260000  1.0 0.5886105904
C  C50  1  0.35710000  0.34430000  0.79990000  1.0 -0.0482802632
C  C51  1  0.22870000  0.10200000  0.56820000  1.0 0.5886105904
C  C52  1  0.36830000  0.32190000  0.86240000  1.0 -0.0931071332
C  C53  1  0.28180000  0.18170000  0.67360000  1.0 -0.0374848445
C  C54  1  0.31390000  0.27270000  0.70470000  1.0 -0.0931071332
C  C55  1  0.26500000  0.14090000  0.08250000  1.0 0.5711978882
C  C56  1  0.35630000  0.20760000  0.90470000  1.0 0.5966386606
C  C57  1  0.20260000  0.11610000  0.17390000  1.0 -0.0967769539
C  C58  1  0.34160000  0.23080000  0.83350000  1.0 -0.0668980663
C  C59  1  0.29890000  0.16110000  0.74040000  1.0 -0.0967769539
C  C60  1  0.21150000  0.15210000  0.12390000  1.0 -0.0482802632
C  C61  1  0.83260000  0.39150000  0.44430000  1.0 0.5886105904
C  C62  1  0.79990000  0.35710000  0.34430000  1.0 -0.0482802632
C  C63  1  0.56820000  0.22870000  0.10200000  1.0 0.5886105904
C  C64  1  0.86240000  0.36830000  0.32190000  1.0 -0.0931071332
C  C65  1  0.67360000  0.28180000  0.18170000  1.0 -0.0374848445
C  C66  1  0.70470000  0.31390000  0.27270000  1.0 -0.0931071332
C  C67  1  0.08250000  0.26500000  0.14090000  1.0 0.5711978882
C  C68  1  0.90470000  0.35630000  0.20760000  1.0 0.5966386606
C  C69  1  0.17390000  0.20260000  0.11610000  1.0 -0.0967769539
C  C70  1  0.83350000  0.34160000  0.23080000  1.0 -0.0668980663
C  C71  1  0.74040000  0.29890000  0.16110000  1.0 -0.0967769539
C  C72  1  0.12390000  0.21150000  0.15210000  1.0 -0.0482802632
O  O1  1  0.99230000  0.88890000  0.39640000  1.0 -0.6532151746
O  O2  1  0.62948000  0.84412000  0.37950000  1.0 -0.6277287096
O  O3  1  0.97306000  0.92282000  0.29322000  1.0 -0.556160012
O  O4  1  0.52245000  0.70575000  0.04620000  1.0 -0.6448892147
O  O5  1  0.67079000  0.76915000  0.53436000  1.0 -0.6675490529
O  O6  1  0.62459000  0.71370000  0.01261000  1.0 -0.5443784386
O  O7  1  0.60668000  0.80702000  0.60110000  1.0 -0.518492499
O  O8  1  0.76352000  0.87844000  0.48264000  1.0 -0.6277287096
O  O9  1  0.88890000  0.39640000  0.99230000  1.0 -0.6532151746
O  O10  1  0.84412000  0.37950000  0.62948000  1.0 -0.6277287096
O  O11  1  0.92282000  0.29322000  0.97306000  1.0 -0.556160012
O  O12  1  0.70575000  0.04620000  0.52245000  1.0 -0.6532151746
O  O13  1  0.76915000  0.53436000  0.67079000  1.0 -0.6675490529
O  O14  1  0.71370000  0.01261000  0.62459000  1.0 -0.5443784386
O  O15  1  0.80702000  0.60110000  0.60668000  1.0 -0.518492499
O  O16  1  0.87844000  0.48264000  0.76352000  1.0 -0.6277287096
O  O17  1  0.39640000  0.99230000  0.88890000  1.0 -0.6532151746
O  O18  1  0.37950000  0.62948000  0.84412000  1.0 -0.6277287096
O  O19  1  0.29322000  0.97306000  0.92282000  1.0 -0.556160012
O  O20  1  0.04620000  0.52245000  0.70575000  1.0 -0.6448892147
O  O21  1  0.53436000  0.67079000  0.76915000  1.0 -0.6675490529
O  O22  1  0.01261000  0.62459000  0.71370000  1.0 -0.5443784386
O  O23  1  0.60110000  0.60668000  0.80702000  1.0 -0.518492499
O  O24  1  0.48264000  0.76352000  0.87844000  1.0 -0.6277287096
O  O25  1  0.49230000  0.89640000  0.38890000  1.0 -0.6532151746
O  O26  1  0.12948000  0.87950000  0.34412000  1.0 -0.6277287096
O  O27  1  0.47306000  0.79322000  0.42282000  1.0 -0.556160012
O  O28  1  0.02245000  0.54620000  0.20575000  1.0 -0.6448892147
O  O29  1  0.17079000  0.03436000  0.26915000  1.0 -0.6675490529
O  O30  1  0.12459000  0.51261000  0.21370000  1.0 -0.5443784386
O  O31  1  0.10668000  0.10110000  0.30702000  1.0 -0.518492499
O  O32  1  0.26352000  0.98264000  0.37844000  1.0 -0.6277287096
O  O33  1  0.38890000  0.49230000  0.89640000  1.0 -0.6532151746
O  O34  1  0.34412000  0.12948000  0.87950000  1.0 -0.6277287096
O  O35  1  0.42282000  0.47306000  0.79322000  1.0 -0.556160012
O  O36  1  0.20575000  0.02245000  0.54620000  1.0 -0.6448892147
O  O37  1  0.26915000  0.17079000  0.03436000  1.0 -0.6675490529
O  O38  1  0.21370000  0.12459000  0.51261000  1.0 -0.5443784386
O  O39  1  0.30702000  0.10668000  0.10110000  1.0 -0.518492499
O  O40  1  0.37844000  0.26352000  0.98264000  1.0 -0.6277287096
O  O41  1  0.89640000  0.38890000  0.49230000  1.0 -0.6532151746
O  O42  1  0.87950000  0.34412000  0.12948000  1.0 -0.6277287096
O  O43  1  0.79322000  0.42282000  0.47306000  1.0 -0.556160012
O  O44  1  0.54620000  0.20575000  0.02245000  1.0 -0.6448892147
O  O45  1  0.03436000  0.26915000  0.17079000  1.0 -0.6675490529
O  O46  1  0.51261000  0.21370000  0.12459000  1.0 -0.5443784386
O  O47  1  0.10110000  0.30702000  0.10668000  1.0 -0.518492499
O  O48  1  0.98264000  0.37844000  0.26352000  1.0 -0.6277287096
