# DDEC6 charges by PACMAN v1.1 (https://github.com/mtap-research/PACMAN-charge/)
data_JEPXAH_FSR_pacman
_symmetry_space_group_name_H-M   'P 1'
_cell_length_a   18.95270000
_cell_length_b   18.95270000
_cell_length_c   16.48500000
_cell_angle_alpha   90.00000000
_cell_angle_beta   90.00000000
_cell_angle_gamma   120.00000000
_symmetry_Int_Tables_number   1
_chemical_formula_structural   Cu2H13(C3O2)6
_chemical_formula_sum   'Cu12 H78 C108 O72'
_cell_volume   5128.16227750
_cell_formula_units_Z   6
loop_
 _symmetry_equiv_pos_site_id
 _symmetry_equiv_pos_as_xyz
  1  'x, y, z'
loop_
 _atom_site_type_symbol
 _atom_site_label
 _atom_site_symmetry_multiplicity
 _atom_site_fract_x
 _atom_site_fract_y
 _atom_site_fract_z
 _atom_site_occupancy
 _atom_site_charge
Cu  Cu1  1  0.47956000  0.95912000  0.93099000  1.0 0.8572281134
Cu  Cu2  1  0.47956000  0.52044000  0.93099000  1.0 0.8572281134
Cu  Cu3  1  0.04088000  0.52044000  0.93099000  1.0 0.8572281134
Cu  Cu4  1  0.52044000  0.04088000  0.43099000  1.0 0.8572281134
Cu  Cu5  1  0.52044000  0.47956000  0.43099000  1.0 0.8572281134
Cu  Cu6  1  0.95912000  0.47956000  0.43099000  1.0 0.8572281134
Cu  Cu7  1  0.52044000  0.04088000  0.06901000  1.0 0.8572281134
Cu  Cu8  1  0.95912000  0.47956000  0.06901000  1.0 0.8572281134
Cu  Cu9  1  0.52044000  0.47956000  0.06901000  1.0 0.8572281134
Cu  Cu10  1  0.47956000  0.95912000  0.56901000  1.0 0.8572281134
Cu  Cu11  1  0.04088000  0.52044000  0.56901000  1.0 0.8572281134
Cu  Cu12  1  0.47956000  0.52044000  0.56901000  1.0 0.8572281134
H  H1  1  0.27805000  0.93330000  0.16613000  1.0 0.1332651657
H  H2  1  0.04408000  0.85873000  0.27479000  1.0 0.2000535075
H  H3  1  0.65525000  0.72195000  0.16613000  1.0 0.1332651657
H  H4  1  0.81465000  0.95592000  0.27479000  1.0 0.2000535075
H  H5  1  0.06670000  0.34475000  0.16613000  1.0 0.1332651657
H  H6  1  0.14127000  0.18535000  0.27479000  1.0 0.2000535075
H  H7  1  0.72195000  0.06670000  0.66613000  1.0 0.1332651657
H  H8  1  0.95592000  0.14127000  0.77479000  1.0 0.2000535075
H  H9  1  0.34475000  0.27805000  0.66613000  1.0 0.1332651657
H  H10  1  0.18535000  0.04408000  0.77479000  1.0 0.2000535075
H  H11  1  0.93330000  0.65525000  0.66613000  1.0 0.1332651657
H  H12  1  0.85873000  0.81465000  0.77479000  1.0 0.2000535075
H  H13  1  0.34475000  0.06670000  0.83387000  1.0 0.1332651657
H  H14  1  0.18535000  0.14127000  0.72521000  1.0 0.2000535075
H  H15  1  0.93330000  0.27805000  0.83387000  1.0 0.1332651657
H  H16  1  0.85873000  0.04408000  0.72521000  1.0 0.2000535075
H  H17  1  0.72195000  0.65525000  0.83387000  1.0 0.1332651657
H  H18  1  0.95592000  0.81465000  0.72521000  1.0 0.2000535075
H  H19  1  0.65525000  0.93330000  0.33387000  1.0 0.1332651657
H  H20  1  0.81465000  0.85873000  0.22521000  1.0 0.2000535075
H  H21  1  0.06670000  0.72195000  0.33387000  1.0 0.1332651657
H  H22  1  0.14127000  0.95592000  0.22521000  1.0 0.2000535075
H  H23  1  0.27805000  0.34475000  0.33387000  1.0 0.1332651657
H  H24  1  0.04408000  0.18535000  0.22521000  1.0 0.2000535075
H  H25  1  0.72195000  0.06670000  0.83387000  1.0 0.1332651657
H  H26  1  0.95592000  0.14127000  0.72521000  1.0 0.2000535075
H  H27  1  0.34475000  0.27805000  0.83387000  1.0 0.1332651657
H  H28  1  0.18535000  0.04408000  0.72521000  1.0 0.2000535075
H  H29  1  0.93330000  0.65525000  0.83387000  1.0 0.1332651657
H  H30  1  0.85873000  0.81465000  0.72521000  1.0 0.2000535075
H  H31  1  0.27805000  0.93330000  0.33387000  1.0 0.1332651657
H  H32  1  0.04408000  0.85873000  0.22521000  1.0 0.2000535075
H  H33  1  0.65525000  0.72195000  0.33387000  1.0 0.1332651657
H  H34  1  0.81465000  0.95592000  0.22521000  1.0 0.2000535075
H  H35  1  0.06670000  0.34475000  0.33387000  1.0 0.1332651657
H  H36  1  0.14127000  0.18535000  0.22521000  1.0 0.2000535075
H  H37  1  0.65525000  0.93330000  0.16613000  1.0 0.1332651657
H  H38  1  0.81465000  0.85873000  0.27479000  1.0 0.2000535075
H  H39  1  0.06670000  0.72195000  0.16613000  1.0 0.1332651657
H  H40  1  0.14127000  0.95592000  0.27479000  1.0 0.2000535075
H  H41  1  0.27805000  0.34475000  0.16613000  1.0 0.1332651657
H  H42  1  0.04408000  0.18535000  0.27479000  1.0 0.2000535075
H  H43  1  0.34475000  0.06670000  0.66613000  1.0 0.1332651657
H  H44  1  0.18535000  0.14127000  0.77479000  1.0 0.2000535075
H  H45  1  0.93330000  0.27805000  0.66613000  1.0 0.1332651657
H  H46  1  0.85873000  0.04408000  0.77479000  1.0 0.2000535075
H  H47  1  0.72195000  0.65525000  0.66613000  1.0 0.1332651657
H  H48  1  0.95592000  0.81465000  0.77479000  1.0 0.2000535075
H  H49  1  0.49441000  0.98882000  0.75000000  1.0 0.1506093573
H  H50  1  0.49441000  0.50559000  0.75000000  1.0 0.1506093573
H  H51  1  0.01118000  0.50559000  0.75000000  1.0 0.1506093573
H  H52  1  0.50559000  0.01118000  0.25000000  1.0 0.1506093573
H  H53  1  0.50559000  0.49441000  0.25000000  1.0 0.1506093573
H  H54  1  0.98882000  0.49441000  0.25000000  1.0 0.1506093573
H  H55  1  0.23926000  0.76074000  0.00250000  1.0 0.1506093573
H  H56  1  0.52148000  0.76074000  0.00250000  1.0 0.1506093573
H  H57  1  0.23926000  0.47852000  0.00250000  1.0 0.1506093573
H  H58  1  0.76074000  0.23926000  0.50250000  1.0 0.1506093573
H  H59  1  0.47852000  0.23926000  0.50250000  1.0 0.1506093573
H  H60  1  0.76074000  0.52148000  0.50250000  1.0 0.1506093573
H  H61  1  0.47852000  0.23926000  0.99750000  1.0 0.1506093573
H  H62  1  0.76074000  0.23926000  0.99750000  1.0 0.1506093573
H  H63  1  0.76074000  0.52148000  0.99750000  1.0 0.1506093573
H  H64  1  0.52148000  0.76074000  0.49750000  1.0 0.1506093573
H  H65  1  0.23926000  0.76074000  0.49750000  1.0 0.1506093573
H  H66  1  0.23926000  0.47852000  0.49750000  1.0 0.1506093573
H  H67  1  0.16401000  0.92370000  0.25000000  1.0 6.98123e-05
H  H68  1  0.75969000  0.83599000  0.25000000  1.0 6.98123e-05
H  H69  1  0.07630000  0.24031000  0.25000000  1.0 6.98123e-05
H  H70  1  0.83599000  0.07630000  0.75000000  1.0 6.98123e-05
H  H71  1  0.24031000  0.16401000  0.75000000  1.0 6.98123e-05
H  H72  1  0.92370000  0.75969000  0.75000000  1.0 6.98123e-05
H  H73  1  0.24031000  0.07630000  0.75000000  1.0 6.98123e-05
H  H74  1  0.92370000  0.16401000  0.75000000  1.0 6.98123e-05
H  H75  1  0.83599000  0.75969000  0.75000000  1.0 6.98123e-05
H  H76  1  0.75969000  0.92370000  0.25000000  1.0 6.98123e-05
H  H77  1  0.07630000  0.83599000  0.25000000  1.0 6.98123e-05
H  H78  1  0.16401000  0.24031000  0.25000000  1.0 6.98123e-05
C  C1  1  0.35720000  0.90610000  0.04980000  1.0 0.5861695316
C  C2  1  0.27240000  0.85400000  0.08120000  1.0 -0.0112000824
C  C3  1  0.24480000  0.88140000  0.14490000  1.0 -0.1453683065
C  C4  1  0.54890000  0.64280000  0.04980000  1.0 0.5861695316
C  C5  1  0.58160000  0.72760000  0.08120000  1.0 -0.0112000824
C  C6  1  0.63660000  0.75520000  0.14490000  1.0 -0.1453683065
C  C7  1  0.09390000  0.45110000  0.04980000  1.0 0.5861695316
C  C8  1  0.14600000  0.41840000  0.08120000  1.0 -0.0112000824
C  C9  1  0.11860000  0.36340000  0.14490000  1.0 -0.1453683065
C  C10  1  0.64280000  0.09390000  0.54980000  1.0 0.5861695316
C  C11  1  0.72760000  0.14600000  0.58120000  1.0 -0.0112000824
C  C12  1  0.75520000  0.11860000  0.64490000  1.0 -0.1453683065
C  C13  1  0.45110000  0.35720000  0.54980000  1.0 0.5861695316
C  C14  1  0.41840000  0.27240000  0.58120000  1.0 -0.0112000824
C  C15  1  0.36340000  0.24480000  0.64490000  1.0 -0.1453683065
C  C16  1  0.90610000  0.54890000  0.54980000  1.0 0.5861695316
C  C17  1  0.85400000  0.58160000  0.58120000  1.0 -0.0112000824
C  C18  1  0.88140000  0.63660000  0.64490000  1.0 -0.1453683065
C  C19  1  0.45110000  0.09390000  0.95020000  1.0 0.5861695316
C  C20  1  0.41840000  0.14600000  0.91880000  1.0 -0.0112000824
C  C21  1  0.36340000  0.11860000  0.85510000  1.0 -0.1453683065
C  C22  1  0.90610000  0.35720000  0.95020000  1.0 0.5861695316
C  C23  1  0.85400000  0.27240000  0.91880000  1.0 -0.0112000824
C  C24  1  0.88140000  0.24480000  0.85510000  1.0 -0.1453683065
C  C25  1  0.64280000  0.54890000  0.95020000  1.0 0.5861695316
C  C26  1  0.72760000  0.58160000  0.91880000  1.0 -0.0112000824
C  C27  1  0.75520000  0.63660000  0.85510000  1.0 -0.1453683065
C  C28  1  0.54890000  0.90610000  0.45020000  1.0 0.5861695316
C  C29  1  0.58160000  0.85400000  0.41880000  1.0 -0.0112000824
C  C30  1  0.63660000  0.88140000  0.35510000  1.0 -0.1453683065
C  C31  1  0.09390000  0.64280000  0.45020000  1.0 0.5861695316
C  C32  1  0.14600000  0.72760000  0.41880000  1.0 -0.0112000824
C  C33  1  0.11860000  0.75520000  0.35510000  1.0 -0.1453683065
C  C34  1  0.35720000  0.45110000  0.45020000  1.0 0.5861695316
C  C35  1  0.27240000  0.41840000  0.41880000  1.0 -0.0112000824
C  C36  1  0.24480000  0.36340000  0.35510000  1.0 -0.1453683065
C  C37  1  0.64280000  0.09390000  0.95020000  1.0 0.5861695316
C  C38  1  0.72760000  0.14600000  0.91880000  1.0 -0.0112000824
C  C39  1  0.75520000  0.11860000  0.85510000  1.0 -0.1453683065
C  C40  1  0.45110000  0.35720000  0.95020000  1.0 0.5861695316
C  C41  1  0.41840000  0.27240000  0.91880000  1.0 -0.0112000824
C  C42  1  0.36340000  0.24480000  0.85510000  1.0 -0.1453683065
C  C43  1  0.90610000  0.54890000  0.95020000  1.0 0.5861695316
C  C44  1  0.85400000  0.58160000  0.91880000  1.0 -0.0112000824
C  C45  1  0.88140000  0.63660000  0.85510000  1.0 -0.1453683065
C  C46  1  0.35720000  0.90610000  0.45020000  1.0 0.5861695316
C  C47  1  0.27240000  0.85400000  0.41880000  1.0 -0.0112000824
C  C48  1  0.24480000  0.88140000  0.35510000  1.0 -0.1453683065
C  C49  1  0.54890000  0.64280000  0.45020000  1.0 0.5861695316
C  C50  1  0.58160000  0.72760000  0.41880000  1.0 -0.0112000824
C  C51  1  0.63660000  0.75520000  0.35510000  1.0 -0.1453683065
C  C52  1  0.09390000  0.45110000  0.45020000  1.0 0.5861695316
C  C53  1  0.14600000  0.41840000  0.41880000  1.0 -0.0112000824
C  C54  1  0.11860000  0.36340000  0.35510000  1.0 -0.1453683065
C  C55  1  0.54890000  0.90610000  0.04980000  1.0 0.5861695316
C  C56  1  0.58160000  0.85400000  0.08120000  1.0 -0.0112000824
C  C57  1  0.63660000  0.88140000  0.14490000  1.0 -0.1453683065
C  C58  1  0.09390000  0.64280000  0.04980000  1.0 0.5861695316
C  C59  1  0.14600000  0.72760000  0.08120000  1.0 -0.0112000824
C  C60  1  0.11860000  0.75520000  0.14490000  1.0 -0.1453683065
C  C61  1  0.35720000  0.45110000  0.04980000  1.0 0.5861695316
C  C62  1  0.27240000  0.41840000  0.08120000  1.0 -0.0112000824
C  C63  1  0.24480000  0.36340000  0.14490000  1.0 -0.1453683065
C  C64  1  0.45110000  0.09390000  0.54980000  1.0 0.5861695316
C  C65  1  0.41840000  0.14600000  0.58120000  1.0 -0.0112000824
C  C66  1  0.36340000  0.11860000  0.64490000  1.0 -0.1453683065
C  C67  1  0.90610000  0.35720000  0.54980000  1.0 0.5861695316
C  C68  1  0.85400000  0.27240000  0.58120000  1.0 -0.0112000824
C  C69  1  0.88140000  0.24480000  0.64490000  1.0 -0.1453683065
C  C70  1  0.64280000  0.54890000  0.54980000  1.0 0.5861695316
C  C71  1  0.72760000  0.58160000  0.58120000  1.0 -0.0112000824
C  C72  1  0.75520000  0.63660000  0.64490000  1.0 -0.1453683065
C  C73  1  0.46620000  0.93240000  0.75000000  1.0 0.522949808
C  C74  1  0.46620000  0.53380000  0.75000000  1.0 0.522949808
C  C75  1  0.06760000  0.53380000  0.75000000  1.0 0.522949808
C  C76  1  0.53380000  0.06760000  0.25000000  1.0 0.522949808
C  C77  1  0.53380000  0.46620000  0.25000000  1.0 0.522949808
C  C78  1  0.93240000  0.46620000  0.25000000  1.0 0.522949808
C  C79  1  0.22265000  0.77735000  0.04790000  1.0 -0.1234122545
C  C80  1  0.16685000  0.83315000  0.17590000  1.0 0.0349051562
C  C81  1  0.55470000  0.77735000  0.04790000  1.0 -0.1234122545
C  C82  1  0.66630000  0.83315000  0.17590000  1.0 0.0356769832
C  C83  1  0.22265000  0.44530000  0.04790000  1.0 -0.1234122545
C  C84  1  0.16685000  0.33370000  0.17590000  1.0 0.0356769832
C  C85  1  0.77735000  0.22265000  0.54790000  1.0 -0.1234122545
C  C86  1  0.83315000  0.16685000  0.67590000  1.0 0.0356769832
C  C87  1  0.44530000  0.22265000  0.54790000  1.0 -0.1234122545
C  C88  1  0.33370000  0.16685000  0.67590000  1.0 0.0356769832
C  C89  1  0.77735000  0.55470000  0.54790000  1.0 -0.1234122545
C  C90  1  0.83315000  0.66630000  0.67590000  1.0 0.0356769832
C  C91  1  0.44530000  0.22265000  0.95210000  1.0 -0.1234122545
C  C92  1  0.33370000  0.16685000  0.82410000  1.0 0.0356769832
C  C93  1  0.77735000  0.22265000  0.95210000  1.0 -0.1234122545
C  C94  1  0.83315000  0.16685000  0.82410000  1.0 0.0356769832
C  C95  1  0.77735000  0.55470000  0.95210000  1.0 -0.1234122545
C  C96  1  0.83315000  0.66630000  0.82410000  1.0 0.0356769832
C  C97  1  0.55470000  0.77735000  0.45210000  1.0 -0.1234122545
C  C98  1  0.66630000  0.83315000  0.32410000  1.0 0.0349051562
C  C99  1  0.22265000  0.77735000  0.45210000  1.0 -0.1234122545
C  C100  1  0.16685000  0.83315000  0.32410000  1.0 0.0349051562
C  C101  1  0.22265000  0.44530000  0.45210000  1.0 -0.1234122545
C  C102  1  0.16685000  0.33370000  0.32410000  1.0 0.0349051562
C  C103  1  0.13940000  0.86060000  0.25000000  1.0 0.1862267237
C  C104  1  0.72120000  0.86060000  0.25000000  1.0 0.1862267237
C  C105  1  0.13940000  0.27880000  0.25000000  1.0 0.1862267237
C  C106  1  0.86060000  0.13940000  0.75000000  1.0 0.1862267237
C  C107  1  0.27880000  0.13940000  0.75000000  1.0 0.1862267237
C  C108  1  0.86060000  0.72120000  0.75000000  1.0 0.1862267237
O  O1  1  0.37251000  0.89025000  0.97995000  1.0 -0.4966895574
O  O2  1  0.40681000  0.96212000  0.09576000  1.0 -0.5395783651
O  O3  1  0.51774000  0.62749000  0.97995000  1.0 -0.4966895574
O  O4  1  0.55531000  0.59319000  0.09576000  1.0 -0.5395783651
O  O5  1  0.10975000  0.48226000  0.97995000  1.0 -0.4966895574
O  O6  1  0.03788000  0.44469000  0.09576000  1.0 -0.5395783651
O  O7  1  0.62749000  0.10975000  0.47995000  1.0 -0.4966895574
O  O8  1  0.59319000  0.03788000  0.59576000  1.0 -0.5395783651
O  O9  1  0.48226000  0.37251000  0.47995000  1.0 -0.4966895574
O  O10  1  0.44469000  0.40681000  0.59576000  1.0 -0.5395783651
O  O11  1  0.89025000  0.51774000  0.47995000  1.0 -0.4966895574
O  O12  1  0.96212000  0.55531000  0.59576000  1.0 -0.5395783651
O  O13  1  0.48226000  0.10975000  0.02005000  1.0 -0.4966895574
O  O14  1  0.44469000  0.03788000  0.90424000  1.0 -0.5395783651
O  O15  1  0.89025000  0.37251000  0.02005000  1.0 -0.4966895574
O  O16  1  0.96212000  0.40681000  0.90424000  1.0 -0.5395783651
O  O17  1  0.62749000  0.51774000  0.02005000  1.0 -0.4966895574
O  O18  1  0.59319000  0.55531000  0.90424000  1.0 -0.5395783651
O  O19  1  0.51774000  0.89025000  0.52005000  1.0 -0.4966895574
O  O20  1  0.55531000  0.96212000  0.40424000  1.0 -0.5395783651
O  O21  1  0.10975000  0.62749000  0.52005000  1.0 -0.4966895574
O  O22  1  0.03788000  0.59319000  0.40424000  1.0 -0.5395783651
O  O23  1  0.37251000  0.48226000  0.52005000  1.0 -0.4966895574
O  O24  1  0.40681000  0.44469000  0.40424000  1.0 -0.5395783651
O  O25  1  0.62749000  0.10975000  0.02005000  1.0 -0.4966895574
O  O26  1  0.59319000  0.03788000  0.90424000  1.0 -0.5395783651
O  O27  1  0.48226000  0.37251000  0.02005000  1.0 -0.4966895574
O  O28  1  0.44469000  0.40681000  0.90424000  1.0 -0.5395783651
O  O29  1  0.89025000  0.51774000  0.02005000  1.0 -0.4966895574
O  O30  1  0.96212000  0.55531000  0.90424000  1.0 -0.5395783651
O  O31  1  0.37251000  0.89025000  0.52005000  1.0 -0.4966895574
O  O32  1  0.40681000  0.96212000  0.40424000  1.0 -0.5395783651
O  O33  1  0.51774000  0.62749000  0.52005000  1.0 -0.4966895574
O  O34  1  0.55531000  0.59319000  0.40424000  1.0 -0.5395783651
O  O35  1  0.10975000  0.48226000  0.52005000  1.0 -0.4966895574
O  O36  1  0.03788000  0.44469000  0.40424000  1.0 -0.5395783651
O  O37  1  0.51774000  0.89025000  0.97995000  1.0 -0.4966895574
O  O38  1  0.55531000  0.96212000  0.09576000  1.0 -0.5395783651
O  O39  1  0.10975000  0.62749000  0.97995000  1.0 -0.4966895574
O  O40  1  0.03788000  0.59319000  0.09576000  1.0 -0.5395783651
O  O41  1  0.37251000  0.48226000  0.97995000  1.0 -0.4966895574
O  O42  1  0.40681000  0.44469000  0.09576000  1.0 -0.5395783651
O  O43  1  0.48226000  0.10975000  0.47995000  1.0 -0.4966895574
O  O44  1  0.44469000  0.03788000  0.59576000  1.0 -0.5395783651
O  O45  1  0.89025000  0.37251000  0.47995000  1.0 -0.4966895574
O  O46  1  0.96212000  0.40681000  0.59576000  1.0 -0.5395783651
O  O47  1  0.62749000  0.51774000  0.47995000  1.0 -0.4966895574
O  O48  1  0.59319000  0.55531000  0.59576000  1.0 -0.5395783651
O  O49  1  0.44924000  0.89848000  0.81710000  1.0 -0.4450249541
O  O50  1  0.44924000  0.55076000  0.81710000  1.0 -0.4450249541
O  O51  1  0.10152000  0.55076000  0.81710000  1.0 -0.4450249541
O  O52  1  0.55076000  0.10152000  0.31710000  1.0 -0.4450249541
O  O53  1  0.55076000  0.44924000  0.31710000  1.0 -0.4450249541
O  O54  1  0.89848000  0.44924000  0.31710000  1.0 -0.4450249541
O  O55  1  0.55076000  0.10152000  0.18290000  1.0 -0.4450249541
O  O56  1  0.89848000  0.44924000  0.18290000  1.0 -0.4450249541
O  O57  1  0.55076000  0.44924000  0.18290000  1.0 -0.4450249541
O  O58  1  0.44924000  0.89848000  0.68290000  1.0 -0.4450249541
O  O59  1  0.10152000  0.55076000  0.68290000  1.0 -0.4450249541
O  O60  1  0.44924000  0.55076000  0.68290000  1.0 -0.4450249541
O  O61  1  0.05370000  0.82700000  0.25000000  1.0 -0.3580865133
O  O62  1  0.77330000  0.94630000  0.25000000  1.0 -0.3580865133
O  O63  1  0.17300000  0.22670000  0.25000000  1.0 -0.3580865133
O  O64  1  0.94630000  0.17300000  0.75000000  1.0 -0.3580865133
O  O65  1  0.22670000  0.05370000  0.75000000  1.0 -0.3580865133
O  O66  1  0.82700000  0.77330000  0.75000000  1.0 -0.3580865133
O  O67  1  0.22670000  0.17300000  0.75000000  1.0 -0.3580865133
O  O68  1  0.82700000  0.05370000  0.75000000  1.0 -0.3580865133
O  O69  1  0.94630000  0.77330000  0.75000000  1.0 -0.3580865133
O  O70  1  0.77330000  0.82700000  0.25000000  1.0 -0.3580865133
O  O71  1  0.17300000  0.94630000  0.25000000  1.0 -0.3580865133
O  O72  1  0.05370000  0.22670000  0.25000000  1.0 -0.3580865133
