# DDEC6 charges by PACMAN v1.1 (https://github.com/mtap-research/PACMAN-charge/)
data_JEPXEL_FSR_pacman
_symmetry_space_group_name_H-M   'P 1'
_cell_length_a   18.96000000
_cell_length_b   18.96000000
_cell_length_c   16.60800000
_cell_angle_alpha   90.00000000
_cell_angle_beta   90.00000000
_cell_angle_gamma   120.00000000
_symmetry_Int_Tables_number   1
_chemical_formula_structural   Cu2H13(C3O2)6
_chemical_formula_sum   'Cu12 H78 C108 O72'
_cell_volume   5170.40584495
_cell_formula_units_Z   6
loop_
 _symmetry_equiv_pos_site_id
 _symmetry_equiv_pos_as_xyz
  1  'x, y, z'
loop_
 _atom_site_type_symbol
 _atom_site_label
 _atom_site_symmetry_multiplicity
 _atom_site_fract_x
 _atom_site_fract_y
 _atom_site_fract_z
 _atom_site_occupancy
 _atom_site_charge
Cu  Cu1  1  0.47960000  0.52040000  0.06921000  1.0 0.851512018
Cu  Cu2  1  0.04080000  0.52040000  0.06921000  1.0 0.851512018
Cu  Cu3  1  0.47960000  0.95920000  0.06921000  1.0 0.851512018
Cu  Cu4  1  0.52040000  0.47960000  0.56921000  1.0 0.851512018
Cu  Cu5  1  0.95920000  0.47960000  0.56921000  1.0 0.851512018
Cu  Cu6  1  0.52040000  0.04080000  0.56921000  1.0 0.851512018
Cu  Cu7  1  0.95920000  0.47960000  0.93079000  1.0 0.851512018
Cu  Cu8  1  0.52040000  0.47960000  0.93079000  1.0 0.851512018
Cu  Cu9  1  0.52040000  0.04080000  0.93079000  1.0 0.851512018
Cu  Cu10  1  0.04080000  0.52040000  0.43079000  1.0 0.851512018
Cu  Cu11  1  0.47960000  0.52040000  0.43079000  1.0 0.851512018
Cu  Cu12  1  0.47960000  0.95920000  0.43079000  1.0 0.851512018
H  H1  1  0.65006000  0.71951000  0.83315000  1.0 0.1276456577
H  H2  1  0.79900000  0.95773000  0.70857000  1.0 0.2003483941
H  H3  1  0.06945000  0.34994000  0.83315000  1.0 0.1276456577
H  H4  1  0.15873000  0.20100000  0.70857000  1.0 0.2003483941
H  H5  1  0.28049000  0.93055000  0.83315000  1.0 0.1276456577
H  H6  1  0.04227000  0.84127000  0.70857000  1.0 0.2003483941
H  H7  1  0.34994000  0.28049000  0.33315000  1.0 0.1276456577
H  H8  1  0.20100000  0.04227000  0.20857000  1.0 0.2003483941
H  H9  1  0.93055000  0.65006000  0.33315000  1.0 0.1276456577
H  H10  1  0.84127000  0.79900000  0.20857000  1.0 0.2003483941
H  H11  1  0.71951000  0.06945000  0.33315000  1.0 0.1276456577
H  H12  1  0.95773000  0.15873000  0.20857000  1.0 0.2003483941
H  H13  1  0.93055000  0.28049000  0.16685000  1.0 0.1276456577
H  H14  1  0.84127000  0.04227000  0.29143000  1.0 0.2003483941
H  H15  1  0.71951000  0.65006000  0.16685000  1.0 0.1276456577
H  H16  1  0.95773000  0.79900000  0.29143000  1.0 0.2003483941
H  H17  1  0.34994000  0.06945000  0.16685000  1.0 0.1276456577
H  H18  1  0.20100000  0.15873000  0.29143000  1.0 0.2003483941
H  H19  1  0.06945000  0.71951000  0.66685000  1.0 0.1276456577
H  H20  1  0.15873000  0.95773000  0.79143000  1.0 0.2003483941
H  H21  1  0.28049000  0.34994000  0.66685000  1.0 0.1276456577
H  H22  1  0.04227000  0.20100000  0.79143000  1.0 0.2003483941
H  H23  1  0.65006000  0.93055000  0.66685000  1.0 0.1276456577
H  H24  1  0.79900000  0.84127000  0.79143000  1.0 0.2003483941
H  H25  1  0.34994000  0.28049000  0.16685000  1.0 0.1276456577
H  H26  1  0.20100000  0.04227000  0.29143000  1.0 0.2003483941
H  H27  1  0.93055000  0.65006000  0.16685000  1.0 0.1276456577
H  H28  1  0.84127000  0.79900000  0.29143000  1.0 0.2003483941
H  H29  1  0.71951000  0.06945000  0.16685000  1.0 0.1276456577
H  H30  1  0.95773000  0.15873000  0.29143000  1.0 0.2003483941
H  H31  1  0.65006000  0.71951000  0.66685000  1.0 0.1276456577
H  H32  1  0.79900000  0.95773000  0.79143000  1.0 0.2003483941
H  H33  1  0.06945000  0.34994000  0.66685000  1.0 0.1276456577
H  H34  1  0.15873000  0.20100000  0.79143000  1.0 0.2003483941
H  H35  1  0.28049000  0.93055000  0.66685000  1.0 0.1276456577
H  H36  1  0.04227000  0.84127000  0.79143000  1.0 0.2003483941
H  H37  1  0.06945000  0.71951000  0.83315000  1.0 0.1276456577
H  H38  1  0.15873000  0.95773000  0.70857000  1.0 0.2003483941
H  H39  1  0.28049000  0.34994000  0.83315000  1.0 0.1276456577
H  H40  1  0.04227000  0.20100000  0.70857000  1.0 0.2003483941
H  H41  1  0.65006000  0.93055000  0.83315000  1.0 0.1276456577
H  H42  1  0.79900000  0.84127000  0.70857000  1.0 0.2003483941
H  H43  1  0.93055000  0.28049000  0.33315000  1.0 0.1276456577
H  H44  1  0.84127000  0.04227000  0.20857000  1.0 0.2003483941
H  H45  1  0.71951000  0.65006000  0.33315000  1.0 0.1276456577
H  H46  1  0.95773000  0.79900000  0.20857000  1.0 0.2003483941
H  H47  1  0.34994000  0.06945000  0.33315000  1.0 0.1276456577
H  H48  1  0.20100000  0.15873000  0.20857000  1.0 0.2003483941
H  H49  1  0.52047000  0.76023000  0.99657000  1.0 0.1503184238
H  H50  1  0.23977000  0.47953000  0.99657000  1.0 0.1503184238
H  H51  1  0.23977000  0.76023000  0.99657000  1.0 0.1503184238
H  H52  1  0.47953000  0.23977000  0.49657000  1.0 0.1503184238
H  H53  1  0.76023000  0.52047000  0.49657000  1.0 0.1503184238
H  H54  1  0.76023000  0.23977000  0.49657000  1.0 0.1503184238
H  H55  1  0.76023000  0.23977000  0.00343000  1.0 0.1503184238
H  H56  1  0.76023000  0.52047000  0.00343000  1.0 0.1503184238
H  H57  1  0.47953000  0.23977000  0.00343000  1.0 0.1503184238
H  H58  1  0.23977000  0.76023000  0.50343000  1.0 0.1503184238
H  H59  1  0.23977000  0.47953000  0.50343000  1.0 0.1503184238
H  H60  1  0.52047000  0.76023000  0.50343000  1.0 0.1503184238
H  H61  1  0.75229000  0.83449000  0.75000000  1.0 0.0597839853
H  H62  1  0.08220000  0.24771000  0.75000000  1.0 0.0597839853
H  H63  1  0.16551000  0.91780000  0.75000000  1.0 0.0597839853
H  H64  1  0.24771000  0.16551000  0.25000000  1.0 0.0597839853
H  H65  1  0.91780000  0.75229000  0.25000000  1.0 0.0597839853
H  H66  1  0.83449000  0.08220000  0.25000000  1.0 0.0597839853
H  H67  1  0.91780000  0.16551000  0.25000000  1.0 0.0597839853
H  H68  1  0.83449000  0.75229000  0.25000000  1.0 0.0597839853
H  H69  1  0.24771000  0.08220000  0.25000000  1.0 0.0597839853
H  H70  1  0.08220000  0.83449000  0.75000000  1.0 0.0597839853
H  H71  1  0.16551000  0.24771000  0.75000000  1.0 0.0597839853
H  H72  1  0.75229000  0.91780000  0.75000000  1.0 0.0597839853
H  H73  1  0.49581000  0.50418000  0.25000000  1.0 0.1503184238
H  H74  1  0.00837000  0.50418000  0.25000000  1.0 0.1503184238
H  H75  1  0.49581000  0.99163000  0.25000000  1.0 0.1503184238
H  H76  1  0.50418000  0.49582000  0.75000000  1.0 0.1503184238
H  H77  1  0.99163000  0.49582000  0.75000000  1.0 0.1503184238
H  H78  1  0.50418000  0.00837000  0.75000000  1.0 0.1503184238
C  C1  1  0.54809000  0.64210000  0.95090000  1.0 0.5845743896
C  C2  1  0.58039000  0.72720000  0.91880000  1.0 -0.0093599064
C  C3  1  0.63369000  0.75410000  0.85540000  1.0 -0.1508333534
C  C4  1  0.09401000  0.45191000  0.95090000  1.0 0.5845743896
C  C5  1  0.14681000  0.41961000  0.91880000  1.0 -0.0093599064
C  C6  1  0.12041000  0.36631000  0.85540000  1.0 -0.1508333534
C  C7  1  0.35790000  0.90599000  0.95090000  1.0 0.5845743896
C  C8  1  0.27280000  0.85319000  0.91880000  1.0 -0.0093599064
C  C9  1  0.24590000  0.87959000  0.85540000  1.0 -0.1508333534
C  C10  1  0.45191000  0.35790000  0.45090000  1.0 0.5845743896
C  C11  1  0.41961000  0.27280000  0.41880000  1.0 -0.0093599064
C  C12  1  0.36631000  0.24590000  0.35540000  1.0 -0.1508333534
C  C13  1  0.90599000  0.54809000  0.45090000  1.0 0.5845743896
C  C14  1  0.85319000  0.58039000  0.41880000  1.0 -0.0093599064
C  C15  1  0.87959000  0.63369000  0.35540000  1.0 -0.1508333534
C  C16  1  0.64210000  0.09401000  0.45090000  1.0 0.5845743896
C  C17  1  0.72720000  0.14681000  0.41880000  1.0 -0.0093599064
C  C18  1  0.75410000  0.12041000  0.35540000  1.0 -0.1508333534
C  C19  1  0.90599000  0.35790000  0.04910000  1.0 0.5845743896
C  C20  1  0.85319000  0.27280000  0.08120000  1.0 -0.0093599064
C  C21  1  0.87959000  0.24590000  0.14460000  1.0 -0.1508333534
C  C22  1  0.64210000  0.54809000  0.04910000  1.0 0.5845743896
C  C23  1  0.72720000  0.58039000  0.08120000  1.0 -0.0093599064
C  C24  1  0.75410000  0.63369000  0.14460000  1.0 -0.1508333534
C  C25  1  0.45191000  0.09401000  0.04910000  1.0 0.5845743896
C  C26  1  0.41961000  0.14681000  0.08120000  1.0 -0.0093599064
C  C27  1  0.36631000  0.12041000  0.14460000  1.0 -0.1508333534
C  C28  1  0.09401000  0.64210000  0.54910000  1.0 0.5845743896
C  C29  1  0.14681000  0.72720000  0.58120000  1.0 -0.0093599064
C  C30  1  0.12041000  0.75410000  0.64460000  1.0 -0.1508333534
C  C31  1  0.35790000  0.45191000  0.54910000  1.0 0.5845743896
C  C32  1  0.27280000  0.41961000  0.58120000  1.0 -0.0093599064
C  C33  1  0.24590000  0.36631000  0.64460000  1.0 -0.1508333534
C  C34  1  0.54809000  0.90599000  0.54910000  1.0 0.5845743896
C  C35  1  0.58039000  0.85319000  0.58120000  1.0 -0.0093599064
C  C36  1  0.63369000  0.87959000  0.64460000  1.0 -0.1508333534
C  C37  1  0.45191000  0.35790000  0.04910000  1.0 0.5845743896
C  C38  1  0.41961000  0.27280000  0.08120000  1.0 -0.0093599064
C  C39  1  0.36631000  0.24590000  0.14460000  1.0 -0.1508333534
C  C40  1  0.90599000  0.54809000  0.04910000  1.0 0.5845743896
C  C41  1  0.85319000  0.58039000  0.08120000  1.0 -0.0093599064
C  C42  1  0.87959000  0.63369000  0.14460000  1.0 -0.1508333534
C  C43  1  0.64210000  0.09401000  0.04910000  1.0 0.5845743896
C  C44  1  0.72720000  0.14681000  0.08120000  1.0 -0.0093599064
C  C45  1  0.75410000  0.12041000  0.14460000  1.0 -0.1508333534
C  C46  1  0.54809000  0.64210000  0.54910000  1.0 0.5845743896
C  C47  1  0.58039000  0.72720000  0.58120000  1.0 -0.0093599064
C  C48  1  0.63369000  0.75410000  0.64460000  1.0 -0.1508333534
C  C49  1  0.09401000  0.45191000  0.54910000  1.0 0.5845743896
C  C50  1  0.14681000  0.41961000  0.58120000  1.0 -0.0093599064
C  C51  1  0.12041000  0.36631000  0.64460000  1.0 -0.1508333534
C  C52  1  0.35790000  0.90599000  0.54910000  1.0 0.5845743896
C  C53  1  0.27280000  0.85319000  0.58120000  1.0 -0.0093599064
C  C54  1  0.24590000  0.87959000  0.64460000  1.0 -0.1508333534
C  C55  1  0.09401000  0.64210000  0.95090000  1.0 0.5845743896
C  C56  1  0.14681000  0.72720000  0.91880000  1.0 -0.0093599064
C  C57  1  0.12041000  0.75410000  0.85540000  1.0 -0.1508333534
C  C58  1  0.35790000  0.45191000  0.95090000  1.0 0.5845743896
C  C59  1  0.27280000  0.41961000  0.91880000  1.0 -0.0093599064
C  C60  1  0.24590000  0.36631000  0.85540000  1.0 -0.1508333534
C  C61  1  0.54809000  0.90599000  0.95090000  1.0 0.5845743896
C  C62  1  0.58039000  0.85319000  0.91880000  1.0 -0.0093599064
C  C63  1  0.63369000  0.87959000  0.85540000  1.0 -0.1508333534
C  C64  1  0.90599000  0.35790000  0.45090000  1.0 0.5845743896
C  C65  1  0.85319000  0.27280000  0.41880000  1.0 -0.0093599064
C  C66  1  0.87959000  0.24590000  0.35540000  1.0 -0.1508333534
C  C67  1  0.64210000  0.54809000  0.45090000  1.0 0.5845743896
C  C68  1  0.72720000  0.58039000  0.41880000  1.0 -0.0093599064
C  C69  1  0.75410000  0.63369000  0.35540000  1.0 -0.1508333534
C  C70  1  0.45191000  0.09401000  0.45090000  1.0 0.5845743896
C  C71  1  0.41961000  0.14681000  0.41880000  1.0 -0.0093599064
C  C72  1  0.36631000  0.12041000  0.35540000  1.0 -0.1508333534
C  C73  1  0.55549000  0.77775000  0.95260000  1.0 -0.1257664282
C  C74  1  0.66199000  0.83100000  0.82320000  1.0 0.0123199019
C  C75  1  0.22226000  0.44451000  0.95260000  1.0 -0.1257664282
C  C76  1  0.16900000  0.33801000  0.82320000  1.0 0.0123199019
C  C77  1  0.22226000  0.77775000  0.95260000  1.0 -0.1257664282
C  C78  1  0.16901000  0.83100000  0.82320000  1.0 0.0123199019
C  C79  1  0.44451000  0.22226000  0.45260000  1.0 -0.1257664282
C  C80  1  0.33801000  0.16900000  0.32320000  1.0 0.0123199019
C  C81  1  0.77775000  0.55549000  0.45260000  1.0 -0.1257664282
C  C82  1  0.83099000  0.66199000  0.32320000  1.0 0.0123199019
C  C83  1  0.77775000  0.22226000  0.45260000  1.0 -0.1257664282
C  C84  1  0.83099000  0.16900000  0.32320000  1.0 0.0123199019
C  C85  1  0.77775000  0.22226000  0.04740000  1.0 -0.1257664282
C  C86  1  0.83099000  0.16900000  0.17680000  1.0 0.0123199019
C  C87  1  0.77775000  0.55549000  0.04740000  1.0 -0.1257664282
C  C88  1  0.83099000  0.66199000  0.17680000  1.0 0.0123199019
C  C89  1  0.44451000  0.22226000  0.04740000  1.0 -0.1257664282
C  C90  1  0.33801000  0.16900000  0.17680000  1.0 0.0123199019
C  C91  1  0.22226000  0.77775000  0.54740000  1.0 -0.1257664282
C  C92  1  0.16901000  0.83100000  0.67680000  1.0 0.0123199019
C  C93  1  0.22226000  0.44451000  0.54740000  1.0 -0.1257664282
C  C94  1  0.16900000  0.33801000  0.67680000  1.0 0.0123199019
C  C95  1  0.55549000  0.77775000  0.54740000  1.0 -0.1257664282
C  C96  1  0.66199000  0.83100000  0.67680000  1.0 0.0123199019
C  C97  1  0.71779000  0.85889000  0.75000000  1.0 0.1618105056
C  C98  1  0.14111000  0.28221000  0.75000000  1.0 0.1618105056
C  C99  1  0.14111000  0.85889000  0.75000000  1.0 0.1618105056
C  C100  1  0.28221000  0.14111000  0.25000000  1.0 0.1618105056
C  C101  1  0.85889000  0.71779000  0.25000000  1.0 0.1618105056
C  C102  1  0.85889000  0.14111000  0.25000000  1.0 0.1618105056
C  C103  1  0.46740000  0.53261000  0.25000000  1.0 0.5206677002
C  C104  1  0.06521000  0.53261000  0.25000000  1.0 0.5206677002
C  C105  1  0.46739000  0.93479000  0.25000000  1.0 0.5206677002
C  C106  1  0.53260000  0.46740000  0.75000000  1.0 0.5206677002
C  C107  1  0.93479000  0.46740000  0.75000000  1.0 0.5206677002
C  C108  1  0.53260000  0.06521000  0.75000000  1.0 0.5206677002
O  O1  1  0.51759000  0.62730000  0.02010000  1.0 -0.4936038857
O  O2  1  0.55499000  0.59360000  0.90550000  1.0 -0.5333602546
O  O3  1  0.10971000  0.48241000  0.02010000  1.0 -0.4936038857
O  O4  1  0.03861000  0.44501000  0.90550000  1.0 -0.5333602546
O  O5  1  0.37270000  0.89029000  0.02010000  1.0 -0.4936038857
O  O6  1  0.40640000  0.96139000  0.90550000  1.0 -0.5333602546
O  O7  1  0.48241000  0.37270000  0.52010000  1.0 -0.4936038857
O  O8  1  0.44501000  0.40640000  0.40550000  1.0 -0.5333602546
O  O9  1  0.89029000  0.51759000  0.52010000  1.0 -0.4936038857
O  O10  1  0.96139000  0.55499000  0.40550000  1.0 -0.5333602546
O  O11  1  0.62730000  0.10971000  0.52010000  1.0 -0.4936038857
O  O12  1  0.59360000  0.03861000  0.40550000  1.0 -0.5333602546
O  O13  1  0.89029000  0.37270000  0.97990000  1.0 -0.4936038857
O  O14  1  0.96139000  0.40640000  0.09450000  1.0 -0.5333602546
O  O15  1  0.62730000  0.51759000  0.97990000  1.0 -0.4936038857
O  O16  1  0.59360000  0.55499000  0.09450000  1.0 -0.5333602546
O  O17  1  0.48241000  0.10971000  0.97990000  1.0 -0.4936038857
O  O18  1  0.44501000  0.03861000  0.09450000  1.0 -0.5333602546
O  O19  1  0.10971000  0.62730000  0.47990000  1.0 -0.4936038857
O  O20  1  0.03861000  0.59360000  0.59450000  1.0 -0.5333602546
O  O21  1  0.37270000  0.48241000  0.47990000  1.0 -0.4936038857
O  O22  1  0.40640000  0.44501000  0.59450000  1.0 -0.5333602546
O  O23  1  0.51759000  0.89029000  0.47990000  1.0 -0.4936038857
O  O24  1  0.55499000  0.96139000  0.59450000  1.0 -0.5333602546
O  O25  1  0.48241000  0.37270000  0.97990000  1.0 -0.4936038857
O  O26  1  0.44501000  0.40640000  0.09450000  1.0 -0.5333602546
O  O27  1  0.89029000  0.51759000  0.97990000  1.0 -0.4936038857
O  O28  1  0.96139000  0.55499000  0.09450000  1.0 -0.5333602546
O  O29  1  0.62730000  0.10971000  0.97990000  1.0 -0.4936038857
O  O30  1  0.59360000  0.03861000  0.09450000  1.0 -0.5333602546
O  O31  1  0.51759000  0.62730000  0.47990000  1.0 -0.4936038857
O  O32  1  0.55499000  0.59360000  0.59450000  1.0 -0.5333602546
O  O33  1  0.10971000  0.48241000  0.47990000  1.0 -0.4936038857
O  O34  1  0.03861000  0.44501000  0.59450000  1.0 -0.5333602546
O  O35  1  0.37270000  0.89029000  0.47990000  1.0 -0.4936038857
O  O36  1  0.40640000  0.96139000  0.59450000  1.0 -0.5333602546
O  O37  1  0.10971000  0.62730000  0.02010000  1.0 -0.4936038857
O  O38  1  0.03861000  0.59360000  0.90550000  1.0 -0.5333602546
O  O39  1  0.37270000  0.48241000  0.02010000  1.0 -0.4936038857
O  O40  1  0.40640000  0.44501000  0.90550000  1.0 -0.5333602546
O  O41  1  0.51759000  0.89029000  0.02010000  1.0 -0.4936038857
O  O42  1  0.55499000  0.96139000  0.90550000  1.0 -0.5333602546
O  O43  1  0.89029000  0.37270000  0.52010000  1.0 -0.4936038857
O  O44  1  0.96139000  0.40640000  0.40550000  1.0 -0.5333602546
O  O45  1  0.62730000  0.51759000  0.52010000  1.0 -0.4936038857
O  O46  1  0.59360000  0.55499000  0.40550000  1.0 -0.5333602546
O  O47  1  0.48241000  0.10971000  0.52010000  1.0 -0.4936038857
O  O48  1  0.44501000  0.03861000  0.40550000  1.0 -0.5333602546
O  O49  1  0.45029000  0.54970000  0.18400000  1.0 -0.4437199353
O  O50  1  0.09941000  0.54970000  0.18400000  1.0 -0.4437199353
O  O51  1  0.45029000  0.90059000  0.18400000  1.0 -0.4437199353
O  O52  1  0.54970000  0.45030000  0.68400000  1.0 -0.4437199353
O  O53  1  0.90059000  0.45030000  0.68400000  1.0 -0.4437199353
O  O54  1  0.54970000  0.09941000  0.68400000  1.0 -0.4437199353
O  O55  1  0.90059000  0.45030000  0.81600000  1.0 -0.4437199353
O  O56  1  0.54970000  0.45030000  0.81600000  1.0 -0.4437199353
O  O57  1  0.54970000  0.09941000  0.81600000  1.0 -0.4437199353
O  O58  1  0.09941000  0.54970000  0.31600000  1.0 -0.4437199353
O  O59  1  0.45029000  0.54970000  0.31600000  1.0 -0.4437199353
O  O60  1  0.45029000  0.90059000  0.31600000  1.0 -0.4437199353
O  O61  1  0.76859000  0.94370000  0.75000000  1.0 -0.3716683629
O  O62  1  0.17511000  0.23141000  0.75000000  1.0 -0.3716683629
O  O63  1  0.05630000  0.82489000  0.75000000  1.0 -0.3716683629
O  O64  1  0.23141000  0.05630000  0.25000000  1.0 -0.3716683629
O  O65  1  0.82489000  0.76859000  0.25000000  1.0 -0.3716683629
O  O66  1  0.94370000  0.17511000  0.25000000  1.0 -0.3716683629
O  O67  1  0.82489000  0.05630000  0.25000000  1.0 -0.3716683629
O  O68  1  0.94370000  0.76859000  0.25000000  1.0 -0.3716683629
O  O69  1  0.23141000  0.17511000  0.25000000  1.0 -0.3716683629
O  O70  1  0.17511000  0.94370000  0.75000000  1.0 -0.3716683629
O  O71  1  0.05630000  0.23141000  0.75000000  1.0 -0.3716683629
O  O72  1  0.76859000  0.82489000  0.75000000  1.0 -0.3716683629
