# DDEC6 charges by PACMAN v1.1 (https://github.com/mtap-research/PACMAN-charge/)
data_JESDIV_FSR_pacman
_symmetry_space_group_name_H-M   'P 1'
_cell_length_a   7.10720000
_cell_length_b   9.40940000
_cell_length_c   11.78470000
_cell_angle_alpha   71.60200000
_cell_angle_beta   78.16500000
_cell_angle_gamma   70.29600000
_symmetry_Int_Tables_number   1
_chemical_formula_structural   Ga2P3H4(O3F)3
_chemical_formula_sum   'Ga4 P6 H8 O18 F6'
_cell_volume   699.71855091
_cell_formula_units_Z   2
loop_
 _symmetry_equiv_pos_site_id
 _symmetry_equiv_pos_as_xyz
  1  'x, y, z'
loop_
 _atom_site_type_symbol
 _atom_site_label
 _atom_site_symmetry_multiplicity
 _atom_site_fract_x
 _atom_site_fract_y
 _atom_site_fract_z
 _atom_site_occupancy
 _atom_site_charge
Ga  Ga1  1  0.46521000  0.37565000  0.83957000  1.0 1.4510890911
Ga  Ga2  1  0.53479000  0.62435000  0.16043000  1.0 1.4510890911
Ga  Ga3  1  0.00000000  0.00000000  0.50000000  1.0 1.4510890911
Ga  Ga4  1  0.50000000  0.00000000  0.50000000  1.0 1.4582581788
P  P1  1  0.64571000  0.09833000  0.69775000  1.0 1.2966909676
P  P2  1  0.35429000  0.90167000  0.30225000  1.0 1.2966909676
P  P3  1  0.30990000  0.73427000  0.67125000  1.0 1.1704083055
P  P4  1  0.69010000  0.26573000  0.32875000  1.0 1.1704083055
P  P5  1  0.71292000  0.54714000  0.90563000  1.0 1.1704083055
P  P6  1  0.28708000  0.45286000  0.09437000  1.0 1.1704083055
H  H1  1  0.58600000  0.68900000  0.86100000  1.0 -0.0519976795
H  H2  1  0.41400000  0.31100000  0.13900000  1.0 -0.0519976795
H  H3  1  0.21900000  0.77300000  0.76800000  1.0 -0.0584183496
H  H4  1  0.78100000  0.22700000  0.23200000  1.0 -0.0584183496
H  H5  1  0.60900000  0.99400000  0.80700000  1.0 -0.0584183496
H  H6  1  0.39100000  0.00600000  0.19300000  1.0 -0.0584183496
H  H7  1  0.02800000  0.52200000  0.85600000  1.0 0.4253297716
H  H8  1  0.97200000  0.47800000  0.14400000  1.0 0.4253297716
O  O1  1  0.70920000  0.42100000  0.85150000  1.0 -0.615205738
O  O2  1  0.29080000  0.57900000  0.14850000  1.0 -0.6096605093
O  O3  1  0.40090000  0.55730000  0.70070000  1.0 -0.5998009374
O  O4  1  0.59910000  0.44270000  0.29930000  1.0 -0.5998009374
O  O5  1  0.68250000  0.50240000  0.04160000  1.0 -0.6725409061
O  O6  1  0.31750000  0.49760000  0.95840000  1.0 -0.6725409061
O  O7  1  0.61080000  0.25610000  0.72200000  1.0 -0.5998009374
O  O8  1  0.38920000  0.74390000  0.27800000  1.0 -0.6096605093
O  O9  1  0.86660000  0.03430000  0.65400000  1.0 -0.6418916017
O  O10  1  0.13340000  0.96570000  0.34600000  1.0 -0.6418916017
O  O11  1  0.46940000  0.81990000  0.63100000  1.0 -0.6096605093
O  O12  1  0.53060000  0.18010000  0.36900000  1.0 -0.6096605093
O  O13  1  0.49990000  0.10700000  0.61640000  1.0 -0.6268294484
O  O14  1  0.50010000  0.89300000  0.38360000  1.0 -0.6268294484
O  O15  1  0.15730000  0.78880000  0.58030000  1.0 -0.6096605093
O  O16  1  0.84270000  0.21120000  0.41970000  1.0 -0.6096605093
O  O17  1  0.91430000  0.59010000  0.85710000  1.0 -0.5115994543
O  O18  1  0.08570000  0.40990000  0.14290000  1.0 -0.5115994543
F  F1  1  0.20580000  0.08870000  0.50998000  1.0 -0.491860363
F  F2  1  0.79420000  0.91130000  0.49002000  1.0 -0.491860363
F  F3  1  0.52540000  0.18820000  0.96434000  1.0 -0.4020720453
F  F4  1  0.47460000  0.81180000  0.03566000  1.0 -0.4020720453
F  F5  1  0.22080000  0.33810000  0.83680000  1.0 -0.416686076
F  F6  1  0.77920000  0.66190000  0.16320000  1.0 -0.416686076
