# DDEC6 charges by PACMAN v1.1 (https://github.com/mtap-research/PACMAN-charge/)
data_JESVAI_ASR_pacman
_symmetry_space_group_name_H-M   'P 1'
_cell_length_a   16.30380000
_cell_length_b   16.30380000
_cell_length_c   29.11400000
_cell_angle_alpha   84.97310000
_cell_angle_beta   95.02690000
_cell_angle_gamma   54.67350000
_symmetry_Int_Tables_number   1
_chemical_formula_structural   Nd2H29(C9O2)6
_chemical_formula_sum   'Nd8 H116 C216 O48'
_cell_volume   6197.93728067
_cell_formula_units_Z   4
loop_
 _symmetry_equiv_pos_site_id
 _symmetry_equiv_pos_as_xyz
  1  'x, y, z'
loop_
 _atom_site_type_symbol
 _atom_site_label
 _atom_site_symmetry_multiplicity
 _atom_site_fract_x
 _atom_site_fract_y
 _atom_site_fract_z
 _atom_site_occupancy
 _atom_site_charge
Nd  Nd1  1  0.88363000  0.39357000  0.25530000  1.0 2.029125406
Nd  Nd2  1  0.39357000  0.88363000  0.24470000  1.0 2.029125406
Nd  Nd3  1  0.11637000  0.60643000  0.74470000  1.0 2.029125406
Nd  Nd4  1  0.60643000  0.11637000  0.75530000  1.0 2.029125406
Nd  Nd5  1  0.59094000  0.59094000  0.25000000  1.0 2.1255349652
Nd  Nd6  1  0.40906000  0.40906000  0.75000000  1.0 2.1255349652
Nd  Nd7  1  0.19078000  0.19078000  0.25000000  1.0 2.1909672754
Nd  Nd8  1  0.80922000  0.80922000  0.75000000  1.0 2.1909672754
H  H1  1  0.64990000  0.77150000  0.20670000  1.0 0.1305499298
H  H2  1  0.81320000  0.63780000  0.10570000  1.0 0.1202229619
H  H3  1  0.10570000  0.44490000  0.17180000  1.0 0.1202229619
H  H4  1  0.76360000  0.05040000  0.90030000  1.0 0.1202229619
H  H5  1  0.91450000  0.75250000  0.90730000  1.0 0.1305499298
H  H6  1  0.01770000  0.84050000  0.16890000  1.0 0.1202229619
H  H7  1  0.61140000  0.92500000  0.17270000  1.0 0.1202229619
H  H8  1  0.83920000  0.13080000  0.24560000  1.0 0.1120931025
H  H9  1  0.09510000  0.04070000  0.21150000  1.0 0.1305499298
H  H10  1  0.56200000  0.31640000  0.12410000  1.0 0.1120931025
H  H11  1  0.85260000  0.25540000  0.11540000  1.0 0.1202229619
H  H12  1  0.10400000  0.91540000  0.17590000  1.0 0.1202229619
H  H13  1  0.70120000  0.00000000  0.16600000  1.0 0.1202229619
H  H14  1  0.09640000  0.56900000  0.12080000  1.0 0.1120931025
H  H15  1  0.59410000  0.40150000  0.17410000  1.0 0.1305499298
H  H16  1  0.64720000  0.97520000  0.03200000  1.0 0.1120931025
H  H17  1  0.62520000  0.22200000  0.06220000  1.0 0.1120931025
H  H18  1  0.77340000  0.79140000  0.07170000  1.0 0.1202229619
H  H19  1  0.96250000  0.72890000  0.06240000  1.0 0.1120931025
H  H20  1  0.51370000  0.13610000  0.88580000  1.0 0.1305499298
H  H21  1  0.82610000  0.02870000  0.97620000  1.0 0.1120931025
H  H22  1  0.86240000  0.12860000  0.07930000  1.0 0.1120931025
H  H23  1  0.56090000  0.06390000  0.96420000  1.0 0.1120931025
H  H24  1  0.80290000  0.04810000  0.19590000  1.0 0.1120931025
H  H25  1  0.92660000  0.77680000  0.20070000  1.0 0.1305499298
H  H26  1  0.93890000  0.98930000  0.03820000  1.0 0.1202229619
H  H27  1  0.63490000  0.25150000  0.99250000  1.0 0.1120931025
H  H28  1  0.57770000  0.32730000  0.91420000  1.0 0.1305499298
H  H29  1  0.98070000  0.72770000  0.98440000  1.0 0.1120931025
H  H30  1  0.77150000  0.64990000  0.29330000  1.0 0.1305499298
H  H31  1  0.63780000  0.81320000  0.39430000  1.0 0.1202229619
H  H32  1  0.44490000  0.10570000  0.32820000  1.0 0.1202229619
H  H33  1  0.05040000  0.76360000  0.59970000  1.0 0.1202229619
H  H34  1  0.75250000  0.91450000  0.59270000  1.0 0.1305499298
H  H35  1  0.84050000  0.01770000  0.33110000  1.0 0.1202229619
H  H36  1  0.92500000  0.61140000  0.32730000  1.0 0.1202229619
H  H37  1  0.13080000  0.83920000  0.25440000  1.0 0.1120931025
H  H38  1  0.04070000  0.09510000  0.28850000  1.0 0.1305499298
H  H39  1  0.31640000  0.56200000  0.37590000  1.0 0.1120931025
H  H40  1  0.25540000  0.85260000  0.38460000  1.0 0.1202229619
H  H41  1  0.91540000  0.10400000  0.32410000  1.0 0.1202229619
H  H42  1  0.00000000  0.70120000  0.33400000  1.0 0.1202229619
H  H43  1  0.56900000  0.09640000  0.37920000  1.0 0.1120931025
H  H44  1  0.40150000  0.59410000  0.32590000  1.0 0.1305499298
H  H45  1  0.97520000  0.64720000  0.46800000  1.0 0.1120931025
H  H46  1  0.22200000  0.62520000  0.43780000  1.0 0.1120931025
H  H47  1  0.79140000  0.77340000  0.42830000  1.0 0.1202229619
H  H48  1  0.72890000  0.96250000  0.43760000  1.0 0.1120931025
H  H49  1  0.13610000  0.51370000  0.61420000  1.0 0.1305499298
H  H50  1  0.02870000  0.82610000  0.52380000  1.0 0.1120931025
H  H51  1  0.12860000  0.86240000  0.42070000  1.0 0.1120931025
H  H52  1  0.06390000  0.56090000  0.53580000  1.0 0.1120931025
H  H53  1  0.04810000  0.80290000  0.30410000  1.0 0.1120931025
H  H54  1  0.77680000  0.92660000  0.29930000  1.0 0.1305499298
H  H55  1  0.98930000  0.93890000  0.46180000  1.0 0.1202229619
H  H56  1  0.25150000  0.63490000  0.50750000  1.0 0.1120931025
H  H57  1  0.32730000  0.57770000  0.58580000  1.0 0.1305499298
H  H58  1  0.72770000  0.98070000  0.51560000  1.0 0.1202229619
H  H59  1  0.35010000  0.22850000  0.79330000  1.0 0.1305499298
H  H60  1  0.18680000  0.36220000  0.89430000  1.0 0.1202229619
H  H61  1  0.89430000  0.55510000  0.82820000  1.0 0.1202229619
H  H62  1  0.23640000  0.94960000  0.09970000  1.0 0.1202229619
H  H63  1  0.08550000  0.24750000  0.09270000  1.0 0.1305499298
H  H64  1  0.98230000  0.15950000  0.83110000  1.0 0.1202229619
H  H65  1  0.38860000  0.07500000  0.82730000  1.0 0.1202229619
H  H66  1  0.16080000  0.86920000  0.75440000  1.0 0.1120931025
H  H67  1  0.90490000  0.95930000  0.78850000  1.0 0.1305499298
H  H68  1  0.43800000  0.68360000  0.87590000  1.0 0.1120931025
H  H69  1  0.14740000  0.74460000  0.88460000  1.0 0.1202229619
H  H70  1  0.89600000  0.08460000  0.82410000  1.0 0.1202229619
H  H71  1  0.29880000  0.00000000  0.83400000  1.0 0.1202229619
H  H72  1  0.90360000  0.43100000  0.87920000  1.0 0.1202229619
H  H73  1  0.40590000  0.59850000  0.82590000  1.0 0.1305499298
H  H74  1  0.35280000  0.02480000  0.96800000  1.0 0.1120931025
H  H75  1  0.37480000  0.77800000  0.93780000  1.0 0.1120931025
H  H76  1  0.22660000  0.20860000  0.92830000  1.0 0.1202229619
H  H77  1  0.03750000  0.27110000  0.93760000  1.0 0.1120931025
H  H78  1  0.48630000  0.86390000  0.11420000  1.0 0.1305499298
H  H79  1  0.17390000  0.97130000  0.02380000  1.0 0.1120931025
H  H80  1  0.13760000  0.87140000  0.92070000  1.0 0.1120931025
H  H81  1  0.43910000  0.93610000  0.03580000  1.0 0.1120931025
H  H82  1  0.19710000  0.95190000  0.80410000  1.0 0.1120931025
H  H83  1  0.07340000  0.22320000  0.79930000  1.0 0.1305499298
H  H84  1  0.06110000  0.01070000  0.96180000  1.0 0.1202229619
H  H85  1  0.36510000  0.74850000  0.00750000  1.0 0.1120931025
H  H86  1  0.42230000  0.67270000  0.08580000  1.0 0.1305499298
H  H87  1  0.01930000  0.27230000  0.01560000  1.0 0.1202229619
H  H88  1  0.22850000  0.35010000  0.70670000  1.0 0.1305499298
H  H89  1  0.36220000  0.18680000  0.60570000  1.0 0.1202229619
H  H90  1  0.55510000  0.89430000  0.67180000  1.0 0.1202229619
H  H91  1  0.94960000  0.23640000  0.40030000  1.0 0.1202229619
H  H92  1  0.24750000  0.08550000  0.40730000  1.0 0.1305499298
H  H93  1  0.15950000  0.98230000  0.66890000  1.0 0.1202229619
H  H94  1  0.07500000  0.38860000  0.67270000  1.0 0.1202229619
H  H95  1  0.86920000  0.16080000  0.74560000  1.0 0.1120931025
H  H96  1  0.95930000  0.90490000  0.71150000  1.0 0.1305499298
H  H97  1  0.68360000  0.43800000  0.62410000  1.0 0.1120931025
H  H98  1  0.74460000  0.14740000  0.61540000  1.0 0.1202229619
H  H99  1  0.08460000  0.89600000  0.67590000  1.0 0.1202229619
H  H100  1  0.00000000  0.29880000  0.66600000  1.0 0.1202229619
H  H101  1  0.43100000  0.90360000  0.62080000  1.0 0.1120931025
H  H102  1  0.59850000  0.40590000  0.67410000  1.0 0.1305499298
H  H103  1  0.02480000  0.35280000  0.53200000  1.0 0.1120931025
H  H104  1  0.77800000  0.37480000  0.56220000  1.0 0.1120931025
H  H105  1  0.20860000  0.22660000  0.57170000  1.0 0.1202229619
H  H106  1  0.27110000  0.03750000  0.56240000  1.0 0.1120931025
H  H107  1  0.86390000  0.48630000  0.38580000  1.0 0.1305499298
H  H108  1  0.97130000  0.17390000  0.47620000  1.0 0.1120931025
H  H109  1  0.87140000  0.13760000  0.57930000  1.0 0.1120931025
H  H110  1  0.93610000  0.43910000  0.46420000  1.0 0.1120931025
H  H111  1  0.95190000  0.19710000  0.69590000  1.0 0.1120931025
H  H112  1  0.22320000  0.07340000  0.70070000  1.0 0.1305499298
H  H113  1  0.01070000  0.06110000  0.53820000  1.0 0.1202229619
H  H114  1  0.74850000  0.36510000  0.49250000  1.0 0.1120931025
H  H115  1  0.67270000  0.42230000  0.41420000  1.0 0.1305499298
H  H116  1  0.27230000  0.01930000  0.48440000  1.0 0.1202229619
C  C1  1  0.77610000  0.58710000  0.18690000  1.0 0.5912094848
C  C2  1  0.75490000  0.32770000  0.24160000  1.0 0.6042355136
C  C3  1  0.67650000  0.77510000  0.18020000  1.0 -0.0821503917
C  C4  1  0.82500000  0.90500000  0.89650000  1.0 -0.0391542505
C  C5  1  0.01800000  0.53680000  0.21510000  1.0 -0.0557983233
C  C6  1  0.95740000  0.24120000  0.19310000  1.0 0.6042355136
C  C7  1  0.77430000  0.69510000  0.11950000  1.0 -0.0973550774
C  C8  1  0.73970000  0.68730000  0.16130000  1.0 -0.0391542505
C  C9  1  0.06830000  0.51190000  0.17710000  1.0 -0.0878179105
C  C10  1  0.78100000  0.92020000  0.84660000  1.0 0.6477207379
C  C11  1  0.97260000  0.15960000  0.16740000  1.0 -0.0330332009
C  C12  1  0.80480000  0.98480000  0.91770000  1.0 -0.0878179105
C  C13  1  0.01000000  0.46160000  0.24430000  1.0 0.6237197952
C  C14  1  0.50790000  0.28750000  0.84250000  1.0 0.6119673983
C  C15  1  0.89410000  0.80870000  0.92160000  1.0 -0.0973550774
C  C16  1  0.00010000  0.84530000  0.13700000  1.0 -0.1999760426
C  C17  1  0.69330000  0.87370000  0.11930000  1.0 0.0579213785
C  C18  1  0.65340000  0.86680000  0.15990000  1.0 -0.1293531745
C  C19  1  0.90690000  0.87530000  0.99090000  1.0 0.0696343966
C  C20  1  0.78420000  0.16860000  0.22110000  1.0 -0.0973550774
C  C21  1  0.04760000  0.05860000  0.18520000  1.0 -0.0878179105
C  C22  1  0.99550000  0.76990000  0.12110000  1.0 0.0814709669
C  C23  1  0.61790000  0.27950000  0.14820000  1.0 -0.1520461634
C  C24  1  0.54030000  0.23810000  0.89280000  1.0 -0.0222889869
C  C25  1  0.66680000  0.11860000  0.11980000  1.0 0.0814709669
C  C26  1  0.62790000  0.10830000  0.03860000  1.0 0.0814709669
C  C27  1  0.90260000  0.18700000  0.12770000  1.0 -0.0878179105
C  C28  1  0.05220000  0.98360000  0.16400000  1.0 -0.1293531745
C  C29  1  0.68390000  0.02630000  0.13420000  1.0 -0.1999760426
C  C30  1  0.68150000  0.17370000  0.15420000  1.0 0.0696343966
C  C31  1  0.94410000  0.86230000  0.04110000  1.0 0.0814709669
C  C32  1  0.67580000  0.97100000  0.10210000  1.0 0.0814709669
C  C33  1  0.06350000  0.58630000  0.14660000  1.0 -0.1579527148
C  C34  1  0.98030000  0.00870000  0.12510000  1.0 0.0696343966
C  C35  1  0.72350000  0.27470000  0.21430000  1.0 -0.0391542505
C  C36  1  0.63750000  0.33070000  0.17800000  1.0 -0.0878179105
C  C37  1  0.64980000  0.01220000  0.05390000  1.0 -0.1999760426
C  C38  1  0.96510000  0.63670000  0.22410000  1.0 0.0055241422
C  C39  1  0.00910000  0.68710000  0.15480000  1.0 0.0814709669
C  C40  1  0.63790000  0.15910000  0.07190000  1.0 -0.1999760426
C  C41  1  0.75060000  0.78700000  0.09940000  1.0 -0.1520461634
C  C42  1  0.96670000  0.77850000  0.07320000  1.0 -0.1999760426
C  C43  1  0.53580000  0.16120000  0.90730000  1.0 -0.0821503917
C  C44  1  0.97900000  0.92800000  0.10620000  1.0 0.0814709669
C  C45  1  0.84300000  0.97180000  0.96320000  1.0 -0.1520461634
C  C46  1  0.90800000  0.11060000  0.10640000  1.0 -0.1520461634
C  C47  1  0.59770000  0.15290000  0.98840000  1.0 0.0696343966
C  C48  1  0.56430000  0.11770000  0.95480000  1.0 -0.1520461634
C  C49  1  0.76230000  0.11910000  0.19110000  1.0 -0.1520461634
C  C50  1  0.96140000  0.71060000  0.19430000  1.0 -0.1999760426
C  C51  1  0.95210000  0.93470000  0.05890000  1.0 -0.1940426244
C  C52  1  0.60730000  0.22950000  0.97190000  1.0 -0.1579527148
C  C53  1  0.57530000  0.27330000  0.92450000  1.0 -0.0973550774
C  C54  1  0.93430000  0.79390000  0.96810000  1.0 -0.1579527148
C  C55  1  0.58710000  0.77610000  0.31310000  1.0 0.5912094848
C  C56  1  0.32770000  0.75490000  0.25840000  1.0 0.6042355136
C  C57  1  0.77510000  0.67650000  0.31980000  1.0 -0.0821503917
C  C58  1  0.90500000  0.82500000  0.60350000  1.0 -0.0391542505
C  C59  1  0.53680000  0.01800000  0.28490000  1.0 -0.0557983233
C  C60  1  0.24120000  0.95740000  0.30690000  1.0 0.6042355136
C  C61  1  0.69510000  0.77430000  0.38050000  1.0 -0.0973550774
C  C62  1  0.68730000  0.73970000  0.33870000  1.0 -0.0391542505
C  C63  1  0.51190000  0.06830000  0.32290000  1.0 -0.0878179105
C  C64  1  0.92020000  0.78100000  0.65340000  1.0 0.6477207379
C  C65  1  0.15960000  0.97260000  0.33260000  1.0 -0.0330332009
C  C66  1  0.98480000  0.80480000  0.58230000  1.0 -0.0878179105
C  C67  1  0.46160000  0.01000000  0.25570000  1.0 0.6237197952
C  C68  1  0.28750000  0.50790000  0.65750000  1.0 0.6119673983
C  C69  1  0.80870000  0.89410000  0.57840000  1.0 -0.0973550774
C  C70  1  0.84530000  0.00010000  0.36300000  1.0 -0.1999760426
C  C71  1  0.87370000  0.69330000  0.38070000  1.0 0.0579213785
C  C72  1  0.86680000  0.65340000  0.34010000  1.0 -0.1293531745
C  C73  1  0.87530000  0.90690000  0.50910000  1.0 0.0696343966
C  C74  1  0.16860000  0.78420000  0.27890000  1.0 -0.0973550774
C  C75  1  0.05860000  0.04760000  0.31480000  1.0 -0.0878179105
C  C76  1  0.76990000  0.99550000  0.37890000  1.0 0.0814709669
C  C77  1  0.27950000  0.61790000  0.35180000  1.0 -0.1520461634
C  C78  1  0.23810000  0.54030000  0.60720000  1.0 -0.0222889869
C  C79  1  0.11860000  0.66680000  0.38020000  1.0 0.0814709669
C  C80  1  0.10830000  0.62790000  0.46140000  1.0 0.0814709669
C  C81  1  0.18700000  0.90260000  0.37230000  1.0 -0.0878179105
C  C82  1  0.98360000  0.05220000  0.33600000  1.0 -0.1293531745
C  C83  1  0.02630000  0.68390000  0.36580000  1.0 -0.2053959383
C  C84  1  0.17370000  0.68150000  0.34580000  1.0 0.0696343966
C  C85  1  0.86230000  0.94410000  0.45890000  1.0 0.0814709669
C  C86  1  0.97100000  0.67580000  0.39790000  1.0 0.0814709669
C  C87  1  0.58630000  0.06350000  0.35340000  1.0 -0.1579527148
C  C88  1  0.00870000  0.98030000  0.37490000  1.0 0.0696343966
C  C89  1  0.27470000  0.72350000  0.28570000  1.0 -0.0391542505
C  C90  1  0.33070000  0.63750000  0.32200000  1.0 -0.0878179105
C  C91  1  0.01220000  0.64980000  0.44610000  1.0 -0.1999760426
C  C92  1  0.63670000  0.96510000  0.27590000  1.0 0.0055241422
C  C93  1  0.68710000  0.00910000  0.34520000  1.0 0.0814709669
C  C94  1  0.15910000  0.63790000  0.42810000  1.0 -0.1999760426
C  C95  1  0.78700000  0.75060000  0.40060000  1.0 -0.1520461634
C  C96  1  0.77850000  0.96670000  0.42680000  1.0 -0.1999760426
C  C97  1  0.16120000  0.53580000  0.59270000  1.0 -0.0821503917
C  C98  1  0.92800000  0.97900000  0.39380000  1.0 0.0814709669
C  C99  1  0.97180000  0.84300000  0.53680000  1.0 -0.1520461634
C  C100  1  0.11060000  0.90800000  0.39360000  1.0 -0.1520461634
C  C101  1  0.15290000  0.59770000  0.51160000  1.0 0.0696343966
C  C102  1  0.11770000  0.56430000  0.54520000  1.0 -0.1520461634
C  C103  1  0.11910000  0.76230000  0.30890000  1.0 -0.1520461634
C  C104  1  0.71060000  0.96140000  0.30570000  1.0 -0.1999760426
C  C105  1  0.93470000  0.95210000  0.44110000  1.0 -0.1940426244
C  C106  1  0.22950000  0.60730000  0.52810000  1.0 -0.1579527148
C  C107  1  0.27330000  0.57530000  0.57550000  1.0 -0.0973550774
C  C108  1  0.79390000  0.93430000  0.53190000  1.0 -0.1579527148
C  C109  1  0.22390000  0.41290000  0.81310000  1.0 0.5912094848
C  C110  1  0.24510000  0.67230000  0.75840000  1.0 0.6042355136
C  C111  1  0.32350000  0.22490000  0.81980000  1.0 -0.0821503917
C  C112  1  0.17500000  0.09500000  0.10350000  1.0 -0.0391542505
C  C113  1  0.98200000  0.46320000  0.78490000  1.0 -0.0557983233
C  C114  1  0.04260000  0.75880000  0.80690000  1.0 0.6042355136
C  C115  1  0.22570000  0.30490000  0.88050000  1.0 -0.0973550774
C  C116  1  0.26030000  0.31270000  0.83870000  1.0 -0.0391542505
C  C117  1  0.93170000  0.48810000  0.82290000  1.0 -0.0878179105
C  C118  1  0.21900000  0.07980000  0.15340000  1.0 0.6477207379
C  C119  1  0.02740000  0.84040000  0.83260000  1.0 -0.0330332009
C  C120  1  0.19520000  0.01520000  0.08230000  1.0 -0.0878179105
C  C121  1  0.99000000  0.53840000  0.75570000  1.0 0.6237197952
C  C122  1  0.49210000  0.71250000  0.15750000  1.0 0.6119673983
C  C123  1  0.10590000  0.19130000  0.07840000  1.0 -0.0973550774
C  C124  1  0.99990000  0.15470000  0.86300000  1.0 -0.1999760426
C  C125  1  0.30670000  0.12630000  0.88070000  1.0 0.0579213785
C  C126  1  0.34660000  0.13320000  0.84010000  1.0 -0.1293531745
C  C127  1  0.09310000  0.12470000  0.00910000  1.0 0.0696343966
C  C128  1  0.21580000  0.83140000  0.77890000  1.0 -0.0973550774
C  C129  1  0.95240000  0.94140000  0.81480000  1.0 -0.0878179105
C  C130  1  0.00450000  0.23010000  0.87890000  1.0 0.0814709669
C  C131  1  0.38210000  0.72050000  0.85180000  1.0 -0.1520461634
C  C132  1  0.45970000  0.76190000  0.10720000  1.0 -0.0222889869
C  C133  1  0.33320000  0.88140000  0.88020000  1.0 0.0814709669
C  C134  1  0.37210000  0.89170000  0.96140000  1.0 0.0814709669
C  C135  1  0.09740000  0.81300000  0.87230000  1.0 -0.0878179105
C  C136  1  0.94780000  0.01640000  0.83600000  1.0 -0.1293531745
C  C137  1  0.31610000  0.97370000  0.86580000  1.0 -0.1999760426
C  C138  1  0.31850000  0.82630000  0.84580000  1.0 0.0696343966
C  C139  1  0.05590000  0.13770000  0.95890000  1.0 0.0814709669
C  C140  1  0.32420000  0.02900000  0.89790000  1.0 0.0814709669
C  C141  1  0.93650000  0.41370000  0.85340000  1.0 -0.1579527148
C  C142  1  0.01970000  0.99130000  0.87490000  1.0 0.0696343966
C  C143  1  0.27650000  0.72530000  0.78570000  1.0 -0.0391542505
C  C144  1  0.36250000  0.66930000  0.82200000  1.0 -0.0878179105
C  C145  1  0.35020000  0.98780000  0.94610000  1.0 -0.1999760426
C  C146  1  0.03490000  0.36330000  0.77590000  1.0 0.0055241422
C  C147  1  0.99090000  0.31290000  0.84520000  1.0 0.0814709669
C  C148  1  0.36210000  0.84090000  0.92810000  1.0 -0.1999760426
C  C149  1  0.24940000  0.21300000  0.90060000  1.0 -0.1520461634
C  C150  1  0.03330000  0.22150000  0.92680000  1.0 -0.1999760426
C  C151  1  0.46420000  0.83880000  0.09270000  1.0 -0.0821503917
C  C152  1  0.02100000  0.07200000  0.89380000  1.0 0.0814709669
C  C153  1  0.15700000  0.02820000  0.03680000  1.0 -0.1520461634
C  C154  1  0.09200000  0.88940000  0.89360000  1.0 -0.1520461634
C  C155  1  0.40230000  0.84710000  0.01160000  1.0 0.0696343966
C  C156  1  0.43570000  0.88230000  0.04520000  1.0 -0.1520461634
C  C157  1  0.23770000  0.88090000  0.80890000  1.0 -0.1520461634
C  C158  1  0.03860000  0.28940000  0.80570000  1.0 -0.1999760426
C  C159  1  0.04790000  0.06530000  0.94110000  1.0 -0.1940426244
C  C160  1  0.39270000  0.77050000  0.02810000  1.0 -0.1579527148
C  C161  1  0.42470000  0.72670000  0.07550000  1.0 -0.0973550774
C  C162  1  0.06570000  0.20610000  0.03190000  1.0 -0.1579527148
C  C163  1  0.41290000  0.22390000  0.68690000  1.0 0.5912094848
C  C164  1  0.67230000  0.24510000  0.74160000  1.0 0.6042355136
C  C165  1  0.22490000  0.32350000  0.68020000  1.0 -0.0821503917
C  C166  1  0.09500000  0.17500000  0.39650000  1.0 -0.0391542505
C  C167  1  0.46320000  0.98200000  0.71510000  1.0 -0.0557983233
C  C168  1  0.75880000  0.04260000  0.69310000  1.0 0.6042355136
C  C169  1  0.30490000  0.22570000  0.61950000  1.0 -0.0973550774
C  C170  1  0.31270000  0.26030000  0.66130000  1.0 -0.0391542505
C  C171  1  0.48810000  0.93170000  0.67710000  1.0 -0.0878179105
C  C172  1  0.07980000  0.21900000  0.34660000  1.0 0.6477207379
C  C173  1  0.84040000  0.02740000  0.66740000  1.0 -0.0330332009
C  C174  1  0.01520000  0.19520000  0.41770000  1.0 -0.0878179105
C  C175  1  0.53840000  0.99000000  0.74430000  1.0 0.6237197952
C  C176  1  0.71250000  0.49210000  0.34250000  1.0 0.6119673983
C  C177  1  0.19130000  0.10590000  0.42160000  1.0 -0.0973550774
C  C178  1  0.15470000  0.99990000  0.63700000  1.0 -0.1999760426
C  C179  1  0.12630000  0.30670000  0.61930000  1.0 0.0579213785
C  C180  1  0.13320000  0.34660000  0.65990000  1.0 -0.1293531745
C  C181  1  0.12470000  0.09310000  0.49090000  1.0 0.0696343966
C  C182  1  0.83140000  0.21580000  0.72110000  1.0 -0.0973550774
C  C183  1  0.94140000  0.95240000  0.68520000  1.0 -0.0878179105
C  C184  1  0.23010000  0.00450000  0.62110000  1.0 0.0814709669
C  C185  1  0.72050000  0.38210000  0.64820000  1.0 -0.1520461634
C  C186  1  0.76190000  0.45970000  0.39280000  1.0 -0.0222889869
C  C187  1  0.88140000  0.33320000  0.61980000  1.0 0.0814709669
C  C188  1  0.89170000  0.37210000  0.53860000  1.0 0.0814709669
C  C189  1  0.81300000  0.09740000  0.62770000  1.0 -0.0878179105
C  C190  1  0.01640000  0.94780000  0.66400000  1.0 -0.1293531745
C  C191  1  0.97370000  0.31610000  0.63420000  1.0 -0.1999760426
C  C192  1  0.82630000  0.31850000  0.65420000  1.0 0.0696343966
C  C193  1  0.13770000  0.05590000  0.54110000  1.0 0.0814709669
C  C194  1  0.02900000  0.32420000  0.60210000  1.0 0.0814709669
C  C195  1  0.41370000  0.93650000  0.64660000  1.0 -0.1579527148
C  C196  1  0.99130000  0.01970000  0.62510000  1.0 0.0696343966
C  C197  1  0.72530000  0.27650000  0.71430000  1.0 -0.0391542505
C  C198  1  0.66930000  0.36250000  0.67800000  1.0 -0.0878179105
C  C199  1  0.98780000  0.35020000  0.55390000  1.0 -0.1999760426
C  C200  1  0.36330000  0.03490000  0.72410000  1.0 0.0055241422
C  C201  1  0.31290000  0.99090000  0.65480000  1.0 0.0814709669
C  C202  1  0.84090000  0.36210000  0.57190000  1.0 -0.1999760426
C  C203  1  0.21300000  0.24940000  0.59940000  1.0 -0.1520461634
C  C204  1  0.22150000  0.03330000  0.57320000  1.0 -0.1999760426
C  C205  1  0.83880000  0.46420000  0.40730000  1.0 -0.0821503917
C  C206  1  0.07200000  0.02100000  0.60620000  1.0 0.0814709669
C  C207  1  0.02820000  0.15700000  0.46320000  1.0 -0.1520461634
C  C208  1  0.88940000  0.09200000  0.60640000  1.0 -0.1520461634
C  C209  1  0.84710000  0.40230000  0.48840000  1.0 0.0696343966
C  C210  1  0.88230000  0.43570000  0.45480000  1.0 -0.1520461634
C  C211  1  0.88090000  0.23770000  0.69110000  1.0 -0.1520461634
C  C212  1  0.28940000  0.03860000  0.69430000  1.0 -0.1999760426
C  C213  1  0.06530000  0.04790000  0.55890000  1.0 -0.1940426244
C  C214  1  0.77050000  0.39270000  0.47190000  1.0 -0.1579527148
C  C215  1  0.72670000  0.42470000  0.42450000  1.0 -0.0973550774
C  C216  1  0.20610000  0.06570000  0.46810000  1.0 -0.1579527148
O  O1  1  0.02058000  0.22298000  0.22870000  1.0 -0.7246509059
O  O2  1  0.05349000  0.37169000  0.23540000  1.0 -0.7712132795
O  O3  1  0.70701000  0.42461000  0.23040000  1.0 -0.7523397668
O  O4  1  0.51311000  0.23771000  0.81050000  1.0 -0.700488524
O  O5  1  0.85377000  0.50777000  0.17900000  1.0 -0.5436661108
O  O6  1  0.95017000  0.49237000  0.27350000  1.0 -0.5936212106
O  O7  1  0.83346000  0.27646000  0.27290000  1.0 -0.6020581587
O  O8  1  0.73053000  0.58253000  0.22000000  1.0 -0.7523397668
O  O9  1  0.70988000  0.00908000  0.82650000  1.0 -0.6539932354
O  O10  1  0.81800000  0.84180000  0.82730000  1.0 -0.700488524
O  O11  1  0.47300000  0.38080000  0.83320000  1.0 -0.6217824681
O  O12  1  0.87410000  0.33050000  0.18130000  1.0 -0.5789774521
O  O13  1  0.22298000  0.02058000  0.27130000  1.0 -0.7246509059
O  O14  1  0.37169000  0.05349000  0.26460000  1.0 -0.7712132795
O  O15  1  0.42461000  0.70701000  0.26960000  1.0 -0.7563162906
O  O16  1  0.23771000  0.51311000  0.68950000  1.0 -0.700488524
O  O17  1  0.50777000  0.85377000  0.32100000  1.0 -0.5436661108
O  O18  1  0.49237000  0.95017000  0.22650000  1.0 -0.5936212106
O  O19  1  0.27646000  0.83346000  0.22710000  1.0 -0.6020581587
O  O20  1  0.58253000  0.73053000  0.28000000  1.0 -0.7442974909
O  O21  1  0.00908000  0.70988000  0.67350000  1.0 -0.6539932354
O  O22  1  0.84180000  0.81800000  0.67270000  1.0 -0.700488524
O  O23  1  0.38080000  0.47300000  0.66680000  1.0 -0.6217824681
O  O24  1  0.33050000  0.87410000  0.31870000  1.0 -0.5789774521
O  O25  1  0.97942000  0.77702000  0.77130000  1.0 -0.7246509059
O  O26  1  0.94651000  0.62831000  0.76460000  1.0 -0.7712132795
O  O27  1  0.29299000  0.57539000  0.76960000  1.0 -0.7523397668
O  O28  1  0.48689000  0.76229000  0.18950000  1.0 -0.700488524
O  O29  1  0.14623000  0.49223000  0.82100000  1.0 -0.5436661108
O  O30  1  0.04983000  0.50763000  0.72650000  1.0 -0.5936212106
O  O31  1  0.16654000  0.72354000  0.72710000  1.0 -0.6020581587
O  O32  1  0.26947000  0.41747000  0.78000000  1.0 -0.7442974909
O  O33  1  0.29012000  0.99092000  0.17350000  1.0 -0.6539932354
O  O34  1  0.18200000  0.15820000  0.17270000  1.0 -0.700488524
O  O35  1  0.52700000  0.61920000  0.16680000  1.0 -0.6217824681
O  O36  1  0.12590000  0.66950000  0.81870000  1.0 -0.5789774521
O  O37  1  0.77702000  0.97942000  0.72870000  1.0 -0.7246509059
O  O38  1  0.62831000  0.94651000  0.73540000  1.0 -0.7712132795
O  O39  1  0.57539000  0.29299000  0.73040000  1.0 -0.7523397668
O  O40  1  0.76229000  0.48689000  0.31050000  1.0 -0.700488524
O  O41  1  0.49223000  0.14623000  0.67900000  1.0 -0.5436661108
O  O42  1  0.50763000  0.04983000  0.77350000  1.0 -0.5936212106
O  O43  1  0.72354000  0.16654000  0.77290000  1.0 -0.6020581587
O  O44  1  0.41747000  0.26947000  0.72000000  1.0 -0.7442974909
O  O45  1  0.99092000  0.29012000  0.32650000  1.0 -0.6539932354
O  O46  1  0.15820000  0.18200000  0.32730000  1.0 -0.700488524
O  O47  1  0.61920000  0.52700000  0.33320000  1.0 -0.6217824681
O  O48  1  0.66950000  0.12590000  0.68130000  1.0 -0.5789774521
