# DDEC6 charges by PACMAN v1.1 (https://github.com/mtap-research/PACMAN-charge/)
data_JETJOI_ASR_pacman
_symmetry_space_group_name_H-M   'P 1'
_cell_length_a   9.76508000
_cell_length_b   9.76508000
_cell_length_c   11.32800000
_cell_angle_alpha   75.42230000
_cell_angle_beta   104.57800000
_cell_angle_gamma   85.65920000
_symmetry_Int_Tables_number   1
_chemical_formula_structural   NaZnH8(C2O)8
_chemical_formula_sum   'Na2 Zn2 H16 C32 O16'
_cell_volume   1000.56090607
_cell_formula_units_Z   2
loop_
 _symmetry_equiv_pos_site_id
 _symmetry_equiv_pos_as_xyz
  1  'x, y, z'
loop_
 _atom_site_type_symbol
 _atom_site_label
 _atom_site_symmetry_multiplicity
 _atom_site_fract_x
 _atom_site_fract_y
 _atom_site_fract_z
 _atom_site_occupancy
 _atom_site_charge
Na  Na1  1  0.00000000  0.00000000  0.00000000  1.0 0.8786446808
Na  Na2  1  0.00000000  0.00000000  0.50000000  1.0 0.8786446808
Zn  Zn1  1  0.88503000  0.88503000  0.25000000  1.0 0.8979841529
Zn  Zn2  1  0.11497000  0.11497000  0.75000000  1.0 0.8979841529
H  H1  1  0.87850000  0.42990000  0.22170000  1.0 0.139175134
H  H2  1  0.42990000  0.87850000  0.27830000  1.0 0.139175134
H  H3  1  0.12150000  0.57010000  0.77830000  1.0 0.139175134
H  H4  1  0.57010000  0.12150000  0.72170000  1.0 0.139175134
H  H5  1  0.78700000  0.26980000  0.92300000  1.0 0.139175134
H  H6  1  0.26980000  0.78700000  0.57700000  1.0 0.139175134
H  H7  1  0.21300000  0.73020000  0.07700000  1.0 0.139175134
H  H8  1  0.73020000  0.21300000  0.42300000  1.0 0.139175134
H  H9  1  0.75300000  0.49860000  0.78820000  1.0 0.129026538
H  H10  1  0.49860000  0.75300000  0.71180000  1.0 0.129026538
H  H11  1  0.24700000  0.50140000  0.21180000  1.0 0.129026538
H  H12  1  0.50140000  0.24700000  0.28820000  1.0 0.129026538
H  H13  1  0.78740000  0.69080000  0.86980000  1.0 0.129026538
H  H14  1  0.69080000  0.78740000  0.63020000  1.0 0.129026538
H  H15  1  0.21260000  0.30920000  0.13020000  1.0 0.129026538
H  H16  1  0.30920000  0.21260000  0.36980000  1.0 0.129026538
C  C1  1  0.86320000  0.17860000  0.17670000  1.0 0.5937342851
C  C2  1  0.17860000  0.86320000  0.32330000  1.0 0.5937342851
C  C3  1  0.13680000  0.82140000  0.82330000  1.0 0.5937342851
C  C4  1  0.82140000  0.13680000  0.67670000  1.0 0.5937342851
C  C5  1  0.83780000  0.32620000  0.08650000  1.0 -0.0188292728
C  C6  1  0.32620000  0.83780000  0.41350000  1.0 -0.0188292728
C  C7  1  0.16220000  0.67380000  0.91350000  1.0 -0.0188292728
C  C8  1  0.67380000  0.16220000  0.58650000  1.0 -0.0188292728
C  C9  1  0.85470000  0.44330000  0.13430000  1.0 -0.0880122114
C  C10  1  0.44330000  0.85470000  0.36570000  1.0 -0.0880122114
C  C11  1  0.14530000  0.55670000  0.86570000  1.0 -0.0880122114
C  C12  1  0.55670000  0.14530000  0.63430000  1.0 -0.0880122114
C  C13  1  0.79940000  0.34740000  0.95620000  1.0 -0.0880122114
C  C14  1  0.34740000  0.79940000  0.54380000  1.0 -0.0880122114
C  C15  1  0.20060000  0.65260000  0.04380000  1.0 -0.0880122114
C  C16  1  0.65260000  0.20060000  0.45620000  1.0 -0.0880122114
C  C17  1  0.83650000  0.57970000  0.05340000  1.0 -0.0118905238
C  C18  1  0.57970000  0.83650000  0.44660000  1.0 -0.0118905238
C  C19  1  0.16350000  0.42030000  0.94660000  1.0 -0.0118905238
C  C20  1  0.42030000  0.16350000  0.55340000  1.0 -0.0118905238
C  C21  1  0.77970000  0.48430000  0.87570000  1.0 -0.0832867862
C  C22  1  0.48430000  0.77970000  0.62430000  1.0 -0.0832867862
C  C23  1  0.22030000  0.51570000  0.12430000  1.0 -0.0832867862
C  C24  1  0.51570000  0.22030000  0.37570000  1.0 -0.0832867862
C  C25  1  0.79930000  0.59930000  0.92450000  1.0 -0.0880122114
C  C26  1  0.59930000  0.79930000  0.57550000  1.0 -0.0880122114
C  C27  1  0.20070000  0.40070000  0.07550000  1.0 -0.0880122114
C  C28  1  0.40070000  0.20070000  0.42450000  1.0 -0.0880122114
C  C29  1  0.85810000  0.70570000  0.10530000  1.0 0.5713442027
C  C30  1  0.70570000  0.85810000  0.39470000  1.0 0.5713442027
C  C31  1  0.14190000  0.29430000  0.89470000  1.0 0.5713442027
C  C32  1  0.29430000  0.14190000  0.60530000  1.0 0.5713442027
O  O1  1  0.85654000  0.07542000  0.12550000  1.0 -0.5860543789
O  O2  1  0.07542000  0.85654000  0.37450000  1.0 -0.5860543789
O  O3  1  0.14346000  0.92458000  0.87450000  1.0 -0.5860543789
O  O4  1  0.92458000  0.14346000  0.62550000  1.0 -0.5860543789
O  O5  1  0.88740000  0.16260000  0.29160000  1.0 -0.5636279524
O  O6  1  0.16260000  0.88740000  0.20840000  1.0 -0.5636279524
O  O7  1  0.11260000  0.83740000  0.70840000  1.0 -0.5636279524
O  O8  1  0.83740000  0.11260000  0.79160000  1.0 -0.5636279524
O  O9  1  0.88640000  0.68620000  0.22350000  1.0 -0.4956314952
O  O10  1  0.68620000  0.88640000  0.27650000  1.0 -0.4956314952
O  O11  1  0.11360000  0.31380000  0.77650000  1.0 -0.4956314952
O  O12  1  0.31380000  0.11360000  0.72350000  1.0 -0.4956314952
O  O13  1  0.84450000  0.82630000  0.03150000  1.0 -0.5664392055
O  O14  1  0.82630000  0.84450000  0.46850000  1.0 -0.5664392055
O  O15  1  0.15550000  0.17370000  0.96850000  1.0 -0.5664392055
O  O16  1  0.17370000  0.15550000  0.53150000  1.0 -0.5664392055
