# DDEC6 charges by PACMAN v1.1 (https://github.com/mtap-research/PACMAN-charge/)
data_JETZAK_ASR_pacman
_symmetry_space_group_name_H-M   'P 1'
_cell_length_a   11.39180000
_cell_length_b   26.99800000
_cell_length_c   11.42990000
_cell_angle_alpha   90.00000000
_cell_angle_beta   94.28300000
_cell_angle_gamma   90.00000000
_symmetry_Int_Tables_number   1
_chemical_formula_structural   Mg3H68C74(N2O9)2
_chemical_formula_sum   'Mg6 H136 C148 N8 O36'
_cell_volume   3505.51508506
_cell_formula_units_Z   2
loop_
 _symmetry_equiv_pos_site_id
 _symmetry_equiv_pos_as_xyz
  1  'x, y, z'
loop_
 _atom_site_type_symbol
 _atom_site_label
 _atom_site_symmetry_multiplicity
 _atom_site_fract_x
 _atom_site_fract_y
 _atom_site_fract_z
 _atom_site_occupancy
 _atom_site_charge
Mg  Mg1  1  0.00000000  0.50000000  0.00000000  1.0 1.342604942
Mg  Mg2  1  0.50000000  0.00000000  0.00000000  1.0 1.342604942
Mg  Mg3  1  0.86026000  0.46172000  0.24997000  1.0 1.0830190549
Mg  Mg4  1  0.63974000  0.96172000  0.75003000  1.0 1.0830190549
Mg  Mg5  1  0.13974000  0.53828000  0.75003000  1.0 1.0830190549
Mg  Mg6  1  0.36026000  0.03828000  0.24997000  1.0 1.0830190549
H  H1  1  0.17690000  0.46050000  0.47200000  1.0 0.1104898195
H  H2  1  0.32310000  0.96050000  0.52800000  1.0 0.1104898195
H  H3  1  0.82310000  0.53950000  0.52800000  1.0 0.1104898195
H  H4  1  0.67690000  0.03950000  0.47200000  1.0 0.1104898195
H  H5  1  0.35210000  0.47330000  0.58830000  1.0 0.1104898195
H  H6  1  0.14790000  0.97330000  0.41170000  1.0 0.1104898195
H  H7  1  0.64790000  0.52670000  0.41170000  1.0 0.1104898195
H  H8  1  0.85210000  0.02670000  0.58830000  1.0 0.1104898195
H  H9  1  0.49530000  0.53910000  0.31380000  1.0 0.0827018669
H  H10  1  0.00470000  0.03910000  0.68620000  1.0 0.0827018669
H  H11  1  0.50470000  0.46090000  0.68620000  1.0 0.0827018669
H  H12  1  0.99530000  0.96090000  0.31380000  1.0 0.0827018669
H  H13  1  0.32000000  0.52630000  0.19750000  1.0 0.0996988782
H  H14  1  0.18000000  0.02630000  0.80250000  1.0 0.0996988782
H  H15  1  0.68000000  0.47370000  0.80250000  1.0 0.0996988782
H  H16  1  0.82000000  0.97370000  0.19750000  1.0 0.0996988782
H  H17  1  0.76150000  0.62200000  0.30810000  1.0 0.1198982739
H  H18  1  0.73850000  0.12200000  0.69190000  1.0 0.1198982739
H  H19  1  0.23850000  0.37800000  0.69190000  1.0 0.1198982739
H  H20  1  0.26150000  0.87800000  0.30810000  1.0 0.1198982739
H  H21  1  0.71210000  0.70330000  0.25770000  1.0 0.1198982739
H  H22  1  0.78790000  0.20330000  0.74230000  1.0 0.1198982739
H  H23  1  0.28790000  0.29670000  0.74230000  1.0 0.1198982739
H  H24  1  0.21210000  0.79670000  0.25770000  1.0 0.1198982739
H  H25  1  0.77660000  0.67460000  0.92230000  1.0 0.1104898195
H  H26  1  0.72340000  0.17460000  0.07770000  1.0 0.1104898195
H  H27  1  0.22340000  0.32540000  0.07770000  1.0 0.1104898195
H  H28  1  0.27660000  0.82540000  0.92230000  1.0 0.1104898195
H  H29  1  0.82630000  0.59320000  0.97240000  1.0 0.1104898195
H  H30  1  0.67370000  0.09320000  0.02760000  1.0 0.1104898195
H  H31  1  0.17370000  0.40680000  0.02760000  1.0 0.1104898195
H  H32  1  0.32630000  0.90680000  0.97240000  1.0 0.1104898195
H  H33  1  0.79480000  0.78790000  0.19210000  1.0 0.0827018669
H  H34  1  0.70520000  0.28790000  0.80790000  1.0 0.0827018669
H  H35  1  0.20520000  0.21210000  0.80790000  1.0 0.0827018669
H  H36  1  0.29480000  0.71210000  0.19210000  1.0 0.0827018669
H  H37  1  0.70890000  0.86510000  0.14440000  1.0 0.1104898195
H  H38  1  0.79110000  0.36510000  0.85560000  1.0 0.1104898195
H  H39  1  0.29110000  0.13490000  0.85560000  1.0 0.1104898195
H  H40  1  0.20890000  0.63490000  0.14440000  1.0 0.1104898195
H  H41  1  0.54100000  0.80780000  0.85250000  1.0 0.0996988782
H  H42  1  0.95900000  0.30780000  0.14750000  1.0 0.0996988782
H  H43  1  0.45900000  0.19220000  0.14750000  1.0 0.0996988782
H  H44  1  0.04100000  0.69220000  0.85250000  1.0 0.0996988782
H  H45  1  0.61730000  0.72920000  0.90140000  1.0 0.0827018669
H  H46  1  0.88270000  0.22920000  0.09860000  1.0 0.0827018669
H  H47  1  0.38270000  0.27080000  0.09860000  1.0 0.0827018669
H  H48  1  0.11730000  0.77080000  0.90140000  1.0 0.0827018669
H  H49  1  0.61780000  0.42140000  0.32450000  1.0 0.0827018669
H  H50  1  0.88220000  0.92140000  0.67550000  1.0 0.0827018669
H  H51  1  0.38220000  0.57860000  0.67550000  1.0 0.0827018669
H  H52  1  0.11780000  0.07860000  0.32450000  1.0 0.0827018669
H  H53  1  0.43200000  0.35060000  0.22370000  1.0 0.1198982739
H  H54  1  0.06800000  0.85060000  0.77630000  1.0 0.1198982739
H  H55  1  0.56800000  0.64940000  0.77630000  1.0 0.1198982739
H  H56  1  0.93200000  0.14940000  0.22370000  1.0 0.1198982739
H  H57  1  0.33900000  0.39510000  0.22280000  1.0 0.129088215
H  H58  1  0.16100000  0.89510000  0.77720000  1.0 0.129088215
H  H59  1  0.66100000  0.60490000  0.77720000  1.0 0.129088215
H  H60  1  0.83900000  0.10490000  0.22280000  1.0 0.129088215
H  H61  1  0.43700000  0.38940000  0.32980000  1.0 0.1198982739
H  H62  1  0.06300000  0.88940000  0.67020000  1.0 0.1198982739
H  H63  1  0.56300000  0.61060000  0.67020000  1.0 0.1198982739
H  H64  1  0.93700000  0.11060000  0.32980000  1.0 0.1198982739
H  H65  1  0.42690000  0.46280000  0.06950000  1.0 0.0051414511
H  H66  1  0.07310000  0.96280000  0.93050000  1.0 0.0051414511
H  H67  1  0.57310000  0.53720000  0.93050000  1.0 0.0051414511
H  H68  1  0.92690000  0.03720000  0.06950000  1.0 0.0051414511
H  H69  1  0.46990000  0.41220000  0.01360000  1.0 0.1384988645
H  H70  1  0.03010000  0.91220000  0.98640000  1.0 0.1384988645
H  H71  1  0.53010000  0.58780000  0.98640000  1.0 0.1384988645
H  H72  1  0.96990000  0.08780000  0.01360000  1.0 0.1384988645
H  H73  1  0.56420000  0.45340000  0.05730000  1.0 0.1104898195
H  H74  1  0.93580000  0.95340000  0.94270000  1.0 0.1104898195
H  H75  1  0.43580000  0.54660000  0.94270000  1.0 0.1104898195
H  H76  1  0.06420000  0.04660000  0.05730000  1.0 0.1104898195
H  H77  1  0.83770000  0.52430000  0.51650000  1.0 0.1104898195
H  H78  1  0.66230000  0.02430000  0.48350000  1.0 0.1104898195
H  H79  1  0.16230000  0.47570000  0.48350000  1.0 0.1104898195
H  H80  1  0.33770000  0.97570000  0.51650000  1.0 0.1104898195
H  H81  1  0.65880000  0.51840000  0.40260000  1.0 0.1104898195
H  H82  1  0.84120000  0.01840000  0.59740000  1.0 0.1104898195
H  H83  1  0.34120000  0.48160000  0.59740000  1.0 0.1104898195
H  H84  1  0.15880000  0.98160000  0.40260000  1.0 0.1104898195
H  H85  1  0.48290000  0.51980000  0.69790000  1.0 0.0827018669
H  H86  1  0.01710000  0.01980000  0.30210000  1.0 0.0827018669
H  H87  1  0.51710000  0.48020000  0.30210000  1.0 0.0827018669
H  H88  1  0.98290000  0.98020000  0.69790000  1.0 0.0827018669
H  H89  1  0.66170000  0.52570000  0.81190000  1.0 0.0827018669
H  H90  1  0.83830000  0.02570000  0.18810000  1.0 0.0827018669
H  H91  1  0.33830000  0.47430000  0.18810000  1.0 0.0827018669
H  H92  1  0.16170000  0.97430000  0.81190000  1.0 0.0827018669
H  H93  1  0.56960000  0.75610000  0.16330000  1.0 0.0889423502
H  H94  1  0.93040000  0.25610000  0.83670000  1.0 0.0889423502
H  H95  1  0.43040000  0.24390000  0.83670000  1.0 0.0889423502
H  H96  1  0.06960000  0.74390000  0.16330000  1.0 0.0889423502
H  H97  1  0.51980000  0.83730000  0.11480000  1.0 0.0996988782
H  H98  1  0.98020000  0.33730000  0.88520000  1.0 0.0996988782
H  H99  1  0.48020000  0.16270000  0.88520000  1.0 0.0996988782
H  H100  1  0.01980000  0.66270000  0.11480000  1.0 0.0996988782
H  H101  1  0.76500000  0.83810000  0.87710000  1.0 0.0497064356
H  H102  1  0.73500000  0.33810000  0.12290000  1.0 0.0497064356
H  H103  1  0.23500000  0.16190000  0.12290000  1.0 0.0497064356
H  H104  1  0.26500000  0.66190000  0.87710000  1.0 0.0497064356
H  H105  1  0.81890000  0.75710000  0.92930000  1.0 0.0889423502
H  H106  1  0.68110000  0.25710000  0.07070000  1.0 0.0889423502
H  H107  1  0.18110000  0.24290000  0.07070000  1.0 0.0889423502
H  H108  1  0.31890000  0.74290000  0.92930000  1.0 0.0889423502
H  H109  1  0.70450000  0.37010000  0.21680000  1.0 0.0720322834
H  H110  1  0.79550000  0.87010000  0.78320000  1.0 0.0720322834
H  H111  1  0.29550000  0.62990000  0.78320000  1.0 0.0720322834
H  H112  1  0.20450000  0.12990000  0.21680000  1.0 0.0720322834
H  H113  1  0.46260000  0.32090000  0.06560000  1.0 0.1104898195
H  H114  1  0.03740000  0.82090000  0.93440000  1.0 0.1104898195
H  H115  1  0.53740000  0.67910000  0.93440000  1.0 0.1104898195
H  H116  1  0.96260000  0.17910000  0.06560000  1.0 0.1104898195
H  H117  1  0.57010000  0.30910000  0.15970000  1.0 0.1104898195
H  H118  1  0.92990000  0.80910000  0.84030000  1.0 0.1104898195
H  H119  1  0.42990000  0.69090000  0.84030000  1.0 0.1104898195
H  H120  1  0.07010000  0.19090000  0.15970000  1.0 0.1104898195
H  H121  1  0.59280000  0.31470000  0.02390000  1.0 0.1104898195
H  H122  1  0.90720000  0.81470000  0.97610000  1.0 0.1104898195
H  H123  1  0.40720000  0.68530000  0.97610000  1.0 0.1104898195
H  H124  1  0.09280000  0.18530000  0.02390000  1.0 0.1104898195
H  H125  1  0.58230000  0.44140000  0.03130000  1.0 0.0996988782
H  H126  1  0.91770000  0.94140000  0.96870000  1.0 0.0996988782
H  H127  1  0.41770000  0.55860000  0.96870000  1.0 0.0996988782
H  H128  1  0.08230000  0.05860000  0.03130000  1.0 0.0996988782
H  H129  1  0.45450000  0.41710000  0.00850000  1.0 0.1384988645
H  H130  1  0.04550000  0.91710000  0.99150000  1.0 0.1384988645
H  H131  1  0.54550000  0.58290000  0.99150000  1.0 0.1384988645
H  H132  1  0.95450000  0.08290000  0.00850000  1.0 0.1384988645
H  H133  1  0.56200000  0.39670000  0.94000000  1.0 0.0497064356
H  H134  1  0.93800000  0.89670000  0.06000000  1.0 0.0497064356
H  H135  1  0.43800000  0.60330000  0.06000000  1.0 0.0497064356
H  H136  1  0.06200000  0.10330000  0.94000000  1.0 0.0497064356
C  C1  1  0.11580000  0.48098000  0.25150000  1.0 0.4660109861
C  C2  1  0.38420000  0.98098000  0.74850000  1.0 0.4660109861
C  C3  1  0.88420000  0.51902000  0.74850000  1.0 0.4649235377
C  C4  1  0.61580000  0.01902000  0.25150000  1.0 0.4660109861
C  C5  1  0.23200000  0.49220000  0.32380000  1.0 0.0497064356
C  C6  1  0.26800000  0.99220000  0.67620000  1.0 0.0497064356
C  C7  1  0.76800000  0.50780000  0.67620000  1.0 0.0497064356
C  C8  1  0.73200000  0.00780000  0.32380000  1.0 0.0497064356
C  C9  1  0.24150000  0.47650000  0.43990000  1.0 -0.1265071388
C  C10  1  0.25850000  0.97650000  0.56010000  1.0 -0.1265071388
C  C11  1  0.75850000  0.52350000  0.56010000  1.0 -0.1265071388
C  C12  1  0.74150000  0.02350000  0.43990000  1.0 -0.1265071388
C  C13  1  0.34560000  0.48400000  0.50900000  1.0 -0.1774465447
C  C14  1  0.15440000  0.98400000  0.49100000  1.0 -0.1774465447
C  C15  1  0.65440000  0.51600000  0.49100000  1.0 -0.1774465447
C  C16  1  0.84560000  0.01600000  0.50900000  1.0 -0.1774465447
C  C17  1  0.44020000  0.50740000  0.46200000  1.0 0.0720322834
C  C18  1  0.05980000  0.00740000  0.53800000  1.0 0.0720322834
C  C19  1  0.55980000  0.49260000  0.53800000  1.0 0.0720322834
C  C20  1  0.94020000  0.99260000  0.46200000  1.0 0.0720322834
C  C21  1  0.43060000  0.52310000  0.34590000  1.0 -0.1090265717
C  C22  1  0.06940000  0.02310000  0.65410000  1.0 -0.1090265717
C  C23  1  0.56940000  0.47690000  0.65410000  1.0 -0.1090265717
C  C24  1  0.93060000  0.97690000  0.34590000  1.0 -0.1090265717
C  C25  1  0.32650000  0.51560000  0.27680000  1.0 -0.0407278511
C  C26  1  0.17350000  0.01560000  0.72320000  1.0 -0.0407278511
C  C27  1  0.67350000  0.48440000  0.72320000  1.0 -0.0407278511
C  C28  1  0.82650000  0.98440000  0.27680000  1.0 -0.0407278511
C  C29  1  0.82850000  0.54776000  0.18140000  1.0 0.3996346165
C  C30  1  0.67150000  0.04776000  0.81860000  1.0 0.3943916628
C  C31  1  0.17150000  0.45224000  0.81860000  1.0 0.3996346165
C  C32  1  0.32850000  0.95224000  0.18140000  1.0 0.3996346165
C  C33  1  0.79940000  0.59969000  0.14530000  1.0 -0.0294645309
C  C34  1  0.70060000  0.09969000  0.85470000  1.0 -0.0294645309
C  C35  1  0.20060000  0.40031000  0.85470000  1.0 -0.0294645309
C  C36  1  0.29940000  0.90031000  0.14530000  1.0 -0.0294645309
C  C37  1  0.76480000  0.63265000  0.22920000  1.0 -0.1090265717
C  C38  1  0.73520000  0.13265000  0.77080000  1.0 -0.1090265717
C  C39  1  0.23520000  0.36735000  0.77080000  1.0 -0.1090265717
C  C40  1  0.26480000  0.86735000  0.22920000  1.0 -0.1090265717
C  C41  1  0.73500000  0.68110000  0.19910000  1.0 -0.1774465447
C  C42  1  0.76500000  0.18110000  0.80090000  1.0 -0.1774465447
C  C43  1  0.26500000  0.31890000  0.80090000  1.0 -0.1774465447
C  C44  1  0.23500000  0.81890000  0.19910000  1.0 -0.1774465447
C  C45  1  0.73820000  0.69732000  0.08490000  1.0 0.0497064356
C  C46  1  0.76180000  0.19732000  0.91510000  1.0 0.0497064356
C  C47  1  0.26180000  0.30268000  0.91510000  1.0 0.0497064356
C  C48  1  0.23820000  0.80268000  0.08490000  1.0 0.0497064356
C  C49  1  0.77320000  0.66394000  0.00120000  1.0 -0.2229343435
C  C50  1  0.72680000  0.16394000  0.99880000  1.0 -0.2229343435
C  C51  1  0.22680000  0.33606000  0.99880000  1.0 -0.2229343435
C  C52  1  0.27320000  0.83606000  0.00120000  1.0 -0.2229343435
C  C53  1  0.80320000  0.61548000  0.03080000  1.0 -0.1436643606
C  C54  1  0.69680000  0.11548000  0.96920000  1.0 -0.1436643606
C  C55  1  0.19680000  0.38452000  0.96920000  1.0 -0.1436643606
C  C56  1  0.30320000  0.88452000  0.03080000  1.0 -0.1436643606
C  C57  1  0.70310000  0.74870000  0.05230000  1.0 0.0497064356
C  C58  1  0.79690000  0.24870000  0.94770000  1.0 0.0497064356
C  C59  1  0.29690000  0.25130000  0.94770000  1.0 0.0497064356
C  C60  1  0.20310000  0.75130000  0.05230000  1.0 0.0497064356
C  C61  1  0.74100000  0.79160000  0.12510000  1.0 -0.0703764067
C  C62  1  0.75900000  0.29160000  0.87490000  1.0 -0.0703764067
C  C63  1  0.25900000  0.20840000  0.87490000  1.0 -0.0703764067
C  C64  1  0.24100000  0.70840000  0.12510000  1.0 -0.0703764067
C  C65  1  0.69500000  0.83790000  0.09250000  1.0 -0.078324881
C  C66  1  0.80500000  0.33790000  0.90750000  1.0 -0.078324881
C  C67  1  0.30500000  0.16210000  0.90750000  1.0 -0.078324881
C  C68  1  0.19500000  0.66210000  0.09250000  1.0 -0.078324881
C  C69  1  0.63200000  0.84525000  0.99010000  1.0 -0.011912736
C  C70  1  0.86800000  0.34525000  0.00990000  1.0 -0.011912736
C  C71  1  0.36800000  0.15475000  0.00990000  1.0 -0.011912736
C  C72  1  0.13200000  0.65475000  0.99010000  1.0 -0.011912736
C  C73  1  0.59410000  0.80360000  0.91990000  1.0 -0.0703764067
C  C74  1  0.90590000  0.30360000  0.08010000  1.0 -0.0703764067
C  C75  1  0.40590000  0.19640000  0.08010000  1.0 -0.0703764067
C  C76  1  0.09410000  0.69640000  0.91990000  1.0 -0.0703764067
C  C77  1  0.63630000  0.75650000  0.95190000  1.0 -0.0703764067
C  C78  1  0.86370000  0.25650000  0.04810000  1.0 -0.0703764067
C  C79  1  0.36370000  0.24350000  0.04810000  1.0 -0.0703764067
C  C80  1  0.13630000  0.74350000  0.95190000  1.0 -0.0703764067
C  C81  1  0.59390000  0.89630000  0.94940000  1.0 0.4660109861
C  C82  1  0.90610000  0.39630000  0.05060000  1.0 0.4660109861
C  C83  1  0.40610000  0.10370000  0.05060000  1.0 0.4660109861
C  C84  1  0.09390000  0.60370000  0.94940000  1.0 0.4660109861
C  C85  1  0.60310000  0.43190000  0.24540000  1.0 0.129088215
C  C86  1  0.89690000  0.93190000  0.75460000  1.0 0.129088215
C  C87  1  0.39690000  0.56810000  0.75460000  1.0 0.129088215
C  C88  1  0.10310000  0.06810000  0.24540000  1.0 0.129088215
C  C89  1  0.42060000  0.38530000  0.24500000  1.0 -0.4473856842
C  C90  1  0.07940000  0.88530000  0.75500000  1.0 -0.4473856842
C  C91  1  0.57940000  0.61470000  0.75500000  1.0 -0.4473856842
C  C92  1  0.92060000  0.11470000  0.24500000  1.0 -0.4473856842
C  C93  1  0.48930000  0.43780000  0.07290000  1.0 -0.1950920901
C  C94  1  0.01070000  0.93780000  0.92710000  1.0 -0.1950920901
C  C95  1  0.51070000  0.56220000  0.92710000  1.0 -0.1950920901
C  C96  1  0.98930000  0.06220000  0.07290000  1.0 -0.1950920901
C  C97  1  0.76650000  0.52560000  0.67490000  1.0 0.0423147822
C  C98  1  0.73350000  0.02560000  0.32510000  1.0 0.0423147822
C  C99  1  0.23350000  0.47440000  0.32510000  1.0 0.0423147822
C  C100  1  0.26650000  0.97440000  0.67490000  1.0 0.0423147822
C  C101  1  0.76570000  0.52340000  0.55330000  1.0 -0.1265071388
C  C102  1  0.73430000  0.02340000  0.44670000  1.0 -0.1265071388
C  C103  1  0.23430000  0.47660000  0.44670000  1.0 -0.1265071388
C  C104  1  0.26570000  0.97660000  0.55330000  1.0 -0.1265071388
C  C105  1  0.65940000  0.51990000  0.48570000  1.0 -0.1866165107
C  C106  1  0.84060000  0.01990000  0.51430000  1.0 -0.1866165107
C  C107  1  0.34060000  0.48010000  0.51430000  1.0 -0.1866165107
C  C108  1  0.15940000  0.98010000  0.48570000  1.0 -0.1866165107
C  C109  1  0.55410000  0.51860000  0.53950000  1.0 0.0497064356
C  C110  1  0.94590000  0.01860000  0.46050000  1.0 0.0497064356
C  C111  1  0.44590000  0.48140000  0.46050000  1.0 0.0497064356
C  C112  1  0.05410000  0.98140000  0.53950000  1.0 0.0497064356
C  C113  1  0.55490000  0.52070000  0.66110000  1.0 -0.0927572107
C  C114  1  0.94510000  0.02070000  0.33890000  1.0 -0.0927572107
C  C115  1  0.44510000  0.47930000  0.33890000  1.0 -0.0927572107
C  C116  1  0.05490000  0.97930000  0.66110000  1.0 -0.0927572107
C  C117  1  0.66120000  0.52420000  0.72880000  1.0 -0.0537730275
C  C118  1  0.83880000  0.02420000  0.27120000  1.0 -0.0537730275
C  C119  1  0.33880000  0.47580000  0.27120000  1.0 -0.0537730275
C  C120  1  0.16120000  0.97580000  0.72880000  1.0 -0.0537730275
C  C121  1  0.61050000  0.77296000  0.10590000  1.0 -0.0558882338
C  C122  1  0.88950000  0.27296000  0.89410000  1.0 -0.0558882338
C  C123  1  0.38950000  0.22704000  0.89410000  1.0 -0.0558882338
C  C124  1  0.11050000  0.72704000  0.10590000  1.0 -0.0558882338
C  C125  1  0.57930000  0.82105000  0.07520000  1.0 -0.0558882338
C  C126  1  0.92070000  0.32105000  0.92480000  1.0 -0.0558882338
C  C127  1  0.42070000  0.17895000  0.92480000  1.0 -0.0558882338
C  C128  1  0.07930000  0.67895000  0.07520000  1.0 -0.0558882338
C  C129  1  0.72520000  0.82120000  0.93540000  1.0 -0.1090265717
C  C130  1  0.77480000  0.32120000  0.06460000  1.0 -0.1090265717
C  C131  1  0.27480000  0.17880000  0.06460000  1.0 -0.1090265717
C  C132  1  0.22520000  0.67880000  0.93540000  1.0 -0.1090265717
C  C133  1  0.75790000  0.77311000  0.96720000  1.0 -0.078324881
C  C134  1  0.74210000  0.27311000  0.03280000  1.0 -0.078324881
C  C135  1  0.24210000  0.22689000  0.03280000  1.0 -0.078324881
C  C136  1  0.25790000  0.72689000  0.96720000  1.0 -0.078324881
C  C137  1  0.66090000  0.39390000  0.17030000  1.0 0.0889423502
C  C138  1  0.83910000  0.89390000  0.82970000  1.0 0.0889423502
C  C139  1  0.33910000  0.60610000  0.82970000  1.0 0.0889423502
C  C140  1  0.16090000  0.10610000  0.17030000  1.0 0.0889423502
C  C141  1  0.54640000  0.32680000  0.08680000  1.0 -0.4044370285
C  C142  1  0.95360000  0.82680000  0.91320000  1.0 -0.4044370285
C  C143  1  0.45360000  0.67320000  0.91320000  1.0 -0.4044370285
C  C144  1  0.04640000  0.17320000  0.08680000  1.0 -0.4044370285
C  C145  1  0.53930000  0.41050000  0.01430000  1.0 -0.2120251289
C  C146  1  0.96070000  0.91050000  0.98570000  1.0 -0.2120251289
C  C147  1  0.46070000  0.58950000  0.98570000  1.0 -0.2120251289
C  C148  1  0.03930000  0.08950000  0.01430000  1.0 -0.2120251289
N  N1  1  0.49920000  0.41610000  0.18440000  1.0 0.0003898217
N  N2  1  0.00080000  0.91610000  0.81560000  1.0 0.0003898217
N  N3  1  0.50080000  0.58390000  0.81560000  1.0 0.0003898217
N  N4  1  0.99920000  0.08390000  0.18440000  1.0 0.0003898217
N  N5  1  0.56580000  0.37710000  0.10280000  1.0 0.0552593166
N  N6  1  0.93420000  0.87710000  0.89720000  1.0 0.0552593166
N  N7  1  0.43420000  0.62290000  0.89720000  1.0 0.0552593166
N  N8  1  0.06580000  0.12290000  0.10280000  1.0 0.0552593166
O  O1  1  0.81170000  0.53453000  0.28399000  1.0 -0.5790471664
O  O2  1  0.68830000  0.03453000  0.71601000  1.0 -0.5790471664
O  O3  1  0.18830000  0.46547000  0.71601000  1.0 -0.5790471664
O  O4  1  0.31170000  0.96547000  0.28399000  1.0 -0.5790471664
O  O5  1  0.86686000  0.51705000  0.10967000  1.0 -0.6580220988
O  O6  1  0.63314000  0.01705000  0.89033000  1.0 -0.6580220988
O  O7  1  0.13314000  0.48295000  0.89033000  1.0 -0.6580220988
O  O8  1  0.36686000  0.98295000  0.10967000  1.0 -0.6580220988
O  O9  1  0.57700000  0.90260000  0.84190000  1.0 -0.1265071388
O  O10  1  0.92300000  0.40260000  0.15810000  1.0 -0.1265071388
O  O11  1  0.42300000  0.09740000  0.15810000  1.0 -0.1265071388
O  O12  1  0.07700000  0.59740000  0.84190000  1.0 -0.1265071388
O  O13  1  0.02665000  0.47587000  0.30904000  1.0 -0.622601234
O  O14  1  0.47335000  0.97587000  0.69096000  1.0 -0.622601234
O  O15  1  0.97335000  0.52413000  0.69096000  1.0 -0.622601234
O  O16  1  0.52665000  0.02413000  0.30904000  1.0 -0.622601234
O  O17  1  0.67660000  0.45840000  0.20380000  1.0 -0.1049919581
O  O18  1  0.82340000  0.95840000  0.79620000  1.0 -0.1049919581
O  O19  1  0.32340000  0.54160000  0.79620000  1.0 -0.1049919581
O  O20  1  0.17660000  0.04160000  0.20380000  1.0 -0.1049919581
O  O21  1  0.56312000  0.92694000  0.02156000  1.0 -0.5790471664
O  O22  1  0.93688000  0.42694000  0.97844000  1.0 -0.5790471664
O  O23  1  0.43688000  0.07306000  0.97844000  1.0 -0.5790471664
O  O24  1  0.06312000  0.57306000  0.02156000  1.0 -0.5790471664
O  O25  1  0.11752000  0.48313000  0.14269000  1.0 -0.5986900559
O  O26  1  0.38248000  0.98313000  0.85731000  1.0 -0.5986900559
O  O27  1  0.88248000  0.51687000  0.85731000  1.0 -0.5986900559
O  O28  1  0.61752000  0.01687000  0.14269000  1.0 -0.5986900559
O  O29  1  0.86800000  0.40520000  0.15730000  1.0 -0.2568253955
O  O30  1  0.63200000  0.90520000  0.84270000  1.0 -0.2568253955
O  O31  1  0.13200000  0.59480000  0.84270000  1.0 -0.2568253955
O  O32  1  0.36800000  0.09480000  0.15730000  1.0 -0.2568253955
O  O33  1  0.69620000  0.43780000  0.17670000  1.0 -0.0407278511
O  O34  1  0.80380000  0.93780000  0.82330000  1.0 -0.0407278511
O  O35  1  0.30380000  0.56220000  0.82330000  1.0 -0.0407278511
O  O36  1  0.19620000  0.06220000  0.17670000  1.0 -0.0407278511
