# DDEC6 charges by PACMAN v1.1 (https://github.com/mtap-research/PACMAN-charge/)
data_JEWXER_FSR_pacman
_symmetry_space_group_name_H-M   'P 1'
_cell_length_a   13.89200000
_cell_length_b   14.00100000
_cell_length_c   18.45400000
_cell_angle_alpha   76.28000000
_cell_angle_beta   70.15000000
_cell_angle_gamma   68.73000000
_symmetry_Int_Tables_number   1
_chemical_formula_structural   Cd3H21C33N9O11
_chemical_formula_sum   'Cd6 H42 C66 N18 O22'
_cell_volume   3119.38088226
_cell_formula_units_Z   2
loop_
 _symmetry_equiv_pos_site_id
 _symmetry_equiv_pos_as_xyz
  1  'x, y, z'
loop_
 _atom_site_type_symbol
 _atom_site_label
 _atom_site_symmetry_multiplicity
 _atom_site_fract_x
 _atom_site_fract_y
 _atom_site_fract_z
 _atom_site_occupancy
 _atom_site_charge
Cd  Cd1  1  0.11684000  0.98986000  0.82131000  1.0 0.8381111961
Cd  Cd2  1  0.28058000  0.96782000  0.59895000  1.0 0.8933522444
Cd  Cd3  1  0.15267000  0.86887000  0.02806000  1.0 0.7919965129
Cd  Cd4  1  0.88316000  0.01014000  0.17869000  1.0 0.8381111961
Cd  Cd5  1  0.71942000  0.03218000  0.40105000  1.0 0.8933522444
Cd  Cd6  1  0.84733000  0.13113000  0.97194000  1.0 0.7919965129
H  H1  1  0.63439000  0.96965000  0.65762000  1.0 0.2885472517
H  H2  1  0.14437000  0.50153000  0.97977000  1.0 0.2714469176
H  H3  1  0.77317000  0.45143000  0.73034000  1.0 0.2762828212
H  H4  1  0.14879000  0.64610000  0.00210000  1.0 0.1055066403
H  H5  1  0.11756000  0.75948000  0.79265000  1.0 0.1324764121
H  H6  1  0.15325000  0.35059000  0.05278000  1.0 0.1324764121
H  H7  1  0.14158000  0.18488000  0.07671000  1.0 0.1324764121
H  H8  1  0.11020000  0.22171000  0.86385000  1.0 0.121439949
H  H9  1  0.11681000  0.38639000  0.84376000  1.0 0.139544465
H  H10  1  0.34627000  0.99381000  0.85265000  1.0 0.121439949
H  H11  1  0.49032000  0.97531000  0.63357000  1.0 0.121439949
H  H12  1  0.73371000  0.98413000  0.80208000  1.0 0.139544465
H  H13  1  0.91050000  0.97194000  0.78363000  1.0 0.121439949
H  H14  1  0.97127000  0.94857000  0.55925000  1.0 0.1324764121
H  H15  1  0.79856000  0.95484000  0.58088000  1.0 0.139544465
H  H16  1  0.07442000  0.19341000  0.68803000  1.0 0.1324764121
H  H17  1  0.80780000  0.33531000  0.84192000  1.0 0.1055066403
H  H18  1  0.92400000  0.53076000  0.54646000  1.0 0.139544465
H  H19  1  0.87228000  0.68382000  0.47419000  1.0 0.1477608573
H  H20  1  0.61605000  0.77763000  0.64918000  1.0 0.121439949
H  H21  1  0.66307000  0.62049000  0.72230000  1.0 0.1324764121
H  H22  1  0.36561000  0.03035000  0.34238000  1.0 0.2885472517
H  H23  1  0.85563000  0.49847000  0.02023000  1.0 0.2714469176
H  H24  1  0.22683000  0.54857000  0.26966000  1.0 0.2762828212
H  H25  1  0.85121000  0.35390000  0.99790000  1.0 0.1055066403
H  H26  1  0.88244000  0.24052000  0.20735000  1.0 0.1324764121
H  H27  1  0.84675000  0.64941000  0.94722000  1.0 0.1324764121
H  H28  1  0.85842000  0.81512000  0.92329000  1.0 0.1324764121
H  H29  1  0.88980000  0.77829000  0.13615000  1.0 0.121439949
H  H30  1  0.88319000  0.61361000  0.15624000  1.0 0.139544465
H  H31  1  0.65373000  0.00619000  0.14735000  1.0 0.121439949
H  H32  1  0.50968000  0.02469000  0.36643000  1.0 0.121439949
H  H33  1  0.26629000  0.01587000  0.19792000  1.0 0.139544465
H  H34  1  0.08950000  0.02806000  0.21637000  1.0 0.121439949
H  H35  1  0.02873000  0.05143000  0.44075000  1.0 0.1324764121
H  H36  1  0.20144000  0.04516000  0.41912000  1.0 0.139544465
H  H37  1  0.92558000  0.80659000  0.31197000  1.0 0.1324764121
H  H38  1  0.19220000  0.66469000  0.15808000  1.0 0.1055066403
H  H39  1  0.07600000  0.46924000  0.45354000  1.0 0.139544465
H  H40  1  0.12772000  0.31618000  0.52581000  1.0 0.1477608573
H  H41  1  0.38395000  0.22237000  0.35082000  1.0 0.121439949
H  H42  1  0.33693000  0.37951000  0.27770000  1.0 0.1324764121
C  C1  1  0.13940000  0.69080000  0.95710000  1.0 -0.0416688748
C  C2  1  0.12200000  0.75320000  0.84280000  1.0 0.0086118657
C  C3  1  0.12880000  0.66280000  0.89480000  1.0 -0.1611788331
C  C4  1  0.13040000  0.56630000  0.87880000  1.0 0.478056122
C  C5  1  0.13460000  0.38410000  0.94720000  1.0 0.2116431188
C  C6  1  0.14340000  0.32440000  0.01490000  1.0 -0.1814696562
C  C7  1  0.13820000  0.22440000  0.02890000  1.0 -0.0762198166
C  C8  1  0.12780000  0.18360000  0.97190000  1.0 -0.0186921564
C  C9  1  0.11890000  0.24700000  0.90270000  1.0 -0.0928793335
C  C10  1  0.12250000  0.34530000  0.89070000  1.0 -0.1532656041
C  C11  1  0.12260000  0.07580000  0.98860000  1.0 0.5540986996
C  C12  1  0.36070000  0.98960000  0.80030000  1.0 0.0032946644
C  C13  1  0.46020000  0.98340000  0.74730000  1.0 -0.132895704
C  C14  1  0.43900000  0.97880000  0.68170000  1.0 -0.0186921564
C  C15  1  0.55800000  0.98170000  0.76480000  1.0 0.4999685403
C  C16  1  0.74990000  0.97040000  0.69320000  1.0 0.2187751722
C  C17  1  0.78270000  0.97570000  0.75330000  1.0 -0.1532656041
C  C18  1  0.88860000  0.96850000  0.74220000  1.0 -0.0928793335
C  C19  1  0.96150000  0.95630000  0.67040000  1.0 -0.0298289765
C  C20  1  0.92430000  0.95380000  0.60900000  1.0 -0.0762198166
C  C21  1  0.82120000  0.95910000  0.62170000  1.0 -0.1611788331
C  C22  1  0.07470000  0.95630000  0.65030000  1.0 0.5717316609
C  C23  1  0.01740000  0.20710000  0.73270000  1.0 0.0032946644
C  C24  1  0.93190000  0.29960000  0.74350000  1.0 -0.1382809836
C  C25  1  0.87010000  0.28640000  0.81820000  1.0 -0.0416688748
C  C26  1  0.92450000  0.38950000  0.68000000  1.0 0.4999685403
C  C27  1  0.79990000  0.55850000  0.64250000  1.0 0.2257763188
C  C28  1  0.86100000  0.58090000  0.56780000  1.0 -0.1532656041
C  C29  1  0.83170000  0.67320000  0.52540000  1.0 -0.0762198166
C  C30  1  0.74540000  0.75040000  0.55490000  1.0 -0.0186921564
C  C31  1  0.67980000  0.72750000  0.62910000  1.0 -0.0928793335
C  C32  1  0.70700000  0.63350000  0.67270000  1.0 -0.1814696562
C  C33  1  0.72420000  0.85360000  0.50300000  1.0 0.5403090458
C  C34  1  0.86060000  0.30920000  0.04290000  1.0 -0.0416688748
C  C35  1  0.87800000  0.24680000  0.15720000  1.0 0.0086118657
C  C36  1  0.87120000  0.33720000  0.10520000  1.0 -0.1532656041
C  C37  1  0.86960000  0.43370000  0.12120000  1.0 0.478056122
C  C38  1  0.86540000  0.61590000  0.05280000  1.0 0.2116431188
C  C39  1  0.85660000  0.67560000  0.98510000  1.0 -0.1814696562
C  C40  1  0.86180000  0.77560000  0.97110000  1.0 -0.0762198166
C  C41  1  0.87220000  0.81640000  0.02810000  1.0 -0.0186921564
C  C42  1  0.88110000  0.75300000  0.09730000  1.0 -0.0928793335
C  C43  1  0.87750000  0.65470000  0.10930000  1.0 -0.1532656041
C  C44  1  0.87740000  0.92420000  0.01140000  1.0 0.5540986996
C  C45  1  0.63930000  0.01040000  0.19970000  1.0 0.0032946644
C  C46  1  0.53980000  0.01660000  0.25270000  1.0 -0.132895704
C  C47  1  0.56100000  0.02120000  0.31830000  1.0 -0.0186921564
C  C48  1  0.44200000  0.01830000  0.23520000  1.0 0.4999685403
C  C49  1  0.25010000  0.02960000  0.30680000  1.0 0.2187751722
C  C50  1  0.21730000  0.02430000  0.24670000  1.0 -0.1532656041
C  C51  1  0.11140000  0.03150000  0.25780000  1.0 -0.0928793335
C  C52  1  0.03850000  0.04370000  0.32960000  1.0 -0.0298289765
C  C53  1  0.07570000  0.04620000  0.39100000  1.0 -0.0762198166
C  C54  1  0.17880000  0.04090000  0.37830000  1.0 -0.1611788331
C  C55  1  0.92530000  0.04370000  0.34970000  1.0 0.5717316609
C  C56  1  0.98260000  0.79290000  0.26730000  1.0 0.0032946644
C  C57  1  0.06810000  0.70040000  0.25650000  1.0 -0.1382809836
C  C58  1  0.12990000  0.71360000  0.18180000  1.0 -0.0416688748
C  C59  1  0.07550000  0.61050000  0.32000000  1.0 0.4999685403
C  C60  1  0.20010000  0.44150000  0.35750000  1.0 0.2257763188
C  C61  1  0.13900000  0.41910000  0.43220000  1.0 -0.1532656041
C  C62  1  0.16830000  0.32680000  0.47460000  1.0 -0.0762198166
C  C63  1  0.25460000  0.24960000  0.44510000  1.0 -0.0186921564
C  C64  1  0.32020000  0.27250000  0.37090000  1.0 -0.0928793335
C  C65  1  0.29300000  0.36650000  0.32730000  1.0 -0.1814696562
C  C66  1  0.27580000  0.14640000  0.49700000  1.0 0.5403090458
N  N1  1  0.28740000  0.98910000  0.76900000  1.0 -0.2105732817
N  N2  1  0.34120000  0.97970000  0.69150000  1.0 -0.1973697949
N  N3  1  0.13450000  0.78970000  0.94570000  1.0 -0.1947477568
N  N4  1  0.12260000  0.82980000  0.87370000  1.0 -0.1814696562
N  N5  1  0.00170000  0.14330000  0.79790000  1.0 -0.1814696562
N  N6  1  0.91250000  0.19420000  0.85090000  1.0 -0.1973697949
N  N7  1  0.64550000  0.97350000  0.69980000  1.0 -0.3517345149
N  N8  1  0.13730000  0.48650000  0.93970000  1.0 -0.3831853528
N  N9  1  0.82410000  0.46410000  0.69100000  1.0 -0.3740519244
N  N10  1  0.71260000  0.01090000  0.23100000  1.0 -0.2105732817
N  N11  1  0.65880000  0.02030000  0.30850000  1.0 -0.1973697949
N  N12  1  0.86550000  0.21030000  0.05430000  1.0 -0.1973697949
N  N13  1  0.87740000  0.17020000  0.12630000  1.0 -0.1814696562
N  N14  1  0.99830000  0.85670000  0.20210000  1.0 -0.1814696562
N  N15  1  0.08750000  0.80580000  0.14910000  1.0 -0.1947477568
N  N16  1  0.35450000  0.02650000  0.30020000  1.0 -0.3517345149
N  N17  1  0.86270000  0.51350000  0.06030000  1.0 -0.3831853528
N  N18  1  0.17590000  0.53590000  0.30900000  1.0 -0.3740519244
O  O1  1  0.12970000  0.02590000  0.05120000  1.0 -0.4638364125
O  O2  1  0.10780000  0.03650000  0.93960000  1.0 -0.56960782
O  O3  1  0.77740000  0.86090000  0.43530000  1.0 -0.4941475052
O  O4  1  0.65880000  0.92910000  0.53490000  1.0 -0.5321721095
O  O5  1  0.11460000  0.95020000  0.70420000  1.0 -0.56960782
O  O6  1  0.13220000  0.95580000  0.58160000  1.0 -0.5011825967
O  O7  1  0.55880000  0.98660000  0.82880000  1.0 -0.4405478198
O  O8  1  0.12150000  0.55550000  0.81970000  1.0 -0.4218743104
O  O9  1  0.00230000  0.39700000  0.62400000  1.0 -0.4405478198
O  O10  1  0.35200000  0.80780000  0.00490000  1.0 -0.3600025434
O  O11  1  0.40950000  0.80970000  0.55690000  1.0 -0.3440565873
O  O12  1  0.87030000  0.97410000  0.94880000  1.0 -0.4638364125
O  O13  1  0.89220000  0.96350000  0.06040000  1.0 -0.56960782
O  O14  1  0.22260000  0.13910000  0.56470000  1.0 -0.4941475052
O  O15  1  0.34120000  0.07090000  0.46510000  1.0 -0.5321721095
O  O16  1  0.88540000  0.04980000  0.29580000  1.0 -0.56960782
O  O17  1  0.86780000  0.04420000  0.41840000  1.0 -0.5011825967
O  O18  1  0.44120000  0.01340000  0.17120000  1.0 -0.4405478198
O  O19  1  0.87850000  0.44450000  0.18030000  1.0 -0.4218743104
O  O20  1  0.99770000  0.60300000  0.37600000  1.0 -0.4405478198
O  O21  1  0.64800000  0.19220000  0.99510000  1.0 -0.3517345149
O  O22  1  0.59050000  0.19030000  0.44310000  1.0 -0.3440565873
