# DDEC6 charges by PACMAN v1.1 (https://github.com/mtap-research/PACMAN-charge/)
data_JEWYAM_ASR_pacman
_symmetry_space_group_name_H-M   'P 1'
_cell_length_a   19.11580000
_cell_length_b   19.11580000
_cell_length_c   19.11580000
_cell_angle_alpha   90.00000000
_cell_angle_beta   90.00000000
_cell_angle_gamma   90.00000000
_symmetry_Int_Tables_number   1
_chemical_formula_structural   Mn4H8C24N32Cl
_chemical_formula_sum   'Mn12 H24 C72 N96 Cl3'
_cell_volume   6985.17730232
_cell_formula_units_Z   3
loop_
 _symmetry_equiv_pos_site_id
 _symmetry_equiv_pos_as_xyz
  1  'x, y, z'
loop_
 _atom_site_type_symbol
 _atom_site_label
 _atom_site_symmetry_multiplicity
 _atom_site_fract_x
 _atom_site_fract_y
 _atom_site_fract_z
 _atom_site_occupancy
 _atom_site_charge
Mn  Mn1  1  0.14310000  0.50000000  0.00000000  1.0 0.6168707741
Mn  Mn2  1  0.50000000  0.14310000  0.00000000  1.0 0.6168707741
Mn  Mn3  1  0.00000000  0.14310000  0.50000000  1.0 0.6168707741
Mn  Mn4  1  0.85690000  0.50000000  0.00000000  1.0 0.6168707741
Mn  Mn5  1  0.85690000  0.00000000  0.50000000  1.0 0.6168707741
Mn  Mn6  1  0.50000000  0.85690000  0.00000000  1.0 0.6168707741
Mn  Mn7  1  0.00000000  0.85690000  0.50000000  1.0 0.6168707741
Mn  Mn8  1  0.14310000  0.00000000  0.50000000  1.0 0.6168707741
Mn  Mn9  1  0.50000000  0.00000000  0.14310000  1.0 0.6168707741
Mn  Mn10  1  0.00000000  0.50000000  0.14310000  1.0 0.6168707741
Mn  Mn11  1  0.00000000  0.50000000  0.85690000  1.0 0.6168707741
Mn  Mn12  1  0.50000000  0.00000000  0.85690000  1.0 0.6168707741
H  H1  1  0.25930000  0.25930000  0.88970000  1.0 0.1302875995
H  H2  1  0.74070000  0.25930000  0.88970000  1.0 0.1302875995
H  H3  1  0.25930000  0.74070000  0.11030000  1.0 0.1302875995
H  H4  1  0.88970000  0.25930000  0.25930000  1.0 0.1302875995
H  H5  1  0.74070000  0.74070000  0.88970000  1.0 0.1302875995
H  H6  1  0.25930000  0.25930000  0.11030000  1.0 0.1302875995
H  H7  1  0.74070000  0.88970000  0.25930000  1.0 0.1302875995
H  H8  1  0.25930000  0.74070000  0.88970000  1.0 0.1302875995
H  H9  1  0.74070000  0.25930000  0.11030000  1.0 0.1302875995
H  H10  1  0.11030000  0.74070000  0.25930000  1.0 0.1302875995
H  H11  1  0.74070000  0.74070000  0.11030000  1.0 0.1302875995
H  H12  1  0.25930000  0.11030000  0.25930000  1.0 0.1302875995
H  H13  1  0.88970000  0.74070000  0.74070000  1.0 0.1302875995
H  H14  1  0.74070000  0.11030000  0.74070000  1.0 0.1302875995
H  H15  1  0.11030000  0.25930000  0.74070000  1.0 0.1302875995
H  H16  1  0.25930000  0.88970000  0.74070000  1.0 0.1302875995
H  H17  1  0.25930000  0.88970000  0.25930000  1.0 0.1302875995
H  H18  1  0.88970000  0.74070000  0.25930000  1.0 0.1302875995
H  H19  1  0.11030000  0.25930000  0.25930000  1.0 0.1302875995
H  H20  1  0.88970000  0.25930000  0.74070000  1.0 0.1302875995
H  H21  1  0.25930000  0.11030000  0.74070000  1.0 0.1302875995
H  H22  1  0.11030000  0.74070000  0.74070000  1.0 0.1302875995
H  H23  1  0.74070000  0.88970000  0.74070000  1.0 0.1302875995
H  H24  1  0.74070000  0.11030000  0.25930000  1.0 0.1302875995
C  C1  1  0.14980000  0.33290000  0.85020000  1.0 0.2364467166
C  C2  1  0.66710000  0.14980000  0.85020000  1.0 0.2364467166
C  C3  1  0.14980000  0.66710000  0.14980000  1.0 0.2364467166
C  C4  1  0.85020000  0.14980000  0.33290000  1.0 0.2364467166
C  C5  1  0.85020000  0.66710000  0.85020000  1.0 0.2364467166
C  C6  1  0.33290000  0.14980000  0.14980000  1.0 0.2364467166
C  C7  1  0.85020000  0.85020000  0.33290000  1.0 0.2364467166
C  C8  1  0.33290000  0.85020000  0.85020000  1.0 0.2364467166
C  C9  1  0.85020000  0.33290000  0.14980000  1.0 0.2364467166
C  C10  1  0.14980000  0.85020000  0.33290000  1.0 0.2364467166
C  C11  1  0.66710000  0.85020000  0.14980000  1.0 0.2364467166
C  C12  1  0.14980000  0.14980000  0.33290000  1.0 0.2364467166
C  C13  1  0.85020000  0.85020000  0.66710000  1.0 0.2364467166
C  C14  1  0.85020000  0.14980000  0.66710000  1.0 0.2364467166
C  C15  1  0.14980000  0.14980000  0.66710000  1.0 0.2364467166
C  C16  1  0.14980000  0.85020000  0.66710000  1.0 0.2364467166
C  C17  1  0.33290000  0.85020000  0.14980000  1.0 0.2364467166
C  C18  1  0.85020000  0.66710000  0.14980000  1.0 0.2364467166
C  C19  1  0.14980000  0.33290000  0.14980000  1.0 0.2364467166
C  C20  1  0.85020000  0.33290000  0.85020000  1.0 0.2364467166
C  C21  1  0.33290000  0.14980000  0.85020000  1.0 0.2364467166
C  C22  1  0.14980000  0.66710000  0.85020000  1.0 0.2364467166
C  C23  1  0.66710000  0.85020000  0.85020000  1.0 0.2364467166
C  C24  1  0.66710000  0.14980000  0.14980000  1.0 0.2364467166
C  C25  1  0.18073000  0.26970000  0.81927000  1.0 0.0417721726
C  C26  1  0.73030000  0.18073000  0.81927000  1.0 0.0417721726
C  C27  1  0.18073000  0.73030000  0.18073000  1.0 0.0417721726
C  C28  1  0.81927000  0.18073000  0.26970000  1.0 0.0417721726
C  C29  1  0.81927000  0.73030000  0.81927000  1.0 0.0417721726
C  C30  1  0.26970000  0.18073000  0.18073000  1.0 0.0417721726
C  C31  1  0.81927000  0.81927000  0.26970000  1.0 0.0417721726
C  C32  1  0.26970000  0.81927000  0.81927000  1.0 0.0417721726
C  C33  1  0.81927000  0.26970000  0.18073000  1.0 0.0417721726
C  C34  1  0.18073000  0.81927000  0.26970000  1.0 0.0417721726
C  C35  1  0.73030000  0.81927000  0.18073000  1.0 0.0417721726
C  C36  1  0.18073000  0.18073000  0.26970000  1.0 0.0417721726
C  C37  1  0.81927000  0.81927000  0.73030000  1.0 0.0417721726
C  C38  1  0.81927000  0.18073000  0.73030000  1.0 0.0417721726
C  C39  1  0.18073000  0.18073000  0.73030000  1.0 0.0417721726
C  C40  1  0.18073000  0.81927000  0.73030000  1.0 0.0417721726
C  C41  1  0.26970000  0.81927000  0.18073000  1.0 0.0417721726
C  C42  1  0.81927000  0.73030000  0.18073000  1.0 0.0417721726
C  C43  1  0.18073000  0.26970000  0.18073000  1.0 0.0417721726
C  C44  1  0.81927000  0.26970000  0.81927000  1.0 0.0417721726
C  C45  1  0.26970000  0.18073000  0.81927000  1.0 0.0417721726
C  C46  1  0.18073000  0.73030000  0.81927000  1.0 0.0417721726
C  C47  1  0.73030000  0.81927000  0.81927000  1.0 0.0417721726
C  C48  1  0.73030000  0.18073000  0.18073000  1.0 0.0417721726
C  C49  1  0.23990000  0.23990000  0.84950000  1.0 -0.1153368663
C  C50  1  0.76010000  0.23990000  0.84950000  1.0 -0.1153368663
C  C51  1  0.23990000  0.76010000  0.15050000  1.0 -0.1153368663
C  C52  1  0.84950000  0.23990000  0.23990000  1.0 -0.1153368663
C  C53  1  0.76010000  0.76010000  0.84950000  1.0 -0.1153368663
C  C54  1  0.23990000  0.23990000  0.15050000  1.0 -0.1153368663
C  C55  1  0.76010000  0.84950000  0.23990000  1.0 -0.1153368663
C  C56  1  0.23990000  0.76010000  0.84950000  1.0 -0.1153368663
C  C57  1  0.76010000  0.23990000  0.15050000  1.0 -0.1153368663
C  C58  1  0.15050000  0.76010000  0.23990000  1.0 -0.1153368663
C  C59  1  0.76010000  0.76010000  0.15050000  1.0 -0.1153368663
C  C60  1  0.23990000  0.15050000  0.23990000  1.0 -0.1153368663
C  C61  1  0.84950000  0.76010000  0.76010000  1.0 -0.1153368663
C  C62  1  0.76010000  0.15050000  0.76010000  1.0 -0.1153368663
C  C63  1  0.15050000  0.23990000  0.76010000  1.0 -0.1153368663
C  C64  1  0.23990000  0.84950000  0.76010000  1.0 -0.1153368663
C  C65  1  0.23990000  0.84950000  0.23990000  1.0 -0.1153368663
C  C66  1  0.84950000  0.76010000  0.23990000  1.0 -0.1153368663
C  C67  1  0.15050000  0.23990000  0.23990000  1.0 -0.1153368663
C  C68  1  0.84950000  0.23990000  0.76010000  1.0 -0.1153368663
C  C69  1  0.23990000  0.15050000  0.76010000  1.0 -0.1153368663
C  C70  1  0.15050000  0.76010000  0.76010000  1.0 -0.1153368663
C  C71  1  0.76010000  0.84950000  0.76010000  1.0 -0.1153368663
C  C72  1  0.76010000  0.15050000  0.23990000  1.0 -0.1153368663
N  N1  1  0.13224000  0.41933000  0.91664000  1.0 -0.0238042311
N  N2  1  0.58067000  0.13224000  0.91664000  1.0 -0.0238042311
N  N3  1  0.13224000  0.58067000  0.08336000  1.0 -0.0238042311
N  N4  1  0.91664000  0.13224000  0.41933000  1.0 -0.0238042311
N  N5  1  0.86776000  0.58067000  0.91664000  1.0 -0.0238042311
N  N6  1  0.41933000  0.13224000  0.08336000  1.0 -0.0238042311
N  N7  1  0.86776000  0.91664000  0.41933000  1.0 -0.0238042311
N  N8  1  0.41933000  0.86776000  0.91664000  1.0 -0.0238042311
N  N9  1  0.86776000  0.41933000  0.08336000  1.0 -0.0238042311
N  N10  1  0.08336000  0.86776000  0.41933000  1.0 -0.0238042311
N  N11  1  0.58067000  0.86776000  0.08336000  1.0 -0.0238042311
N  N12  1  0.13224000  0.08336000  0.41933000  1.0 -0.0238042311
N  N13  1  0.91664000  0.86776000  0.58067000  1.0 -0.0238042311
N  N14  1  0.86776000  0.08336000  0.58067000  1.0 -0.0238042311
N  N15  1  0.08336000  0.13224000  0.58067000  1.0 -0.0238042311
N  N16  1  0.13224000  0.91664000  0.58067000  1.0 -0.0238042311
N  N17  1  0.41933000  0.91664000  0.13224000  1.0 -0.0238042311
N  N18  1  0.91664000  0.58067000  0.13224000  1.0 -0.0238042311
N  N19  1  0.08336000  0.41933000  0.13224000  1.0 -0.0238042311
N  N20  1  0.91664000  0.41933000  0.86776000  1.0 -0.0238042311
N  N21  1  0.41933000  0.08336000  0.86776000  1.0 -0.0238042311
N  N22  1  0.08336000  0.58067000  0.86776000  1.0 -0.0238042311
N  N23  1  0.58067000  0.91664000  0.86776000  1.0 -0.0238042311
N  N24  1  0.58067000  0.08336000  0.13224000  1.0 -0.0238042311
N  N25  1  0.86776000  0.58067000  0.08336000  1.0 -0.0238042311
N  N26  1  0.41933000  0.86776000  0.08336000  1.0 -0.0238042311
N  N27  1  0.86776000  0.41933000  0.91664000  1.0 -0.0238042311
N  N28  1  0.08336000  0.86776000  0.58067000  1.0 -0.0238042311
N  N29  1  0.13224000  0.41933000  0.08336000  1.0 -0.0238042311
N  N30  1  0.58067000  0.86776000  0.91664000  1.0 -0.0238042311
N  N31  1  0.13224000  0.08336000  0.58067000  1.0 -0.0238042311
N  N32  1  0.58067000  0.13224000  0.08336000  1.0 -0.0238042311
N  N33  1  0.13224000  0.58067000  0.91664000  1.0 -0.0238042311
N  N34  1  0.91664000  0.13224000  0.58067000  1.0 -0.0238042311
N  N35  1  0.41933000  0.13224000  0.91664000  1.0 -0.0238042311
N  N36  1  0.86776000  0.91664000  0.58067000  1.0 -0.0238042311
N  N37  1  0.08336000  0.13224000  0.41933000  1.0 -0.0238042311
N  N38  1  0.13224000  0.91664000  0.41933000  1.0 -0.0238042311
N  N39  1  0.91664000  0.86776000  0.41933000  1.0 -0.0238042311
N  N40  1  0.86776000  0.08336000  0.41933000  1.0 -0.0238042311
N  N41  1  0.58067000  0.08336000  0.86776000  1.0 -0.0238042311
N  N42  1  0.08336000  0.41933000  0.86776000  1.0 -0.0238042311
N  N43  1  0.91664000  0.58067000  0.86776000  1.0 -0.0238042311
N  N44  1  0.08336000  0.58067000  0.13224000  1.0 -0.0238042311
N  N45  1  0.58067000  0.91664000  0.13224000  1.0 -0.0238042311
N  N46  1  0.91664000  0.41933000  0.13224000  1.0 -0.0238042311
N  N47  1  0.41933000  0.08336000  0.13224000  1.0 -0.0238042311
N  N48  1  0.41933000  0.91664000  0.86776000  1.0 -0.0238042311
N  N49  1  0.17516000  0.36509000  0.90726000  1.0 -0.243812673
N  N50  1  0.63491000  0.17516000  0.90726000  1.0 -0.243812673
N  N51  1  0.17516000  0.63491000  0.09274000  1.0 -0.243812673
N  N52  1  0.90726000  0.17516000  0.36509000  1.0 -0.243812673
N  N53  1  0.82484000  0.63491000  0.90726000  1.0 -0.243812673
N  N54  1  0.36509000  0.17516000  0.09274000  1.0 -0.243812673
N  N55  1  0.82484000  0.90726000  0.36509000  1.0 -0.243812673
N  N56  1  0.36509000  0.82484000  0.90726000  1.0 -0.243812673
N  N57  1  0.82484000  0.36509000  0.09274000  1.0 -0.243812673
N  N58  1  0.09274000  0.82484000  0.36509000  1.0 -0.243812673
N  N59  1  0.63491000  0.82484000  0.09274000  1.0 -0.243812673
N  N60  1  0.17516000  0.09274000  0.36509000  1.0 -0.243812673
N  N61  1  0.90726000  0.82484000  0.63491000  1.0 -0.243812673
N  N62  1  0.82484000  0.09274000  0.63491000  1.0 -0.243812673
N  N63  1  0.09274000  0.17516000  0.63491000  1.0 -0.243812673
N  N64  1  0.17516000  0.90726000  0.63491000  1.0 -0.243812673
N  N65  1  0.36509000  0.90726000  0.17516000  1.0 -0.243812673
N  N66  1  0.90726000  0.63491000  0.17516000  1.0 -0.243812673
N  N67  1  0.09274000  0.36509000  0.17516000  1.0 -0.243812673
N  N68  1  0.90726000  0.36509000  0.82484000  1.0 -0.243812673
N  N69  1  0.36509000  0.09274000  0.82484000  1.0 -0.243812673
N  N70  1  0.09274000  0.63491000  0.82484000  1.0 -0.243812673
N  N71  1  0.63491000  0.90726000  0.82484000  1.0 -0.243812673
N  N72  1  0.63491000  0.09274000  0.17516000  1.0 -0.243812673
N  N73  1  0.82484000  0.63491000  0.09274000  1.0 -0.243812673
N  N74  1  0.36509000  0.82484000  0.09274000  1.0 -0.243812673
N  N75  1  0.82484000  0.36509000  0.90726000  1.0 -0.243812673
N  N76  1  0.09274000  0.82484000  0.63491000  1.0 -0.243812673
N  N77  1  0.17516000  0.36509000  0.09274000  1.0 -0.243812673
N  N78  1  0.63491000  0.82484000  0.90726000  1.0 -0.243812673
N  N79  1  0.17516000  0.09274000  0.63491000  1.0 -0.243812673
N  N80  1  0.63491000  0.17516000  0.09274000  1.0 -0.243812673
N  N81  1  0.17516000  0.63491000  0.90726000  1.0 -0.243812673
N  N82  1  0.90726000  0.17516000  0.63491000  1.0 -0.243812673
N  N83  1  0.36509000  0.17516000  0.90726000  1.0 -0.243812673
N  N84  1  0.82484000  0.90726000  0.63491000  1.0 -0.243812673
N  N85  1  0.09274000  0.17516000  0.36509000  1.0 -0.243812673
N  N86  1  0.17516000  0.90726000  0.36509000  1.0 -0.243812673
N  N87  1  0.90726000  0.82484000  0.36509000  1.0 -0.243812673
N  N88  1  0.82484000  0.09274000  0.36509000  1.0 -0.243812673
N  N89  1  0.63491000  0.09274000  0.82484000  1.0 -0.243812673
N  N90  1  0.09274000  0.36509000  0.82484000  1.0 -0.243812673
N  N91  1  0.90726000  0.63491000  0.82484000  1.0 -0.243812673
N  N92  1  0.09274000  0.63491000  0.17516000  1.0 -0.243812673
N  N93  1  0.63491000  0.90726000  0.17516000  1.0 -0.243812673
N  N94  1  0.90726000  0.36509000  0.17516000  1.0 -0.243812673
N  N95  1  0.36509000  0.09274000  0.17516000  1.0 -0.243812673
N  N96  1  0.36509000  0.90726000  0.82484000  1.0 -0.243812673
Cl  Cl1  1  0.00000000  0.50000000  0.00000000  1.0 -0.5309696115
Cl  Cl2  1  0.50000000  0.00000000  0.00000000  1.0 -0.5309696115
Cl  Cl3  1  0.00000000  0.00000000  0.50000000  1.0 -0.5309696115
