# DDEC6 charges by PACMAN v1.1 (https://github.com/mtap-research/PACMAN-charge/)
data_JIHKAP_FSR_pacman
_symmetry_space_group_name_H-M   'P 1'
_cell_length_a   9.25010000
_cell_length_b   9.96100000
_cell_length_c   10.70300000
_cell_angle_alpha   90.59000000
_cell_angle_beta   95.07000000
_cell_angle_gamma   106.41000000
_symmetry_Int_Tables_number   1
_chemical_formula_structural   Cd3H16C30S2(N5O4)2
_chemical_formula_sum   'Cd3 H16 C30 S2 N10 O8'
_cell_volume   941.66162489
_cell_formula_units_Z   1
loop_
 _symmetry_equiv_pos_site_id
 _symmetry_equiv_pos_as_xyz
  1  'x, y, z'
loop_
 _atom_site_type_symbol
 _atom_site_label
 _atom_site_symmetry_multiplicity
 _atom_site_fract_x
 _atom_site_fract_y
 _atom_site_fract_z
 _atom_site_occupancy
 _atom_site_charge
Cd  Cd1  1  0.11161000  0.03122000  0.33417000  1.0 0.813046547
Cd  Cd2  1  0.88839000  0.96878000  0.66583000  1.0 0.813046547
Cd  Cd3  1  0.00000000  0.00000000  0.00000000  1.0 0.8759298645
H  H1  1  0.60270000  0.23240000  0.71260000  1.0 0.263543459
H  H2  1  0.53890000  0.20870000  0.83620000  1.0 0.2727283262
H  H3  1  0.21500000  0.35310000  0.00100000  1.0 0.1203972928
H  H4  1  0.25640000  0.56020000  0.89860000  1.0 0.1203972928
H  H5  1  0.20290000  0.74940000  0.98920000  1.0 0.1203972928
H  H6  1  0.09700000  0.53020000  0.29770000  1.0 0.1324442722
H  H7  1  0.41010000  0.11600000  0.17510000  1.0 0.1203972928
H  H8  1  0.79310000  0.26970000  0.39470000  1.0 0.1631914101
H  H9  1  0.39730000  0.76760000  0.28740000  1.0 0.263543459
H  H10  1  0.46110000  0.79130000  0.16380000  1.0 0.2727283262
H  H11  1  0.78500000  0.64690000  0.99900000  1.0 0.1203972928
H  H12  1  0.74360000  0.43980000  0.10140000  1.0 0.1203972928
H  H13  1  0.79710000  0.25060000  0.01080000  1.0 0.1203972928
H  H14  1  0.90300000  0.46980000  0.70230000  1.0 0.1324442722
H  H15  1  0.58990000  0.88400000  0.82490000  1.0 0.1203972928
H  H16  1  0.20690000  0.73030000  0.60530000  1.0 0.1631914101
C  C1  1  0.12220000  0.28440000  0.22290000  1.0 0.5590150081
C  C2  1  0.14830000  0.41970000  0.15800000  1.0 -0.0259271205
C  C3  1  0.19750000  0.43040000  0.03940000  1.0 -0.0883235499
C  C4  1  0.22070000  0.55360000  0.97750000  1.0 -0.0883235499
C  C5  1  0.19110000  0.66720000  0.03260000  1.0 -0.1080660649
C  C6  1  0.14360000  0.65980000  0.15290000  1.0 -0.0427474655
C  C7  1  0.12510000  0.53540000  0.21610000  1.0 -0.1271329649
C  C8  1  0.11820000  0.78490000  0.21520000  1.0 0.5590150081
C  C9  1  0.46000000  0.13940000  0.25500000  1.0 0.0542604592
C  C10  1  0.61680000  0.19430000  0.26640000  1.0 -0.0883235499
C  C11  1  0.68840000  0.23180000  0.38430000  1.0 -0.0807899066
C  C12  1  0.60600000  0.21380000  0.48880000  1.0 -0.0883235499
C  C13  1  0.44960000  0.15470000  0.46760000  1.0 0.1203972928
C  C14  1  0.34730000  0.12040000  0.56800000  1.0 0.1876466967
C  C15  1  0.25300000  0.08470000  0.75040000  1.0 0.2524622105
C  C16  1  0.87780000  0.71560000  0.77710000  1.0 0.5590150081
C  C17  1  0.85170000  0.58030000  0.84200000  1.0 -0.0259271205
C  C18  1  0.80250000  0.56960000  0.96060000  1.0 -0.0883235499
C  C19  1  0.77930000  0.44640000  0.02250000  1.0 -0.0883235499
C  C20  1  0.80890000  0.33280000  0.96740000  1.0 -0.1080660649
C  C21  1  0.85640000  0.34020000  0.84710000  1.0 -0.0427474655
C  C22  1  0.87490000  0.46460000  0.78390000  1.0 -0.1271329649
C  C23  1  0.88180000  0.21510000  0.78480000  1.0 0.5590150081
C  C24  1  0.54000000  0.86060000  0.74500000  1.0 0.0542604592
C  C25  1  0.38320000  0.80570000  0.73360000  1.0 -0.0883235499
C  C26  1  0.31160000  0.76820000  0.61570000  1.0 -0.0807899066
C  C27  1  0.39400000  0.78620000  0.51120000  1.0 -0.0883235499
C  C28  1  0.55040000  0.84530000  0.53240000  1.0 0.1203972928
C  C29  1  0.65270000  0.87960000  0.43200000  1.0 0.1876466967
C  C30  1  0.74700000  0.91530000  0.24960000  1.0 0.2524622105
S  S1  1  0.25661000  0.08224000  0.91040000  1.0 -0.4144370236
S  S2  1  0.74339000  0.91776000  0.08960000  1.0 -0.4144370236
N  N1  1  0.37770000  0.11870000  0.35300000  1.0 -0.2510377445
N  N2  1  0.20190000  0.06200000  0.54660000  1.0 -0.2093891926
N  N3  1  0.14320000  0.03950000  0.66060000  1.0 -0.2164254017
N  N4  1  0.38430000  0.13940000  0.69490000  1.0 0.0828049503
N  N5  1  0.52660000  0.20130000  0.75560000  1.0 -0.4534299649
N  N6  1  0.62230000  0.88130000  0.64700000  1.0 -0.2510377445
N  N7  1  0.79810000  0.93800000  0.45340000  1.0 -0.2093891926
N  N8  1  0.85680000  0.96050000  0.33940000  1.0 -0.2164254017
N  N9  1  0.61570000  0.86060000  0.30510000  1.0 0.0828049503
N  N10  1  0.47340000  0.79870000  0.24440000  1.0 -0.4534299649
O  O1  1  0.11370000  0.28000000  0.33640000  1.0 -0.4870174505
O  O2  1  0.11160000  0.17410000  0.15880000  1.0 -0.5477112212
O  O3  1  0.09450000  0.78300000  0.32770000  1.0 -0.5070699133
O  O4  1  0.12850000  0.89320000  0.15070000  1.0 -0.5556341089
O  O5  1  0.88630000  0.72000000  0.66360000  1.0 -0.4870174505
O  O6  1  0.88840000  0.82590000  0.84120000  1.0 -0.5477112212
O  O7  1  0.90550000  0.21700000  0.67230000  1.0 -0.5070699133
O  O8  1  0.87150000  0.10680000  0.84930000  1.0 -0.5556341089
