# DDEC6 charges by PACMAN v1.1 (https://github.com/mtap-research/PACMAN-charge/)
data_JIKJIZ_ASR_pacman
_symmetry_space_group_name_H-M   'P 1'
_cell_length_a   10.33850000
_cell_length_b   17.34040000
_cell_length_c   34.92270000
_cell_angle_alpha   90.00000000
_cell_angle_beta   90.00000000
_cell_angle_gamma   90.00000000
_symmetry_Int_Tables_number   1
_chemical_formula_structural   CdH8C15BrO5
_chemical_formula_sum   'Cd8 H64 C120 Br8 O40'
_cell_volume   6260.72253003
_cell_formula_units_Z   8
loop_
 _symmetry_equiv_pos_site_id
 _symmetry_equiv_pos_as_xyz
  1  'x, y, z'
loop_
 _atom_site_type_symbol
 _atom_site_label
 _atom_site_symmetry_multiplicity
 _atom_site_fract_x
 _atom_site_fract_y
 _atom_site_fract_z
 _atom_site_occupancy
 _atom_site_charge
Cd  Cd1  1  0.96580000  0.87355000  0.16874000  1.0 1.0136490944
Cd  Cd2  1  0.73056000  0.81805000  0.24070000  1.0 1.1371464613
Cd  Cd3  1  0.53420000  0.12645000  0.66874000  1.0 1.0136490944
Cd  Cd4  1  0.76944000  0.18195000  0.74070000  1.0 1.1371464613
Cd  Cd5  1  0.03420000  0.37355000  0.33126000  1.0 1.0136490944
Cd  Cd6  1  0.26944000  0.31805000  0.25930000  1.0 1.1321266774
Cd  Cd7  1  0.46580000  0.62645000  0.83126000  1.0 1.0136490944
Cd  Cd8  1  0.23056000  0.68195000  0.75930000  1.0 1.1371464613
H  H1  1  0.96190000  0.60090000  0.25410000  1.0 0.130233639
H  H2  1  0.13630000  0.42760000  0.19560000  1.0 0.1071377225
H  H3  1  0.02560000  0.62160000  0.14060000  1.0 0.130233639
H  H4  1  0.32480000  0.47710000  0.14770000  1.0 0.1233110983
H  H5  1  0.89250000  0.48860000  0.11750000  1.0 0.130233639
H  H6  1  0.88840000  0.45570000  0.07480000  1.0 0.1233110983
H  H7  1  0.91010000  0.54590000  0.08200000  1.0 0.1370739635
H  H8  1  0.09590000  0.59250000  0.02610000  1.0 0.130233639
H  H9  1  0.06510000  0.61360000  0.98240000  1.0 0.130233639
H  H10  1  0.19950000  0.57350000  0.99340000  1.0 0.130233639
H  H11  1  0.87230000  0.39630000  0.93440000  1.0 0.130233639
H  H12  1  0.15900000  0.54570000  0.91750000  1.0 0.1233110983
H  H13  1  0.93840000  0.64160000  0.83440000  1.0 0.130233639
H  H14  1  0.76820000  0.53290000  0.92400000  1.0 0.1233110983
H  H15  1  0.27240000  0.41350000  0.00840000  1.0 0.3420849252
H  H16  1  0.94850000  0.30500000  0.05670000  1.0 0.3558349121
H  H17  1  0.53810000  0.39910000  0.75410000  1.0 0.130233639
H  H18  1  0.36370000  0.57240000  0.69560000  1.0 0.1071377225
H  H19  1  0.47440000  0.37840000  0.64060000  1.0 0.130233639
H  H20  1  0.17520000  0.52290000  0.64770000  1.0 0.1233110983
H  H21  1  0.60750000  0.51140000  0.61750000  1.0 0.130233639
H  H22  1  0.61160000  0.54430000  0.57480000  1.0 0.1233110983
H  H23  1  0.58990000  0.45410000  0.58200000  1.0 0.1370739635
H  H24  1  0.40410000  0.40750000  0.52610000  1.0 0.130233639
H  H25  1  0.43490000  0.38640000  0.48240000  1.0 0.130233639
H  H26  1  0.30050000  0.42650000  0.49340000  1.0 0.130233639
H  H27  1  0.62770000  0.60370000  0.43440000  1.0 0.130233639
H  H28  1  0.34100000  0.45430000  0.41750000  1.0 0.1233110983
H  H29  1  0.56160000  0.35840000  0.33440000  1.0 0.130233639
H  H30  1  0.73180000  0.46710000  0.42400000  1.0 0.1233110983
H  H31  1  0.22760000  0.58650000  0.50840000  1.0 0.3420849252
H  H32  1  0.55150000  0.69500000  0.55670000  1.0 0.3558349121
H  H33  1  0.03810000  0.10090000  0.24590000  1.0 0.130233639
H  H34  1  0.86370000  0.92760000  0.30440000  1.0 0.1071377225
H  H35  1  0.97440000  0.12160000  0.35940000  1.0 0.130233639
H  H36  1  0.67520000  0.97710000  0.35230000  1.0 0.1233110983
H  H37  1  0.10750000  0.98860000  0.38250000  1.0 0.130233639
H  H38  1  0.11160000  0.95570000  0.42520000  1.0 0.1233110983
H  H39  1  0.08990000  0.04590000  0.41800000  1.0 0.1370739635
H  H40  1  0.90410000  0.09250000  0.47390000  1.0 0.130233639
H  H41  1  0.93490000  0.11360000  0.51760000  1.0 0.130233639
H  H42  1  0.80050000  0.07350000  0.50660000  1.0 0.130233639
H  H43  1  0.12770000  0.89630000  0.56560000  1.0 0.130233639
H  H44  1  0.84100000  0.04570000  0.58250000  1.0 0.1233110983
H  H45  1  0.06160000  0.14160000  0.66560000  1.0 0.130233639
H  H46  1  0.23180000  0.03290000  0.57600000  1.0 0.1233110983
H  H47  1  0.72760000  0.91350000  0.49160000  1.0 0.3420849252
H  H48  1  0.05150000  0.80500000  0.44330000  1.0 0.3558349121
H  H49  1  0.46190000  0.89910000  0.74590000  1.0 0.130233639
H  H50  1  0.63630000  0.07240000  0.80440000  1.0 0.1071377225
H  H51  1  0.52560000  0.87840000  0.85940000  1.0 0.130233639
H  H52  1  0.82480000  0.02290000  0.85230000  1.0 0.1233110983
H  H53  1  0.39250000  0.01140000  0.88250000  1.0 0.130233639
H  H54  1  0.38840000  0.04430000  0.92520000  1.0 0.1233110983
H  H55  1  0.41010000  0.95410000  0.91800000  1.0 0.1370739635
H  H56  1  0.59590000  0.90750000  0.97390000  1.0 0.130233639
H  H57  1  0.56510000  0.88640000  0.01760000  1.0 0.130233639
H  H58  1  0.69950000  0.92650000  0.00660000  1.0 0.130233639
H  H59  1  0.37230000  0.10370000  0.06560000  1.0 0.130233639
H  H60  1  0.65900000  0.95430000  0.08250000  1.0 0.1233110983
H  H61  1  0.43840000  0.85840000  0.16560000  1.0 0.130233639
H  H62  1  0.26820000  0.96710000  0.07600000  1.0 0.1233110983
H  H63  1  0.77240000  0.08650000  0.99160000  1.0 0.3420849252
H  H64  1  0.44850000  0.19500000  0.94330000  1.0 0.3558349121
C  C1  1  0.92580000  0.70330000  0.19809000  1.0 0.6066688581
C  C2  1  0.98450000  0.62240000  0.19747000  1.0 -0.0126719797
C  C3  1  0.99360000  0.57980000  0.23085000  1.0 -0.0917202812
C  C4  1  0.04800000  0.50750000  0.23083000  1.0 -0.0256630158
C  C5  1  0.05040000  0.46170000  0.26672000  1.0 0.5871773395
C  C6  1  0.09750000  0.47720000  0.19603000  1.0 -0.164033648
C  C7  1  0.08880000  0.52050000  0.16244000  1.0 0.0800027433
C  C8  1  0.03220000  0.59220000  0.16346000  1.0 -0.139808223
C  C9  1  0.14430000  0.49010000  0.12576000  1.0 0.0160807069
C  C10  1  0.27500000  0.47350000  0.12491000  1.0 -0.1898730662
C  C11  1  0.33270000  0.45200000  0.09128000  1.0 -0.0126719797
C  C12  1  0.26380000  0.44380000  0.05803000  1.0 0.1728455532
C  C13  1  0.92830000  0.49400000  0.09169000  1.0 -0.4465264794
C  C14  1  0.13300000  0.45720000  0.05874000  1.0 -0.060557051
C  C15  1  0.06970000  0.48150000  0.09288000  1.0 0.1001023655
C  C16  1  0.05640000  0.44150000  0.02271000  1.0 -0.0967525145
C  C17  1  0.00370000  0.36970000  0.01917000  1.0 0.1728455532
C  C18  1  0.10710000  0.57620000  0.99943000  1.0 -0.436155532
C  C19  1  0.93540000  0.35240000  0.98520000  1.0 -0.0391210182
C  C20  1  0.92100000  0.40800000  0.95674000  1.0 -0.1817586165
C  C21  1  0.97530000  0.47850000  0.96049000  1.0 0.0125144135
C  C22  1  0.04650000  0.49770000  0.99379000  1.0 0.1001023655
C  C23  1  0.96440000  0.53080000  0.92665000  1.0 0.0800027433
C  C24  1  0.07580000  0.55620000  0.90718000  1.0 -0.139808223
C  C25  1  0.06520000  0.59690000  0.87280000  1.0 -0.0203784674
C  C26  1  0.18620000  0.61850000  0.85070000  1.0 0.6047481182
C  C27  1  0.94490000  0.61420000  0.85787000  1.0 -0.0967525145
C  C28  1  0.83300000  0.59170000  0.87714000  1.0 -0.0126719797
C  C29  1  0.70400000  0.60800000  0.86028000  1.0 0.5448455695
C  C30  1  0.84440000  0.54930000  0.91120000  1.0 -0.147742052
C  C31  1  0.57420000  0.29670000  0.69809000  1.0 0.6066688581
C  C32  1  0.51550000  0.37760000  0.69747000  1.0 -0.0126719797
C  C33  1  0.50640000  0.42020000  0.73085000  1.0 -0.0917202812
C  C34  1  0.45200000  0.49250000  0.73083000  1.0 -0.0203784674
C  C35  1  0.44960000  0.53830000  0.76672000  1.0 0.5871773395
C  C36  1  0.40250000  0.52280000  0.69603000  1.0 -0.1653940049
C  C37  1  0.41120000  0.47950000  0.66244000  1.0 0.0800027433
C  C38  1  0.46780000  0.40780000  0.66346000  1.0 -0.139808223
C  C39  1  0.35570000  0.50990000  0.62576000  1.0 0.0160807069
C  C40  1  0.22500000  0.52650000  0.62491000  1.0 -0.1898730662
C  C41  1  0.16730000  0.54800000  0.59128000  1.0 -0.0032496437
C  C42  1  0.23620000  0.55620000  0.55803000  1.0 0.1728455532
C  C43  1  0.57170000  0.50600000  0.59169000  1.0 -0.4465264794
C  C44  1  0.36700000  0.54280000  0.55874000  1.0 -0.060557051
C  C45  1  0.43030000  0.51850000  0.59288000  1.0 0.1001023655
C  C46  1  0.44360000  0.55850000  0.52271000  1.0 -0.0967525145
C  C47  1  0.49630000  0.63030000  0.51917000  1.0 0.1728455532
C  C48  1  0.39290000  0.42380000  0.49943000  1.0 -0.436155532
C  C49  1  0.56460000  0.64760000  0.48520000  1.0 -0.0391210182
C  C50  1  0.57900000  0.59200000  0.45674000  1.0 -0.1817586165
C  C51  1  0.52470000  0.52150000  0.46049000  1.0 0.0125144135
C  C52  1  0.45350000  0.50230000  0.49379000  1.0 0.1001023655
C  C53  1  0.53560000  0.46920000  0.42665000  1.0 0.0800027433
C  C54  1  0.42420000  0.44380000  0.40718000  1.0 -0.139808223
C  C55  1  0.43480000  0.40310000  0.37280000  1.0 -0.0203784674
C  C56  1  0.31380000  0.38150000  0.35070000  1.0 0.6047481182
C  C57  1  0.55510000  0.38580000  0.35787000  1.0 -0.0967525145
C  C58  1  0.66700000  0.40830000  0.37714000  1.0 -0.0126719797
C  C59  1  0.79600000  0.39200000  0.36028000  1.0 0.5460013035
C  C60  1  0.65560000  0.45070000  0.41120000  1.0 -0.147742052
C  C61  1  0.07420000  0.20330000  0.30191000  1.0 0.6066688581
C  C62  1  0.01550000  0.12240000  0.30253000  1.0 -0.0203784674
C  C63  1  0.00640000  0.07980000  0.26915000  1.0 -0.0917202812
C  C64  1  0.95200000  0.00750000  0.26917000  1.0 -0.0256630158
C  C65  1  0.94960000  0.96170000  0.23328000  1.0 0.5871773395
C  C66  1  0.90250000  0.97720000  0.30397000  1.0 -0.164033648
C  C67  1  0.91120000  0.02050000  0.33756000  1.0 0.0800027433
C  C68  1  0.96780000  0.09220000  0.33654000  1.0 -0.139808223
C  C69  1  0.85570000  0.99010000  0.37424000  1.0 0.0125144135
C  C70  1  0.72500000  0.97350000  0.37509000  1.0 -0.1898730662
C  C71  1  0.66730000  0.95200000  0.40872000  1.0 -0.0032496437
C  C72  1  0.73620000  0.94380000  0.44197000  1.0 0.1728455532
C  C73  1  0.07170000  0.99400000  0.40831000  1.0 -0.4465264794
C  C74  1  0.86700000  0.95720000  0.44126000  1.0 -0.060557051
C  C75  1  0.93030000  0.98150000  0.40712000  1.0 0.1001023655
C  C76  1  0.94360000  0.94150000  0.47729000  1.0 -0.0967525145
C  C77  1  0.99630000  0.86970000  0.48083000  1.0 0.1728455532
C  C78  1  0.89290000  0.07620000  0.50057000  1.0 -0.436155532
C  C79  1  0.06460000  0.85240000  0.51480000  1.0 -0.0391210182
C  C80  1  0.07900000  0.90800000  0.54326000  1.0 -0.1817586165
C  C81  1  0.02470000  0.97850000  0.53951000  1.0 0.0125144135
C  C82  1  0.95350000  0.99770000  0.50621000  1.0 0.1001023655
C  C83  1  0.03560000  0.03080000  0.57335000  1.0 0.0800027433
C  C84  1  0.92420000  0.05620000  0.59282000  1.0 -0.139808223
C  C85  1  0.93480000  0.09690000  0.62720000  1.0 -0.0203784674
C  C86  1  0.81380000  0.11850000  0.64930000  1.0 0.6066688581
C  C87  1  0.05510000  0.11420000  0.64213000  1.0 -0.0967525145
C  C88  1  0.16700000  0.09170000  0.62286000  1.0 -0.0126719797
C  C89  1  0.29600000  0.10800000  0.63972000  1.0 0.5460013035
C  C90  1  0.15560000  0.04930000  0.58880000  1.0 -0.147742052
C  C91  1  0.42580000  0.79670000  0.80191000  1.0 0.6066688581
C  C92  1  0.48450000  0.87760000  0.80253000  1.0 -0.0126719797
C  C93  1  0.49360000  0.92020000  0.76915000  1.0 -0.0917202812
C  C94  1  0.54800000  0.99250000  0.76917000  1.0 -0.0203784674
C  C95  1  0.55040000  0.03830000  0.73328000  1.0 0.5871773395
C  C96  1  0.59750000  0.02280000  0.80397000  1.0 -0.164033648
C  C97  1  0.58880000  0.97950000  0.83756000  1.0 0.0800027433
C  C98  1  0.53220000  0.90780000  0.83654000  1.0 -0.139808223
C  C99  1  0.64430000  0.00990000  0.87424000  1.0 0.0160807069
C  C100  1  0.77500000  0.02650000  0.87509000  1.0 -0.1898730662
C  C101  1  0.83270000  0.04800000  0.90872000  1.0 -0.0126719797
C  C102  1  0.76380000  0.05620000  0.94197000  1.0 0.1728455532
C  C103  1  0.42830000  0.00600000  0.90831000  1.0 -0.4465264794
C  C104  1  0.63300000  0.04280000  0.94126000  1.0 -0.060557051
C  C105  1  0.56970000  0.01850000  0.90712000  1.0 0.1001023655
C  C106  1  0.55640000  0.05850000  0.97729000  1.0 -0.0967525145
C  C107  1  0.50370000  0.13030000  0.98083000  1.0 0.1728455532
C  C108  1  0.60710000  0.92380000  0.00057000  1.0 -0.436155532
C  C109  1  0.43540000  0.14760000  0.01480000  1.0 -0.0391210182
C  C110  1  0.42100000  0.09200000  0.04326000  1.0 -0.1817586165
C  C111  1  0.47530000  0.02150000  0.03951000  1.0 0.0125144135
C  C112  1  0.54650000  0.00230000  0.00621000  1.0 0.1001023655
C  C113  1  0.46440000  0.96920000  0.07335000  1.0 0.0800027433
C  C114  1  0.57580000  0.94380000  0.09282000  1.0 -0.139808223
C  C115  1  0.56520000  0.90310000  0.12720000  1.0 -0.0203784674
C  C116  1  0.68620000  0.88150000  0.14930000  1.0 0.6066688581
C  C117  1  0.44490000  0.88580000  0.14213000  1.0 -0.0967525145
C  C118  1  0.33300000  0.90830000  0.12286000  1.0 -0.0126719797
C  C119  1  0.20400000  0.89200000  0.13972000  1.0 0.5448455695
C  C120  1  0.34440000  0.95070000  0.08880000  1.0 -0.147742052
Br  Br1  1  0.51238000  0.42743000  0.09213000  1.0 -0.0813831909
Br  Br2  1  0.86667000  0.25282000  0.97824000  1.0 -0.0813831909
Br  Br3  1  0.98762000  0.57257000  0.59213000  1.0 -0.0813831909
Br  Br4  1  0.63333000  0.74718000  0.47824000  1.0 -0.0813831909
Br  Br5  1  0.48762000  0.92743000  0.40787000  1.0 -0.0813831909
Br  Br6  1  0.13333000  0.75282000  0.52176000  1.0 -0.0917202812
Br  Br7  1  0.01238000  0.07257000  0.90787000  1.0 -0.0813831909
Br  Br8  1  0.36667000  0.24718000  0.02176000  1.0 -0.0813831909
O  O1  1  0.95200000  0.74600000  0.17003000  1.0 -0.5483529236
O  O2  1  0.85830000  0.72000000  0.22697000  1.0 -0.5904531148
O  O3  1  0.01600000  0.49200000  0.29731000  1.0 -0.4917684165
O  O4  1  0.08570000  0.39111000  0.26543000  1.0 -0.6218757
O  O5  1  0.32650000  0.42210000  0.02588000  1.0 -0.4094706442
O  O6  1  0.02090000  0.31870000  0.04810000  1.0 -0.3982903328
O  O7  1  0.60500000  0.59220000  0.87986000  1.0 -0.531764355
O  O8  1  0.69510000  0.63620000  0.82745000  1.0 -0.519610804
O  O9  1  0.16930000  0.64850000  0.81847000  1.0 -0.6054891464
O  O10  1  0.29060000  0.60110000  0.86539000  1.0 -0.5136591908
O  O11  1  0.54800000  0.25400000  0.67003000  1.0 -0.5483529236
O  O12  1  0.64170000  0.28000000  0.72697000  1.0 -0.5904531148
O  O13  1  0.48400000  0.50800000  0.79731000  1.0 -0.4917684165
O  O14  1  0.41430000  0.60889000  0.76543000  1.0 -0.6218757
O  O15  1  0.17350000  0.57790000  0.52588000  1.0 -0.4094706442
O  O16  1  0.47910000  0.68130000  0.54810000  1.0 -0.3982903328
O  O17  1  0.89500000  0.40780000  0.37986000  1.0 -0.531764355
O  O18  1  0.80490000  0.36380000  0.32745000  1.0 -0.519610804
O  O19  1  0.33070000  0.35150000  0.31847000  1.0 -0.6054891464
O  O20  1  0.20940000  0.39890000  0.36539000  1.0 -0.5136591908
O  O21  1  0.04800000  0.24600000  0.32997000  1.0 -0.5483529236
O  O22  1  0.14170000  0.22000000  0.27303000  1.0 -0.5904531148
O  O23  1  0.98400000  0.99200000  0.20269000  1.0 -0.4917684165
O  O24  1  0.91430000  0.89111000  0.23457000  1.0 -0.6218757
O  O25  1  0.67350000  0.92210000  0.47412000  1.0 -0.4094706442
O  O26  1  0.97910000  0.81870000  0.45190000  1.0 -0.3982903328
O  O27  1  0.39500000  0.09220000  0.62014000  1.0 -0.531764355
O  O28  1  0.30490000  0.13620000  0.67255000  1.0 -0.519610804
O  O29  1  0.83070000  0.14850000  0.68153000  1.0 -0.6054891464
O  O30  1  0.70940000  0.10110000  0.63461000  1.0 -0.5136591908
O  O31  1  0.45200000  0.75400000  0.82997000  1.0 -0.5483529236
O  O32  1  0.35830000  0.78000000  0.77303000  1.0 -0.5904531148
O  O33  1  0.51600000  0.00800000  0.70269000  1.0 -0.4917684165
O  O34  1  0.58570000  0.10889000  0.73457000  1.0 -0.6218757
O  O35  1  0.82650000  0.07790000  0.97412000  1.0 -0.4094706442
O  O36  1  0.52090000  0.18130000  0.95190000  1.0 -0.3982903328
O  O37  1  0.10500000  0.90780000  0.12014000  1.0 -0.531764355
O  O38  1  0.19510000  0.86380000  0.17255000  1.0 -0.519610804
O  O39  1  0.66930000  0.85150000  0.18153000  1.0 -0.6043028947
O  O40  1  0.79060000  0.89890000  0.13461000  1.0 -0.5136591908
