# DDEC6 charges by PACMAN v1.1 (https://github.com/mtap-research/PACMAN-charge/)
data_JILXOS_ASR_pacman
_symmetry_space_group_name_H-M   'P 1'
_cell_length_a   7.35780000
_cell_length_b   20.34470000
_cell_length_c   21.99690000
_cell_angle_alpha   90.00000000
_cell_angle_beta   90.00000000
_cell_angle_gamma   90.00000000
_symmetry_Int_Tables_number   1
_chemical_formula_structural   Cu2H9C14N5O
_chemical_formula_sum   'Cu16 H72 C112 N40 O8'
_cell_volume   3292.76509460
_cell_formula_units_Z   8
loop_
 _symmetry_equiv_pos_site_id
 _symmetry_equiv_pos_as_xyz
  1  'x, y, z'
loop_
 _atom_site_type_symbol
 _atom_site_label
 _atom_site_symmetry_multiplicity
 _atom_site_fract_x
 _atom_site_fract_y
 _atom_site_fract_z
 _atom_site_occupancy
 _atom_site_charge
Cu  Cu1  1  0.50000000  0.50000000  0.50000000  1.0 0.6160195289
Cu  Cu2  1  0.50000000  0.50000000  0.00000000  1.0 0.6149608312
Cu  Cu3  1  0.50000000  0.00000000  0.50000000  1.0 0.6160195289
Cu  Cu4  1  0.50000000  0.00000000  0.00000000  1.0 0.6149608312
Cu  Cu5  1  0.00000000  0.82000000  0.25000000  1.0 0.1769577867
Cu  Cu6  1  0.00000000  0.68000000  0.75000000  1.0 0.1769577867
Cu  Cu7  1  0.00000000  0.18000000  0.75000000  1.0 0.1769577867
Cu  Cu8  1  0.00000000  0.32000000  0.25000000  1.0 0.1769577867
Cu  Cu9  1  0.42888000  0.32581000  0.41262000  1.0 0.3693270838
Cu  Cu10  1  0.57112000  0.32581000  0.08738000  1.0 0.3693270838
Cu  Cu11  1  0.42888000  0.17419000  0.58738000  1.0 0.3693270838
Cu  Cu12  1  0.57112000  0.17419000  0.91262000  1.0 0.3693270838
Cu  Cu13  1  0.57112000  0.67419000  0.58738000  1.0 0.3693270838
Cu  Cu14  1  0.42888000  0.67419000  0.91262000  1.0 0.3693270838
Cu  Cu15  1  0.57112000  0.82581000  0.41262000  1.0 0.3693270838
Cu  Cu16  1  0.42888000  0.82581000  0.08738000  1.0 0.3693270838
H  H1  1  0.79510000  0.30090000  0.46820000  1.0 0.1024736954
H  H2  1  0.20490000  0.30090000  0.03180000  1.0 0.1024736954
H  H3  1  0.79510000  0.19910000  0.53180000  1.0 0.1024736954
H  H4  1  0.20490000  0.19910000  0.96820000  1.0 0.1024736954
H  H5  1  0.20490000  0.69910000  0.53180000  1.0 0.1024736954
H  H6  1  0.79510000  0.69910000  0.96820000  1.0 0.1024736954
H  H7  1  0.20490000  0.80090000  0.46820000  1.0 0.1024736954
H  H8  1  0.79510000  0.80090000  0.03180000  1.0 0.1024736954
H  H9  1  0.06820000  0.35190000  0.48480000  1.0 0.139398378
H  H10  1  0.93180000  0.35190000  0.01520000  1.0 0.139398378
H  H11  1  0.06820000  0.14810000  0.51520000  1.0 0.139398378
H  H12  1  0.93180000  0.14810000  0.98480000  1.0 0.139398378
H  H13  1  0.93180000  0.64810000  0.51520000  1.0 0.139398378
H  H14  1  0.06820000  0.64810000  0.98480000  1.0 0.139398378
H  H15  1  0.93180000  0.85190000  0.48480000  1.0 0.139398378
H  H16  1  0.06820000  0.85190000  0.01520000  1.0 0.139398378
H  H17  1  0.89180000  0.50170000  0.38330000  1.0 0.1333444769
H  H18  1  0.10820000  0.50170000  0.11670000  1.0 0.1333444769
H  H19  1  0.89180000  0.99830000  0.61670000  1.0 0.1333444769
H  H20  1  0.10820000  0.99830000  0.88330000  1.0 0.1333444769
H  H21  1  0.10820000  0.49830000  0.61670000  1.0 0.1333444769
H  H22  1  0.89180000  0.49830000  0.88330000  1.0 0.1333444769
H  H23  1  0.10820000  0.00170000  0.38330000  1.0 0.1333444769
H  H24  1  0.89180000  0.00170000  0.11670000  1.0 0.1333444769
H  H25  1  0.62710000  0.44560000  0.36810000  1.0 0.1072887598
H  H26  1  0.37290000  0.44560000  0.13190000  1.0 0.1072887598
H  H27  1  0.62710000  0.05440000  0.63190000  1.0 0.1072887598
H  H28  1  0.37290000  0.05440000  0.86810000  1.0 0.1072887598
H  H29  1  0.37290000  0.55440000  0.63190000  1.0 0.1072887598
H  H30  1  0.62710000  0.55440000  0.86810000  1.0 0.1072887598
H  H31  1  0.37290000  0.94560000  0.36810000  1.0 0.1072887598
H  H32  1  0.62710000  0.94560000  0.13190000  1.0 0.1072887598
H  H33  1  0.52910000  0.62400000  0.43100000  1.0 0.1333444769
H  H34  1  0.47090000  0.62400000  0.06900000  1.0 0.1333444769
H  H35  1  0.52910000  0.87600000  0.56900000  1.0 0.1333444769
H  H36  1  0.47090000  0.87600000  0.93100000  1.0 0.1333444769
H  H37  1  0.47090000  0.37600000  0.56900000  1.0 0.1333444769
H  H38  1  0.52910000  0.37600000  0.93100000  1.0 0.1333444769
H  H39  1  0.47090000  0.12400000  0.43100000  1.0 0.1333444769
H  H40  1  0.52910000  0.12400000  0.06900000  1.0 0.1333444769
H  H41  1  0.53470000  0.70190000  0.34850000  1.0 0.139398378
H  H42  1  0.46530000  0.70190000  0.15150000  1.0 0.139398378
H  H43  1  0.53470000  0.79810000  0.65150000  1.0 0.139398378
H  H44  1  0.46530000  0.79810000  0.84850000  1.0 0.139398378
H  H45  1  0.46530000  0.29810000  0.65150000  1.0 0.139398378
H  H46  1  0.53470000  0.29810000  0.84850000  1.0 0.139398378
H  H47  1  0.46530000  0.20190000  0.34850000  1.0 0.139398378
H  H48  1  0.53470000  0.20190000  0.15150000  1.0 0.139398378
H  H49  1  0.38640000  0.77440000  0.28820000  1.0 0.1072887598
H  H50  1  0.61360000  0.77440000  0.21180000  1.0 0.1072887598
H  H51  1  0.38640000  0.72560000  0.71180000  1.0 0.1072887598
H  H52  1  0.61360000  0.72560000  0.78820000  1.0 0.1072887598
H  H53  1  0.61360000  0.22560000  0.71180000  1.0 0.1072887598
H  H54  1  0.38640000  0.22560000  0.78820000  1.0 0.1072887598
H  H55  1  0.61360000  0.27440000  0.28820000  1.0 0.1072887598
H  H56  1  0.38640000  0.27440000  0.21180000  1.0 0.1072887598
H  H57  1  0.91940000  0.70520000  0.33570000  1.0 0.1024736954
H  H58  1  0.08060000  0.70520000  0.16430000  1.0 0.1024736954
H  H59  1  0.91940000  0.79480000  0.66430000  1.0 0.1024736954
H  H60  1  0.08060000  0.79480000  0.83570000  1.0 0.1024736954
H  H61  1  0.08060000  0.29480000  0.66430000  1.0 0.1024736954
H  H62  1  0.91940000  0.29480000  0.83570000  1.0 0.1024736954
H  H63  1  0.08060000  0.20520000  0.33570000  1.0 0.1024736954
H  H64  1  0.91940000  0.20520000  0.16430000  1.0 0.1024736954
H  H65  1  0.05350000  0.62500000  0.39480000  1.0 0.1333444769
H  H66  1  0.94650000  0.62500000  0.10520000  1.0 0.1333444769
H  H67  1  0.05350000  0.87500000  0.60520000  1.0 0.1333444769
H  H68  1  0.94650000  0.87500000  0.89480000  1.0 0.1333444769
H  H69  1  0.94650000  0.37500000  0.60520000  1.0 0.1333444769
H  H70  1  0.05350000  0.37500000  0.89480000  1.0 0.1333444769
H  H71  1  0.94650000  0.12500000  0.39480000  1.0 0.1333444769
H  H72  1  0.05350000  0.12500000  0.10520000  1.0 0.1333444769
C  C1  1  0.40390000  0.26815000  0.47978000  1.0 -0.3931224453
C  C2  1  0.59610000  0.26815000  0.02022000  1.0 -0.3956244172
C  C3  1  0.40390000  0.23185000  0.52022000  1.0 -0.3931224453
C  C4  1  0.59610000  0.23185000  0.97978000  1.0 -0.3956244172
C  C5  1  0.59610000  0.73185000  0.52022000  1.0 -0.3956244172
C  C6  1  0.40390000  0.73185000  0.97978000  1.0 -0.3931224453
C  C7  1  0.59610000  0.76815000  0.47978000  1.0 -0.3956244172
C  C8  1  0.40390000  0.76815000  0.02022000  1.0 -0.3931224453
C  C9  1  0.81510000  0.34194000  0.45081000  1.0 0.078009252
C  C10  1  0.18490000  0.34194000  0.04919000  1.0 0.078009252
C  C11  1  0.81510000  0.15806000  0.54919000  1.0 0.078009252
C  C12  1  0.18490000  0.15806000  0.95081000  1.0 0.078009252
C  C13  1  0.18490000  0.65806000  0.54919000  1.0 0.078009252
C  C14  1  0.81510000  0.65806000  0.95081000  1.0 0.078009252
C  C15  1  0.18490000  0.84194000  0.45081000  1.0 0.078009252
C  C16  1  0.81510000  0.84194000  0.04919000  1.0 0.078009252
C  C17  1  0.97950000  0.37245000  0.46150000  1.0 -0.1365355508
C  C18  1  0.02050000  0.37245000  0.03850000  1.0 -0.1365355508
C  C19  1  0.97950000  0.12755000  0.53850000  1.0 -0.1365355508
C  C20  1  0.02050000  0.12755000  0.96150000  1.0 -0.1365355508
C  C21  1  0.02050000  0.62755000  0.53850000  1.0 -0.1365355508
C  C22  1  0.97950000  0.62755000  0.96150000  1.0 -0.1365355508
C  C23  1  0.02050000  0.87245000  0.46150000  1.0 -0.1365355508
C  C24  1  0.97950000  0.87245000  0.03850000  1.0 -0.1365355508
C  C25  1  0.01050000  0.43367000  0.43718000  1.0 0.0595901465
C  C26  1  0.98950000  0.43367000  0.06282000  1.0 0.0595901465
C  C27  1  0.01050000  0.06633000  0.56282000  1.0 0.0595901465
C  C28  1  0.98950000  0.06633000  0.93718000  1.0 0.0595901465
C  C29  1  0.98950000  0.56633000  0.56282000  1.0 0.0595901465
C  C30  1  0.01050000  0.56633000  0.93718000  1.0 0.0595901465
C  C31  1  0.98950000  0.93367000  0.43718000  1.0 0.0595901465
C  C32  1  0.01050000  0.93367000  0.06282000  1.0 0.0595901465
C  C33  1  0.87510000  0.46080000  0.40125000  1.0 -0.1540374043
C  C34  1  0.12490000  0.46080000  0.09875000  1.0 -0.1540374043
C  C35  1  0.87510000  0.03920000  0.59875000  1.0 -0.1540374043
C  C36  1  0.12490000  0.03920000  0.90125000  1.0 -0.1540374043
C  C37  1  0.12490000  0.53920000  0.59875000  1.0 -0.1540374043
C  C38  1  0.87510000  0.53920000  0.90125000  1.0 -0.1540374043
C  C39  1  0.12490000  0.96080000  0.40125000  1.0 -0.1540374043
C  C40  1  0.87510000  0.96080000  0.09875000  1.0 -0.1540374043
C  C41  1  0.71640000  0.42680000  0.39241000  1.0 0.0595901465
C  C42  1  0.28360000  0.42680000  0.10759000  1.0 0.0595901465
C  C43  1  0.71640000  0.07320000  0.60759000  1.0 0.0595901465
C  C44  1  0.28360000  0.07320000  0.89241000  1.0 0.0595901465
C  C45  1  0.28360000  0.57320000  0.60759000  1.0 0.0595901465
C  C46  1  0.71640000  0.57320000  0.89241000  1.0 0.0595901465
C  C47  1  0.28360000  0.92680000  0.39241000  1.0 0.0595901465
C  C48  1  0.71640000  0.92680000  0.10759000  1.0 0.0595901465
C  C49  1  0.18450000  0.46908000  0.44967000  1.0 0.3857795937
C  C50  1  0.81550000  0.46908000  0.05033000  1.0 0.3857795937
C  C51  1  0.18450000  0.03092000  0.55033000  1.0 0.3857795937
C  C52  1  0.81550000  0.03092000  0.94967000  1.0 0.3857795937
C  C53  1  0.81550000  0.53092000  0.55033000  1.0 0.3857795937
C  C54  1  0.18450000  0.53092000  0.94967000  1.0 0.3857795937
C  C55  1  0.81550000  0.96908000  0.44967000  1.0 0.3857795937
C  C56  1  0.18450000  0.96908000  0.05033000  1.0 0.3857795937
C  C57  1  0.41540000  0.60893000  0.41884000  1.0 0.0505157733
C  C58  1  0.58460000  0.60893000  0.08116000  1.0 0.0505157733
C  C59  1  0.41540000  0.89107000  0.58116000  1.0 0.0505157733
C  C60  1  0.58460000  0.89107000  0.91884000  1.0 0.0505157733
C  C61  1  0.58460000  0.39107000  0.58116000  1.0 0.0505157733
C  C62  1  0.41540000  0.39107000  0.91884000  1.0 0.0505157733
C  C63  1  0.58460000  0.10893000  0.41884000  1.0 0.0505157733
C  C64  1  0.41540000  0.10893000  0.08116000  1.0 0.0505157733
C  C65  1  0.31290000  0.65392000  0.37831000  1.0 0.139398378
C  C66  1  0.68710000  0.65392000  0.12169000  1.0 0.139398378
C  C67  1  0.31290000  0.84608000  0.62169000  1.0 0.139398378
C  C68  1  0.68710000  0.84608000  0.87831000  1.0 0.139398378
C  C69  1  0.68710000  0.34608000  0.62169000  1.0 0.139398378
C  C70  1  0.31290000  0.34608000  0.87831000  1.0 0.139398378
C  C71  1  0.68710000  0.15392000  0.37831000  1.0 0.139398378
C  C72  1  0.31290000  0.15392000  0.12169000  1.0 0.139398378
C  C73  1  0.40860000  0.70046000  0.34599000  1.0 -0.1912970519
C  C74  1  0.59140000  0.70046000  0.15401000  1.0 -0.1912970519
C  C75  1  0.40860000  0.79954000  0.65401000  1.0 -0.1912970519
C  C76  1  0.59140000  0.79954000  0.84599000  1.0 -0.1912970519
C  C77  1  0.59140000  0.29954000  0.65401000  1.0 -0.1912970519
C  C78  1  0.40860000  0.29954000  0.84599000  1.0 -0.1912970519
C  C79  1  0.59140000  0.20046000  0.34599000  1.0 -0.1912970519
C  C80  1  0.40860000  0.20046000  0.15401000  1.0 -0.1912970519
C  C81  1  0.31840000  0.74434000  0.31041000  1.0 0.0672486616
C  C82  1  0.68160000  0.74434000  0.18959000  1.0 0.0672486616
C  C83  1  0.31840000  0.75566000  0.68959000  1.0 0.0672486616
C  C84  1  0.68160000  0.75566000  0.81041000  1.0 0.0672486616
C  C85  1  0.68160000  0.25566000  0.68959000  1.0 0.0672486616
C  C86  1  0.31840000  0.25566000  0.81041000  1.0 0.0672486616
C  C87  1  0.68160000  0.24434000  0.31041000  1.0 0.0672486616
C  C88  1  0.31840000  0.24434000  0.18959000  1.0 0.0672486616
C  C89  1  0.04560000  0.70340000  0.33760000  1.0 0.0863566451
C  C90  1  0.95440000  0.70340000  0.16240000  1.0 0.0863566451
C  C91  1  0.04560000  0.79660000  0.66240000  1.0 0.0863566451
C  C92  1  0.95440000  0.79660000  0.83760000  1.0 0.0863566451
C  C93  1  0.95440000  0.29660000  0.66240000  1.0 0.0863566451
C  C94  1  0.04560000  0.29660000  0.83760000  1.0 0.0863566451
C  C95  1  0.95440000  0.20340000  0.33760000  1.0 0.0863566451
C  C96  1  0.04560000  0.20340000  0.16240000  1.0 0.0863566451
C  C97  1  0.12460000  0.65530000  0.37400000  1.0 -0.1704489434
C  C98  1  0.87540000  0.65530000  0.12600000  1.0 -0.1704489434
C  C99  1  0.12460000  0.84470000  0.62600000  1.0 -0.1704489434
C  C100  1  0.87540000  0.84470000  0.87400000  1.0 -0.1704489434
C  C101  1  0.87540000  0.34470000  0.62600000  1.0 -0.1704489434
C  C102  1  0.12460000  0.34470000  0.87400000  1.0 -0.1704489434
C  C103  1  0.87540000  0.15530000  0.37400000  1.0 -0.1704489434
C  C104  1  0.12460000  0.15530000  0.12600000  1.0 -0.1704489434
C  C105  1  0.81290000  0.84710000  0.30365000  1.0 -0.0721935094
C  C106  1  0.18710000  0.84710000  0.19635000  1.0 -0.0721935094
C  C107  1  0.81290000  0.65290000  0.69635000  1.0 -0.0721935094
C  C108  1  0.18710000  0.65290000  0.80365000  1.0 -0.0721935094
C  C109  1  0.18710000  0.15290000  0.69635000  1.0 -0.0721935094
C  C110  1  0.81290000  0.15290000  0.80365000  1.0 -0.0721935094
C  C111  1  0.18710000  0.34710000  0.30365000  1.0 -0.0721935094
C  C112  1  0.81290000  0.34710000  0.19635000  1.0 -0.0721935094
N  N1  1  0.68370000  0.36789000  0.41700000  1.0 -0.1912970519
N  N2  1  0.31630000  0.36789000  0.08300000  1.0 -0.1912970519
N  N3  1  0.68370000  0.13211000  0.58300000  1.0 -0.1912970519
N  N4  1  0.31630000  0.13211000  0.91700000  1.0 -0.1912970519
N  N5  1  0.31630000  0.63211000  0.58300000  1.0 -0.1912970519
N  N6  1  0.68370000  0.63211000  0.91700000  1.0 -0.1912970519
N  N7  1  0.31630000  0.86789000  0.41700000  1.0 -0.1912970519
N  N8  1  0.68370000  0.86789000  0.08300000  1.0 -0.1912970519
N  N9  1  0.20560000  0.52535000  0.42211000  1.0 -0.3222391786
N  N10  1  0.79440000  0.52535000  0.07789000  1.0 -0.3222391786
N  N11  1  0.20560000  0.97465000  0.57789000  1.0 -0.3222391786
N  N12  1  0.79440000  0.97465000  0.92211000  1.0 -0.3222391786
N  N13  1  0.79440000  0.47465000  0.57789000  1.0 -0.3222391786
N  N14  1  0.20560000  0.47465000  0.92211000  1.0 -0.3222391786
N  N15  1  0.79440000  0.02535000  0.42211000  1.0 -0.3222391786
N  N16  1  0.20560000  0.02535000  0.07789000  1.0 -0.3222391786
N  N17  1  0.37050000  0.55296000  0.43935000  1.0 -0.1212949523
N  N18  1  0.62950000  0.55296000  0.06065000  1.0 -0.1212949523
N  N19  1  0.37050000  0.94704000  0.56065000  1.0 -0.1212949523
N  N20  1  0.62950000  0.94704000  0.93935000  1.0 -0.1212949523
N  N21  1  0.62950000  0.44704000  0.56065000  1.0 -0.1212949523
N  N22  1  0.37050000  0.44704000  0.93935000  1.0 -0.1212949523
N  N23  1  0.62950000  0.05296000  0.43935000  1.0 -0.1212949523
N  N24  1  0.37050000  0.05296000  0.06065000  1.0 -0.1212949523
N  N25  1  0.13870000  0.74660000  0.30568000  1.0 -0.1815065364
N  N26  1  0.86130000  0.74660000  0.19432000  1.0 -0.1815065364
N  N27  1  0.13870000  0.75340000  0.69432000  1.0 -0.1815065364
N  N28  1  0.86130000  0.75340000  0.80568000  1.0 -0.1815065364
N  N29  1  0.86130000  0.25340000  0.69432000  1.0 -0.1815065364
N  N30  1  0.13870000  0.25340000  0.80568000  1.0 -0.1815065364
N  N31  1  0.86130000  0.24660000  0.30568000  1.0 -0.1815065364
N  N32  1  0.13870000  0.24660000  0.19432000  1.0 -0.1815065364
N  N33  1  0.71150000  0.84681000  0.34329000  1.0 -0.3401797297
N  N34  1  0.28850000  0.84681000  0.15671000  1.0 -0.3401797297
N  N35  1  0.71150000  0.65319000  0.65671000  1.0 -0.3401797297
N  N36  1  0.28850000  0.65319000  0.84329000  1.0 -0.3401797297
N  N37  1  0.28850000  0.15319000  0.65671000  1.0 -0.3401797297
N  N38  1  0.71150000  0.15319000  0.84329000  1.0 -0.3401797297
N  N39  1  0.28850000  0.34681000  0.34329000  1.0 -0.3401797297
N  N40  1  0.71150000  0.34681000  0.15671000  1.0 -0.3401797297
O  O1  1  0.29580000  0.44312000  0.48745000  1.0 -0.5149914207
O  O2  1  0.70420000  0.44312000  0.01255000  1.0 -0.5149914207
O  O3  1  0.29580000  0.05688000  0.51255000  1.0 -0.5149914207
O  O4  1  0.70420000  0.05688000  0.98745000  1.0 -0.5149914207
O  O5  1  0.70420000  0.55688000  0.51255000  1.0 -0.5149914207
O  O6  1  0.29580000  0.55688000  0.98745000  1.0 -0.5149914207
O  O7  1  0.70420000  0.94312000  0.48745000  1.0 -0.5149914207
O  O8  1  0.29580000  0.94312000  0.01255000  1.0 -0.5149914207
