# DDEC6 charges by PACMAN v1.1 (https://github.com/mtap-research/PACMAN-charge/)
data_JINZUF_ASR_pacman
_symmetry_space_group_name_H-M   'P 1'
_cell_length_a   12.93680000
_cell_length_b   12.93680000
_cell_length_c   17.05500000
_cell_angle_alpha   77.74650000
_cell_angle_beta   102.25300000
_cell_angle_gamma   75.97570000
_symmetry_Int_Tables_number   1
_chemical_formula_structural   Pr4H31C37(N2O9)3
_chemical_formula_sum   'Pr8 H62 C74 N12 O54'
_cell_volume   2599.42001853
_cell_formula_units_Z   2
loop_
 _symmetry_equiv_pos_site_id
 _symmetry_equiv_pos_as_xyz
  1  'x, y, z'
loop_
 _atom_site_type_symbol
 _atom_site_label
 _atom_site_symmetry_multiplicity
 _atom_site_fract_x
 _atom_site_fract_y
 _atom_site_fract_z
 _atom_site_occupancy
 _atom_site_charge
Pr  Pr1  1  0.95812000  0.37664000  0.58578000  1.0 2.0613341679
Pr  Pr2  1  0.37664000  0.95812000  0.41422000  1.0 2.0613341679
Pr  Pr3  1  0.04188000  0.62336000  0.41422000  1.0 2.0613341679
Pr  Pr4  1  0.62336000  0.04188000  0.58578000  1.0 2.0613341679
Pr  Pr5  1  0.88431000  0.11569000  0.85219000  1.0 0.2490656485
Pr  Pr6  1  0.11569000  0.88431000  0.14781000  1.0 0.2602565073
Pr  Pr7  1  0.83708000  0.16292000  0.74810000  1.0 0.8506507029
Pr  Pr8  1  0.16292000  0.83708000  0.25190000  1.0 0.8506507029
H  H1  1  0.59815000  0.88993000  0.84521000  1.0 0.2686488604
H  H2  1  0.88993000  0.59815000  0.15479000  1.0 0.2686488604
H  H3  1  0.40185000  0.11007000  0.15479000  1.0 0.2686488604
H  H4  1  0.11007000  0.40185000  0.84521000  1.0 0.2686488604
H  H5  1  0.07980000  0.17750000  0.91504000  1.0 0.2332651329
H  H6  1  0.17750000  0.07980000  0.08496000  1.0 0.2332651329
H  H7  1  0.92020000  0.82250000  0.08496000  1.0 0.2332651329
H  H8  1  0.82250000  0.92020000  0.91504000  1.0 0.2332651329
H  H9  1  0.99490000  0.25820000  0.92618000  1.0 0.1974164632
H  H10  1  0.25820000  0.99490000  0.07382000  1.0 0.1974164632
H  H11  1  0.00510000  0.74180000  0.07382000  1.0 0.1974164632
H  H12  1  0.74180000  0.00510000  0.92618000  1.0 0.1974164632
H  H13  1  0.81478000  0.25492000  0.95410000  1.0 0.2073555042
H  H14  1  0.25492000  0.81478000  0.04590000  1.0 0.2073555042
H  H15  1  0.18522000  0.74508000  0.04590000  1.0 0.2073555042
H  H16  1  0.74508000  0.18522000  0.95410000  1.0 0.2073555042
H  H17  1  0.15417000  0.10361000  0.60175000  1.0 0.1411430587
H  H18  1  0.10361000  0.15417000  0.39825000  1.0 0.1411430587
H  H19  1  0.84583000  0.89639000  0.39825000  1.0 0.1411430587
H  H20  1  0.89639000  0.84583000  0.60175000  1.0 0.1411430587
H  H21  1  0.47304000  0.93953000  0.72514000  1.0 0.1219039832
H  H22  1  0.93953000  0.47303000  0.27486000  1.0 0.1219039832
H  H23  1  0.52697000  0.06047000  0.27486000  1.0 0.1219039832
H  H24  1  0.06047000  0.52697000  0.72514000  1.0 0.1219039832
H  H25  1  0.24918000  0.00756000  0.85295000  1.0 0.1290958276
H  H26  1  0.00756000  0.24918000  0.14705000  1.0 0.1290958276
H  H27  1  0.75082000  0.99244000  0.14705000  1.0 0.1290958276
H  H28  1  0.99244000  0.75082000  0.85295000  1.0 0.1290958276
H  H29  1  0.62478000  0.74342000  0.33009000  1.0 0.1290958276
H  H30  1  0.74342000  0.62478000  0.66991000  1.0 0.1290958276
H  H31  1  0.37522000  0.25658000  0.66991000  1.0 0.1290958276
H  H32  1  0.25658000  0.37522000  0.33009000  1.0 0.1290958276
H  H33  1  0.73942000  0.74926000  0.12843000  1.0 0.1077775595
H  H34  1  0.74926000  0.73942000  0.87157000  1.0 0.1077775595
H  H35  1  0.26058000  0.25074000  0.87157000  1.0 0.1077775595
H  H36  1  0.25074000  0.26058000  0.12843000  1.0 0.1077775595
H  H37  1  0.41244000  0.86624000  0.09942000  1.0 0.0957763245
H  H38  1  0.86624000  0.41244000  0.90058000  1.0 0.0957763245
H  H39  1  0.58756000  0.13376000  0.90058000  1.0 0.0957763245
H  H40  1  0.13376000  0.58756000  0.09942000  1.0 0.0957763245
H  H41  1  0.73099000  0.26901000  0.60276000  1.0 0.1077775595
H  H42  1  0.26901000  0.73099000  0.39724000  1.0 0.1077775595
H  H43  1  0.81824000  0.12958000  0.91594000  1.0 0.1740081658
H  H44  1  0.12958000  0.81824000  0.08406000  1.0 0.1740081658
H  H45  1  0.18176000  0.87042000  0.08406000  1.0 0.1740081658
H  H46  1  0.87042000  0.18176000  0.91594000  1.0 0.1740081658
H  H47  1  0.92074000  0.05446000  0.92492000  1.0 0.1077775595
H  H48  1  0.05446000  0.92074000  0.07508000  1.0 0.1077775595
H  H49  1  0.07926000  0.94554000  0.07508000  1.0 0.1077775595
H  H50  1  0.94554000  0.07926000  0.92492000  1.0 0.1077775595
H  H51  1  0.96693000  0.26377000  0.83908000  1.0 0.2490656485
H  H52  1  0.26377000  0.96693000  0.16092000  1.0 0.2490656485
H  H53  1  0.03307000  0.73623000  0.16092000  1.0 0.2490656485
H  H54  1  0.73623000  0.03307000  0.83908000  1.0 0.2490656485
H  H55  1  0.05251000  0.18467000  0.82715000  1.0 0.2332651329
H  H56  1  0.18467000  0.05251000  0.17285000  1.0 0.2332651329
H  H57  1  0.94749000  0.81533000  0.17285000  1.0 0.2332651329
H  H58  1  0.81533000  0.94749000  0.82715000  1.0 0.2332651329
H  H59  1  0.99717000  0.93477000  0.99627000  1.0 0.1219039832
H  H60  1  0.93477000  0.99717000  0.00373000  1.0 0.1219039832
H  H61  1  0.00283000  0.06523000  0.00373000  1.0 0.1219039832
H  H62  1  0.06523000  0.00283000  0.99627000  1.0 0.1219039832
C  C1  1  0.06820000  0.11720000  0.73070000  1.0 0.3792668556
C  C2  1  0.11720000  0.06820000  0.26930000  1.0 0.3792668556
C  C3  1  0.93180000  0.88280000  0.26930000  1.0 0.3792668556
C  C4  1  0.88280000  0.93180000  0.73070000  1.0 0.3792668556
C  C5  1  0.34340000  0.01200000  0.57110000  1.0 0.6142791261
C  C6  1  0.01200000  0.34340000  0.42890000  1.0 0.6142791261
C  C7  1  0.65660000  0.98800000  0.42890000  1.0 0.6142791261
C  C8  1  0.98800000  0.65660000  0.57110000  1.0 0.6142791261
C  C9  1  0.18440000  0.06400000  0.72840000  1.0 -0.0187502386
C  C10  1  0.06400000  0.18440000  0.27160000  1.0 -0.0187502386
C  C11  1  0.81560000  0.93600000  0.27160000  1.0 -0.0187502386
C  C12  1  0.93600000  0.81560000  0.72840000  1.0 -0.0187502386
C  C13  1  0.20930000  0.06810000  0.65180000  1.0 -0.0899231756
C  C14  1  0.06810000  0.20930000  0.34820000  1.0 -0.0899231756
C  C15  1  0.79070000  0.93190000  0.34820000  1.0 -0.0899231756
C  C16  1  0.93190000  0.79070000  0.65180000  1.0 -0.0899231756
C  C17  1  0.31750000  0.01830000  0.65190000  1.0 -0.0187502386
C  C18  1  0.01830000  0.31750000  0.34810000  1.0 -0.0187502386
C  C19  1  0.68250000  0.98170000  0.34810000  1.0 -0.0187502386
C  C20  1  0.98170000  0.68250000  0.65190000  1.0 -0.0187502386
C  C21  1  0.40040000  0.96960000  0.72590000  1.0 -0.1432424808
C  C22  1  0.96960000  0.40040000  0.27410000  1.0 -0.1432424808
C  C23  1  0.59960000  0.03040000  0.27410000  1.0 -0.1432424808
C  C24  1  0.03040000  0.59960000  0.72590000  1.0 -0.1432424808
C  C25  1  0.37500000  0.96520000  0.80250000  1.0 0.0181200777
C  C26  1  0.96520000  0.37500000  0.19750000  1.0 0.0181200777
C  C27  1  0.62500000  0.03480000  0.19750000  1.0 0.0181200777
C  C28  1  0.03480000  0.62500000  0.80250000  1.0 0.0181200777
C  C29  1  0.26670000  0.01170000  0.80250000  1.0 -0.1432424808
C  C30  1  0.01170000  0.26670000  0.19750000  1.0 -0.1432424808
C  C31  1  0.73330000  0.98830000  0.19750000  1.0 -0.1432424808
C  C32  1  0.98830000  0.73330000  0.80250000  1.0 -0.1432424808
C  C33  1  0.46150000  0.91350000  0.88120000  1.0 0.2602565073
C  C34  1  0.91350000  0.46150000  0.11880000  1.0 0.2602565073
C  C35  1  0.53850000  0.08650000  0.11880000  1.0 0.2602565073
C  C36  1  0.08650000  0.53850000  0.88120000  1.0 0.2602565073
C  C37  1  0.40890000  0.83730000  0.25760000  1.0 0.5269736996
C  C38  1  0.83730000  0.40890000  0.74240000  1.0 0.5269736996
C  C39  1  0.59110000  0.16270000  0.74240000  1.0 0.5269736996
C  C40  1  0.16270000  0.59110000  0.25760000  1.0 0.5269736996
C  C41  1  0.81650000  0.68610000  0.29400000  1.0 0.5584869136
C  C42  1  0.68610000  0.81650000  0.70600000  1.0 0.5584869136
C  C43  1  0.18350000  0.31390000  0.70600000  1.0 0.5584869136
C  C44  1  0.31390000  0.18350000  0.29400000  1.0 0.5584869136
C  C45  1  0.50330000  0.80710000  0.22110000  1.0 -0.0655928167
C  C46  1  0.80710000  0.50330000  0.77890000  1.0 -0.0655928167
C  C47  1  0.49670000  0.19290000  0.77890000  1.0 -0.0655928167
C  C48  1  0.19290000  0.49670000  0.22110000  1.0 -0.0655928167
C  C49  1  0.61160000  0.75960000  0.27240000  1.0 -0.1028841759
C  C50  1  0.75960000  0.61160000  0.72760000  1.0 -0.1028841759
C  C51  1  0.38840000  0.24040000  0.72760000  1.0 -0.1028841759
C  C52  1  0.24040000  0.38840000  0.27240000  1.0 -0.1028841759
C  C53  1  0.70010000  0.73610000  0.23840000  1.0 -0.0187502386
C  C54  1  0.73610000  0.70010000  0.76160000  1.0 -0.0187502386
C  C55  1  0.29990000  0.26390000  0.76160000  1.0 -0.0187502386
C  C56  1  0.26390000  0.29990000  0.23840000  1.0 -0.0187502386
C  C57  1  0.68050000  0.76390000  0.15170000  1.0 -0.1607033859
C  C58  1  0.76390000  0.68050000  0.84830000  1.0 -0.1607033859
C  C59  1  0.31950000  0.23610000  0.84830000  1.0 -0.1607033859
C  C60  1  0.23610000  0.31950000  0.15170000  1.0 -0.1607033859
C  C61  1  0.57230000  0.81370000  0.10010000  1.0 0.0569883337
C  C62  1  0.81370000  0.57230000  0.89990000  1.0 0.0569883337
C  C63  1  0.42770000  0.18630000  0.89990000  1.0 0.0569883337
C  C64  1  0.18630000  0.42770000  0.10010000  1.0 0.0569883337
C  C65  1  0.48440000  0.83420000  0.13420000  1.0 -0.1830567668
C  C66  1  0.83420000  0.48440000  0.86580000  1.0 -0.1830567668
C  C67  1  0.51560000  0.16580000  0.86580000  1.0 -0.1830567668
C  C68  1  0.16580000  0.51560000  0.13420000  1.0 -0.1830567668
C  C69  1  0.54970000  0.84850000  0.00830000  1.0 0.2602565073
C  C70  1  0.84850000  0.54970000  0.99170000  1.0 0.2602565073
C  C71  1  0.45030000  0.15150000  0.99170000  1.0 0.2602565073
C  C72  1  0.15150000  0.45030000  0.00830000  1.0 0.2602565073
C  C73  1  0.74250000  0.25750000  0.55290000  1.0 0.5107345631
C  C74  1  0.25750000  0.74250000  0.44710000  1.0 0.5107345631
N  N1  1  0.56980000  0.88360000  0.88660000  1.0 -0.1677966962
N  N2  1  0.88360000  0.56980000  0.11340000  1.0 -0.1677966962
N  N3  1  0.43020000  0.11640000  0.11340000  1.0 -0.1677966962
N  N4  1  0.11640000  0.43020000  0.88660000  1.0 -0.1677966962
N  N5  1  0.62740000  0.84120000  0.96870000  1.0 -0.2810102055
N  N6  1  0.84120000  0.62740000  0.03130000  1.0 -0.2810102055
N  N7  1  0.37260000  0.15880000  0.03130000  1.0 -0.2810102055
N  N8  1  0.15880000  0.37260000  0.96870000  1.0 -0.2810102055
N  N9  1  0.44580000  0.89300000  0.95650000  1.0 -0.4381750772
N  N10  1  0.89300000  0.44580000  0.04350000  1.0 -0.4381750772
N  N11  1  0.55420000  0.10700000  0.04350000  1.0 -0.4381750772
N  N12  1  0.10700000  0.55420000  0.95650000  1.0 -0.4381750772
O  O1  1  0.99916000  0.18316000  0.66470000  1.0 -0.6537071268
O  O2  1  0.18316000  0.99916000  0.33530000  1.0 -0.6537071268
O  O3  1  0.00084000  0.81684000  0.33530000  1.0 -0.6537071268
O  O4  1  0.81684000  0.00084000  0.66470000  1.0 -0.6537071268
O  O5  1  0.04480000  0.09440000  0.79810000  1.0 -0.4178026865
O  O6  1  0.09440000  0.04480000  0.20190000  1.0 -0.4178026865
O  O7  1  0.95520000  0.90560000  0.20190000  1.0 -0.4178026865
O  O8  1  0.90560000  0.95520000  0.79810000  1.0 -0.4178026865
O  O9  1  0.26760000  0.01720000  0.51110000  1.0 -0.5654497544
O  O10  1  0.01720000  0.26760000  0.48890000  1.0 -0.5654497544
O  O11  1  0.73240000  0.98280000  0.48890000  1.0 -0.5654497544
O  O12  1  0.98280000  0.73240000  0.51110000  1.0 -0.5654497544
O  O13  1  0.44292000  0.99592000  0.56640000  1.0 -0.7507712493
O  O14  1  0.99592000  0.44292000  0.43360000  1.0 -0.7507712493
O  O15  1  0.55708000  0.00408000  0.43360000  1.0 -0.7507712493
O  O16  1  0.00408000  0.55708000  0.56640000  1.0 -0.7507712493
O  O17  1  0.43120000  0.84580000  0.32990000  1.0 -0.6140569995
O  O18  1  0.84580000  0.43120000  0.67010000  1.0 -0.6140569995
O  O19  1  0.56880000  0.15420000  0.67010000  1.0 -0.6140569995
O  O20  1  0.15420000  0.56880000  0.32990000  1.0 -0.6140569995
O  O21  1  0.30980000  0.83000000  0.21770000  1.0 -0.3272940988
O  O22  1  0.83000000  0.30980000  0.78230000  1.0 -0.3272940988
O  O23  1  0.69020000  0.17000000  0.78230000  1.0 -0.3272940988
O  O24  1  0.17000000  0.69020000  0.21770000  1.0 -0.3272940988
O  O25  1  0.89560000  0.66240000  0.26330000  1.0 -0.6537071268
O  O26  1  0.66240000  0.89560000  0.73670000  1.0 -0.6537071268
O  O27  1  0.10440000  0.33760000  0.73670000  1.0 -0.6537071268
O  O28  1  0.33760000  0.10440000  0.26330000  1.0 -0.6537071268
O  O29  1  0.83244000  0.67404000  0.37190000  1.0 -0.6140569995
O  O30  1  0.67404000  0.83244000  0.62810000  1.0 -0.6140569995
O  O31  1  0.16756000  0.32596000  0.62810000  1.0 -0.6140569995
O  O32  1  0.32596000  0.16756000  0.37190000  1.0 -0.6140569995
O  O33  1  0.80330000  0.30790000  0.53010000  1.0 -0.5209192584
O  O34  1  0.30790000  0.80330000  0.46990000  1.0 -0.5209192584
O  O35  1  0.19670000  0.69210000  0.46990000  1.0 -0.5209192584
O  O36  1  0.69210000  0.19670000  0.53010000  1.0 -0.5209192584
O  O37  1  0.02140000  0.18900000  0.93160000  1.0 -0.4057812641
O  O38  1  0.18900000  0.02140000  0.06840000  1.0 -0.4057812641
O  O39  1  0.97860000  0.81100000  0.06840000  1.0 -0.4045788894
O  O40  1  0.81100000  0.97860000  0.93160000  1.0 -0.4057812641
O  O41  1  0.81080000  0.18920000  0.95900000  1.0 -0.3868713031
O  O42  1  0.18920000  0.81080000  0.04100000  1.0 -0.3868713031
O  O43  1  0.31800000  0.88500000  0.20840000  1.0 -0.0899231756
O  O44  1  0.88500000  0.31800000  0.79160000  1.0 -0.0899231756
O  O45  1  0.68200000  0.11500000  0.79160000  1.0 -0.0899231756
O  O46  1  0.11500000  0.68200000  0.20840000  1.0 -0.0899231756
O  O47  1  0.87880000  0.12120000  0.90230000  1.0 -0.2694226752
O  O48  1  0.12120000  0.87880000  0.09770000  1.0 -0.2694226752
O  O49  1  0.99180000  0.19580000  0.84110000  1.0 -0.1533592368
O  O50  1  0.19580000  0.99180000  0.15890000  1.0 -0.1533592368
O  O51  1  0.00820000  0.80420000  0.15890000  1.0 -0.1533592368
O  O52  1  0.80420000  0.00820000  0.84110000  1.0 -0.1533592368
O  O53  1  0.02840000  0.97160000  0.96660000  1.0 -0.3776396463
O  O54  1  0.97160000  0.02840000  0.03340000  1.0 -0.3776396463
