# DDEC6 charges by PACMAN v1.1 (https://github.com/mtap-research/PACMAN-charge/)
data_JINZOZ_ASR_pacman
_symmetry_space_group_name_H-M   'P 1'
_cell_length_a   12.92020000
_cell_length_b   12.92020000
_cell_length_c   16.99300000
_cell_angle_alpha   77.79690000
_cell_angle_beta   102.20300000
_cell_angle_gamma   75.73640000
_symmetry_Int_Tables_number   1
_chemical_formula_structural   Ce4H31C37(N2O9)3
_chemical_formula_sum   'Ce8 H62 C74 N12 O54'
_cell_volume   2581.08435920
_cell_formula_units_Z   2
loop_
 _symmetry_equiv_pos_site_id
 _symmetry_equiv_pos_as_xyz
  1  'x, y, z'
loop_
 _atom_site_type_symbol
 _atom_site_label
 _atom_site_symmetry_multiplicity
 _atom_site_fract_x
 _atom_site_fract_y
 _atom_site_fract_z
 _atom_site_occupancy
 _atom_site_charge
Ce  Ce1  1  0.04191000  0.62305000  0.41377000  1.0 1.8807660796
Ce  Ce2  1  0.62305000  0.04191000  0.58623000  1.0 1.8807660796
Ce  Ce3  1  0.95809000  0.37695000  0.58623000  1.0 1.8807660796
Ce  Ce4  1  0.37695000  0.95809000  0.41377000  1.0 1.8807660796
Ce  Ce5  1  0.11546000  0.88454000  0.14555000  1.0 0.3085686125
Ce  Ce6  1  0.88454000  0.11546000  0.85445000  1.0 0.3020917632
Ce  Ce7  1  0.16517000  0.83483000  0.25371000  1.0 0.3597581544
Ce  Ce8  1  0.83483000  0.16517000  0.74629000  1.0 0.3726170816
H  H1  1  0.40343000  0.10963000  0.15607000  1.0 0.2713695177
H  H2  1  0.10963000  0.40343000  0.84393000  1.0 0.2713695177
H  H3  1  0.59657000  0.89037000  0.84393000  1.0 0.2713695177
H  H4  1  0.89037000  0.59657000  0.15607000  1.0 0.2713695177
H  H5  1  0.19059000  0.73971000  0.04667000  1.0 0.1983135052
H  H6  1  0.73971000  0.19059000  0.95333000  1.0 0.1983135052
H  H7  1  0.80941000  0.26029000  0.95333000  1.0 0.1983135052
H  H8  1  0.26029000  0.80941000  0.04667000  1.0 0.1983135052
H  H9  1  0.84735000  0.89733000  0.39808000  1.0 0.1423771538
H  H10  1  0.89733000  0.84735000  0.60192000  1.0 0.1423771538
H  H11  1  0.15265000  0.10267000  0.60192000  1.0 0.1423771538
H  H12  1  0.10267000  0.15265000  0.39808000  1.0 0.1423771538
H  H13  1  0.52786000  0.05884000  0.27511000  1.0 0.1186159112
H  H14  1  0.05884000  0.52786000  0.72489000  1.0 0.1186159112
H  H15  1  0.47214000  0.94116000  0.72489000  1.0 0.1186159112
H  H16  1  0.94116000  0.47214000  0.27511000  1.0 0.1186159112
H  H17  1  0.75102000  0.99302000  0.14657000  1.0 0.1305332862
H  H18  1  0.99302000  0.75102000  0.85343000  1.0 0.1305332862
H  H19  1  0.24898000  0.00698000  0.85343000  1.0 0.1305332862
H  H20  1  0.00698000  0.24898000  0.14657000  1.0 0.1305332862
H  H21  1  0.37491000  0.25709000  0.67149000  1.0 0.1305332862
H  H22  1  0.25709000  0.37491000  0.32851000  1.0 0.1305332862
H  H23  1  0.62509000  0.74291000  0.32851000  1.0 0.1305332862
H  H24  1  0.74291000  0.62509000  0.67149000  1.0 0.1305332862
H  H25  1  0.26111000  0.25057000  0.87354000  1.0 0.1098847882
H  H26  1  0.25057000  0.26111000  0.12646000  1.0 0.1098847882
H  H27  1  0.73889000  0.74943000  0.12646000  1.0 0.1098847882
H  H28  1  0.74943000  0.73889000  0.87354000  1.0 0.1098847882
H  H29  1  0.58668000  0.13470000  0.90208000  1.0 0.0890076764
H  H30  1  0.13470000  0.58668000  0.09792000  1.0 0.0890076764
H  H31  1  0.41332000  0.86530000  0.09792000  1.0 0.0890076764
H  H32  1  0.86530000  0.41332000  0.90208000  1.0 0.0890076764
H  H33  1  0.27457000  0.72543000  0.40112000  1.0 0.1305332862
H  H34  1  0.72543000  0.27457000  0.59888000  1.0 0.1305332862
H  H35  1  0.92107000  0.82321000  0.08008000  1.0 0.220933155
H  H36  1  0.82321000  0.92107000  0.91992000  1.0 0.220933155
H  H37  1  0.07893000  0.17679000  0.91992000  1.0 0.220933155
H  H38  1  0.17679000  0.07893000  0.08008000  1.0 0.220933155
H  H39  1  0.00597000  0.74251000  0.06894000  1.0 0.1983135052
H  H40  1  0.74251000  0.00597000  0.93106000  1.0 0.1983135052
H  H41  1  0.99403000  0.25749000  0.93106000  1.0 0.1983135052
H  H42  1  0.25749000  0.99403000  0.06894000  1.0 0.1983135052
H  H43  1  0.18469000  0.86749000  0.08556000  1.0 0.1678191282
H  H44  1  0.86749000  0.18469000  0.91444000  1.0 0.1678191282
H  H45  1  0.81531000  0.13251000  0.91444000  1.0 0.1678191282
H  H46  1  0.13251000  0.81531000  0.08556000  1.0 0.1678191282
H  H47  1  0.08219000  0.94261000  0.07658000  1.0 0.1098847882
H  H48  1  0.94261000  0.08219000  0.92342000  1.0 0.1098847882
H  H49  1  0.91781000  0.05739000  0.92342000  1.0 0.1098847882
H  H50  1  0.05739000  0.91781000  0.07658000  1.0 0.1098847882
H  H51  1  0.71928000  0.05025000  0.84072000  1.0 0.2578269624
H  H52  1  0.05026000  0.71927000  0.15928000  1.0 0.2578269624
H  H53  1  0.28073000  0.94974000  0.15928000  1.0 0.2578269624
H  H54  1  0.94975000  0.28073000  0.84072000  1.0 0.2578269624
H  H55  1  0.79838000  0.96468000  0.82879000  1.0 0.1983135052
H  H56  1  0.96468000  0.79838000  0.17121000  1.0 0.1983135052
H  H57  1  0.20162000  0.03532000  0.17121000  1.0 0.1983135052
H  H58  1  0.03532000  0.20162000  0.82879000  1.0 0.1983135052
H  H59  1  0.00106000  0.06700000  0.00211000  1.0 0.1305332862
H  H60  1  0.06700000  0.00106000  0.99789000  1.0 0.1305332862
H  H61  1  0.99894000  0.93300000  0.99789000  1.0 0.1305332862
H  H62  1  0.93300000  0.99894000  0.00211000  1.0 0.1305332862
C  C1  1  0.93160000  0.88300000  0.26880000  1.0 0.4905711793
C  C2  1  0.88300000  0.93160000  0.73120000  1.0 0.4905711793
C  C3  1  0.06840000  0.11700000  0.73120000  1.0 0.4905711793
C  C4  1  0.11700000  0.06840000  0.26880000  1.0 0.4905711793
C  C5  1  0.65730000  0.98710000  0.42940000  1.0 0.6028551914
C  C6  1  0.98710000  0.65730000  0.57060000  1.0 0.6028551914
C  C7  1  0.34270000  0.01290000  0.57060000  1.0 0.6028551914
C  C8  1  0.01290000  0.34270000  0.42940000  1.0 0.6028551914
C  C9  1  0.81580000  0.93560000  0.27110000  1.0 -0.0272958531
C  C10  1  0.93560000  0.81580000  0.72890000  1.0 -0.0272958531
C  C11  1  0.18420000  0.06440000  0.72890000  1.0 -0.0272958531
C  C12  1  0.06440000  0.18420000  0.27110000  1.0 -0.0272958531
C  C13  1  0.79180000  0.93200000  0.34790000  1.0 -0.0830186597
C  C14  1  0.93200000  0.79180000  0.65210000  1.0 -0.0830186597
C  C15  1  0.20820000  0.06800000  0.65210000  1.0 -0.0830186597
C  C16  1  0.06800000  0.20820000  0.34790000  1.0 -0.0830186597
C  C17  1  0.68350000  0.98110000  0.34770000  1.0 -0.0131416192
C  C18  1  0.98110000  0.68350000  0.65230000  1.0 -0.0131416192
C  C19  1  0.31650000  0.01890000  0.65230000  1.0 -0.0131416192
C  C20  1  0.01890000  0.31650000  0.34770000  1.0 -0.0131416192
C  C21  1  0.60070000  0.02930000  0.27410000  1.0 -0.1343728594
C  C22  1  0.02930000  0.60070000  0.72590000  1.0 -0.1343728594
C  C23  1  0.39930000  0.97070000  0.72590000  1.0 -0.1343728594
C  C24  1  0.97070000  0.39930000  0.27410000  1.0 -0.1343728594
C  C25  1  0.62520000  0.03420000  0.19800000  1.0 0.01296869
C  C26  1  0.03420000  0.62520000  0.80200000  1.0 0.01296869
C  C27  1  0.37480000  0.96580000  0.80200000  1.0 0.01296869
C  C28  1  0.96580000  0.37480000  0.19800000  1.0 0.01296869
C  C29  1  0.73360000  0.98820000  0.19740000  1.0 -0.1421953581
C  C30  1  0.98820000  0.73360000  0.80260000  1.0 -0.1421953581
C  C31  1  0.26640000  0.01180000  0.80260000  1.0 -0.1421953581
C  C32  1  0.01180000  0.26640000  0.19740000  1.0 -0.1421953581
C  C33  1  0.53830000  0.08590000  0.11890000  1.0 0.2578269624
C  C34  1  0.08590000  0.53830000  0.88110000  1.0 0.2578269624
C  C35  1  0.46170000  0.91410000  0.88110000  1.0 0.2578269624
C  C36  1  0.91410000  0.46170000  0.11890000  1.0 0.2578269624
C  C37  1  0.59010000  0.16410000  0.74350000  1.0 0.501942695
C  C38  1  0.16410000  0.59010000  0.25650000  1.0 0.501942695
C  C39  1  0.40990000  0.83590000  0.25650000  1.0 0.501942695
C  C40  1  0.83590000  0.40990000  0.74350000  1.0 0.501942695
C  C41  1  0.18390000  0.31390000  0.70780000  1.0 0.5568917849
C  C42  1  0.31390000  0.18390000  0.29220000  1.0 0.5568917849
C  C43  1  0.81610000  0.68610000  0.29220000  1.0 0.5568917849
C  C44  1  0.68610000  0.81610000  0.70780000  1.0 0.5568917849
C  C45  1  0.49610000  0.19330000  0.78030000  1.0 -0.0925331024
C  C46  1  0.19330000  0.49610000  0.21970000  1.0 -0.0925331024
C  C47  1  0.50390000  0.80670000  0.21970000  1.0 -0.0925331024
C  C48  1  0.80670000  0.50390000  0.78030000  1.0 -0.0925331024
C  C49  1  0.38830000  0.24050000  0.72940000  1.0 -0.0925331024
C  C50  1  0.24050000  0.38830000  0.27060000  1.0 -0.0925331024
C  C51  1  0.61170000  0.75950000  0.27060000  1.0 -0.0925331024
C  C52  1  0.75950000  0.61170000  0.72940000  1.0 -0.0925331024
C  C53  1  0.29990000  0.26350000  0.76380000  1.0 -0.0272958531
C  C54  1  0.26350000  0.29990000  0.23620000  1.0 -0.0272958531
C  C55  1  0.70010000  0.73650000  0.23620000  1.0 -0.0272958531
C  C56  1  0.73650000  0.70010000  0.76380000  1.0 -0.0272958531
C  C57  1  0.32020000  0.23580000  0.85010000  1.0 -0.1493206463
C  C58  1  0.23580000  0.32020000  0.14990000  1.0 -0.1493206463
C  C59  1  0.67980000  0.76420000  0.14990000  1.0 -0.1493206463
C  C60  1  0.76420000  0.67980000  0.85010000  1.0 -0.1493206463
C  C61  1  0.42730000  0.18650000  0.90180000  1.0 0.0494155109
C  C62  1  0.18650000  0.42730000  0.09820000  1.0 0.0494155109
C  C63  1  0.57270000  0.81350000  0.09820000  1.0 0.0494155109
C  C64  1  0.81350000  0.57270000  0.90180000  1.0 0.0494155109
C  C65  1  0.51450000  0.16650000  0.86720000  1.0 -0.1843264393
C  C66  1  0.16650000  0.51450000  0.13280000  1.0 -0.1843264393
C  C67  1  0.48550000  0.83350000  0.13280000  1.0 -0.1843264393
C  C68  1  0.83350000  0.48550000  0.86720000  1.0 -0.1843264393
C  C69  1  0.45040000  0.15140000  0.99280000  1.0 0.2578269624
C  C70  1  0.15140000  0.45040000  0.00720000  1.0 0.2578269624
C  C71  1  0.54960000  0.84860000  0.00720000  1.0 0.2578269624
C  C72  1  0.84860000  0.54960000  0.99280000  1.0 0.2578269624
C  C73  1  0.25830000  0.74170000  0.44870000  1.0 0.4702717372
C  C74  1  0.74170000  0.25830000  0.55130000  1.0 0.4702717372
N  N1  1  0.43120000  0.11580000  0.11420000  1.0 -0.1583501726
N  N2  1  0.11580000  0.43120000  0.88580000  1.0 -0.1583501726
N  N3  1  0.56880000  0.88420000  0.88580000  1.0 -0.1583501726
N  N4  1  0.88420000  0.56880000  0.11420000  1.0 -0.1583501726
N  N5  1  0.37260000  0.15780000  0.03240000  1.0 -0.2800812564
N  N6  1  0.15780000  0.37260000  0.96760000  1.0 -0.2800812564
N  N7  1  0.62740000  0.84220000  0.96760000  1.0 -0.2800812564
N  N8  1  0.84220000  0.62740000  0.03240000  1.0 -0.2800812564
N  N9  1  0.55390000  0.10750000  0.04370000  1.0 -0.4292716003
N  N10  1  0.10750000  0.55390000  0.95630000  1.0 -0.4292716003
N  N11  1  0.44610000  0.89250000  0.95630000  1.0 -0.4292716003
N  N12  1  0.89250000  0.44610000  0.04370000  1.0 -0.4292716003
O  O1  1  0.00020000  0.81660000  0.33470000  1.0 -0.6086102716
O  O2  1  0.81660000  0.00020000  0.66530000  1.0 -0.6086102716
O  O3  1  0.99980000  0.18340000  0.66530000  1.0 -0.6086102716
O  O4  1  0.18340000  0.99980000  0.33470000  1.0 -0.6086102716
O  O5  1  0.95510000  0.90530000  0.20170000  1.0 -0.4742640398
O  O6  1  0.90530000  0.95510000  0.79830000  1.0 -0.4742640398
O  O7  1  0.04490000  0.09470000  0.79830000  1.0 -0.4742640398
O  O8  1  0.09470000  0.04490000  0.20170000  1.0 -0.4742640398
O  O9  1  0.73370000  0.98050000  0.48920000  1.0 -0.5401211522
O  O10  1  0.98050000  0.73370000  0.51080000  1.0 -0.5401211522
O  O11  1  0.26630000  0.01950000  0.51080000  1.0 -0.5401211522
O  O12  1  0.01950000  0.26630000  0.48920000  1.0 -0.5401211522
O  O13  1  0.55820000  0.00320000  0.43390000  1.0 -0.6980794809
O  O14  1  0.00320000  0.55820000  0.56610000  1.0 -0.6980794809
O  O15  1  0.44180000  0.99680000  0.56610000  1.0 -0.6980794809
O  O16  1  0.99680000  0.44180000  0.43390000  1.0 -0.6980794809
O  O17  1  0.56870000  0.15590000  0.67050000  1.0 -0.5658667228
O  O18  1  0.15590000  0.56870000  0.32950000  1.0 -0.5658667228
O  O19  1  0.43130000  0.84410000  0.32950000  1.0 -0.5658667228
O  O20  1  0.84410000  0.43130000  0.67050000  1.0 -0.5643664143
O  O21  1  0.68950000  0.16950000  0.78520000  1.0 -0.2343758486
O  O22  1  0.16950000  0.68950000  0.21480000  1.0 -0.235500916
O  O23  1  0.31050000  0.83050000  0.21480000  1.0 -0.235500916
O  O24  1  0.83050000  0.31050000  0.78520000  1.0 -0.2343758486
O  O25  1  0.10450000  0.33810000  0.73820000  1.0 -0.6410702012
O  O26  1  0.33810000  0.10450000  0.26180000  1.0 -0.6410702012
O  O27  1  0.89550000  0.66190000  0.26180000  1.0 -0.6410702012
O  O28  1  0.66190000  0.89550000  0.73820000  1.0 -0.6410702012
O  O29  1  0.16820000  0.32720000  0.63000000  1.0 -0.5797262481
O  O30  1  0.32720000  0.16820000  0.37000000  1.0 -0.5797262481
O  O31  1  0.83180000  0.67280000  0.37000000  1.0 -0.5797262481
O  O32  1  0.67280000  0.83180000  0.63000000  1.0 -0.5797262481
O  O33  1  0.19690000  0.69330000  0.46790000  1.0 -0.4635699234
O  O34  1  0.69330000  0.19690000  0.53210000  1.0 -0.4635699234
O  O35  1  0.80310000  0.30670000  0.53210000  1.0 -0.4635699234
O  O36  1  0.30670000  0.80310000  0.46790000  1.0 -0.4635699234
O  O37  1  0.19460000  0.80540000  0.04170000  1.0 -0.409656802
O  O38  1  0.80540000  0.19460000  0.95830000  1.0 -0.409656802
O  O39  1  0.97950000  0.81170000  0.06360000  1.0 -0.409656802
O  O40  1  0.81170000  0.97950000  0.93640000  1.0 -0.409656802
O  O41  1  0.02050000  0.18830000  0.93640000  1.0 -0.409656802
O  O42  1  0.18830000  0.02050000  0.06360000  1.0 -0.409656802
O  O43  1  0.68090000  0.11530000  0.79160000  1.0 -0.0723793759
O  O44  1  0.11530000  0.68090000  0.20840000  1.0 -0.0723793759
O  O45  1  0.31910000  0.88470000  0.20840000  1.0 -0.0723793759
O  O46  1  0.88470000  0.31910000  0.79160000  1.0 -0.0723793759
O  O47  1  0.12400000  0.87600000  0.09930000  1.0 -0.2555619619
O  O48  1  0.87600000  0.12400000  0.90070000  1.0 -0.2555619619
O  O49  1  0.78730000  0.02530000  0.84270000  1.0 -0.1009614944
O  O50  1  0.02530000  0.78730000  0.15730000  1.0 -0.1009614944
O  O51  1  0.21270000  0.97470000  0.15730000  1.0 -0.1009614944
O  O52  1  0.97470000  0.21270000  0.84270000  1.0 -0.1009614944
O  O53  1  0.96990000  0.03010000  0.03180000  1.0 -0.372542008
O  O54  1  0.03010000  0.96990000  0.96820000  1.0 -0.372542008
