# DDEC6 charges by PACMAN v1.1 (https://github.com/mtap-research/PACMAN-charge/)
data_JIPBAP_ASR_pacman
_symmetry_space_group_name_H-M   'P 1'
_cell_length_a   12.83880000
_cell_length_b   12.83880000
_cell_length_c   16.93400000
_cell_angle_alpha   77.71620000
_cell_angle_beta   102.28400000
_cell_angle_gamma   75.82040000
_symmetry_Int_Tables_number   1
_chemical_formula_structural   Nd4H31C37(N2O9)3
_chemical_formula_sum   'Nd8 H62 C74 N12 O54'
_cell_volume   2538.84693416
_cell_formula_units_Z   2
loop_
 _symmetry_equiv_pos_site_id
 _symmetry_equiv_pos_as_xyz
  1  'x, y, z'
loop_
 _atom_site_type_symbol
 _atom_site_label
 _atom_site_symmetry_multiplicity
 _atom_site_fract_x
 _atom_site_fract_y
 _atom_site_fract_z
 _atom_site_occupancy
 _atom_site_charge
Nd  Nd1  1  0.04163000  0.62349000  0.41462000  1.0 2.0560088385
Nd  Nd2  1  0.62349000  0.04163000  0.58538000  1.0 2.0560088385
Nd  Nd3  1  0.95837000  0.37651000  0.58538000  1.0 2.0560088385
Nd  Nd4  1  0.37651000  0.95837000  0.41462000  1.0 2.0560088385
Nd  Nd5  1  0.11675000  0.88325000  0.14977000  1.0 0.2856234838
Nd  Nd6  1  0.88325000  0.11675000  0.85023000  1.0 0.2807697583
Nd  Nd7  1  0.16115000  0.83885000  0.25165000  1.0 0.7357390155
Nd  Nd8  1  0.83885000  0.16115000  0.74835000  1.0 0.7591582764
H  H1  1  0.40052000  0.11264000  0.15337000  1.0 0.2586113591
H  H2  1  0.11264000  0.40052000  0.84663000  1.0 0.2586113591
H  H3  1  0.59948000  0.88736000  0.84663000  1.0 0.2586113591
H  H4  1  0.88736000  0.59948000  0.15337000  1.0 0.2586113591
H  H5  1  0.91757000  0.82565000  0.08789000  1.0 0.1934443642
H  H6  1  0.82565000  0.91757000  0.91211000  1.0 0.1934443642
H  H7  1  0.08243000  0.17435000  0.91211000  1.0 0.1934443642
H  H8  1  0.17435000  0.08243000  0.08789000  1.0 0.1934443642
H  H9  1  0.00247000  0.74495000  0.07675000  1.0 0.1616815892
H  H10  1  0.74495000  0.00247000  0.92325000  1.0 0.1616815892
H  H11  1  0.99753000  0.25505000  0.92325000  1.0 0.1616815892
H  H12  1  0.25505000  0.99753000  0.07675000  1.0 0.1616815892
H  H13  1  0.18584000  0.74446000  0.04763000  1.0 0.2050021071
H  H14  1  0.74446000  0.18584000  0.95237000  1.0 0.2002954051
H  H15  1  0.81416000  0.25554000  0.95237000  1.0 0.2002954051
H  H16  1  0.25554000  0.81416000  0.04763000  1.0 0.2002954051
H  H17  1  0.84569000  0.89683000  0.39905000  1.0 0.1454612542
H  H18  1  0.89683000  0.84569000  0.60095000  1.0 0.1454612542
H  H19  1  0.15431000  0.10317000  0.60095000  1.0 0.1454612542
H  H20  1  0.10317000  0.15431000  0.39905000  1.0 0.1454612542
H  H21  1  0.52577000  0.06053000  0.27419000  1.0 0.1178006608
H  H22  1  0.06053000  0.52577000  0.72581000  1.0 0.1178006608
H  H23  1  0.47423000  0.93947000  0.72581000  1.0 0.1178006608
H  H24  1  0.93947000  0.47423000  0.27419000  1.0 0.1178006608
H  H25  1  0.75100000  0.99184000  0.14817000  1.0 0.1313115363
H  H26  1  0.99184000  0.75100000  0.85183000  1.0 0.1313115363
H  H27  1  0.24900000  0.00816000  0.85183000  1.0 0.1313115363
H  H28  1  0.00816000  0.24900000  0.14817000  1.0 0.1313115363
H  H29  1  0.37445000  0.25747000  0.66767000  1.0 0.1313115363
H  H30  1  0.25747000  0.37445000  0.33233000  1.0 0.1313115363
H  H31  1  0.62555000  0.74253000  0.33233000  1.0 0.1313115363
H  H32  1  0.74253000  0.62555000  0.66767000  1.0 0.1313115363
H  H33  1  0.25996000  0.25174000  0.86923000  1.0 0.1110501219
H  H34  1  0.25174000  0.25996000  0.13077000  1.0 0.1110501219
H  H35  1  0.74004000  0.74826000  0.13077000  1.0 0.1110501219
H  H36  1  0.74826000  0.74004000  0.86923000  1.0 0.1110501219
H  H37  1  0.58786000  0.13488000  0.89896000  1.0 0.0983805903
H  H38  1  0.13488000  0.58786000  0.10104000  1.0 0.0983805903
H  H39  1  0.41214000  0.86512000  0.10104000  1.0 0.0983805903
H  H40  1  0.86512000  0.41214000  0.89896000  1.0 0.0983805903
H  H41  1  0.25776000  0.74224000  0.38908000  1.0 0.0773905296
H  H42  1  0.74224000  0.25776000  0.61092000  1.0 0.0773905296
H  H43  1  0.17621000  0.87597000  0.08304000  1.0 0.1697697718
H  H44  1  0.87597000  0.17621000  0.91696000  1.0 0.1697697718
H  H45  1  0.82379000  0.12403000  0.91696000  1.0 0.1697697718
H  H46  1  0.12403000  0.82379000  0.08304000  1.0 0.1697697718
H  H47  1  0.07371000  0.95109000  0.07406000  1.0 0.0983805903
H  H48  1  0.95109000  0.07371000  0.92594000  1.0 0.0983805903
H  H49  1  0.92629000  0.04891000  0.92594000  1.0 0.0983805903
H  H50  1  0.04891000  0.92629000  0.07406000  1.0 0.0983805903
H  H51  1  0.03559000  0.73041000  0.16088000  1.0 0.2299012546
H  H52  1  0.73041000  0.03559000  0.83912000  1.0 0.2299012546
H  H53  1  0.96441000  0.26959000  0.83912000  1.0 0.2299012546
H  H54  1  0.26959000  0.96441000  0.16088000  1.0 0.2299012546
H  H55  1  0.95001000  0.80951000  0.17281000  1.0 0.2002954051
H  H56  1  0.80951000  0.95001000  0.82719000  1.0 0.2002954051
H  H57  1  0.04999000  0.19049000  0.82719000  1.0 0.2002954051
H  H58  1  0.19049000  0.04999000  0.17281000  1.0 0.2002954051
H  H59  1  0.00394000  0.06412000  0.00258000  1.0 0.1110501219
H  H60  1  0.06412000  0.00394000  0.99742000  1.0 0.1110501219
H  H61  1  0.99606000  0.93588000  0.99742000  1.0 0.1110501219
H  H62  1  0.93588000  0.99606000  0.00258000  1.0 0.1110501219
C  C1  1  0.93280000  0.88060000  0.27040000  1.0 0.378355804
C  C2  1  0.88060000  0.93280000  0.72960000  1.0 0.37363001
C  C3  1  0.06720000  0.11940000  0.72960000  1.0 0.378355804
C  C4  1  0.11940000  0.06720000  0.27040000  1.0 0.378355804
C  C5  1  0.65530000  0.98970000  0.42760000  1.0 0.6096239318
C  C6  1  0.98970000  0.65530000  0.57240000  1.0 0.6096239318
C  C7  1  0.34470000  0.01030000  0.57240000  1.0 0.6096239318
C  C8  1  0.01030000  0.34470000  0.42760000  1.0 0.6096239318
C  C9  1  0.81550000  0.93570000  0.27220000  1.0 -0.0124614935
C  C10  1  0.93570000  0.81550000  0.72780000  1.0 -0.0124614935
C  C11  1  0.18450000  0.06430000  0.72780000  1.0 -0.0124614935
C  C12  1  0.06430000  0.18450000  0.27220000  1.0 -0.0124614935
C  C13  1  0.79030000  0.93190000  0.34830000  1.0 -0.0853861045
C  C14  1  0.93190000  0.79030000  0.65170000  1.0 -0.0853861045
C  C15  1  0.20970000  0.06810000  0.65170000  1.0 -0.0853861045
C  C16  1  0.06810000  0.20970000  0.34830000  1.0 -0.0853861045
C  C17  1  0.68100000  0.98120000  0.34740000  1.0 -0.0234306618
C  C18  1  0.98120000  0.68100000  0.65260000  1.0 -0.0234306618
C  C19  1  0.31900000  0.01880000  0.65260000  1.0 -0.0234306618
C  C20  1  0.01880000  0.31900000  0.34740000  1.0 -0.0234306618
C  C21  1  0.59910000  0.02990000  0.27380000  1.0 -0.1305567289
C  C22  1  0.02990000  0.59910000  0.72620000  1.0 -0.1305567289
C  C23  1  0.40090000  0.97010000  0.72620000  1.0 -0.1305567289
C  C24  1  0.97010000  0.40090000  0.27380000  1.0 -0.1305567289
C  C25  1  0.62500000  0.03420000  0.19710000  1.0 0.0119927986
C  C26  1  0.03420000  0.62500000  0.80290000  1.0 0.0119927986
C  C27  1  0.37500000  0.96580000  0.80290000  1.0 0.0119927986
C  C28  1  0.96580000  0.37500000  0.19710000  1.0 0.0119927986
C  C29  1  0.73300000  0.98780000  0.19890000  1.0 -0.1305567289
C  C30  1  0.98780000  0.73300000  0.80110000  1.0 -0.1305567289
C  C31  1  0.26700000  0.01220000  0.80110000  1.0 -0.1305567289
C  C32  1  0.01220000  0.26700000  0.19890000  1.0 -0.1305567289
C  C33  1  0.53810000  0.08590000  0.11800000  1.0 0.2586113591
C  C34  1  0.08590000  0.53810000  0.88200000  1.0 0.2586113591
C  C35  1  0.46190000  0.91410000  0.88200000  1.0 0.2586113591
C  C36  1  0.91410000  0.46190000  0.11800000  1.0 0.2586113591
C  C37  1  0.59100000  0.16460000  0.74030000  1.0 0.5233368207
C  C38  1  0.16460000  0.59100000  0.25970000  1.0 0.5233368207
C  C39  1  0.40900000  0.83540000  0.25970000  1.0 0.5233368207
C  C40  1  0.83540000  0.40900000  0.74030000  1.0 0.5233368207
C  C41  1  0.18180000  0.31480000  0.70450000  1.0 0.5473566283
C  C42  1  0.31480000  0.18180000  0.29550000  1.0 0.5473566283
C  C43  1  0.81820000  0.68520000  0.29550000  1.0 0.5473566283
C  C44  1  0.68520000  0.81820000  0.70450000  1.0 0.5473566283
C  C45  1  0.49650000  0.19370000  0.77850000  1.0 -0.0597703546
C  C46  1  0.19370000  0.49650000  0.22150000  1.0 -0.0597703546
C  C47  1  0.50350000  0.80630000  0.22150000  1.0 -0.0597703546
C  C48  1  0.80630000  0.50350000  0.77850000  1.0 -0.0597703546
C  C49  1  0.38810000  0.24110000  0.72580000  1.0 -0.1059839759
C  C50  1  0.24110000  0.38810000  0.27420000  1.0 -0.1059839759
C  C51  1  0.61190000  0.75890000  0.27420000  1.0 -0.1059839759
C  C52  1  0.75890000  0.61190000  0.72580000  1.0 -0.1059839759
C  C53  1  0.30100000  0.26360000  0.76180000  1.0 -0.0124614935
C  C54  1  0.26360000  0.30100000  0.23820000  1.0 -0.0124614935
C  C55  1  0.69900000  0.73640000  0.23820000  1.0 -0.0124614935
C  C56  1  0.73640000  0.69900000  0.76180000  1.0 -0.0124614935
C  C57  1  0.31980000  0.23680000  0.84630000  1.0 -0.1514671217
C  C58  1  0.23680000  0.31980000  0.15370000  1.0 -0.1514671217
C  C59  1  0.68020000  0.76320000  0.15370000  1.0 -0.1514671217
C  C60  1  0.76320000  0.68020000  0.84630000  1.0 -0.1514671217
C  C61  1  0.42880000  0.18660000  0.89950000  1.0 0.0492967185
C  C62  1  0.18660000  0.42880000  0.10050000  1.0 0.0492967185
C  C63  1  0.57120000  0.81340000  0.10050000  1.0 0.0492967185
C  C64  1  0.81340000  0.57120000  0.89950000  1.0 0.0492967185
C  C65  1  0.51500000  0.16700000  0.86430000  1.0 -0.1701101545
C  C66  1  0.16700000  0.51500000  0.13570000  1.0 -0.1701101545
C  C67  1  0.48500000  0.83300000  0.13570000  1.0 -0.1701101545
C  C68  1  0.83300000  0.48500000  0.86430000  1.0 -0.1701101545
C  C69  1  0.44970000  0.15230000  0.99010000  1.0 0.2536756326
C  C70  1  0.15230000  0.44970000  0.00990000  1.0 0.2536756326
C  C71  1  0.55030000  0.84770000  0.00990000  1.0 0.2536756326
C  C72  1  0.84770000  0.55030000  0.99010000  1.0 0.2536756326
C  C73  1  0.25340000  0.74660000  0.44250000  1.0 0.5103641082
C  C74  1  0.74660000  0.25340000  0.55750000  1.0 0.5103641082
N  N1  1  0.42940000  0.11800000  0.11180000  1.0 -0.1514671217
N  N2  1  0.11800000  0.42940000  0.88820000  1.0 -0.1514671217
N  N3  1  0.57060000  0.88200000  0.88820000  1.0 -0.1514671217
N  N4  1  0.88200000  0.57060000  0.11180000  1.0 -0.1514671217
N  N5  1  0.37250000  0.15990000  0.03070000  1.0 -0.2671841379
N  N6  1  0.15990000  0.37250000  0.96930000  1.0 -0.2671841379
N  N7  1  0.62750000  0.84010000  0.96930000  1.0 -0.2671841379
N  N8  1  0.84010000  0.62750000  0.03070000  1.0 -0.2671841379
N  N9  1  0.55350000  0.10610000  0.04350000  1.0 -0.420324422
N  N10  1  0.10610000  0.55350000  0.95650000  1.0 -0.420324422
N  N11  1  0.44650000  0.89390000  0.95650000  1.0 -0.420324422
N  N12  1  0.89390000  0.44650000  0.04350000  1.0 -0.420324422
O  O1  1  0.00140000  0.81640000  0.33620000  1.0 -0.6192570399
O  O2  1  0.81640000  0.00140000  0.66380000  1.0 -0.6192570399
O  O3  1  0.99860000  0.18360000  0.66380000  1.0 -0.6192570399
O  O4  1  0.18360000  0.99860000  0.33620000  1.0 -0.6192570399
O  O5  1  0.95550000  0.90590000  0.20300000  1.0 -0.4286073591
O  O6  1  0.90590000  0.95550000  0.79700000  1.0 -0.4286073591
O  O7  1  0.04450000  0.09410000  0.79700000  1.0 -0.4286073591
O  O8  1  0.09410000  0.04450000  0.20300000  1.0 -0.4286073591
O  O9  1  0.73200000  0.98320000  0.48910000  1.0 -0.5705575715
O  O10  1  0.98320000  0.73200000  0.51090000  1.0 -0.5705575715
O  O11  1  0.26800000  0.01680000  0.51090000  1.0 -0.5705575715
O  O12  1  0.01680000  0.26800000  0.48910000  1.0 -0.5705575715
O  O13  1  0.55650000  0.00310000  0.43360000  1.0 -0.7401397448
O  O14  1  0.00310000  0.55650000  0.56640000  1.0 -0.7401397448
O  O15  1  0.44350000  0.99690000  0.56640000  1.0 -0.7401397448
O  O16  1  0.99690000  0.44350000  0.43360000  1.0 -0.7401397448
O  O17  1  0.56850000  0.15450000  0.66770000  1.0 -0.6192570399
O  O18  1  0.15450000  0.56850000  0.33230000  1.0 -0.6192570399
O  O19  1  0.43150000  0.84550000  0.33230000  1.0 -0.6192570399
O  O20  1  0.84550000  0.43150000  0.66770000  1.0 -0.6192570399
O  O21  1  0.68750000  0.16670000  0.78180000  1.0 -0.279766589
O  O22  1  0.16670000  0.68750000  0.21820000  1.0 -0.279766589
O  O23  1  0.31250000  0.83330000  0.21820000  1.0 -0.279766589
O  O24  1  0.83330000  0.31250000  0.78180000  1.0 -0.279766589
O  O25  1  0.10390000  0.33750000  0.73550000  1.0 -0.6292492222
O  O26  1  0.33750000  0.10390000  0.26450000  1.0 -0.6292492222
O  O27  1  0.89610000  0.66250000  0.26450000  1.0 -0.6292492222
O  O28  1  0.66250000  0.89610000  0.73550000  1.0 -0.6292492222
O  O29  1  0.16700000  0.32580000  0.62690000  1.0 -0.6026293705
O  O30  1  0.32580000  0.16700000  0.37310000  1.0 -0.6026293705
O  O31  1  0.83300000  0.67420000  0.37310000  1.0 -0.6026293705
O  O32  1  0.67420000  0.83300000  0.62690000  1.0 -0.6026293705
O  O33  1  0.19440000  0.69180000  0.46830000  1.0 -0.5465828251
O  O34  1  0.69180000  0.19440000  0.53170000  1.0 -0.5465828251
O  O35  1  0.80560000  0.30820000  0.53170000  1.0 -0.5465828251
O  O36  1  0.30820000  0.80560000  0.46830000  1.0 -0.5465828251
O  O37  1  0.97610000  0.81410000  0.07140000  1.0 -0.3889309685
O  O38  1  0.81410000  0.97610000  0.92860000  1.0 -0.3889309685
O  O39  1  0.02390000  0.18590000  0.92860000  1.0 -0.3889309685
O  O40  1  0.18590000  0.02390000  0.07140000  1.0 -0.3889309685
O  O41  1  0.18980000  0.81020000  0.04270000  1.0 -0.4067186187
O  O42  1  0.81020000  0.18980000  0.95730000  1.0 -0.4067186187
O  O43  1  0.68320000  0.11520000  0.79280000  1.0 -0.0807196941
O  O44  1  0.11520000  0.68320000  0.20720000  1.0 -0.0807196941
O  O45  1  0.31680000  0.88480000  0.20720000  1.0 -0.0807196941
O  O46  1  0.88480000  0.31680000  0.79280000  1.0 -0.0807196941
O  O47  1  0.11600000  0.88400000  0.09670000  1.0 -0.2607693593
O  O48  1  0.88400000  0.11600000  0.90330000  1.0 -0.2607693593
O  O49  1  0.01050000  0.79850000  0.15900000  1.0 -0.1305567289
O  O50  1  0.79850000  0.01050000  0.84100000  1.0 -0.1305567289
O  O51  1  0.98950000  0.20150000  0.84100000  1.0 -0.1305567289
O  O52  1  0.20150000  0.98950000  0.15900000  1.0 -0.1305567289
O  O53  1  0.97270000  0.02730000  0.03220000  1.0 -0.3300812613
O  O54  1  0.02730000  0.97270000  0.96780000  1.0 -0.3300812613
