# DDEC6 charges by PACMAN v1.1 (https://github.com/mtap-research/PACMAN-charge/)
data_JIQVAH_ASR_pacman
_symmetry_space_group_name_H-M   'P 1'
_cell_length_a   8.68000000
_cell_length_b   25.09030000
_cell_length_c   11.08630000
_cell_angle_alpha   90.00000000
_cell_angle_beta   101.55000000
_cell_angle_gamma   90.00000000
_symmetry_Int_Tables_number   1
_chemical_formula_structural   Yb2H6Ru3(C4N3)6
_chemical_formula_sum   'Yb4 H12 Ru6 C48 N36'
_cell_volume   2365.52549587
_cell_formula_units_Z   2
loop_
 _symmetry_equiv_pos_site_id
 _symmetry_equiv_pos_as_xyz
  1  'x, y, z'
loop_
 _atom_site_type_symbol
 _atom_site_label
 _atom_site_symmetry_multiplicity
 _atom_site_fract_x
 _atom_site_fract_y
 _atom_site_fract_z
 _atom_site_occupancy
 _atom_site_charge
Yb  Yb1  1  0.80809000  0.59485000  0.85878000  1.0 1.8048382344
Yb  Yb2  1  0.19191000  0.09485000  0.14122000  1.0 1.8066598318
Yb  Yb3  1  0.19191000  0.40515000  0.14122000  1.0 1.8066598318
Yb  Yb4  1  0.80809000  0.90515000  0.85878000  1.0 1.8066598318
H  H1  1  0.06920000  0.62390000  0.51430000  1.0 0.1316543462
H  H2  1  0.93080000  0.12390000  0.48570000  1.0 0.1316543462
H  H3  1  0.93080000  0.37610000  0.48570000  1.0 0.1316543462
H  H4  1  0.06920000  0.87610000  0.51430000  1.0 0.1316543462
H  H5  1  0.19420000  0.57800000  0.38180000  1.0 0.1369338872
H  H6  1  0.80580000  0.07800000  0.61820000  1.0 0.1369338872
H  H7  1  0.80580000  0.42200000  0.61820000  1.0 0.1369338872
H  H8  1  0.19420000  0.92200000  0.38180000  1.0 0.1369338872
H  H9  1  0.53810000  0.70420000  0.01910000  1.0 0.1316543462
H  H10  1  0.46190000  0.20420000  0.98090000  1.0 0.1316543462
H  H11  1  0.46190000  0.29580000  0.98090000  1.0 0.1316543462
H  H12  1  0.53810000  0.79580000  0.01910000  1.0 0.1316543462
Ru  Ru1  1  0.38786000  0.61099000  0.16443000  1.0 0.3814019802
Ru  Ru2  1  0.61214000  0.11099000  0.83557000  1.0 0.3727714661
Ru  Ru3  1  0.61214000  0.38901000  0.83557000  1.0 0.3727714661
Ru  Ru4  1  0.38786000  0.88901000  0.16443000  1.0 0.3814019802
Ru  Ru5  1  0.01155000  0.75000000  0.57290000  1.0 0.3814019802
Ru  Ru6  1  0.98845000  0.25000000  0.42710000  1.0 0.3814019802
C  C1  1  0.26390000  0.69390000  0.30430000  1.0 0.081548998
C  C2  1  0.73610000  0.19390000  0.69570000  1.0 0.081548998
C  C3  1  0.73610000  0.30610000  0.69570000  1.0 0.081548998
C  C4  1  0.26390000  0.80610000  0.30430000  1.0 0.081548998
C  C5  1  0.18950000  0.72160000  0.38490000  1.0 0.081548998
C  C6  1  0.81050000  0.22160000  0.61510000  1.0 0.081548998
C  C7  1  0.81050000  0.27840000  0.61510000  1.0 0.081548998
C  C8  1  0.18950000  0.77840000  0.38490000  1.0 0.081548998
C  C9  1  0.11890000  0.64320000  0.46140000  1.0 0.0509553517
C  C10  1  0.88110000  0.14320000  0.53860000  1.0 0.0509553517
C  C11  1  0.88110000  0.35680000  0.53860000  1.0 0.0509553517
C  C12  1  0.11890000  0.85680000  0.46140000  1.0 0.0509553517
C  C13  1  0.19420000  0.61500000  0.37960000  1.0 0.0180426006
C  C14  1  0.80580000  0.11500000  0.62040000  1.0 0.0180426006
C  C15  1  0.80580000  0.38500000  0.62040000  1.0 0.0180426006
C  C16  1  0.19420000  0.88500000  0.37960000  1.0 0.0180426006
C  C17  1  0.48630000  0.72210000  0.07260000  1.0 0.0509553517
C  C18  1  0.51370000  0.22210000  0.92740000  1.0 0.0437968912
C  C19  1  0.51370000  0.27790000  0.92740000  1.0 0.0437968912
C  C20  1  0.48630000  0.77790000  0.07260000  1.0 0.0509553517
C  C21  1  0.34320000  0.72230000  0.22240000  1.0 0.0919895301
C  C22  1  0.65680000  0.22230000  0.77760000  1.0 0.0919895301
C  C23  1  0.65680000  0.27770000  0.77760000  1.0 0.0919895301
C  C24  1  0.34320000  0.77770000  0.22240000  1.0 0.0919895301
C  C25  1  0.19230000  0.61320000  0.03260000  1.0 0.0509553517
C  C26  1  0.80770000  0.11320000  0.96740000  1.0 0.0509553517
C  C27  1  0.80770000  0.38680000  0.96740000  1.0 0.0509553517
C  C28  1  0.19230000  0.88680000  0.03260000  1.0 0.0509553517
C  C29  1  0.51330000  0.59640000  0.03860000  1.0 0.0919895301
C  C30  1  0.48670000  0.09640000  0.96140000  1.0 0.0919895301
C  C31  1  0.48670000  0.40360000  0.96140000  1.0 0.0919895301
C  C32  1  0.51330000  0.90360000  0.03860000  1.0 0.0919895301
C  C33  1  0.65780000  0.46580000  0.81390000  1.0 0.0966113264
C  C34  1  0.34220000  0.96580000  0.18610000  1.0 0.0966113264
C  C35  1  0.34220000  0.53420000  0.18610000  1.0 0.0966113264
C  C36  1  0.65780000  0.03420000  0.81390000  1.0 0.0966113264
C  C37  1  0.58950000  0.60020000  0.29060000  1.0 -0.0833007602
C  C38  1  0.41050000  0.10020000  0.70940000  1.0 -0.0833007602
C  C39  1  0.41050000  0.39980000  0.70940000  1.0 -0.0833007602
C  C40  1  0.58950000  0.89980000  0.29060000  1.0 -0.0833007602
C  C41  1  0.82010000  0.75000000  0.43810000  1.0 -0.0967549441
C  C42  1  0.17990000  0.25000000  0.56190000  1.0 -0.0967549441
C  C43  1  0.92620000  0.69330000  0.66690000  1.0 0.1067795324
C  C44  1  0.07380000  0.19330000  0.33310000  1.0 0.1067795324
C  C45  1  0.07380000  0.30670000  0.33310000  1.0 0.1067795324
C  C46  1  0.92620000  0.80670000  0.66690000  1.0 0.1067795324
C  C47  1  0.20160000  0.75000000  0.70820000  1.0 -0.0940612761
C  C48  1  0.79840000  0.25000000  0.29180000  1.0 -0.0940612761
N  N1  1  0.26540000  0.63960000  0.29900000  1.0 -0.1614127477
N  N2  1  0.73460000  0.13960000  0.70100000  1.0 -0.1614127477
N  N3  1  0.73460000  0.36040000  0.70100000  1.0 -0.1614127477
N  N4  1  0.26540000  0.86040000  0.29900000  1.0 -0.1614127477
N  N5  1  0.11580000  0.69550000  0.46600000  1.0 -0.1500645225
N  N6  1  0.88420000  0.19550000  0.53400000  1.0 -0.1500645225
N  N7  1  0.88420000  0.30450000  0.53400000  1.0 -0.1500645225
N  N8  1  0.11580000  0.80450000  0.46600000  1.0 -0.1500645225
N  N9  1  0.41420000  0.69390000  0.14720000  1.0 -0.1500645225
N  N10  1  0.58580000  0.19390000  0.85280000  1.0 -0.1500645225
N  N11  1  0.58580000  0.30610000  0.85280000  1.0 -0.1500645225
N  N12  1  0.41420000  0.80610000  0.14720000  1.0 -0.1500645225
N  N13  1  0.07950000  0.61200000  0.95390000  1.0 -0.5426416007
N  N14  1  0.92050000  0.11200000  0.04610000  1.0 -0.5426416007
N  N15  1  0.92050000  0.38800000  0.04610000  1.0 -0.5426416007
N  N16  1  0.07950000  0.88800000  0.95390000  1.0 -0.5426416007
N  N17  1  0.59240000  0.59130000  0.96570000  1.0 -0.5460801033
N  N18  1  0.40760000  0.09130000  0.03430000  1.0 -0.5460801033
N  N19  1  0.40760000  0.40870000  0.03430000  1.0 -0.5460801033
N  N20  1  0.59240000  0.90870000  0.96570000  1.0 -0.5460801033
N  N21  1  0.68640000  0.51000000  0.80380000  1.0 -0.5295519439
N  N22  1  0.31360000  0.01000000  0.19620000  1.0 -0.5295519439
N  N23  1  0.31360000  0.49000000  0.19620000  1.0 -0.5295519439
N  N24  1  0.68640000  0.99000000  0.80380000  1.0 -0.5295519439
N  N25  1  0.70570000  0.59010000  0.35740000  1.0 -0.348423596
N  N26  1  0.29430000  0.09010000  0.64260000  1.0 -0.348423596
N  N27  1  0.29430000  0.40990000  0.64260000  1.0 -0.348423596
N  N28  1  0.70570000  0.90990000  0.35740000  1.0 -0.348423596
N  N29  1  0.71290000  0.75000000  0.35790000  1.0 -0.348423596
N  N30  1  0.28710000  0.25000000  0.64210000  1.0 -0.348423596
N  N31  1  0.31000000  0.75000000  0.79150000  1.0 -0.3626408336
N  N32  1  0.69000000  0.25000000  0.20850000  1.0 -0.3626408336
N  N33  1  0.88180000  0.65920000  0.71990000  1.0 -0.5295519439
N  N34  1  0.11820000  0.15920000  0.28010000  1.0 -0.5295519439
N  N35  1  0.11820000  0.34080000  0.28010000  1.0 -0.5295519439
N  N36  1  0.88180000  0.84080000  0.71990000  1.0 -0.5295519439
