# DDEC6 charges by PACMAN v1.1 (https://github.com/mtap-research/PACMAN-charge/)
data_JIRXAM_ASR_pacman
_symmetry_space_group_name_H-M   'P 1'
_cell_length_a   8.47500000
_cell_length_b   13.43500000
_cell_length_c   14.10000000
_cell_angle_alpha   112.26700000
_cell_angle_beta   94.57000000
_cell_angle_gamma   95.25000000
_symmetry_Int_Tables_number   1
_chemical_formula_structural   Ru2C14SN4O8F15
_chemical_formula_sum   'Ru4 C28 S2 N8 O16 F30'
_cell_volume   1468.06087540
_cell_formula_units_Z   2
loop_
 _symmetry_equiv_pos_site_id
 _symmetry_equiv_pos_as_xyz
  1  'x, y, z'
loop_
 _atom_site_type_symbol
 _atom_site_label
 _atom_site_symmetry_multiplicity
 _atom_site_fract_x
 _atom_site_fract_y
 _atom_site_fract_z
 _atom_site_occupancy
 _atom_site_charge
Ru  Ru1  1  0.45452000  0.47057000  0.41341000  1.0 0.6698812691
Ru  Ru2  1  0.42911000  0.05717000  0.97587000  1.0 0.7835714964
Ru  Ru3  1  0.54548000  0.52943000  0.58659000  1.0 0.6698812691
Ru  Ru4  1  0.57089000  0.94283000  0.02413000  1.0 0.7835714964
C  C1  1  0.41970000  0.69320000  0.52850000  1.0 0.3799384383
C  C2  1  0.39010000  0.80890000  0.54380000  1.0 0.5701706556
C  C3  1  0.22350000  0.43400000  0.53330000  1.0 0.3981644061
C  C4  1  0.05590000  0.38710000  0.55780000  1.0 0.5812537519
C  C5  1  0.67520000  0.97990000  0.84850000  1.0 0.3655038921
C  C6  1  0.78380000  0.97010000  0.76560000  1.0 0.5701706556
C  C7  1  0.70840000  0.16320000  0.11790000  1.0 0.2216807825
C  C8  1  0.84010000  0.25850000  0.17960000  1.0 0.3508722928
C  C9  1  0.28680000  0.40070000  0.16520000  1.0 0.3025514109
C  C10  1  0.19990000  0.36920000  0.06030000  1.0 -0.0125246658
C  C11  1  0.23220000  0.26070000  0.99290000  1.0 0.3025514109
C  C12  1  0.10520000  0.43040000  0.03360000  1.0 -0.0338971357
C  C13  1  0.08680000  0.54220000  0.09890000  1.0 0.0907099145
C  C14  1  0.98950000  0.60700000  0.06850000  1.0 0.0824203439
C  C15  1  0.58030000  0.30680000  0.47150000  1.0 0.3799384383
C  C16  1  0.60990000  0.19110000  0.45620000  1.0 0.5701706556
C  C17  1  0.77650000  0.56600000  0.46670000  1.0 0.3981644061
C  C18  1  0.94410000  0.61290000  0.44220000  1.0 0.5812537519
C  C19  1  0.32480000  0.02010000  0.15150000  1.0 0.3655038921
C  C20  1  0.21620000  0.02990000  0.23440000  1.0 0.5701706556
C  C21  1  0.29160000  0.83680000  0.88210000  1.0 0.2216807825
C  C22  1  0.15990000  0.74150000  0.82040000  1.0 0.3508722928
C  C23  1  0.71320000  0.59930000  0.83480000  1.0 0.3025514109
C  C24  1  0.80010000  0.63080000  0.93970000  1.0 -0.0125246658
C  C25  1  0.76780000  0.73930000  0.00710000  1.0 0.3025514109
C  C26  1  0.89480000  0.56960000  0.96640000  1.0 -0.0408739108
C  C27  1  0.91320000  0.45780000  0.90110000  1.0 0.0907099145
C  C28  1  0.01050000  0.39300000  0.93150000  1.0 0.0907099145
S  S1  1  0.11810000  0.71680000  0.23830000  1.0 0.4879252759
S  S2  1  0.88190000  0.28320000  0.76170000  1.0 0.4879252759
N  N1  1  0.35350000  0.41610000  0.24430000  1.0 -0.3893827351
N  N2  1  0.27640000  0.17880000  0.94980000  1.0 -0.3574991378
N  N3  1  0.16650000  0.59410000  0.19460000  1.0 -0.353619382
N  N4  1  0.99710000  0.71020000  0.14000000  1.0 -0.3744654211
N  N5  1  0.64650000  0.58390000  0.75570000  1.0 -0.3893827351
N  N6  1  0.72360000  0.82120000  0.05020000  1.0 -0.3574991378
N  N7  1  0.83350000  0.40590000  0.80540000  1.0 -0.3574991378
N  N8  1  0.00290000  0.28980000  0.86000000  1.0 -0.3751290294
O  O1  1  0.39430000  0.62470000  0.43830000  1.0 -0.4219118956
O  O2  1  0.48170000  0.68220000  0.60880000  1.0 -0.4533047232
O  O3  1  0.23190000  0.42010000  0.44280000  1.0 -0.4130666557
O  O4  1  0.32140000  0.47780000  0.61440000  1.0 -0.4403538855
O  O5  1  0.56730000  0.03990000  0.85750000  1.0 -0.4219118956
O  O6  1  0.70380000  0.92430000  0.90260000  1.0 -0.4658701572
O  O7  1  0.59940000  0.18840000  0.07080000  1.0 -0.3972815948
O  O8  1  0.73520000  0.07380000  0.11920000  1.0 -0.3972815948
O  O9  1  0.60570000  0.37530000  0.56170000  1.0 -0.4219118956
O  O10  1  0.51830000  0.31780000  0.39120000  1.0 -0.4533047232
O  O11  1  0.76810000  0.57990000  0.55720000  1.0 -0.4130666557
O  O12  1  0.67860000  0.52220000  0.38560000  1.0 -0.4403538855
O  O13  1  0.43270000  0.96010000  0.14250000  1.0 -0.4219118956
O  O14  1  0.29620000  0.07570000  0.09740000  1.0 -0.4658701572
O  O15  1  0.40060000  0.81160000  0.92920000  1.0 -0.3972815948
O  O16  1  0.26480000  0.92620000  0.88080000  1.0 -0.3972815948
F  F1  1  0.51610000  0.85820000  0.52030000  1.0 -0.1800922829
F  F2  1  0.37320000  0.86830000  0.63860000  1.0 -0.1912251005
F  F3  1  0.26880000  0.81010000  0.48200000  1.0 -0.1912251005
F  F4  1  0.01720000  0.45080000  0.64480000  1.0 -0.201668911
F  F5  1  0.07360000  0.29000000  0.56150000  1.0 -0.2054233703
F  F6  1  0.94260000  0.37290000  0.48160000  1.0 -0.2266783419
F  F7  1  0.74600000  0.02570000  0.70890000  1.0 -0.1800922829
F  F8  1  0.78810000  0.87050000  0.70330000  1.0 -0.1912251005
F  F9  1  0.93490000  0.01350000  0.81060000  1.0 -0.1912251005
F  F10  1  0.98880000  0.23050000  0.16330000  1.0 -0.0408739108
F  F11  1  0.83460000  0.28950000  0.27590000  1.0 0.1717482653
F  F12  1  0.84060000  0.34750000  0.15510000  1.0 0.0646215824
F  F13  1  0.90000000  0.29900000  0.12500000  1.0 0.0824203439
F  F14  1  0.93000000  0.23800000  0.25000000  1.0 0.114992812
F  F15  1  0.77300000  0.34200000  0.25100000  1.0 0.1411899549
F  F16  1  0.48390000  0.14180000  0.47970000  1.0 -0.1800922829
F  F17  1  0.62680000  0.13170000  0.36140000  1.0 -0.1912251005
F  F18  1  0.73120000  0.18990000  0.51800000  1.0 -0.1912251005
F  F19  1  0.98280000  0.54920000  0.35520000  1.0 -0.201668911
F  F20  1  0.92640000  0.71000000  0.43850000  1.0 -0.2054233703
F  F21  1  0.05740000  0.62710000  0.51840000  1.0 -0.2266783419
F  F22  1  0.25400000  0.97430000  0.29110000  1.0 -0.1800922829
F  F23  1  0.21190000  0.12950000  0.29670000  1.0 -0.1912251005
F  F24  1  0.06510000  0.98650000  0.18940000  1.0 -0.1912251005
F  F25  1  0.01120000  0.76950000  0.83670000  1.0 -0.0408739108
F  F26  1  0.16540000  0.71050000  0.72410000  1.0 0.1717482653
F  F27  1  0.15940000  0.65250000  0.84490000  1.0 0.0646215824
F  F28  1  0.10000000  0.70100000  0.87500000  1.0 0.0824203439
F  F29  1  0.07000000  0.76200000  0.75000000  1.0 0.1177462337
F  F30  1  0.22700000  0.65800000  0.74900000  1.0 0.1411899549
