# DDEC6 charges by PACMAN v1.1 (https://github.com/mtap-research/PACMAN-charge/)
data_JIRXEQ_FSR_pacman
_symmetry_space_group_name_H-M   'P 1'
_cell_length_a   14.30880000
_cell_length_b   14.30880000
_cell_length_c   8.43630000
_cell_angle_alpha   83.07990000
_cell_angle_beta   96.92010000
_cell_angle_gamma   90.49550000
_symmetry_Int_Tables_number   1
_chemical_formula_structural   Ru2C14SN4(O2F3)4
_chemical_formula_sum   'Ru4 C28 S2 N8 O16 F24'
_cell_volume   1702.15861772
_cell_formula_units_Z   2
loop_
 _symmetry_equiv_pos_site_id
 _symmetry_equiv_pos_as_xyz
  1  'x, y, z'
loop_
 _atom_site_type_symbol
 _atom_site_label
 _atom_site_symmetry_multiplicity
 _atom_site_fract_x
 _atom_site_fract_y
 _atom_site_fract_z
 _atom_site_occupancy
 _atom_site_charge
Ru  Ru1  1  0.42378000  0.97768000  0.46810000  1.0 0.7650489391
Ru  Ru2  1  0.97768000  0.42378000  0.53190000  1.0 0.7637071193
Ru  Ru3  1  0.57622000  0.02232000  0.53190000  1.0 0.7637071193
Ru  Ru4  1  0.02232000  0.57622000  0.46810000  1.0 0.7650489391
C  C1  1  0.45366000  0.06434000  0.75580000  1.0 0.4006350518
C  C2  1  0.42442000  0.10938000  0.89990000  1.0 0.5768861354
C  C3  1  0.46027000  0.16775000  0.34610000  1.0 0.4216827929
C  C4  1  0.43582000  0.26850000  0.26940000  1.0 0.5461387218
C  C5  1  0.20249000  0.91617000  0.32850000  1.0 0.3009179339
C  C6  1  0.08866000  0.03212000  0.06410000  1.0 0.1132184447
C  C7  1  0.06434000  0.45366000  0.24420000  1.0 0.4006350518
C  C8  1  0.10938000  0.42442000  0.10010000  1.0 0.5768861354
C  C9  1  0.16775000  0.46027000  0.65390000  1.0 0.4216827929
C  C10  1  0.26850000  0.43582000  0.73060000  1.0 0.5461387218
C  C11  1  0.91617000  0.20249000  0.67150000  1.0 0.3009179339
C  C12  1  0.03212000  0.08866000  0.93590000  1.0 0.1132184447
C  C13  1  0.54634000  0.93566000  0.24420000  1.0 0.4006350518
C  C14  1  0.57558000  0.89062000  0.10010000  1.0 0.5768861354
C  C15  1  0.53973000  0.83225000  0.65390000  1.0 0.4216827929
C  C16  1  0.56418000  0.73150000  0.73060000  1.0 0.5461387218
C  C17  1  0.79751000  0.08383000  0.67150000  1.0 0.3009179339
C  C18  1  0.91134000  0.96788000  0.93590000  1.0 0.1132184447
C  C19  1  0.93566000  0.54634000  0.75580000  1.0 0.4006350518
C  C20  1  0.89062000  0.57558000  0.89990000  1.0 0.5768861354
C  C21  1  0.83225000  0.53973000  0.34610000  1.0 0.4216827929
C  C22  1  0.73150000  0.56418000  0.26940000  1.0 0.5461387218
C  C23  1  0.08383000  0.79751000  0.32850000  1.0 0.3009179339
C  C24  1  0.96788000  0.91134000  0.06410000  1.0 0.1132184447
C  C25  1  0.11209000  0.88791000  0.25730000  1.0 -0.0437655456
C  C26  1  0.05927000  0.94073000  0.13530000  1.0 -0.0313453616
C  C27  1  0.88791000  0.11209000  0.74270000  1.0 -0.0454645722
C  C28  1  0.94073000  0.05927000  0.86470000  1.0 -0.0313453616
S  S1  1  0.17266000  0.17266000  0.00000000  1.0 0.429087478
S  S2  1  0.82734000  0.82734000  0.00000000  1.0 0.4370374859
N  N1  1  0.27435000  0.93223000  0.39260000  1.0 -0.3302312611
N  N2  1  0.16972000  0.07238000  0.11060000  1.0 -0.2866256802
N  N3  1  0.93223000  0.27435000  0.60740000  1.0 -0.3302312611
N  N4  1  0.07238000  0.16972000  0.88940000  1.0 -0.2866256802
N  N5  1  0.72565000  0.06777000  0.60740000  1.0 -0.3302312611
N  N6  1  0.83028000  0.92762000  0.88940000  1.0 -0.2866256802
N  N7  1  0.06777000  0.72565000  0.39260000  1.0 -0.3302312611
N  N8  1  0.92762000  0.83028000  0.11060000  1.0 -0.2866256802
O  O1  1  0.38709000  0.02769000  0.67120000  1.0 -0.4107956657
O  O2  1  0.53705000  0.07203000  0.73380000  1.0 -0.3982349753
O  O3  1  0.39407000  0.11013000  0.34540000  1.0 -0.4107956657
O  O4  1  0.54411000  0.15353000  0.40760000  1.0 -0.4107956657
O  O5  1  0.02769000  0.38709000  0.32880000  1.0 -0.4107956657
O  O6  1  0.07203000  0.53705000  0.26620000  1.0 -0.3982349753
O  O7  1  0.11013000  0.39407000  0.65460000  1.0 -0.4107956657
O  O8  1  0.15353000  0.54411000  0.59240000  1.0 -0.4107956657
O  O9  1  0.61291000  0.97231000  0.32880000  1.0 -0.4107956657
O  O10  1  0.46295000  0.92797000  0.26620000  1.0 -0.3982349753
O  O11  1  0.60593000  0.88987000  0.65460000  1.0 -0.4107956657
O  O12  1  0.45589000  0.84647000  0.59240000  1.0 -0.4107956657
O  O13  1  0.97231000  0.61291000  0.67120000  1.0 -0.4107956657
O  O14  1  0.92797000  0.46295000  0.73380000  1.0 -0.3982349753
O  O15  1  0.88987000  0.60593000  0.34540000  1.0 -0.4107956657
O  O16  1  0.84647000  0.45589000  0.40760000  1.0 -0.4107956657
F  F1  1  0.35685000  0.06055000  0.96550000  1.0 -0.1792573693
F  F2  1  0.49599000  0.11293000  0.01360000  1.0 -0.1888786635
F  F3  1  0.39091000  0.19389000  0.84930000  1.0 -0.1888786635
F  F4  1  0.41739000  0.31961000  0.37690000  1.0 -0.1593285806
F  F5  1  0.50658000  0.30844000  0.20250000  1.0 -0.1593285806
F  F6  1  0.36487000  0.27129000  0.15570000  1.0 -0.1792573693
F  F7  1  0.06055000  0.35685000  0.03450000  1.0 -0.1792573693
F  F8  1  0.11293000  0.49599000  0.98640000  1.0 -0.1888786635
F  F9  1  0.19389000  0.39091000  0.15070000  1.0 -0.1888786635
F  F10  1  0.31961000  0.41739000  0.62310000  1.0 -0.1593285806
F  F11  1  0.30844000  0.50658000  0.79750000  1.0 -0.1593285806
F  F12  1  0.27129000  0.36487000  0.84430000  1.0 -0.1792573693
F  F13  1  0.64315000  0.93945000  0.03450000  1.0 -0.1792573693
F  F14  1  0.50401000  0.88707000  0.98640000  1.0 -0.1888786635
F  F15  1  0.60909000  0.80611000  0.15070000  1.0 -0.1888786635
F  F16  1  0.58261000  0.68039000  0.62310000  1.0 -0.1593285806
F  F17  1  0.49342000  0.69156000  0.79750000  1.0 -0.1593285806
F  F18  1  0.63513000  0.72871000  0.84430000  1.0 -0.1792573693
F  F19  1  0.93945000  0.64315000  0.96550000  1.0 -0.1792573693
F  F20  1  0.88707000  0.50401000  0.01360000  1.0 -0.1888786635
F  F21  1  0.80611000  0.60909000  0.84930000  1.0 -0.1888786635
F  F22  1  0.68039000  0.58261000  0.37690000  1.0 -0.1593285806
F  F23  1  0.69156000  0.49342000  0.20250000  1.0 -0.1593285806
F  F24  1  0.72871000  0.63513000  0.15570000  1.0 -0.1792573693
