# DDEC6 charges by PACMAN v1.1 (https://github.com/mtap-research/PACMAN-charge/)
data_JISZOD_ASR_pacman
_symmetry_space_group_name_H-M   'P 1'
_cell_length_a   14.74100000
_cell_length_b   22.71900000
_cell_length_c   23.30950000
_cell_angle_alpha   90.00000000
_cell_angle_beta   127.58500000
_cell_angle_gamma   90.00000000
_symmetry_Int_Tables_number   1
_chemical_formula_structural   Na2Sm2Fe2SbH8W9C12(NO19)2
_chemical_formula_sum   'Na8 Sm8 Fe8 Sb4 H32 W36 C48 N8 O152'
_cell_volume   6186.15261535
_cell_formula_units_Z   4
loop_
 _symmetry_equiv_pos_site_id
 _symmetry_equiv_pos_as_xyz
  1  'x, y, z'
loop_
 _atom_site_type_symbol
 _atom_site_label
 _atom_site_symmetry_multiplicity
 _atom_site_fract_x
 _atom_site_fract_y
 _atom_site_fract_z
 _atom_site_occupancy
 _atom_site_charge
Na  Na1  1  0.65820000  0.36040000  0.57200000  1.0 0.9624170534
Na  Na2  1  0.30220000  0.19250000  0.72190000  1.0 0.8736356271
Na  Na3  1  0.34180000  0.86040000  0.92800000  1.0 0.9369977884
Na  Na4  1  0.69780000  0.69250000  0.77810000  1.0 0.8736356271
Na  Na5  1  0.34180000  0.63960000  0.42800000  1.0 0.9369977884
Na  Na6  1  0.69780000  0.80750000  0.27810000  1.0 0.8736356271
Na  Na7  1  0.65820000  0.13960000  0.07200000  1.0 0.9624170534
Na  Na8  1  0.30220000  0.30750000  0.22190000  1.0 0.876997488
Sm  Sm1  1  0.92419000  0.72697000  0.50078000  1.0 2.2893986873
Sm  Sm2  1  0.91900000  0.77080000  0.00630000  1.0 2.2666936886
Sm  Sm3  1  0.07581000  0.22697000  0.99922000  1.0 2.2981193237
Sm  Sm4  1  0.08100000  0.27080000  0.49370000  1.0 2.2666936886
Sm  Sm5  1  0.07581000  0.27303000  0.49922000  1.0 2.2893986873
Sm  Sm6  1  0.08100000  0.22920000  0.99370000  1.0 2.2577736549
Sm  Sm7  1  0.92419000  0.77303000  0.00078000  1.0 2.2893986873
Sm  Sm8  1  0.91900000  0.72920000  0.50630000  1.0 2.2666936886
Fe  Fe1  1  0.63489000  0.94253000  0.47818000  1.0 1.3006423883
Fe  Fe2  1  0.63075000  0.87196000  0.70773000  1.0 1.2342775039
Fe  Fe3  1  0.36511000  0.44253000  0.02182000  1.0 1.3006423883
Fe  Fe4  1  0.36925000  0.37196000  0.79227000  1.0 1.2369970254
Fe  Fe5  1  0.36511000  0.05747000  0.52182000  1.0 1.3006423883
Fe  Fe6  1  0.36925000  0.12804000  0.29227000  1.0 1.2369970254
Fe  Fe7  1  0.63489000  0.55747000  0.97818000  1.0 1.3006423883
Fe  Fe8  1  0.63075000  0.62804000  0.20773000  1.0 1.2369970254
Sb  Sb1  1  0.68942000  0.01899000  0.64726000  1.0 1.3312463932
Sb  Sb2  1  0.31058000  0.51899000  0.85274000  1.0 1.3399158887
Sb  Sb3  1  0.31058000  0.98101000  0.35274000  1.0 1.3312463932
Sb  Sb4  1  0.68942000  0.48101000  0.14726000  1.0 1.3399158887
H  H1  1  0.73610000  0.04820000  0.43950000  1.0 0.1105994803
H  H2  1  0.89160000  0.88340000  0.41630000  1.0 0.1389451981
H  H3  1  0.85270000  0.05970000  0.40550000  1.0 0.1389451981
H  H4  1  0.93480000  0.97350000  0.39620000  1.0 0.1105994803
H  H5  1  0.36100000  0.85860000  0.62360000  1.0 0.1105994803
H  H6  1  0.51350000  0.78550000  0.84920000  1.0 0.1389451981
H  H7  1  0.23500000  0.82140000  0.64460000  1.0 0.1536139719
H  H8  1  0.31520000  0.78540000  0.76090000  1.0 0.1192819238
H  H9  1  0.26390000  0.54820000  0.06050000  1.0 0.1105994803
H  H10  1  0.10840000  0.38340000  0.08370000  1.0 0.1389451981
H  H11  1  0.14730000  0.55970000  0.09450000  1.0 0.1389451981
H  H12  1  0.06520000  0.47350000  0.10380000  1.0 0.1105994803
H  H13  1  0.63900000  0.35860000  0.87640000  1.0 0.1105994803
H  H14  1  0.48650000  0.28550000  0.65080000  1.0 0.1389451981
H  H15  1  0.76500000  0.32140000  0.85540000  1.0 0.1536139719
H  H16  1  0.68480000  0.28540000  0.73910000  1.0 0.1192819238
H  H17  1  0.26390000  0.95180000  0.56050000  1.0 0.1105994803
H  H18  1  0.10840000  0.11660000  0.58370000  1.0 0.1389451981
H  H19  1  0.14730000  0.94030000  0.59450000  1.0 0.1389451981
H  H20  1  0.06520000  0.02650000  0.60380000  1.0 0.1105994803
H  H21  1  0.63900000  0.14140000  0.37640000  1.0 0.1105994803
H  H22  1  0.48650000  0.21450000  0.15080000  1.0 0.1389451981
H  H23  1  0.76500000  0.17860000  0.35540000  1.0 0.1536139719
H  H24  1  0.68480000  0.21460000  0.23910000  1.0 0.1192819238
H  H25  1  0.73610000  0.45180000  0.93950000  1.0 0.1105994803
H  H26  1  0.89160000  0.61660000  0.91630000  1.0 0.1389451981
H  H27  1  0.85270000  0.44030000  0.90550000  1.0 0.1389451981
H  H28  1  0.93480000  0.52650000  0.89620000  1.0 0.1105994803
H  H29  1  0.36100000  0.64140000  0.12360000  1.0 0.1105994803
H  H30  1  0.51350000  0.71450000  0.34920000  1.0 0.1389451981
H  H31  1  0.23500000  0.67860000  0.14460000  1.0 0.1536139719
H  H32  1  0.31520000  0.71460000  0.26090000  1.0 0.1192819238
W  W1  1  0.91456000  0.95770000  0.64671000  1.0 2.4228808256
W  W2  1  0.86234000  0.11694000  0.60540000  1.0 2.4386095377
W  W3  1  0.90788000  0.92173000  0.78336000  1.0 2.4734730892
W  W4  1  0.02836000  0.04806000  0.78537000  1.0 2.4873689982
W  W5  1  0.57560000  0.10026000  0.49007000  1.0 2.3621996574
W  W6  1  0.44162000  0.88672000  0.29838000  1.0 2.3621996574
W  W7  1  0.69504000  0.19044000  0.63341000  1.0 2.3621996574
W  W8  1  0.71692000  0.00173000  0.80956000  1.0 2.4386095377
W  W9  1  0.84018000  0.12888000  0.81579000  1.0 2.4275613343
W  W10  1  0.08544000  0.45770000  0.85329000  1.0 2.4275613343
W  W11  1  0.13766000  0.61694000  0.89460000  1.0 2.4275613343
W  W12  1  0.09212000  0.42173000  0.71664000  1.0 2.4734730892
W  W13  1  0.97164000  0.54806000  0.71463000  1.0 2.4873689982
W  W14  1  0.42440000  0.60026000  0.00993000  1.0 2.3621996574
W  W15  1  0.55838000  0.38672000  0.20162000  1.0 2.3657796554
W  W16  1  0.30496000  0.69044000  0.86659000  1.0 2.3621996574
W  W17  1  0.28308000  0.50173000  0.69044000  1.0 2.4460951658
W  W18  1  0.15982000  0.62888000  0.68421000  1.0 2.4275613343
W  W19  1  0.08544000  0.04230000  0.35329000  1.0 2.4228808256
W  W20  1  0.13766000  0.88306000  0.39460000  1.0 2.4275613343
W  W21  1  0.09212000  0.07827000  0.21664000  1.0 2.4734730892
W  W22  1  0.97164000  0.95194000  0.21463000  1.0 2.4814889602
W  W23  1  0.42440000  0.89974000  0.50993000  1.0 2.3621996574
W  W24  1  0.55838000  0.11328000  0.70162000  1.0 2.3621996574
W  W25  1  0.30496000  0.80956000  0.36659000  1.0 2.3621996574
W  W26  1  0.28308000  0.99827000  0.19044000  1.0 2.4460951658
W  W27  1  0.15982000  0.87112000  0.18421000  1.0 2.4275613343
W  W28  1  0.91456000  0.54230000  0.14671000  1.0 2.4275613343
W  W29  1  0.86234000  0.38306000  0.10540000  1.0 2.4386095377
W  W30  1  0.90788000  0.57827000  0.28336000  1.0 2.4734730892
W  W31  1  0.02836000  0.45194000  0.28537000  1.0 2.4873689982
W  W32  1  0.57560000  0.39974000  0.99007000  1.0 2.3621996574
W  W33  1  0.44162000  0.61328000  0.79838000  1.0 2.3621996574
W  W34  1  0.69504000  0.30956000  0.13341000  1.0 2.3538386993
W  W35  1  0.71692000  0.49827000  0.30956000  1.0 2.4460951658
W  W36  1  0.84018000  0.37112000  0.31579000  1.0 2.4228808256
C  C1  1  0.76060000  0.85960000  0.45940000  1.0 0.5816569872
C  C2  1  0.79010000  0.91400000  0.44180000  1.0 0.066263935
C  C3  1  0.76940000  0.01520000  0.43560000  1.0 0.0775301814
C  C4  1  0.86160000  0.91740000  0.42120000  1.0 -0.1283318629
C  C5  1  0.83800000  0.02260000  0.41500000  1.0 -0.146478226
C  C6  1  0.88620000  0.97050000  0.40890000  1.0 -0.0505618123
C  C7  1  0.67940000  0.82480000  0.83930000  1.0 0.5816569872
C  C8  1  0.54790000  0.82220000  0.78580000  1.0 0.066263935
C  C9  1  0.39060000  0.84360000  0.66900000  1.0 0.1031072032
C  C10  1  0.48070000  0.80010000  0.80310000  1.0 -0.1385433614
C  C11  1  0.31360000  0.82150000  0.68090000  1.0 -0.1283318629
C  C12  1  0.36210000  0.80000000  0.75000000  1.0 0.0132776372
C  C13  1  0.23940000  0.35960000  0.04060000  1.0 0.5816569872
C  C14  1  0.20990000  0.41400000  0.05820000  1.0 0.066263935
C  C15  1  0.23060000  0.51520000  0.06440000  1.0 0.0775301814
C  C16  1  0.13840000  0.41740000  0.07880000  1.0 -0.1283318629
C  C17  1  0.16200000  0.52260000  0.08500000  1.0 -0.146478226
C  C18  1  0.11380000  0.47050000  0.09110000  1.0 -0.0505618123
C  C19  1  0.32060000  0.32480000  0.66070000  1.0 0.5816569872
C  C20  1  0.45210000  0.32220000  0.71420000  1.0 0.066263935
C  C21  1  0.60940000  0.34360000  0.83100000  1.0 0.1031072032
C  C22  1  0.51930000  0.30010000  0.69690000  1.0 -0.1385433614
C  C23  1  0.68640000  0.32150000  0.81910000  1.0 -0.1283318629
C  C24  1  0.63790000  0.30000000  0.75000000  1.0 0.0132776372
C  C25  1  0.23940000  0.14040000  0.54060000  1.0 0.5816569872
C  C26  1  0.20990000  0.08600000  0.55820000  1.0 0.066263935
C  C27  1  0.23060000  0.98480000  0.56440000  1.0 0.0775301814
C  C28  1  0.13840000  0.08260000  0.57880000  1.0 -0.1283318629
C  C29  1  0.16200000  0.97740000  0.58500000  1.0 -0.146478226
C  C30  1  0.11380000  0.02950000  0.59110000  1.0 -0.0505618123
C  C31  1  0.32060000  0.17520000  0.16070000  1.0 0.5816569872
C  C32  1  0.45210000  0.17780000  0.21420000  1.0 0.066263935
C  C33  1  0.60940000  0.15640000  0.33100000  1.0 0.1031072032
C  C34  1  0.51930000  0.19990000  0.19690000  1.0 -0.1385433614
C  C35  1  0.68640000  0.17850000  0.31910000  1.0 -0.1283318629
C  C36  1  0.63790000  0.20000000  0.25000000  1.0 0.0152221158
C  C37  1  0.76060000  0.64040000  0.95940000  1.0 0.5816569872
C  C38  1  0.79010000  0.58600000  0.94180000  1.0 0.066263935
C  C39  1  0.76940000  0.48480000  0.93560000  1.0 0.0775301814
C  C40  1  0.86160000  0.58260000  0.92120000  1.0 -0.1283318629
C  C41  1  0.83800000  0.47740000  0.91500000  1.0 -0.146478226
C  C42  1  0.88620000  0.52950000  0.90890000  1.0 -0.0505618123
C  C43  1  0.67940000  0.67520000  0.33930000  1.0 0.5816569872
C  C44  1  0.54790000  0.67780000  0.28580000  1.0 0.066263935
C  C45  1  0.39060000  0.65640000  0.16900000  1.0 0.1031072032
C  C46  1  0.48070000  0.69990000  0.30310000  1.0 -0.1385433614
C  C47  1  0.31360000  0.67850000  0.18090000  1.0 -0.1283318629
C  C48  1  0.36210000  0.70000000  0.25000000  1.0 0.0152221158
N  N1  1  0.74780000  0.96140000  0.45040000  1.0 -0.272761447
N  N2  1  0.50310000  0.84380000  0.71960000  1.0 -0.2979772218
N  N3  1  0.25220000  0.46140000  0.04960000  1.0 -0.272761447
N  N4  1  0.49690000  0.34380000  0.78040000  1.0 -0.2979772218
N  N5  1  0.25220000  0.03860000  0.54960000  1.0 -0.272761447
N  N6  1  0.49690000  0.15620000  0.28040000  1.0 -0.2979772218
N  N7  1  0.74780000  0.53860000  0.95040000  1.0 -0.272761447
N  N8  1  0.50310000  0.65620000  0.21960000  1.0 -0.2979772218
O  O1  1  0.76240000  0.93970000  0.58140000  1.0 -0.8502403156
O  O2  1  0.88040000  0.03510000  0.60010000  1.0 -0.9209173426
O  O3  1  0.85610000  0.99960000  0.70850000  1.0 -1.030625505
O  O4  1  0.05020000  0.99990000  0.72680000  1.0 -1.0001544582
O  O5  1  0.94850000  0.90150000  0.71750000  1.0 -0.9209173426
O  O6  1  0.60770000  0.02610000  0.48410000  1.0 -0.8297478896
O  O7  1  0.69190000  0.86080000  0.47550000  1.0 -0.4770753808
O  O8  1  0.53100000  0.91560000  0.49650000  1.0 -0.8297478896
O  O9  1  0.51430000  0.93780000  0.37320000  1.0 -0.8390391099
O  O10  1  0.72580000  0.12350000  0.51140000  1.0 -0.9023842243
O  O11  1  0.71040000  0.09320000  0.61030000  1.0 -1.0192220993
O  O12  1  0.82110000  0.18950000  0.62920000  1.0 -0.9209173426
O  O13  1  0.96080000  0.10520000  0.71150000  1.0 -0.9366579108
O  O14  1  0.76290000  0.89290000  0.71330000  1.0 -0.860179778
O  O15  1  0.84780000  0.96470000  0.82360000  1.0 -0.9147582081
O  O16  1  0.03750000  0.97580000  0.83250000  1.0 -1.0119175655
O  O17  1  0.71470000  0.06210000  0.72980000  1.0 -1.0192220993
O  O18  1  0.95590000  0.08560000  0.82220000  1.0 -0.8841609784
O  O19  1  0.59310000  0.18210000  0.53100000  1.0 -0.8891315459
O  O20  1  0.49170000  0.12270000  0.39890000  1.0 -0.7467346467
O  O21  1  0.81010000  0.81070000  0.46170000  1.0 -0.8502403156
O  O22  1  0.58700000  0.16440000  0.64570000  1.0 -0.8891315459
O  O23  1  0.80820000  0.17030000  0.73520000  1.0 -0.8701141246
O  O24  1  0.68770000  0.26350000  0.63850000  1.0 -0.6909792252
O  O25  1  0.62570000  0.95250000  0.73290000  1.0 -0.8701141246
O  O26  1  0.72840000  0.84500000  0.81410000  1.0 -0.4912987404
O  O27  1  0.64210000  0.78320000  0.68630000  1.0 -0.6105292268
O  O28  1  0.59250000  0.05630000  0.77490000  1.0 -0.9366579108
O  O29  1  0.82430000  0.06740000  0.86640000  1.0 -0.9023842243
O  O30  1  0.69280000  0.15630000  0.78370000  1.0 -0.860179778
O  O31  1  0.92540000  0.17800000  0.88720000  1.0 -1.0119175655
O  O32  1  0.72790000  0.80420000  0.90200000  1.0 -0.7725557365
O  O33  1  0.54890000  0.84930000  0.30590000  1.0 -0.6977125682
O  O34  1  0.89780000  0.75660000  0.39030000  1.0 -1.0497482843
O  O35  1  0.94050000  0.63210000  0.45960000  1.0 -0.9492739864
O  O36  1  0.01080000  0.79910000  0.60240000  1.0 -1.030625505
O  O37  1  0.10540000  0.75140000  0.52200000  1.0 -0.8701141246
O  O38  1  0.83340000  0.68770000  0.55210000  1.0 -1.2202808089
O  O39  1  0.23760000  0.43970000  0.91860000  1.0 -0.8502403156
O  O40  1  0.11960000  0.53510000  0.89990000  1.0 -0.9209173426
O  O41  1  0.14390000  0.49960000  0.79150000  1.0 -1.030625505
O  O42  1  0.94980000  0.49990000  0.77320000  1.0 -0.9932499953
O  O43  1  0.05150000  0.40150000  0.78250000  1.0 -0.928605142
O  O44  1  0.39230000  0.52610000  0.01590000  1.0 -0.8297478896
O  O45  1  0.30810000  0.36080000  0.02450000  1.0 -0.4770753808
O  O46  1  0.46900000  0.41560000  0.00350000  1.0 -0.8297478896
O  O47  1  0.48570000  0.43780000  0.12680000  1.0 -0.8390391099
O  O48  1  0.27420000  0.62350000  0.98860000  1.0 -0.9023842243
O  O49  1  0.28960000  0.59320000  0.88970000  1.0 -1.0192220993
O  O50  1  0.17890000  0.68950000  0.87080000  1.0 -0.9209173426
O  O51  1  0.03920000  0.60520000  0.78850000  1.0 -0.9366579108
O  O52  1  0.23710000  0.39290000  0.78670000  1.0 -0.860179778
O  O53  1  0.15220000  0.46470000  0.67640000  1.0 -0.9209173426
O  O54  1  0.96250000  0.47580000  0.66750000  1.0 -1.0119175655
O  O55  1  0.28530000  0.56210000  0.77020000  1.0 -1.0192220993
O  O56  1  0.04410000  0.58560000  0.67780000  1.0 -0.8841609784
O  O57  1  0.40690000  0.68210000  0.96900000  1.0 -0.8841609784
O  O58  1  0.50830000  0.62270000  0.10110000  1.0 -0.7467346467
O  O59  1  0.18990000  0.31070000  0.03830000  1.0 -0.8502403156
O  O60  1  0.41300000  0.66440000  0.85430000  1.0 -0.8891315459
O  O61  1  0.19180000  0.67030000  0.76480000  1.0 -0.8701141246
O  O62  1  0.31230000  0.76350000  0.86150000  1.0 -0.6909792252
O  O63  1  0.37430000  0.45250000  0.76710000  1.0 -0.8701141246
O  O64  1  0.27160000  0.34500000  0.68590000  1.0 -0.4912987404
O  O65  1  0.35790000  0.28320000  0.81370000  1.0 -0.6105292268
O  O66  1  0.40750000  0.55630000  0.72510000  1.0 -0.9366579108
O  O67  1  0.17570000  0.56740000  0.63360000  1.0 -0.9023842243
O  O68  1  0.30720000  0.65630000  0.71630000  1.0 -0.860179778
O  O69  1  0.07460000  0.67800000  0.61280000  1.0 -1.0192220993
O  O70  1  0.27210000  0.30420000  0.59800000  1.0 -0.7725557365
O  O71  1  0.45110000  0.34930000  0.19410000  1.0 -0.6977125682
O  O72  1  0.10220000  0.25660000  0.10970000  1.0 -1.0385590223
O  O73  1  0.05950000  0.13210000  0.04040000  1.0 -0.928605142
O  O74  1  0.98920000  0.29910000  0.89760000  1.0 -1.0192220993
O  O75  1  0.89460000  0.25140000  0.97800000  1.0 -0.8701141246
O  O76  1  0.16660000  0.18770000  0.94790000  1.0 -1.2516092487
O  O77  1  0.23760000  0.06030000  0.41860000  1.0 -0.8502403156
O  O78  1  0.11960000  0.96490000  0.39990000  1.0 -0.9209173426
O  O79  1  0.14390000  0.00040000  0.29150000  1.0 -1.030625505
O  O80  1  0.94980000  0.00010000  0.27320000  1.0 -1.0001544582
O  O81  1  0.05150000  0.09850000  0.28250000  1.0 -0.9209173426
O  O82  1  0.39230000  0.97390000  0.51590000  1.0 -0.8297478896
O  O83  1  0.30810000  0.13920000  0.52450000  1.0 -0.4749228485
O  O84  1  0.46900000  0.08440000  0.50350000  1.0 -0.8297478896
O  O85  1  0.48570000  0.06220000  0.62680000  1.0 -0.8390391099
O  O86  1  0.27420000  0.87650000  0.48860000  1.0 -0.9023842243
O  O87  1  0.28960000  0.90680000  0.38970000  1.0 -1.0192220993
O  O88  1  0.17890000  0.81050000  0.37080000  1.0 -0.9209173426
O  O89  1  0.03920000  0.89480000  0.28850000  1.0 -0.928605142
O  O90  1  0.23710000  0.10710000  0.28670000  1.0 -0.860179778
O  O91  1  0.15220000  0.03530000  0.17640000  1.0 -0.9147582081
O  O92  1  0.96250000  0.02420000  0.16750000  1.0 -1.0119175655
O  O93  1  0.28530000  0.93790000  0.27020000  1.0 -1.0192220993
O  O94  1  0.04410000  0.91440000  0.17780000  1.0 -0.8841609784
O  O95  1  0.40690000  0.81790000  0.46900000  1.0 -0.8891315459
O  O96  1  0.50830000  0.87730000  0.60110000  1.0 -0.7467346467
O  O97  1  0.18990000  0.18930000  0.53830000  1.0 -0.8502403156
O  O98  1  0.41300000  0.83560000  0.35430000  1.0 -0.8891315459
O  O99  1  0.19180000  0.82970000  0.26480000  1.0 -0.8701141246
O  O100  1  0.31230000  0.73650000  0.36150000  1.0 -0.6909792252
O  O101  1  0.37430000  0.04750000  0.26710000  1.0 -0.8701141246
O  O102  1  0.27160000  0.15500000  0.18590000  1.0 -0.4912987404
O  O103  1  0.35790000  0.21680000  0.31370000  1.0 -0.6105292268
O  O104  1  0.40750000  0.94370000  0.22510000  1.0 -0.9366579108
O  O105  1  0.17570000  0.93260000  0.13360000  1.0 -0.9023842243
O  O106  1  0.30720000  0.84370000  0.21630000  1.0 -0.860179778
O  O107  1  0.07460000  0.82200000  0.11280000  1.0 -1.0119175655
O  O108  1  0.27210000  0.19580000  0.09800000  1.0 -0.7725557365
O  O109  1  0.45110000  0.15070000  0.69410000  1.0 -0.6977125682
O  O110  1  0.10220000  0.24340000  0.60970000  1.0 -1.0497482843
O  O111  1  0.05950000  0.36790000  0.54040000  1.0 -0.9366579108
O  O112  1  0.98920000  0.20090000  0.39760000  1.0 -1.0385590223
O  O113  1  0.89460000  0.24860000  0.47800000  1.0 -0.860179778
O  O114  1  0.16660000  0.31230000  0.44790000  1.0 -1.2202808089
O  O115  1  0.76240000  0.56030000  0.08140000  1.0 -0.8502403156
O  O116  1  0.88040000  0.46490000  0.10010000  1.0 -0.9209173426
O  O117  1  0.85610000  0.50040000  0.20850000  1.0 -1.030625505
O  O118  1  0.05020000  0.50010000  0.22680000  1.0 -1.0001544582
O  O119  1  0.94850000  0.59850000  0.21750000  1.0 -0.9209173426
O  O120  1  0.60770000  0.47390000  0.98410000  1.0 -0.8297478896
O  O121  1  0.69190000  0.63920000  0.97550000  1.0 -0.4749228485
O  O122  1  0.53100000  0.58440000  0.99650000  1.0 -0.8390391099
O  O123  1  0.51430000  0.56220000  0.87320000  1.0 -0.8390391099
O  O124  1  0.72580000  0.37650000  0.01140000  1.0 -0.9023842243
O  O125  1  0.71040000  0.40680000  0.11030000  1.0 -1.0192220993
O  O126  1  0.82110000  0.31050000  0.12920000  1.0 -0.9209173426
O  O127  1  0.96080000  0.39480000  0.21150000  1.0 -0.9366579108
O  O128  1  0.76290000  0.60710000  0.21330000  1.0 -0.860179778
O  O129  1  0.84780000  0.53530000  0.32360000  1.0 -0.9147582081
O  O130  1  0.03750000  0.52420000  0.33250000  1.0 -1.0119175655
O  O131  1  0.71470000  0.43790000  0.22980000  1.0 -1.0192220993
O  O132  1  0.95590000  0.41440000  0.32220000  1.0 -0.8891315459
O  O133  1  0.59310000  0.31790000  0.03100000  1.0 -0.8841609784
O  O134  1  0.49170000  0.37730000  0.89890000  1.0 -0.7467346467
O  O135  1  0.81010000  0.68930000  0.96170000  1.0 -0.8390391099
O  O136  1  0.58700000  0.33560000  0.14570000  1.0 -0.8891315459
O  O137  1  0.80820000  0.32970000  0.23520000  1.0 -0.8701141246
O  O138  1  0.68770000  0.23650000  0.13850000  1.0 -0.6909792252
O  O139  1  0.62570000  0.54750000  0.23290000  1.0 -0.8701141246
O  O140  1  0.72840000  0.65500000  0.31410000  1.0 -0.4912987404
O  O141  1  0.64210000  0.71680000  0.18630000  1.0 -0.6105292268
O  O142  1  0.59250000  0.44370000  0.27490000  1.0 -0.9366579108
O  O143  1  0.82430000  0.43260000  0.36640000  1.0 -0.9023842243
O  O144  1  0.69280000  0.34370000  0.28370000  1.0 -0.860179778
O  O145  1  0.92540000  0.32200000  0.38720000  1.0 -1.0119175655
O  O146  1  0.72790000  0.69580000  0.40200000  1.0 -0.7725557365
O  O147  1  0.54890000  0.65070000  0.80590000  1.0 -0.6977125682
O  O148  1  0.89780000  0.74340000  0.89030000  1.0 -1.030625505
O  O149  1  0.94050000  0.86790000  0.95960000  1.0 -0.9209173426
O  O150  1  0.01080000  0.70090000  0.10240000  1.0 -1.0385590223
O  O151  1  0.10540000  0.74860000  0.02200000  1.0 -0.9023842243
O  O152  1  0.83340000  0.81230000  0.05210000  1.0 -1.2516092487
