# DDEC6 charges by PACMAN v1.1 (https://github.com/mtap-research/PACMAN-charge/)
data_JISZAP_ASR_pacman
_symmetry_space_group_name_H-M   'P 1'
_cell_length_a   14.64660000
_cell_length_b   22.76210000
_cell_length_c   23.32660000
_cell_angle_alpha   90.00000000
_cell_angle_beta   126.96800000
_cell_angle_gamma   90.00000000
_symmetry_Int_Tables_number   1
_chemical_formula_structural   Na2La2Fe2SbH8W9C12N2O37
_chemical_formula_sum   'Na8 La8 Fe8 Sb4 H32 W36 C48 N8 O148'
_cell_volume   6213.43671809
_cell_formula_units_Z   4
loop_
 _symmetry_equiv_pos_site_id
 _symmetry_equiv_pos_as_xyz
  1  'x, y, z'
loop_
 _atom_site_type_symbol
 _atom_site_label
 _atom_site_symmetry_multiplicity
 _atom_site_fract_x
 _atom_site_fract_y
 _atom_site_fract_z
 _atom_site_occupancy
 _atom_site_charge
Na  Na1  1  0.44630000  0.25290000  0.43940000  1.0 0.9261160685
Na  Na2  1  0.30300000  0.30580000  0.22350000  1.0 0.8817796601
Na  Na3  1  0.55370000  0.75290000  0.06060000  1.0 0.9242400719
Na  Na4  1  0.69700000  0.80580000  0.27650000  1.0 0.8817796601
Na  Na5  1  0.55370000  0.74710000  0.56060000  1.0 0.9261160685
Na  Na6  1  0.69700000  0.69420000  0.77650000  1.0 0.8817796601
Na  Na7  1  0.44630000  0.24710000  0.93940000  1.0 0.9261160685
Na  Na8  1  0.30300000  0.19420000  0.72350000  1.0 0.8817796601
La  La1  1  0.91895000  0.77686000  0.00200000  1.0 0.3555213107
La  La2  1  0.88390000  0.78214000  0.01770000  1.0 0.5089881612
La  La3  1  0.08105000  0.27686000  0.49800000  1.0 0.3895670665
La  La4  1  0.11610000  0.28214000  0.48230000  1.0 0.5031118585
La  La5  1  0.08105000  0.22314000  0.99800000  1.0 0.3895670665
La  La6  1  0.11610000  0.21786000  0.98230000  1.0 0.5031118585
La  La7  1  0.91895000  0.72314000  0.50200000  1.0 0.3555213107
La  La8  1  0.88390000  0.71786000  0.51770000  1.0 0.5089881612
Fe  Fe1  1  0.37325000  0.12970000  0.29571000  1.0 1.2594334873
Fe  Fe2  1  0.63447000  0.94352000  0.47668000  1.0 1.2666124893
Fe  Fe3  1  0.62675000  0.62970000  0.20429000  1.0 1.2594334873
Fe  Fe4  1  0.36553000  0.44352000  0.02332000  1.0 1.2666124893
Fe  Fe5  1  0.62675000  0.87030000  0.70429000  1.0 1.2594334873
Fe  Fe6  1  0.36553000  0.05648000  0.52332000  1.0 1.2594334873
Fe  Fe7  1  0.37325000  0.37030000  0.79571000  1.0 1.2594334873
Fe  Fe8  1  0.63447000  0.55648000  0.97668000  1.0 1.2594334873
Sb  Sb1  1  0.31185000  0.98215000  0.35388000  1.0 1.3185129059
Sb  Sb2  1  0.68815000  0.48215000  0.14612000  1.0 1.3185129059
Sb  Sb3  1  0.68815000  0.01785000  0.64612000  1.0 1.3185129059
Sb  Sb4  1  0.31185000  0.51785000  0.85388000  1.0 1.3185129059
H  H1  1  0.49690000  0.22160000  0.15980000  1.0 0.1334291081
H  H2  1  0.69830000  0.22540000  0.25160000  1.0 0.092106667
H  H3  1  0.76720000  0.18310000  0.36220000  1.0 0.1375788642
H  H4  1  0.64420000  0.14320000  0.38120000  1.0 0.1081735565
H  H5  1  0.89270000  0.88460000  0.41620000  1.0 0.1334291081
H  H6  1  0.92390000  0.97490000  0.38370000  1.0 0.1081735565
H  H7  1  0.84970000  0.05830000  0.40110000  1.0 0.1334291081
H  H8  1  0.73430000  0.04830000  0.43690000  1.0 0.1022679997
H  H9  1  0.50310000  0.72160000  0.34020000  1.0 0.1334291081
H  H10  1  0.30170000  0.72540000  0.24840000  1.0 0.092106667
H  H11  1  0.23280000  0.68310000  0.13780000  1.0 0.1375788642
H  H12  1  0.35580000  0.64320000  0.11880000  1.0 0.1081735565
H  H13  1  0.10730000  0.38460000  0.08380000  1.0 0.1334291081
H  H14  1  0.07610000  0.47490000  0.11630000  1.0 0.1081735565
H  H15  1  0.15030000  0.55830000  0.09890000  1.0 0.1334291081
H  H16  1  0.26570000  0.54830000  0.06310000  1.0 0.1022679997
H  H17  1  0.50310000  0.77840000  0.84020000  1.0 0.1334291081
H  H18  1  0.30170000  0.77460000  0.74840000  1.0 0.1022679997
H  H19  1  0.23280000  0.81690000  0.63780000  1.0 0.1375788642
H  H20  1  0.35580000  0.85680000  0.61880000  1.0 0.1081735565
H  H21  1  0.10730000  0.11540000  0.58380000  1.0 0.1334291081
H  H22  1  0.07610000  0.02510000  0.61630000  1.0 0.1081735565
H  H23  1  0.15030000  0.94170000  0.59890000  1.0 0.1334291081
H  H24  1  0.26570000  0.95170000  0.56310000  1.0 0.1022679997
H  H25  1  0.49690000  0.27840000  0.65980000  1.0 0.1334291081
H  H26  1  0.69830000  0.27460000  0.75160000  1.0 0.092106667
H  H27  1  0.76720000  0.31690000  0.86220000  1.0 0.1375788642
H  H28  1  0.64420000  0.35680000  0.88120000  1.0 0.1081735565
H  H29  1  0.89270000  0.61540000  0.91620000  1.0 0.1334291081
H  H30  1  0.92390000  0.52510000  0.88370000  1.0 0.1081735565
H  H31  1  0.84970000  0.44170000  0.90110000  1.0 0.1334291081
H  H32  1  0.73430000  0.45170000  0.93690000  1.0 0.1022679997
W  W1  1  0.30535000  0.81096000  0.36556000  1.0 2.4406421206
W  W2  1  0.44282000  0.88938000  0.29805000  1.0 2.379023889
W  W3  1  0.13794000  0.88365000  0.39498000  1.0 2.3989036275
W  W4  1  0.16269000  0.87389000  0.18587000  1.0 2.4171439601
W  W5  1  0.42348000  0.89955000  0.50877000  1.0 2.3411029173
W  W6  1  0.09550000  0.08019000  0.22092000  1.0 2.4774204207
W  W7  1  0.08776000  0.04269000  0.35639000  1.0 2.3747011615
W  W8  1  0.97455000  0.95374000  0.21787000  1.0 2.4693585031
W  W9  1  0.28534000  0.00105000  0.19230000  1.0 2.4406421206
W  W10  1  0.69465000  0.31096000  0.13444000  1.0 2.4406421206
W  W11  1  0.55718000  0.38938000  0.20195000  1.0 2.379023889
W  W12  1  0.86206000  0.38365000  0.10502000  1.0 2.4110998107
W  W13  1  0.83731000  0.37389000  0.31413000  1.0 2.4110998107
W  W14  1  0.57652000  0.39955000  0.99123000  1.0 2.3411029173
W  W15  1  0.90450000  0.58019000  0.27908000  1.0 2.4693585031
W  W16  1  0.91224000  0.54269000  0.14361000  1.0 2.3747011615
W  W17  1  0.02545000  0.45374000  0.28213000  1.0 2.4774204207
W  W18  1  0.71466000  0.50105000  0.30770000  1.0 2.4473546935
W  W19  1  0.69465000  0.18904000  0.63444000  1.0 2.4406421206
W  W20  1  0.55718000  0.11062000  0.70195000  1.0 2.379023889
W  W21  1  0.86206000  0.11635000  0.60502000  1.0 2.4110998107
W  W22  1  0.83731000  0.12611000  0.81413000  1.0 2.4171439601
W  W23  1  0.57652000  0.10045000  0.49123000  1.0 2.3411029173
W  W24  1  0.90450000  0.91981000  0.77908000  1.0 2.4774204207
W  W25  1  0.91224000  0.95731000  0.64361000  1.0 2.379023889
W  W26  1  0.02545000  0.04626000  0.78213000  1.0 2.4774204207
W  W27  1  0.71466000  0.99895000  0.80770000  1.0 2.4406421206
W  W28  1  0.30535000  0.68904000  0.86556000  1.0 2.4406421206
W  W29  1  0.44282000  0.61062000  0.79805000  1.0 2.379023889
W  W30  1  0.13794000  0.61635000  0.89498000  1.0 2.3989036275
W  W31  1  0.16269000  0.62611000  0.68587000  1.0 2.4171439601
W  W32  1  0.42348000  0.60045000  0.00877000  1.0 2.3411029173
W  W33  1  0.09550000  0.41981000  0.72092000  1.0 2.4774204207
W  W34  1  0.08776000  0.45731000  0.85639000  1.0 2.379023889
W  W35  1  0.97455000  0.54626000  0.71787000  1.0 2.4693585031
W  W36  1  0.28534000  0.49895000  0.69230000  1.0 2.4406421206
C  C1  1  0.33140000  0.17700000  0.16770000  1.0 0.5472172244
C  C2  1  0.46090000  0.18120000  0.22110000  1.0 0.0463663261
C  C3  1  0.52900000  0.20630000  0.20520000  1.0 -0.1436734604
C  C4  1  0.64920000  0.20840000  0.25960000  1.0 -0.0114514042
C  C5  1  0.68920000  0.18340000  0.32530000  1.0 -0.172316506
C  C6  1  0.61500000  0.15920000  0.33660000  1.0 0.084287074
C  C7  1  0.75960000  0.85840000  0.45750000  1.0 0.5707019461
C  C8  1  0.78980000  0.91540000  0.43830000  1.0 0.0571618048
C  C9  1  0.85940000  0.91860000  0.41820000  1.0 -0.172316506
C  C10  1  0.88080000  0.97190000  0.40080000  1.0 -0.0427305693
C  C11  1  0.83480000  0.02100000  0.41010000  1.0 -0.172316506
C  C12  1  0.76670000  0.01500000  0.43270000  1.0 0.1081735565
C  C13  1  0.66860000  0.67700000  0.33230000  1.0 0.5472172244
C  C14  1  0.53910000  0.68120000  0.27890000  1.0 0.0463663261
C  C15  1  0.47100000  0.70630000  0.29480000  1.0 -0.1436734604
C  C16  1  0.35080000  0.70840000  0.24040000  1.0 -0.0114514042
C  C17  1  0.31080000  0.68340000  0.17470000  1.0 -0.172316506
C  C18  1  0.38500000  0.65920000  0.16340000  1.0 0.092106667
C  C19  1  0.24040000  0.35840000  0.04250000  1.0 0.5707019461
C  C20  1  0.21020000  0.41540000  0.06170000  1.0 0.0571618048
C  C21  1  0.14060000  0.41860000  0.08180000  1.0 -0.172316506
C  C22  1  0.11920000  0.47190000  0.09920000  1.0 -0.0427305693
C  C23  1  0.16520000  0.52100000  0.08990000  1.0 -0.172316506
C  C24  1  0.23330000  0.51500000  0.06730000  1.0 0.1081735565
C  C25  1  0.66860000  0.82300000  0.83230000  1.0 0.5472172244
C  C26  1  0.53910000  0.81880000  0.77890000  1.0 0.0463663261
C  C27  1  0.47100000  0.79370000  0.79480000  1.0 -0.145097773
C  C28  1  0.35080000  0.79160000  0.74040000  1.0 -0.0114514042
C  C29  1  0.31080000  0.81660000  0.67470000  1.0 -0.172316506
C  C30  1  0.38500000  0.84080000  0.66340000  1.0 0.084287074
C  C31  1  0.24040000  0.14160000  0.54250000  1.0 0.5707019461
C  C32  1  0.21020000  0.08460000  0.56170000  1.0 0.0571618048
C  C33  1  0.14060000  0.08140000  0.58180000  1.0 -0.172316506
C  C34  1  0.11920000  0.02810000  0.59920000  1.0 -0.0427305693
C  C35  1  0.16520000  0.97900000  0.58990000  1.0 -0.172316506
C  C36  1  0.23330000  0.98500000  0.56730000  1.0 0.1081735565
C  C37  1  0.33140000  0.32300000  0.66770000  1.0 0.5472172244
C  C38  1  0.46090000  0.31880000  0.72110000  1.0 0.0463663261
C  C39  1  0.52900000  0.29370000  0.70520000  1.0 -0.145097773
C  C40  1  0.64920000  0.29160000  0.75960000  1.0 -0.0114514042
C  C41  1  0.68920000  0.31660000  0.82530000  1.0 -0.172316506
C  C42  1  0.61500000  0.34080000  0.83660000  1.0 0.084287074
C  C43  1  0.75960000  0.64160000  0.95750000  1.0 0.5707019461
C  C44  1  0.78980000  0.58460000  0.93830000  1.0 0.0571618048
C  C45  1  0.85940000  0.58140000  0.91820000  1.0 -0.172316506
C  C46  1  0.88080000  0.52810000  0.90080000  1.0 -0.0427305693
C  C47  1  0.83480000  0.47900000  0.91010000  1.0 -0.172316506
C  C48  1  0.76670000  0.48500000  0.93270000  1.0 0.1081735565
N  N1  1  0.50260000  0.15800000  0.28550000  1.0 -0.2795599954
N  N2  1  0.74700000  0.96390000  0.44800000  1.0 -0.2795599954
N  N3  1  0.49740000  0.65800000  0.21450000  1.0 -0.2795599954
N  N4  1  0.25300000  0.46390000  0.05200000  1.0 -0.2795599954
N  N5  1  0.49740000  0.84200000  0.71450000  1.0 -0.2795599954
N  N6  1  0.25300000  0.03610000  0.55200000  1.0 -0.2795599954
N  N7  1  0.50260000  0.34200000  0.78550000  1.0 -0.2795599954
N  N8  1  0.74700000  0.53610000  0.94800000  1.0 -0.2795599954
O  O1  1  0.36120000  0.21820000  0.31910000  1.0 -0.9930981405
O  O2  1  0.27880000  0.15760000  0.19070000  1.0 -0.5214082577
O  O3  1  0.12070000  0.96460000  0.40090000  1.0 -0.9207938519
O  O4  1  0.23800000  0.05940000  0.41990000  1.0 -0.8408405722
O  O5  1  0.39330000  0.97430000  0.51600000  1.0 -0.8408405722
O  O6  1  0.41280000  0.83810000  0.35280000  1.0 -0.9076567548
O  O7  1  0.51510000  0.93990000  0.37280000  1.0 -0.8408405722
O  O8  1  0.40420000  0.81910000  0.46570000  1.0 -1.0126325445
O  O9  1  0.27260000  0.87710000  0.48880000  1.0 -0.9076567548
O  O10  1  0.50990000  0.87580000  0.60010000  1.0 -0.790342448
O  O11  1  0.19160000  0.83190000  0.26540000  1.0 -0.9207938519
O  O12  1  0.29020000  0.90770000  0.39140000  1.0 -1.0210239199
O  O13  1  0.14560000  0.00140000  0.29400000  1.0 -1.029748969
O  O14  1  0.30970000  0.84780000  0.21600000  1.0 -0.889488511
O  O15  1  0.95170000  0.00030000  0.27620000  1.0 -0.9997820215
O  O16  1  0.52910000  0.91470000  0.49480000  1.0 -0.8157899784
O  O17  1  0.69210000  0.86160000  0.47320000  1.0 -0.5075889502
O  O18  1  0.17820000  0.81130000  0.37030000  1.0 -0.9800213979
O  O19  1  0.04600000  0.91780000  0.17930000  1.0 -0.9207938519
O  O20  1  0.15380000  0.03780000  0.17880000  1.0 -0.9397167215
O  O21  1  0.55110000  0.85160000  0.30460000  1.0 -0.7539469855
O  O22  1  0.17810000  0.93640000  0.13580000  1.0 -0.9397167215
O  O23  1  0.05420000  0.09990000  0.28490000  1.0 -0.9397167215
O  O24  1  0.40960000  0.94650000  0.22650000  1.0 -0.9397167215
O  O25  1  0.28640000  0.94010000  0.27010000  1.0 -1.029748969
O  O26  1  0.04020000  0.89670000  0.29040000  1.0 -0.9397167215
O  O27  1  0.96410000  0.02560000  0.17080000  1.0 -1.029748969
O  O28  1  0.23950000  0.10940000  0.29000000  1.0 -0.8667395072
O  O29  1  0.07520000  0.82530000  0.11450000  1.0 -0.790342448
O  O30  1  0.80770000  0.81280000  0.45840000  1.0 -0.5015055388
O  O31  1  0.37750000  0.05020000  0.26850000  1.0 -0.889488511
O  O32  1  0.28390000  0.19630000  0.10480000  1.0 -0.5075889502
O  O33  1  0.10260000  0.25450000  0.11350000  1.0 -0.2984595405
O  O34  1  0.93450000  0.86930000  0.95430000  1.0 -0.2204069155
O  O35  1  0.00430000  0.70120000  0.10560000  1.0 -0.5214082577
O  O36  1  0.83120000  0.81580000  0.05410000  1.0 -0.5015055388
O  O37  1  0.09880000  0.76040000  0.01760000  1.0 -0.0910373735
O  O38  1  0.63880000  0.71820000  0.18090000  1.0 -0.9997820215
O  O39  1  0.72120000  0.65760000  0.30930000  1.0 -0.5214082577
O  O40  1  0.87930000  0.46460000  0.09910000  1.0 -0.9207938519
O  O41  1  0.76200000  0.55940000  0.08010000  1.0 -0.8456294941
O  O42  1  0.60670000  0.47430000  0.98400000  1.0 -0.8408405722
O  O43  1  0.58720000  0.33810000  0.14720000  1.0 -0.9076567548
O  O44  1  0.48490000  0.43990000  0.12720000  1.0 -0.8408405722
O  O45  1  0.59580000  0.31910000  0.03430000  1.0 -1.0210239199
O  O46  1  0.72740000  0.37710000  0.01120000  1.0 -0.9076567548
O  O47  1  0.49010000  0.37580000  0.89990000  1.0 -0.790342448
O  O48  1  0.80840000  0.33190000  0.23460000  1.0 -0.9207938519
O  O49  1  0.70980000  0.40770000  0.10860000  1.0 -1.0210239199
O  O50  1  0.85440000  0.50140000  0.20600000  1.0 -1.0370309161
O  O51  1  0.69030000  0.34780000  0.28400000  1.0 -0.889488511
O  O52  1  0.04830000  0.50030000  0.22380000  1.0 -0.9997820215
O  O53  1  0.47090000  0.41470000  0.00520000  1.0 -0.8157899784
O  O54  1  0.30790000  0.36160000  0.02680000  1.0 -0.5075889502
O  O55  1  0.82180000  0.31130000  0.12970000  1.0 -0.9800213979
O  O56  1  0.95400000  0.41780000  0.32070000  1.0 -0.926495056
O  O57  1  0.84620000  0.53780000  0.32120000  1.0 -0.9397167215
O  O58  1  0.44890000  0.35160000  0.19540000  1.0 -0.7539469855
O  O59  1  0.82190000  0.43640000  0.36420000  1.0 -0.9450307893
O  O60  1  0.94580000  0.59990000  0.21510000  1.0 -0.9397167215
O  O61  1  0.59040000  0.44650000  0.27350000  1.0 -0.9397167215
O  O62  1  0.71360000  0.44010000  0.22990000  1.0 -1.029748969
O  O63  1  0.95980000  0.39670000  0.20960000  1.0 -0.9397167215
O  O64  1  0.03590000  0.52560000  0.32920000  1.0 -1.0210239199
O  O65  1  0.76050000  0.60940000  0.21000000  1.0 -0.8667395072
O  O66  1  0.92480000  0.32530000  0.38550000  1.0 -0.7840242194
O  O67  1  0.19230000  0.31280000  0.04160000  1.0 -0.5015055388
O  O68  1  0.62250000  0.55020000  0.23150000  1.0 -0.889488511
O  O69  1  0.71610000  0.69630000  0.39520000  1.0 -0.5015055388
O  O70  1  0.89740000  0.75450000  0.38650000  1.0 -0.2984595405
O  O71  1  0.06550000  0.36930000  0.54570000  1.0 -0.2456993269
O  O72  1  0.99570000  0.20120000  0.39440000  1.0 -0.5325919794
O  O73  1  0.16880000  0.31580000  0.44590000  1.0 -0.5015055388
O  O74  1  0.90120000  0.26040000  0.48240000  1.0 -0.0727333607
O  O75  1  0.63880000  0.78180000  0.68090000  1.0 -0.9930981405
O  O76  1  0.72120000  0.84240000  0.80930000  1.0 -0.5214082577
O  O77  1  0.87930000  0.03540000  0.59910000  1.0 -0.9207938519
O  O78  1  0.76200000  0.94060000  0.58010000  1.0 -0.8456294941
O  O79  1  0.60670000  0.02570000  0.48400000  1.0 -0.8408405722
O  O80  1  0.58720000  0.16190000  0.64720000  1.0 -0.9076567548
O  O81  1  0.48490000  0.06010000  0.62720000  1.0 -0.8408405722
O  O82  1  0.59580000  0.18090000  0.53430000  1.0 -1.0126325445
O  O83  1  0.72740000  0.12290000  0.51120000  1.0 -0.9076567548
O  O84  1  0.49010000  0.12420000  0.39990000  1.0 -0.790342448
O  O85  1  0.80840000  0.16810000  0.73460000  1.0 -0.9207938519
O  O86  1  0.70980000  0.09230000  0.60860000  1.0 -1.0210239199
O  O87  1  0.85440000  0.99860000  0.70600000  1.0 -1.029748969
O  O88  1  0.69030000  0.15220000  0.78400000  1.0 -0.8961874055
O  O89  1  0.04830000  0.99970000  0.72380000  1.0 -1.0126325445
O  O90  1  0.47090000  0.08530000  0.50520000  1.0 -0.8157899784
O  O91  1  0.30790000  0.13840000  0.52680000  1.0 -0.5075889502
O  O92  1  0.82180000  0.18870000  0.62970000  1.0 -0.9800213979
O  O93  1  0.95400000  0.08220000  0.82070000  1.0 -0.926495056
O  O94  1  0.84620000  0.96220000  0.82120000  1.0 -0.9397167215
O  O95  1  0.44890000  0.14840000  0.69540000  1.0 -0.7539469855
O  O96  1  0.82190000  0.06360000  0.86420000  1.0 -0.9397167215
O  O97  1  0.94580000  0.90010000  0.71510000  1.0 -0.9397167215
O  O98  1  0.59040000  0.05350000  0.77350000  1.0 -0.9397167215
O  O99  1  0.71360000  0.05990000  0.72990000  1.0 -1.029748969
O  O100  1  0.95980000  0.10330000  0.70960000  1.0 -0.9397167215
O  O101  1  0.03590000  0.97440000  0.82920000  1.0 -1.029748969
O  O102  1  0.76050000  0.89060000  0.71000000  1.0 -0.8667395072
O  O103  1  0.92480000  0.17470000  0.88550000  1.0 -0.790342448
O  O104  1  0.19230000  0.18720000  0.54160000  1.0 -0.5075889502
O  O105  1  0.62250000  0.94980000  0.73150000  1.0 -0.889488511
O  O106  1  0.71610000  0.80370000  0.89520000  1.0 -0.5075889502
O  O107  1  0.89740000  0.74550000  0.88650000  1.0 -0.2899901526
O  O108  1  0.06550000  0.13070000  0.04570000  1.0 -0.2204069155
O  O109  1  0.99570000  0.29880000  0.89440000  1.0 -0.5214082577
O  O110  1  0.16880000  0.18420000  0.94590000  1.0 -0.5015055388
O  O111  1  0.90120000  0.23960000  0.98240000  1.0 -0.0727333607
O  O112  1  0.36120000  0.28180000  0.81910000  1.0 -0.9930981405
O  O113  1  0.27880000  0.34240000  0.69070000  1.0 -0.5214082577
O  O114  1  0.12070000  0.53540000  0.90090000  1.0 -0.9207938519
O  O115  1  0.23800000  0.44060000  0.91990000  1.0 -0.8456294941
O  O116  1  0.39330000  0.52570000  0.01600000  1.0 -0.8408405722
O  O117  1  0.41280000  0.66190000  0.85280000  1.0 -0.9076567548
O  O118  1  0.51510000  0.56010000  0.87280000  1.0 -0.8408405722
O  O119  1  0.40420000  0.68090000  0.96570000  1.0 -1.0126325445
O  O120  1  0.27260000  0.62290000  0.98880000  1.0 -0.9076567548
O  O121  1  0.50990000  0.62420000  0.10010000  1.0 -0.790342448
O  O122  1  0.19160000  0.66810000  0.76540000  1.0 -0.9207938519
O  O123  1  0.29020000  0.59230000  0.89140000  1.0 -1.0210239199
O  O124  1  0.14560000  0.49860000  0.79400000  1.0 -1.029748969
O  O125  1  0.30970000  0.65220000  0.71600000  1.0 -0.8961874055
O  O126  1  0.95170000  0.49970000  0.77620000  1.0 -0.9997820215
O  O127  1  0.52910000  0.58530000  0.99480000  1.0 -0.8157899784
O  O128  1  0.69210000  0.63840000  0.97320000  1.0 -0.5075889502
O  O129  1  0.17820000  0.68870000  0.87030000  1.0 -0.9800213979
O  O130  1  0.04600000  0.58220000  0.67930000  1.0 -0.926495056
O  O131  1  0.15380000  0.46220000  0.67880000  1.0 -0.9397167215
O  O132  1  0.55110000  0.64840000  0.80460000  1.0 -0.7539469855
O  O133  1  0.17810000  0.56360000  0.63580000  1.0 -0.9397167215
O  O134  1  0.05420000  0.40010000  0.78490000  1.0 -0.9397167215
O  O135  1  0.40960000  0.55350000  0.72650000  1.0 -0.9397167215
O  O136  1  0.28640000  0.55990000  0.77010000  1.0 -1.029748969
O  O137  1  0.04020000  0.60330000  0.79040000  1.0 -0.9397167215
O  O138  1  0.96410000  0.47440000  0.67080000  1.0 -1.029748969
O  O139  1  0.23950000  0.39060000  0.79000000  1.0 -0.8667395072
O  O140  1  0.07520000  0.67470000  0.61450000  1.0 -0.790342448
O  O141  1  0.80770000  0.68720000  0.95840000  1.0 -0.5075889502
O  O142  1  0.37750000  0.44980000  0.76850000  1.0 -0.884798448
O  O143  1  0.28390000  0.30370000  0.60480000  1.0 -0.5075889502
O  O144  1  0.10260000  0.24550000  0.61350000  1.0 -0.2899901526
O  O145  1  0.93450000  0.63070000  0.45430000  1.0 -0.2123298453
O  O146  1  0.00430000  0.79880000  0.60560000  1.0 -0.5214082577
O  O147  1  0.83120000  0.68420000  0.55410000  1.0 -0.5015055388
O  O148  1  0.09880000  0.73960000  0.51760000  1.0 -0.0727333607
