# DDEC6 charges by PACMAN v1.1 (https://github.com/mtap-research/PACMAN-charge/)
data_JISZET_ASR_pacman
_symmetry_space_group_name_H-M   'P 1'
_cell_length_a   14.64800000
_cell_length_b   22.72190000
_cell_length_c   23.26690000
_cell_angle_alpha   90.00000000
_cell_angle_beta   127.31000000
_cell_angle_gamma   90.00000000
_symmetry_Int_Tables_number   1
_chemical_formula_structural   Na2Pr2Fe2SbH8W9C12N2O37
_chemical_formula_sum   'Na8 Pr8 Fe8 Sb4 H32 W36 C48 N8 O148'
_cell_volume   6159.27295917
_cell_formula_units_Z   4
loop_
 _symmetry_equiv_pos_site_id
 _symmetry_equiv_pos_as_xyz
  1  'x, y, z'
loop_
 _atom_site_type_symbol
 _atom_site_label
 _atom_site_symmetry_multiplicity
 _atom_site_fract_x
 _atom_site_fract_y
 _atom_site_fract_z
 _atom_site_occupancy
 _atom_site_charge
Na  Na1  1  0.55330000  0.75020000  0.56570000  1.0 0.9285705719
Na  Na2  1  0.69740000  0.80600000  0.27720000  1.0 0.8879548344
Na  Na3  1  0.44670000  0.25020000  0.93430000  1.0 0.9285705719
Na  Na4  1  0.30260000  0.30600000  0.22280000  1.0 0.8879548344
Na  Na5  1  0.44670000  0.24980000  0.43430000  1.0 0.9285705719
Na  Na6  1  0.30260000  0.19400000  0.72280000  1.0 0.8879548344
Na  Na7  1  0.55330000  0.74980000  0.06570000  1.0 0.9285705719
Na  Na8  1  0.69740000  0.69400000  0.77720000  1.0 0.8879548344
Pr  Pr1  1  0.92286000  0.77417000  0.00084000  1.0 0.5990423345
Pr  Pr2  1  0.88980000  0.78092000  0.01540000  1.0 0.3371875866
Pr  Pr3  1  0.07714000  0.27417000  0.49916000  1.0 0.5877328697
Pr  Pr4  1  0.11020000  0.28092000  0.48460000  1.0 0.3536756221
Pr  Pr5  1  0.07714000  0.22583000  0.99916000  1.0 0.5990423345
Pr  Pr6  1  0.11020000  0.21908000  0.98460000  1.0 0.3371875866
Pr  Pr7  1  0.92286000  0.72583000  0.50084000  1.0 0.5990423345
Pr  Pr8  1  0.88980000  0.71908000  0.51540000  1.0 0.3371875866
Fe  Fe1  1  0.63539000  0.94325000  0.47781000  1.0 1.2713530543
Fe  Fe2  1  0.62841000  0.87107000  0.70590000  1.0 1.2497137669
Fe  Fe3  1  0.36461000  0.44325000  0.02219000  1.0 1.2713530543
Fe  Fe4  1  0.37159000  0.37107000  0.79410000  1.0 1.2497137669
Fe  Fe5  1  0.36461000  0.05675000  0.52219000  1.0 1.2713530543
Fe  Fe6  1  0.37159000  0.12893000  0.29410000  1.0 1.2497137669
Fe  Fe7  1  0.63539000  0.55675000  0.97781000  1.0 1.2713530543
Fe  Fe8  1  0.62841000  0.62893000  0.20590000  1.0 1.2497137669
Sb  Sb1  1  0.31126000  0.98161000  0.35312000  1.0 1.3128766003
Sb  Sb2  1  0.68874000  0.48161000  0.14688000  1.0 1.3128766003
Sb  Sb3  1  0.68874000  0.01839000  0.64688000  1.0 1.3128766003
Sb  Sb4  1  0.31126000  0.51839000  0.85312000  1.0 1.3128766003
H  H1  1  0.74140000  0.04870000  0.44060000  1.0 0.1165481038
H  H2  1  0.88810000  0.88280000  0.41300000  1.0 0.1327289525
H  H3  1  0.84520000  0.05850000  0.39970000  1.0 0.1423115502
H  H4  1  0.92970000  0.97860000  0.38860000  1.0 0.109410483
H  H5  1  0.64000000  0.14170000  0.37870000  1.0 0.1043737154
H  H6  1  0.49180000  0.22070000  0.15680000  1.0 0.1423115502
H  H7  1  0.76860000  0.17820000  0.35870000  1.0 0.1423115502
H  H8  1  0.69280000  0.22240000  0.24760000  1.0 0.1043737154
H  H9  1  0.25860000  0.54870000  0.05940000  1.0 0.1165481038
H  H10  1  0.11190000  0.38280000  0.08700000  1.0 0.1327289525
H  H11  1  0.15480000  0.55850000  0.10030000  1.0 0.1423115502
H  H12  1  0.07030000  0.47860000  0.11140000  1.0 0.109410483
H  H13  1  0.36000000  0.64170000  0.12130000  1.0 0.1043737154
H  H14  1  0.50820000  0.72070000  0.34320000  1.0 0.1423115502
H  H15  1  0.23140000  0.67820000  0.14130000  1.0 0.1423115502
H  H16  1  0.30720000  0.72240000  0.25240000  1.0 0.1043737154
H  H17  1  0.25860000  0.95130000  0.55940000  1.0 0.1165481038
H  H18  1  0.11190000  0.11720000  0.58700000  1.0 0.1327289525
H  H19  1  0.15480000  0.94150000  0.60030000  1.0 0.1423115502
H  H20  1  0.07030000  0.02140000  0.61140000  1.0 0.109410483
H  H21  1  0.36000000  0.85830000  0.62130000  1.0 0.1043737154
H  H22  1  0.50820000  0.77930000  0.84320000  1.0 0.1423115502
H  H23  1  0.23140000  0.82180000  0.64130000  1.0 0.1423115502
H  H24  1  0.30720000  0.77760000  0.75240000  1.0 0.1043737154
H  H25  1  0.74140000  0.45130000  0.94060000  1.0 0.1165481038
H  H26  1  0.88810000  0.61720000  0.91300000  1.0 0.1327289525
H  H27  1  0.84520000  0.44150000  0.89970000  1.0 0.1423115502
H  H28  1  0.92970000  0.52140000  0.88860000  1.0 0.109410483
H  H29  1  0.64000000  0.35830000  0.87870000  1.0 0.1043737154
H  H30  1  0.49180000  0.27930000  0.65680000  1.0 0.1423115502
H  H31  1  0.76860000  0.32180000  0.85870000  1.0 0.1423115502
H  H32  1  0.69280000  0.27760000  0.74760000  1.0 0.1043737154
W  W1  1  0.30496000  0.81046000  0.36565000  1.0 2.4421131197
W  W2  1  0.44269000  0.88821000  0.29823000  1.0 2.370818514
W  W3  1  0.42373000  0.89972000  0.50910000  1.0 2.3311094823
W  W4  1  0.16135000  0.87274000  0.18471000  1.0 2.4475641432
W  W5  1  0.13727000  0.88348000  0.39409000  1.0 2.402891058
W  W6  1  0.28483000  0.99976000  0.19133000  1.0 2.4475641432
W  W7  1  0.97262000  0.95302000  0.21560000  1.0 2.4770211163
W  W8  1  0.09385000  0.07921000  0.21845000  1.0 2.4619194451
W  W9  1  0.08618000  0.04250000  0.35431000  1.0 2.3802648965
W  W10  1  0.69504000  0.31046000  0.13435000  1.0 2.4475641432
W  W11  1  0.55731000  0.38821000  0.20177000  1.0 2.370818514
W  W12  1  0.57627000  0.39972000  0.99090000  1.0 2.3311094823
W  W13  1  0.83865000  0.37274000  0.31529000  1.0 2.4421131197
W  W14  1  0.86273000  0.38348000  0.10591000  1.0 2.4056068841
W  W15  1  0.71517000  0.49976000  0.30867000  1.0 2.4475641432
W  W16  1  0.02738000  0.45302000  0.28440000  1.0 2.4770211163
W  W17  1  0.90615000  0.57921000  0.28155000  1.0 2.4619194451
W  W18  1  0.91382000  0.54250000  0.14569000  1.0 2.3802648965
W  W19  1  0.69504000  0.18954000  0.63435000  1.0 2.4421131197
W  W20  1  0.55731000  0.11179000  0.70177000  1.0 2.370818514
W  W21  1  0.57627000  0.10028000  0.49090000  1.0 2.3311094823
W  W22  1  0.83865000  0.12726000  0.81529000  1.0 2.4475641432
W  W23  1  0.86273000  0.11652000  0.60591000  1.0 2.402891058
W  W24  1  0.71517000  0.00024000  0.80867000  1.0 2.4475641432
W  W25  1  0.02738000  0.04698000  0.78440000  1.0 2.4770211163
W  W26  1  0.90615000  0.92079000  0.78155000  1.0 2.4619194451
W  W27  1  0.91382000  0.95750000  0.64569000  1.0 2.3863388482
W  W28  1  0.30496000  0.68954000  0.86565000  1.0 2.4421131197
W  W29  1  0.44269000  0.61179000  0.79823000  1.0 2.370818514
W  W30  1  0.42373000  0.60028000  0.00910000  1.0 2.3311094823
W  W31  1  0.16135000  0.62726000  0.68471000  1.0 2.4475641432
W  W32  1  0.13727000  0.61652000  0.89409000  1.0 2.402891058
W  W33  1  0.28483000  0.50024000  0.69133000  1.0 2.4475641432
W  W34  1  0.97262000  0.54698000  0.71560000  1.0 2.4770211163
W  W35  1  0.09385000  0.42079000  0.71845000  1.0 2.4619194451
W  W36  1  0.08618000  0.45750000  0.85431000  1.0 2.3802648965
C  C1  1  0.76340000  0.85760000  0.45960000  1.0 0.5877328697
C  C2  1  0.78960000  0.91470000  0.44000000  1.0 0.0679721791
C  C3  1  0.77090000  0.01510000  0.43450000  1.0 0.0859511267
C  C4  1  0.85840000  0.91690000  0.41800000  1.0 -0.1576384608
C  C5  1  0.83440000  0.02110000  0.41090000  1.0 -0.1576384608
C  C6  1  0.88300000  0.97430000  0.40290000  1.0 -0.0375888608
C  C7  1  0.32970000  0.17640000  0.16520000  1.0 0.5747319046
C  C8  1  0.46010000  0.17910000  0.21880000  1.0 0.0565166134
C  C9  1  0.61130000  0.15720000  0.33370000  1.0 0.1165481038
C  C10  1  0.52500000  0.20440000  0.20220000  1.0 -0.1401124191
C  C11  1  0.68970000  0.18010000  0.32260000  1.0 -0.1699416195
C  C12  1  0.64480000  0.20520000  0.25640000  1.0 0.006768263
C  C13  1  0.23660000  0.35760000  0.04040000  1.0 0.5877328697
C  C14  1  0.21040000  0.41470000  0.06000000  1.0 0.0679721791
C  C15  1  0.22910000  0.51510000  0.06550000  1.0 0.0859511267
C  C16  1  0.14160000  0.41690000  0.08200000  1.0 -0.1576384608
C  C17  1  0.16560000  0.52110000  0.08910000  1.0 -0.1576384608
C  C18  1  0.11700000  0.47430000  0.09710000  1.0 -0.0375888608
C  C19  1  0.67030000  0.67640000  0.33480000  1.0 0.5747319046
C  C20  1  0.53990000  0.67910000  0.28120000  1.0 0.0565166134
C  C21  1  0.38870000  0.65720000  0.16630000  1.0 0.1165481038
C  C22  1  0.47500000  0.70440000  0.29780000  1.0 -0.1401124191
C  C23  1  0.31030000  0.68010000  0.17740000  1.0 -0.1699416195
C  C24  1  0.35520000  0.70520000  0.24360000  1.0 0.006768263
C  C25  1  0.23660000  0.14240000  0.54040000  1.0 0.5877328697
C  C26  1  0.21040000  0.08530000  0.56000000  1.0 0.0679721791
C  C27  1  0.22910000  0.98490000  0.56550000  1.0 0.0859511267
C  C28  1  0.14160000  0.08310000  0.58200000  1.0 -0.1576384608
C  C29  1  0.16560000  0.97890000  0.58910000  1.0 -0.1576384608
C  C30  1  0.11700000  0.02570000  0.59710000  1.0 -0.0375888608
C  C31  1  0.67030000  0.82360000  0.83480000  1.0 0.5747319046
C  C32  1  0.53990000  0.82090000  0.78120000  1.0 0.0565166134
C  C33  1  0.38870000  0.84280000  0.66630000  1.0 0.1165481038
C  C34  1  0.47500000  0.79560000  0.79780000  1.0 -0.1401124191
C  C35  1  0.31030000  0.81990000  0.67740000  1.0 -0.1699416195
C  C36  1  0.35520000  0.79480000  0.74360000  1.0 0.006768263
C  C37  1  0.76340000  0.64240000  0.95960000  1.0 0.5877328697
C  C38  1  0.78960000  0.58530000  0.94000000  1.0 0.0679721791
C  C39  1  0.77090000  0.48490000  0.93450000  1.0 0.0859511267
C  C40  1  0.85840000  0.58310000  0.91800000  1.0 -0.1576384608
C  C41  1  0.83440000  0.47890000  0.91090000  1.0 -0.1576384608
C  C42  1  0.88300000  0.52570000  0.90290000  1.0 -0.0375888608
C  C43  1  0.32970000  0.32360000  0.66520000  1.0 0.5747319046
C  C44  1  0.46010000  0.32090000  0.71880000  1.0 0.0565166134
C  C45  1  0.61130000  0.34280000  0.83370000  1.0 0.1165481038
C  C46  1  0.52500000  0.29560000  0.70220000  1.0 -0.1401124191
C  C47  1  0.68970000  0.31990000  0.82260000  1.0 -0.1699416195
C  C48  1  0.64480000  0.29480000  0.75640000  1.0 0.006768263
N  N1  1  0.74830000  0.96300000  0.44940000  1.0 -0.2739299652
N  N2  1  0.50060000  0.15720000  0.28340000  1.0 -0.2902045962
N  N3  1  0.25170000  0.46300000  0.05060000  1.0 -0.2739299652
N  N4  1  0.49940000  0.65720000  0.21660000  1.0 -0.2902045962
N  N5  1  0.25170000  0.03700000  0.55060000  1.0 -0.2739299652
N  N6  1  0.49940000  0.84280000  0.71660000  1.0 -0.2902045962
N  N7  1  0.74830000  0.53700000  0.94940000  1.0 -0.2739299652
N  N8  1  0.50060000  0.34280000  0.78340000  1.0 -0.2902045962
O  O1  1  0.41290000  0.83710000  0.35340000  1.0 -0.8987353635
O  O2  1  0.40600000  0.81840000  0.46720000  1.0 -1.0193960981
O  O3  1  0.19060000  0.83060000  0.26430000  1.0 -0.9112296817
O  O4  1  0.29040000  0.90690000  0.39080000  1.0 -1.0128261623
O  O5  1  0.17740000  0.81070000  0.36940000  1.0 -0.9680009153
O  O6  1  0.51510000  0.93890000  0.37330000  1.0 -0.8400034638
O  O7  1  0.30990000  0.84570000  0.21570000  1.0 -0.8912241128
O  O8  1  0.55080000  0.85060000  0.30590000  1.0 -0.7278846916
O  O9  1  0.41030000  0.94550000  0.22700000  1.0 -0.9266510722
O  O10  1  0.28600000  0.93870000  0.26930000  1.0 -1.0193960981
O  O11  1  0.39240000  0.97450000  0.51590000  1.0 -0.8277910021
O  O12  1  0.27280000  0.87640000  0.48810000  1.0 -0.8987353635
O  O13  1  0.50930000  0.87680000  0.60030000  1.0 -0.77419005
O  O14  1  0.52960000  0.91440000  0.49560000  1.0 -0.8041358706
O  O15  1  0.04490000  0.91590000  0.17810000  1.0 -0.9112296817
O  O16  1  0.17680000  0.93510000  0.13420000  1.0 -0.9387948629
O  O17  1  0.07440000  0.82320000  0.11360000  1.0 -0.8277910021
O  O18  1  0.14340000  0.00050000  0.29230000  1.0 -1.0281226112
O  O19  1  0.11880000  0.96440000  0.39940000  1.0 -0.9112296817
O  O20  1  0.03870000  0.89620000  0.28950000  1.0 -0.9387948629
O  O21  1  0.69410000  0.86050000  0.47420000  1.0 -0.5056252894
O  O22  1  0.76260000  0.94060000  0.58130000  1.0 -0.8400034638
O  O23  1  0.15310000  0.03700000  0.17690000  1.0 -0.9201190141
O  O24  1  0.37690000  0.04930000  0.26850000  1.0 -0.8812894341
O  O25  1  0.95090000  0.99940000  0.27440000  1.0 -0.9916433907
O  O26  1  0.96250000  0.02530000  0.16820000  1.0 -1.0193960981
O  O27  1  0.93920000  0.86860000  0.95760000  1.0 -0.252783366
O  O28  1  0.01040000  0.70090000  0.10550000  1.0 -0.5678432402
O  O29  1  0.83360000  0.81340000  0.05440000  1.0 -0.6301323143
O  O30  1  0.10150000  0.75460000  0.01920000  1.0 -0.1170250442
O  O31  1  0.90000000  0.74480000  0.89110000  1.0 -0.4567775396
O  O32  1  0.80910000  0.68730000  0.96030000  1.0 -0.5213725385
O  O33  1  0.72050000  0.80320000  0.89770000  1.0 -0.5415439573
O  O34  1  0.05350000  0.09890000  0.28350000  1.0 -0.9201190141
O  O35  1  0.23600000  0.10750000  0.28690000  1.0 -0.8277910021
O  O36  1  0.36060000  0.21680000  0.31700000  1.0 -1.0281226112
O  O37  1  0.27650000  0.15620000  0.18840000  1.0 -0.5213725385
O  O38  1  0.58710000  0.33710000  0.14660000  1.0 -0.8987353635
O  O39  1  0.59400000  0.31840000  0.03280000  1.0 -1.0193960981
O  O40  1  0.80940000  0.33060000  0.23570000  1.0 -0.9112296817
O  O41  1  0.70960000  0.40690000  0.10920000  1.0 -1.0193960981
O  O42  1  0.82260000  0.31070000  0.13060000  1.0 -0.9680009153
O  O43  1  0.48490000  0.43890000  0.12670000  1.0 -0.8400034638
O  O44  1  0.69010000  0.34570000  0.28430000  1.0 -0.8912241128
O  O45  1  0.44920000  0.35060000  0.19410000  1.0 -0.7278846916
O  O46  1  0.58970000  0.44550000  0.27300000  1.0 -0.9266510722
O  O47  1  0.71400000  0.43870000  0.23070000  1.0 -1.0193960981
O  O48  1  0.60760000  0.47450000  0.98410000  1.0 -0.8277910021
O  O49  1  0.72720000  0.37640000  0.01190000  1.0 -0.8987353635
O  O50  1  0.49070000  0.37680000  0.89970000  1.0 -0.77419005
O  O51  1  0.47040000  0.41440000  0.00440000  1.0 -0.8041358706
O  O52  1  0.95510000  0.41590000  0.32190000  1.0 -0.9112296817
O  O53  1  0.82320000  0.43510000  0.36580000  1.0 -0.9387948629
O  O54  1  0.92560000  0.32320000  0.38640000  1.0 -0.8277910021
O  O55  1  0.85660000  0.50050000  0.20770000  1.0 -1.0193960981
O  O56  1  0.88120000  0.46440000  0.10060000  1.0 -0.9112296817
O  O57  1  0.96130000  0.39620000  0.21050000  1.0 -0.9387948629
O  O58  1  0.30590000  0.36050000  0.02580000  1.0 -0.5056252894
O  O59  1  0.23740000  0.44060000  0.91870000  1.0 -0.8454093751
O  O60  1  0.84690000  0.53700000  0.32310000  1.0 -0.9201190141
O  O61  1  0.62310000  0.54930000  0.23150000  1.0 -0.8812894341
O  O62  1  0.04910000  0.49940000  0.22560000  1.0 -0.9983309921
O  O63  1  0.03750000  0.52530000  0.33180000  1.0 -1.0128261623
O  O64  1  0.06080000  0.36860000  0.54240000  1.0 -0.252783366
O  O65  1  0.98960000  0.20090000  0.39450000  1.0 -0.5639775512
O  O66  1  0.16640000  0.31340000  0.44560000  1.0 -0.6301323143
O  O67  1  0.89850000  0.25460000  0.48080000  1.0 -0.1079811272
O  O68  1  0.10000000  0.24480000  0.60890000  1.0 -0.4567775396
O  O69  1  0.19090000  0.18730000  0.53970000  1.0 -0.5213725385
O  O70  1  0.27950000  0.30320000  0.60230000  1.0 -0.5415439573
O  O71  1  0.94650000  0.59890000  0.21650000  1.0 -0.9201190141
O  O72  1  0.76400000  0.60750000  0.21310000  1.0 -0.8277910021
O  O73  1  0.63940000  0.71680000  0.18300000  1.0 -1.0281226112
O  O74  1  0.72350000  0.65620000  0.31160000  1.0 -0.5213725385
O  O75  1  0.58710000  0.16290000  0.64660000  1.0 -0.8987353635
O  O76  1  0.59400000  0.18160000  0.53280000  1.0 -1.0193960981
O  O77  1  0.80940000  0.16940000  0.73570000  1.0 -0.9112296817
O  O78  1  0.70960000  0.09310000  0.60920000  1.0 -1.0128261623
O  O79  1  0.82260000  0.18930000  0.63060000  1.0 -0.9680009153
O  O80  1  0.48490000  0.06110000  0.62670000  1.0 -0.8400034638
O  O81  1  0.69010000  0.15430000  0.78430000  1.0 -0.8912241128
O  O82  1  0.44920000  0.14940000  0.69410000  1.0 -0.7278846916
O  O83  1  0.58970000  0.05450000  0.77300000  1.0 -0.9266510722
O  O84  1  0.71400000  0.06130000  0.73070000  1.0 -1.0193960981
O  O85  1  0.60760000  0.02550000  0.48410000  1.0 -0.8277910021
O  O86  1  0.72720000  0.12360000  0.51190000  1.0 -0.8987353635
O  O87  1  0.49070000  0.12320000  0.39970000  1.0 -0.77419005
O  O88  1  0.47040000  0.08560000  0.50440000  1.0 -0.8041358706
O  O89  1  0.95510000  0.08410000  0.82190000  1.0 -0.9112296817
O  O90  1  0.82320000  0.06490000  0.86580000  1.0 -0.9387948629
O  O91  1  0.92560000  0.17680000  0.88640000  1.0 -0.8277910021
O  O92  1  0.85660000  0.99950000  0.70770000  1.0 -1.0281226112
O  O93  1  0.88120000  0.03560000  0.60060000  1.0 -0.9112296817
O  O94  1  0.96130000  0.10380000  0.71050000  1.0 -0.9387948629
O  O95  1  0.30590000  0.13950000  0.52580000  1.0 -0.5056252894
O  O96  1  0.23740000  0.05940000  0.41870000  1.0 -0.8400034638
O  O97  1  0.84690000  0.96300000  0.82310000  1.0 -0.9201190141
O  O98  1  0.62310000  0.95070000  0.73150000  1.0 -0.8812894341
O  O99  1  0.04910000  0.00060000  0.72560000  1.0 -0.9916433907
O  O100  1  0.03750000  0.97470000  0.83180000  1.0 -1.0128261623
O  O101  1  0.06080000  0.13140000  0.04240000  1.0 -0.252783366
O  O102  1  0.98960000  0.29910000  0.89450000  1.0 -0.5639775512
O  O103  1  0.16640000  0.18660000  0.94560000  1.0 -0.6301323143
O  O104  1  0.89850000  0.24540000  0.98080000  1.0 -0.1079811272
O  O105  1  0.10000000  0.25520000  0.10890000  1.0 -0.4567775396
O  O106  1  0.19090000  0.31270000  0.03970000  1.0 -0.5213725385
O  O107  1  0.27950000  0.19680000  0.10230000  1.0 -0.5415439573
O  O108  1  0.94650000  0.90110000  0.71650000  1.0 -0.9201190141
O  O109  1  0.76400000  0.89250000  0.71310000  1.0 -0.8277910021
O  O110  1  0.63940000  0.78320000  0.68300000  1.0 -1.0281226112
O  O111  1  0.72350000  0.84380000  0.81160000  1.0 -0.5213725385
O  O112  1  0.41290000  0.66290000  0.85340000  1.0 -0.8987353635
O  O113  1  0.40600000  0.68160000  0.96720000  1.0 -1.0193960981
O  O114  1  0.19060000  0.66940000  0.76430000  1.0 -0.9112296817
O  O115  1  0.29040000  0.59310000  0.89080000  1.0 -1.0193960981
O  O116  1  0.17740000  0.68930000  0.86940000  1.0 -0.9680009153
O  O117  1  0.51510000  0.56110000  0.87330000  1.0 -0.8400034638
O  O118  1  0.30990000  0.65430000  0.71570000  1.0 -0.8912241128
O  O119  1  0.55080000  0.64940000  0.80590000  1.0 -0.7278846916
O  O120  1  0.41030000  0.55450000  0.72700000  1.0 -0.9266510722
O  O121  1  0.28600000  0.56130000  0.76930000  1.0 -1.0193960981
O  O122  1  0.39240000  0.52550000  0.01590000  1.0 -0.8277910021
O  O123  1  0.27280000  0.62360000  0.98810000  1.0 -0.8987353635
O  O124  1  0.50930000  0.62320000  0.10030000  1.0 -0.77419005
O  O125  1  0.52960000  0.58560000  0.99560000  1.0 -0.8041358706
O  O126  1  0.04490000  0.58410000  0.67810000  1.0 -0.9112296817
O  O127  1  0.17680000  0.56490000  0.63420000  1.0 -0.9387948629
O  O128  1  0.07440000  0.67680000  0.61360000  1.0 -0.8277910021
O  O129  1  0.14340000  0.49950000  0.79230000  1.0 -1.0281226112
O  O130  1  0.11880000  0.53560000  0.89940000  1.0 -0.9112296817
O  O131  1  0.03870000  0.60380000  0.78950000  1.0 -0.9387948629
O  O132  1  0.69410000  0.63950000  0.97420000  1.0 -0.5056252894
O  O133  1  0.76260000  0.55940000  0.08130000  1.0 -0.8400034638
O  O134  1  0.15310000  0.46300000  0.67690000  1.0 -0.9201190141
O  O135  1  0.37690000  0.45070000  0.76850000  1.0 -0.8812894341
O  O136  1  0.95090000  0.50060000  0.77440000  1.0 -0.9916433907
O  O137  1  0.96250000  0.47470000  0.66820000  1.0 -1.0128261623
O  O138  1  0.93920000  0.63140000  0.45760000  1.0 -0.252783366
O  O139  1  0.01040000  0.79910000  0.60550000  1.0 -0.5678432402
O  O140  1  0.83360000  0.68660000  0.55440000  1.0 -0.6301323143
O  O141  1  0.10150000  0.74540000  0.51920000  1.0 -0.1295293909
O  O142  1  0.90000000  0.75520000  0.39110000  1.0 -0.4567775396
O  O143  1  0.80910000  0.81270000  0.46030000  1.0 -0.5213725385
O  O144  1  0.72050000  0.69680000  0.39770000  1.0 -0.5415439573
O  O145  1  0.05350000  0.40110000  0.78350000  1.0 -0.9201190141
O  O146  1  0.23600000  0.39250000  0.78690000  1.0 -0.8277910021
O  O147  1  0.36060000  0.28320000  0.81700000  1.0 -1.0281226112
O  O148  1  0.27650000  0.34380000  0.68840000  1.0 -0.5213725385
