# DDEC6 charges by PACMAN v1.1 (https://github.com/mtap-research/PACMAN-charge/)
data_JISZUJ_FSR_pacman
_symmetry_space_group_name_H-M   'P 1'
_cell_length_a   14.74800000
_cell_length_b   22.72700000
_cell_length_c   23.34760000
_cell_angle_alpha   90.00000000
_cell_angle_beta   127.72400000
_cell_angle_gamma   90.00000000
_symmetry_Int_Tables_number   1
_chemical_formula_structural   Na2Eu2Fe2SbH8W9C12N2O43
_chemical_formula_sum   'Na8 Eu8 Fe8 Sb4 H32 W36 C48 N8 O172'
_cell_volume   6189.79147726
_cell_formula_units_Z   4
loop_
 _symmetry_equiv_pos_site_id
 _symmetry_equiv_pos_as_xyz
  1  'x, y, z'
loop_
 _atom_site_type_symbol
 _atom_site_label
 _atom_site_symmetry_multiplicity
 _atom_site_fract_x
 _atom_site_fract_y
 _atom_site_fract_z
 _atom_site_occupancy
 _atom_site_charge
Na  Na1  1  0.34160000  0.63960000  0.42910000  1.0 0.983915267
Na  Na2  1  0.30100000  0.30590000  0.21950000  1.0 0.8998706615
Na  Na3  1  0.65840000  0.13960000  0.07090000  1.0 0.983915267
Na  Na4  1  0.69900000  0.80590000  0.28050000  1.0 0.8998706615
Na  Na5  1  0.65840000  0.36040000  0.57090000  1.0 0.983915267
Na  Na6  1  0.69900000  0.69410000  0.78050000  1.0 0.8998706615
Na  Na7  1  0.34160000  0.86040000  0.92910000  1.0 0.992956338
Na  Na8  1  0.30100000  0.19410000  0.71950000  1.0 0.8998706615
Eu  Eu1  1  0.92661000  0.77165000  0.00081000  1.0 2.2083365496
Eu  Eu2  1  0.91050000  0.77660000  0.00390000  1.0 2.1772090173
Eu  Eu3  1  0.07339000  0.27165000  0.49919000  1.0 2.2083365496
Eu  Eu4  1  0.08950000  0.27660000  0.49610000  1.0 2.1699098326
Eu  Eu5  1  0.07339000  0.22835000  0.99919000  1.0 2.2046576715
Eu  Eu6  1  0.08950000  0.22340000  0.99610000  1.0 2.1649435735
Eu  Eu7  1  0.92661000  0.72835000  0.50081000  1.0 2.2083365496
Eu  Eu8  1  0.91050000  0.72340000  0.50390000  1.0 2.1699098326
Fe  Fe1  1  0.36920000  0.12836000  0.29225000  1.0 1.3019525683
Fe  Fe2  1  0.63495000  0.94254000  0.47842000  1.0 1.3924226738
Fe  Fe3  1  0.63080000  0.62836000  0.20775000  1.0 1.3019525683
Fe  Fe4  1  0.36505000  0.44254000  0.02158000  1.0 1.3924226738
Fe  Fe5  1  0.63080000  0.87164000  0.70775000  1.0 1.3019525683
Fe  Fe6  1  0.36505000  0.05746000  0.52158000  1.0 1.3924226738
Fe  Fe7  1  0.36920000  0.37164000  0.79225000  1.0 1.3019525683
Fe  Fe8  1  0.63495000  0.55746000  0.97842000  1.0 1.3924226738
Sb  Sb1  1  0.30989000  0.98110000  0.35235000  1.0 1.3687533911
Sb  Sb2  1  0.69011000  0.48110000  0.14765000  1.0 1.3687533911
Sb  Sb3  1  0.69011000  0.01890000  0.64765000  1.0 1.3687533911
Sb  Sb4  1  0.30989000  0.51890000  0.85235000  1.0 1.3649013019
H  H1  1  0.48190000  0.21450000  0.14900000  1.0 0.160177493
H  H2  1  0.68200000  0.21430000  0.23870000  1.0 0.1395464684
H  H3  1  0.76360000  0.18220000  0.35400000  1.0 0.1778867966
H  H4  1  0.64230000  0.13860000  0.37470000  1.0 0.1395464684
H  H5  1  0.89750000  0.88250000  0.42140000  1.0 0.1666954286
H  H6  1  0.93380000  0.97610000  0.39530000  1.0 0.1395464684
H  H7  1  0.84650000  0.05700000  0.40030000  1.0 0.160177493
H  H8  1  0.73750000  0.04790000  0.43990000  1.0 0.1395464684
H  H9  1  0.51810000  0.71450000  0.35100000  1.0 0.160177493
H  H10  1  0.31800000  0.71430000  0.26130000  1.0 0.1395464684
H  H11  1  0.23640000  0.68220000  0.14600000  1.0 0.1778867966
H  H12  1  0.35770000  0.63860000  0.12530000  1.0 0.1395464684
H  H13  1  0.10250000  0.38250000  0.07860000  1.0 0.1666954286
H  H14  1  0.06620000  0.47610000  0.10470000  1.0 0.1395464684
H  H15  1  0.15350000  0.55700000  0.09970000  1.0 0.160177493
H  H16  1  0.26250000  0.54790000  0.06010000  1.0 0.1395464684
H  H17  1  0.51810000  0.78550000  0.85100000  1.0 0.160177493
H  H18  1  0.31800000  0.78570000  0.76130000  1.0 0.1395464684
H  H19  1  0.23640000  0.81780000  0.64600000  1.0 0.1778867966
H  H20  1  0.35770000  0.86140000  0.62530000  1.0 0.1395464684
H  H21  1  0.10250000  0.11750000  0.57860000  1.0 0.1666954286
H  H22  1  0.06620000  0.02390000  0.60470000  1.0 0.1395464684
H  H23  1  0.15350000  0.94300000  0.59970000  1.0 0.160177493
H  H24  1  0.26250000  0.95210000  0.56010000  1.0 0.1395464684
H  H25  1  0.48190000  0.28550000  0.64900000  1.0 0.160177493
H  H26  1  0.68200000  0.28570000  0.73870000  1.0 0.1395464684
H  H27  1  0.76360000  0.31780000  0.85400000  1.0 0.1778867966
H  H28  1  0.64230000  0.36140000  0.87470000  1.0 0.1395464684
H  H29  1  0.89750000  0.61750000  0.92140000  1.0 0.1666954286
H  H30  1  0.93380000  0.52390000  0.89530000  1.0 0.1395464684
H  H31  1  0.84650000  0.44300000  0.90030000  1.0 0.160177493
H  H32  1  0.73750000  0.45210000  0.93990000  1.0 0.1395464684
W  W1  1  0.30448000  0.80943000  0.36615000  1.0 2.4283854342
W  W2  1  0.44129000  0.88656000  0.29816000  1.0 2.3976850487
W  W3  1  0.13678000  0.88296000  0.39374000  1.0 2.4283854342
W  W4  1  0.15910000  0.87121000  0.18372000  1.0 2.4707381106
W  W5  1  0.42389000  0.89955000  0.50965000  1.0 2.3929995275
W  W6  1  0.09173000  0.07874000  0.21634000  1.0 2.3185212589
W  W7  1  0.08475000  0.04255000  0.35275000  1.0 2.3976850487
W  W8  1  0.97054000  0.95225000  0.21373000  1.0 2.3810288485
W  W9  1  0.28300000  0.99846000  0.19036000  1.0 2.4067311661
W  W10  1  0.69552000  0.30943000  0.13385000  1.0 2.4283854342
W  W11  1  0.55871000  0.38656000  0.20184000  1.0 2.3976850487
W  W12  1  0.86322000  0.38296000  0.10626000  1.0 2.4283854342
W  W13  1  0.84090000  0.37121000  0.31628000  1.0 2.4707381106
W  W14  1  0.57611000  0.39955000  0.99035000  1.0 2.3929995275
W  W15  1  0.90827000  0.57874000  0.28366000  1.0 2.3185212589
W  W16  1  0.91525000  0.54255000  0.14725000  1.0 2.3976850487
W  W17  1  0.02946000  0.45225000  0.28627000  1.0 2.367450831
W  W18  1  0.71700000  0.49846000  0.30964000  1.0 2.3976850487
W  W19  1  0.69552000  0.19057000  0.63385000  1.0 2.4283854342
W  W20  1  0.55871000  0.11344000  0.70184000  1.0 2.3929995275
W  W21  1  0.86322000  0.11704000  0.60626000  1.0 2.4283854342
W  W22  1  0.84090000  0.12879000  0.81628000  1.0 2.4707381106
W  W23  1  0.57611000  0.10045000  0.49035000  1.0 2.3929995275
W  W24  1  0.90827000  0.92126000  0.78366000  1.0 2.3185212589
W  W25  1  0.91525000  0.95745000  0.64725000  1.0 2.3929995275
W  W26  1  0.02946000  0.04775000  0.78627000  1.0 2.3810288485
W  W27  1  0.71700000  0.00154000  0.80964000  1.0 2.4067311661
W  W28  1  0.30448000  0.69057000  0.86615000  1.0 2.4283854342
W  W29  1  0.44129000  0.61344000  0.79816000  1.0 2.3929995275
W  W30  1  0.13678000  0.61704000  0.89374000  1.0 2.4283854342
W  W31  1  0.15910000  0.62879000  0.68372000  1.0 2.4707381106
W  W32  1  0.42389000  0.60045000  0.00965000  1.0 2.3929995275
W  W33  1  0.09173000  0.42126000  0.71634000  1.0 2.3185212589
W  W34  1  0.08475000  0.45745000  0.85275000  1.0 2.3976850487
W  W35  1  0.97054000  0.54775000  0.71373000  1.0 2.3810288485
W  W36  1  0.28300000  0.50154000  0.69036000  1.0 2.4067311661
C  C1  1  0.32170000  0.17660000  0.16150000  1.0 0.6179223633
C  C2  1  0.45220000  0.17710000  0.21400000  1.0 0.0833105831
C  C3  1  0.51540000  0.19980000  0.19520000  1.0 -0.1060349773
C  C4  1  0.63530000  0.20000000  0.24980000  1.0 0.0243596511
C  C5  1  0.68490000  0.18010000  0.31770000  1.0 -0.1060349773
C  C6  1  0.61090000  0.15600000  0.33010000  1.0 0.1105620428
C  C7  1  0.76090000  0.85730000  0.46000000  1.0 0.6422117776
C  C8  1  0.79310000  0.91280000  0.44200000  1.0 0.0833105831
C  C9  1  0.86390000  0.91610000  0.42370000  1.0 -0.1023035475
C  C10  1  0.88570000  0.97220000  0.40820000  1.0 -0.0087986863
C  C11  1  0.83560000  0.02020000  0.41250000  1.0 -0.1191373155
C  C12  1  0.76850000  0.01450000  0.43480000  1.0 0.1335955351
C  C13  1  0.67830000  0.67660000  0.33850000  1.0 0.6179223633
C  C14  1  0.54780000  0.67710000  0.28600000  1.0 0.0833105831
C  C15  1  0.48460000  0.69980000  0.30480000  1.0 -0.1060349773
C  C16  1  0.36470000  0.70000000  0.25020000  1.0 0.0257133073
C  C17  1  0.31510000  0.68010000  0.18230000  1.0 -0.1060349773
C  C18  1  0.38910000  0.65600000  0.16990000  1.0 0.1105620428
C  C19  1  0.23910000  0.35730000  0.04000000  1.0 0.6422117776
C  C20  1  0.20690000  0.41280000  0.05800000  1.0 0.0833105831
C  C21  1  0.13610000  0.41610000  0.07630000  1.0 -0.1023035475
C  C22  1  0.11430000  0.47220000  0.09180000  1.0 -0.0087986863
C  C23  1  0.16440000  0.52020000  0.08750000  1.0 -0.1191373155
C  C24  1  0.23150000  0.51450000  0.06520000  1.0 0.1335955351
C  C25  1  0.67830000  0.82340000  0.83850000  1.0 0.6179223633
C  C26  1  0.54780000  0.82290000  0.78600000  1.0 0.0833105831
C  C27  1  0.48460000  0.80020000  0.80480000  1.0 -0.1060349773
C  C28  1  0.36470000  0.80000000  0.75020000  1.0 0.0243596511
C  C29  1  0.31510000  0.81990000  0.68230000  1.0 -0.1060349773
C  C30  1  0.38910000  0.84400000  0.66990000  1.0 0.1105620428
C  C31  1  0.23910000  0.14270000  0.54000000  1.0 0.6422117776
C  C32  1  0.20690000  0.08720000  0.55800000  1.0 0.0833105831
C  C33  1  0.13610000  0.08390000  0.57630000  1.0 -0.1023035475
C  C34  1  0.11430000  0.02780000  0.59180000  1.0 -0.0087986863
C  C35  1  0.16440000  0.97980000  0.58750000  1.0 -0.1191373155
C  C36  1  0.23150000  0.98550000  0.56520000  1.0 0.1335955351
C  C37  1  0.32170000  0.32340000  0.66150000  1.0 0.6179223633
C  C38  1  0.45220000  0.32290000  0.71400000  1.0 0.0833105831
C  C39  1  0.51540000  0.30020000  0.69520000  1.0 -0.1060349773
C  C40  1  0.63530000  0.30000000  0.74980000  1.0 0.0243596511
C  C41  1  0.68490000  0.31990000  0.81770000  1.0 -0.1023035475
C  C42  1  0.61090000  0.34400000  0.83010000  1.0 0.1105620428
C  C43  1  0.76090000  0.64270000  0.96000000  1.0 0.6422117776
C  C44  1  0.79310000  0.58720000  0.94200000  1.0 0.0833105831
C  C45  1  0.86390000  0.58390000  0.92370000  1.0 -0.1023035475
C  C46  1  0.88570000  0.52780000  0.90820000  1.0 -0.0087986863
C  C47  1  0.83560000  0.47980000  0.91250000  1.0 -0.1191373155
C  C48  1  0.76850000  0.48550000  0.93480000  1.0 0.1335955351
N  N1  1  0.49430000  0.15730000  0.27930000  1.0 -0.2634326938
N  N2  1  0.74750000  0.96210000  0.44890000  1.0 -0.2430189424
N  N3  1  0.50570000  0.65730000  0.22070000  1.0 -0.2651090645
N  N4  1  0.25250000  0.46210000  0.05110000  1.0 -0.2430189424
N  N5  1  0.50570000  0.84270000  0.72070000  1.0 -0.2634326938
N  N6  1  0.25250000  0.03790000  0.55110000  1.0 -0.2430189424
N  N7  1  0.49430000  0.34270000  0.77930000  1.0 -0.2634326938
N  N8  1  0.74750000  0.53790000  0.94890000  1.0 -0.2430189424
O  O1  1  0.35740000  0.21760000  0.31560000  1.0 -0.4850903773
O  O2  1  0.94080000  0.86810000  0.96150000  1.0 -0.6959536099
O  O3  1  0.01250000  0.70080000  0.10260000  1.0 -0.7186937951
O  O4  1  0.89840000  0.74220000  0.89150000  1.0 -0.8293557654
O  O5  1  0.83270000  0.81100000  0.05200000  1.0 -1.0957195782
O  O6  1  0.10370000  0.74590000  0.02480000  1.0 -0.6898751163
O  O7  1  0.82960000  0.92570000  0.15090000  1.0 -0.6480377936
O  O8  1  0.27070000  0.15600000  0.18610000  1.0 -0.4775490113
O  O9  1  0.11810000  0.96510000  0.39830000  1.0 -0.8706720197
O  O10  1  0.23590000  0.06100000  0.41750000  1.0 -0.8187884248
O  O11  1  0.39280000  0.97560000  0.51590000  1.0 -0.8293557654
O  O12  1  0.41320000  0.83620000  0.35400000  1.0 -0.8706720197
O  O13  1  0.51590000  0.93770000  0.37340000  1.0 -0.8187884248
O  O14  1  0.40430000  0.81710000  0.46800000  1.0 -0.8706720197
O  O15  1  0.27200000  0.87700000  0.48880000  1.0 -0.8582185053
O  O16  1  0.51040000  0.87800000  0.60180000  1.0 -0.7369803363
O  O17  1  0.19010000  0.82940000  0.26420000  1.0 -0.8582185053
O  O18  1  0.28840000  0.90640000  0.39000000  1.0 -1.000622394
O  O19  1  0.14220000  0.99990000  0.29110000  1.0 -0.9784257316
O  O20  1  0.30600000  0.84480000  0.21530000  1.0 -0.8526217365
O  O21  1  0.95020000  0.99990000  0.27380000  1.0 -0.8917813325
O  O22  1  0.52860000  0.91480000  0.49580000  1.0 -0.7978046485
O  O23  1  0.02320000  0.07940000  0.38660000  1.0 -0.5999542796
O  O24  1  0.69310000  0.85990000  0.47470000  1.0 -0.470132085
O  O25  1  0.17670000  0.80930000  0.36950000  1.0 -0.8706720197
O  O26  1  0.04360000  0.91490000  0.17650000  1.0 -0.8293557654
O  O27  1  0.14930000  0.03570000  0.17480000  1.0 -0.8582185053
O  O28  1  0.55020000  0.84940000  0.30620000  1.0 -0.6898751163
O  O29  1  0.17440000  0.93320000  0.13320000  1.0 -0.8582185053
O  O30  1  0.27790000  0.03110000  0.12100000  1.0 -0.5875839018
O  O31  1  0.04150000  0.85270000  0.40490000  1.0 -0.557260918
O  O32  1  0.31280000  0.73490000  0.36210000  1.0 -0.708585354
O  O33  1  0.04950000  0.09830000  0.28080000  1.0 -0.8582185053
O  O34  1  0.40860000  0.94360000  0.22560000  1.0 -0.8806211733
O  O35  1  0.28370000  0.93710000  0.26970000  1.0 -0.9926575446
O  O36  1  0.03760000  0.89490000  0.28760000  1.0 -0.8806211733
O  O37  1  0.02190000  0.13530000  0.15730000  1.0 -0.4775490113
O  O38  1  0.96160000  0.02380000  0.16680000  1.0 -0.9092161083
O  O39  1  0.23710000  0.10770000  0.28600000  1.0 -0.8127943897
O  O40  1  0.07400000  0.82150000  0.11090000  1.0 -0.9784257316
O  O41  1  0.81050000  0.80870000  0.46240000  1.0 -0.7978046485
O  O42  1  0.37630000  0.04760000  0.26830000  1.0 -0.8398663027
O  O43  1  0.27090000  0.19580000  0.09800000  1.0 -0.7532794499
O  O44  1  0.64260000  0.71760000  0.18440000  1.0 -0.4850903773
O  O45  1  0.05920000  0.36810000  0.53850000  1.0 -0.6898751163
O  O46  1  0.98750000  0.20080000  0.39740000  1.0 -0.7186937951
O  O47  1  0.10160000  0.24220000  0.60850000  1.0 -0.8398663027
O  O48  1  0.16730000  0.31100000  0.44800000  1.0 -1.0918641114
O  O49  1  0.89630000  0.24590000  0.47520000  1.0 -0.6791290068
O  O50  1  0.17040000  0.42570000  0.34910000  1.0 -0.641628526
O  O51  1  0.72930000  0.65600000  0.31390000  1.0 -0.4775490113
O  O52  1  0.88190000  0.46510000  0.10170000  1.0 -0.8706720197
O  O53  1  0.76410000  0.56100000  0.08250000  1.0 -0.8187884248
O  O54  1  0.60720000  0.47560000  0.98410000  1.0 -0.8293557654
O  O55  1  0.58680000  0.33620000  0.14600000  1.0 -0.8706720197
O  O56  1  0.48410000  0.43770000  0.12660000  1.0 -0.8187884248
O  O57  1  0.59570000  0.31710000  0.03200000  1.0 -0.8706720197
O  O58  1  0.72800000  0.37700000  0.01120000  1.0 -0.8582185053
O  O59  1  0.48960000  0.37800000  0.89820000  1.0 -0.7369803363
O  O60  1  0.80990000  0.32940000  0.23580000  1.0 -0.8582185053
O  O61  1  0.71160000  0.40640000  0.11000000  1.0 -1.000622394
O  O62  1  0.85780000  0.49990000  0.20890000  1.0 -0.9784257316
O  O63  1  0.69400000  0.34480000  0.28470000  1.0 -0.8526217365
O  O64  1  0.04980000  0.49990000  0.22620000  1.0 -0.8917813325
O  O65  1  0.47140000  0.41480000  0.00420000  1.0 -0.7978046485
O  O66  1  0.97680000  0.57940000  0.11340000  1.0 -0.5999542796
O  O67  1  0.30690000  0.35990000  0.02530000  1.0 -0.470132085
O  O68  1  0.82330000  0.30930000  0.13050000  1.0 -0.8806211733
O  O69  1  0.95640000  0.41490000  0.32350000  1.0 -0.8293557654
O  O70  1  0.85070000  0.53570000  0.32520000  1.0 -0.8582185053
O  O71  1  0.44980000  0.34940000  0.19380000  1.0 -0.6959536099
O  O72  1  0.82560000  0.43320000  0.36680000  1.0 -0.8582185053
O  O73  1  0.72210000  0.53110000  0.37900000  1.0 -0.5875839018
O  O74  1  0.95850000  0.35270000  0.09510000  1.0 -0.557260918
O  O75  1  0.68720000  0.23490000  0.13790000  1.0 -0.708585354
O  O76  1  0.95050000  0.59830000  0.21920000  1.0 -0.8582185053
O  O77  1  0.59140000  0.44360000  0.27440000  1.0 -0.8806211733
O  O78  1  0.71630000  0.43710000  0.23030000  1.0 -0.9926575446
O  O79  1  0.96240000  0.39490000  0.21240000  1.0 -0.8806211733
O  O80  1  0.97810000  0.63530000  0.34270000  1.0 -0.470132085
O  O81  1  0.03840000  0.52380000  0.33320000  1.0 -0.9092161083
O  O82  1  0.76290000  0.60770000  0.21400000  1.0 -0.8127943897
O  O83  1  0.92600000  0.32150000  0.38910000  1.0 -0.9733403547
O  O84  1  0.18950000  0.30870000  0.03760000  1.0 -0.7978046485
O  O85  1  0.62370000  0.54760000  0.23170000  1.0 -0.8398663027
O  O86  1  0.72910000  0.69580000  0.40200000  1.0 -0.7588608884
O  O87  1  0.64260000  0.78240000  0.68440000  1.0 -0.4775490113
O  O88  1  0.05920000  0.13190000  0.03850000  1.0 -0.6898751163
O  O89  1  0.98750000  0.29920000  0.89740000  1.0 -0.7288891398
O  O90  1  0.10160000  0.25780000  0.10850000  1.0 -0.8187884248
O  O91  1  0.16730000  0.18900000  0.94800000  1.0 -1.1133922362
O  O92  1  0.89630000  0.25410000  0.97520000  1.0 -0.6959536099
O  O93  1  0.17040000  0.07430000  0.84910000  1.0 -0.641628526
O  O94  1  0.72930000  0.84400000  0.81390000  1.0 -0.4775490113
O  O95  1  0.88190000  0.03490000  0.60170000  1.0 -0.8706720197
O  O96  1  0.76410000  0.93900000  0.58250000  1.0 -0.8187884248
O  O97  1  0.60720000  0.02440000  0.48410000  1.0 -0.8293557654
O  O98  1  0.58680000  0.16380000  0.64600000  1.0 -0.8706720197
O  O99  1  0.48410000  0.06230000  0.62660000  1.0 -0.8187884248
O  O100  1  0.59570000  0.18290000  0.53200000  1.0 -0.8706720197
O  O101  1  0.72800000  0.12300000  0.51120000  1.0 -0.8582185053
O  O102  1  0.48960000  0.12200000  0.39820000  1.0 -0.7369803363
O  O103  1  0.80990000  0.17060000  0.73580000  1.0 -0.8582185053
O  O104  1  0.71160000  0.09360000  0.61000000  1.0 -1.000622394
O  O105  1  0.85780000  0.00010000  0.70890000  1.0 -0.9784257316
O  O106  1  0.69400000  0.15520000  0.78470000  1.0 -0.8526217365
O  O107  1  0.04980000  0.00010000  0.72620000  1.0 -0.8917813325
O  O108  1  0.47140000  0.08520000  0.50420000  1.0 -0.7978046485
O  O109  1  0.97680000  0.92060000  0.61340000  1.0 -0.5999542796
O  O110  1  0.30690000  0.14010000  0.52530000  1.0 -0.470132085
O  O111  1  0.82330000  0.19070000  0.63050000  1.0 -0.8706720197
O  O112  1  0.95640000  0.08510000  0.82350000  1.0 -0.8293557654
O  O113  1  0.85070000  0.96430000  0.82520000  1.0 -0.8582185053
O  O114  1  0.44980000  0.15060000  0.69380000  1.0 -0.6959536099
O  O115  1  0.82560000  0.06680000  0.86680000  1.0 -0.8582185053
O  O116  1  0.72210000  0.96890000  0.87900000  1.0 -0.5875839018
O  O117  1  0.95850000  0.14730000  0.59510000  1.0 -0.557260918
O  O118  1  0.68720000  0.26510000  0.63790000  1.0 -0.708585354
O  O119  1  0.95050000  0.90170000  0.71920000  1.0 -0.8582185053
O  O120  1  0.59140000  0.05640000  0.77440000  1.0 -0.8806211733
O  O121  1  0.71630000  0.06290000  0.73030000  1.0 -0.9926575446
O  O122  1  0.96240000  0.10510000  0.71240000  1.0 -0.8806211733
O  O123  1  0.97810000  0.86470000  0.84270000  1.0 -0.470132085
O  O124  1  0.03840000  0.97620000  0.83320000  1.0 -0.9092161083
O  O125  1  0.76290000  0.89230000  0.71400000  1.0 -0.8127943897
O  O126  1  0.92600000  0.17850000  0.88910000  1.0 -0.9733403547
O  O127  1  0.18950000  0.19130000  0.53760000  1.0 -0.7978046485
O  O128  1  0.62370000  0.95240000  0.73170000  1.0 -0.8398663027
O  O129  1  0.72910000  0.80420000  0.90200000  1.0 -0.7588608884
O  O130  1  0.35740000  0.28240000  0.81560000  1.0 -0.4775490113
O  O131  1  0.94080000  0.63190000  0.46150000  1.0 -0.6898751163
O  O132  1  0.01250000  0.79920000  0.60260000  1.0 -0.7288891398
O  O133  1  0.89840000  0.75780000  0.39150000  1.0 -0.8398663027
O  O134  1  0.83270000  0.68900000  0.55200000  1.0 -1.1133922362
O  O135  1  0.10370000  0.75410000  0.52480000  1.0 -0.6791290068
O  O136  1  0.82960000  0.57430000  0.65090000  1.0 -0.641628526
O  O137  1  0.27070000  0.34400000  0.68610000  1.0 -0.4775490113
O  O138  1  0.11810000  0.53490000  0.89830000  1.0 -0.8706720197
O  O139  1  0.23590000  0.43900000  0.91750000  1.0 -0.8187884248
O  O140  1  0.39280000  0.52440000  0.01590000  1.0 -0.8293557654
O  O141  1  0.41320000  0.66380000  0.85400000  1.0 -0.8706720197
O  O142  1  0.51590000  0.56230000  0.87340000  1.0 -0.8187884248
O  O143  1  0.40430000  0.68290000  0.96800000  1.0 -0.8706720197
O  O144  1  0.27200000  0.62300000  0.98880000  1.0 -0.8582185053
O  O145  1  0.51040000  0.62200000  0.10180000  1.0 -0.7369803363
O  O146  1  0.19010000  0.67060000  0.76420000  1.0 -0.8582185053
O  O147  1  0.28840000  0.59360000  0.89000000  1.0 -1.000622394
O  O148  1  0.14220000  0.50010000  0.79110000  1.0 -0.9784257316
O  O149  1  0.30600000  0.65520000  0.71530000  1.0 -0.8526217365
O  O150  1  0.95020000  0.50010000  0.77380000  1.0 -0.8917813325
O  O151  1  0.52860000  0.58520000  0.99580000  1.0 -0.7978046485
O  O152  1  0.02320000  0.42060000  0.88660000  1.0 -0.5999542796
O  O153  1  0.69310000  0.64010000  0.97470000  1.0 -0.470132085
O  O154  1  0.17670000  0.69070000  0.86950000  1.0 -0.8806211733
O  O155  1  0.04360000  0.58510000  0.67650000  1.0 -0.8293557654
O  O156  1  0.14930000  0.46430000  0.67480000  1.0 -0.8582185053
O  O157  1  0.55020000  0.65060000  0.80620000  1.0 -0.6959536099
O  O158  1  0.17440000  0.56680000  0.63320000  1.0 -0.8582185053
O  O159  1  0.27790000  0.46890000  0.62100000  1.0 -0.5875839018
O  O160  1  0.04150000  0.64730000  0.90490000  1.0 -0.557260918
O  O161  1  0.31280000  0.76510000  0.86210000  1.0 -0.708585354
O  O162  1  0.04950000  0.40170000  0.78080000  1.0 -0.8582185053
O  O163  1  0.40860000  0.55640000  0.72560000  1.0 -0.8806211733
O  O164  1  0.28370000  0.56290000  0.76970000  1.0 -0.9926575446
O  O165  1  0.03760000  0.60510000  0.78760000  1.0 -0.8806211733
O  O166  1  0.02190000  0.36470000  0.65730000  1.0 -0.4775490113
O  O167  1  0.96160000  0.47620000  0.66680000  1.0 -0.9092161083
O  O168  1  0.23710000  0.39230000  0.78600000  1.0 -0.8127943897
O  O169  1  0.07400000  0.67850000  0.61090000  1.0 -0.9733403547
O  O170  1  0.81050000  0.69130000  0.96240000  1.0 -0.7978046485
O  O171  1  0.37630000  0.45240000  0.76830000  1.0 -0.8398663027
O  O172  1  0.27090000  0.30420000  0.59800000  1.0 -0.7588608884
