# DDEC6 charges by PACMAN v1.1 (https://github.com/mtap-research/PACMAN-charge/)
data_JITBAS_ASR_pacman
_chemical_formula_sum              "Gd2 W39 Sb4 Fe6 O191 N8 C48 H32 Na8"
_cell_length_a       14.6091
_cell_length_b       22.022
_cell_length_c       24.811
_cell_angle_alpha    108.615
_cell_angle_beta     93.746
_cell_angle_gamma    106.895

_symmetry_space_group_name_H-M    "P 1"
_symmetry_Int_Tables_number       1

loop_
  _symmetry_equiv_pos_as_xyz
  'x, y, z'

loop_
  _atom_site_type_symbol
  _atom_site_label
  _atom_site_symmetry_multiplicity
  _atom_site_fract_x
  _atom_site_fract_y
  _atom_site_fract_z
  _atom_site_occupancy
 _atom_site_charge
Gd  Gd1       1.0  0.72968  0.10625  0.11514  1.0000 1.956745193
W   W1        1.0  0.09082  0.38104  0.61060  1.0000 2.3497969763
W   W2        1.0  0.86133  0.34112  0.62898  1.0000 2.3165419555
W   W3        1.0  0.14788  0.33363  0.46324  1.0000 2.390278345
W   W4        1.0  0.97070  0.24281  0.34982  1.0000 2.3551028228
W   W5        1.0  0.96233  0.22062  0.58913  1.0000 2.4066415286
W   W6        1.0  0.02765  0.17154  0.44185  1.0000 2.2247660613
W   W7        1.0  0.65978  0.24493  0.42313  1.0000 1.099874661
W   W8        1.0  0.14860  0.50036  0.54013  1.0000 1.2075126029
Sb  Sb1       1.0  0.90337  0.31673  0.48495  1.0000 1.3268328166
Fe  Fe1       1.0  0.81470  0.34044  0.34449  1.0000 1.237758205
Fe  Fe2       1.0  0.72410  0.40912  0.54705  1.0000 1.230657146
O   O1        1.0  0.69400  0.36230  0.31670  1.0000 -0.2578483366
O   O2        1.0  0.62000  0.43430  0.51750  1.0000 -0.3186841452
O   O3        1.0  0.74600  0.11100  0.21710  1.0000 -0.3186841452
O   O4        1.0  0.64900  0.99250  0.12010  1.0000 -0.5034731173
O   O5        1.0  0.89640  0.12860  0.16580  1.0000 -0.0827101612
O   O6        1.0  0.80600  0.02560  0.06040  1.0000 -0.4137857997
O   O7        1.0  0.66000  0.17760  0.08090  1.0000 -0.0472072111
O   O8        1.0  0.84030  0.15650  0.05850  1.0000 -0.128292252
O   O9        1.0  0.61700  0.03730  0.02200  1.0000 -0.4291474813
O   O10       1.0  0.56460  0.10580  0.13840  1.0000 -0.3872176253
O   O11       1.0  0.94680  0.30720  0.55850  1.0000 -0.9500498318
O   O12       1.0  0.06800  0.44120  0.57780  1.0000 -0.7818895483
O   O13       1.0  0.85680  0.42630  0.40800  1.0000 -0.6291793529
O   O14       1.0  0.92670  0.31230  0.36420  1.0000 -0.7993640049
O   O15       1.0  0.10690  0.40860  0.47540  1.0000 -0.7915392661
O   O16       1.0  0.10450  0.29790  0.38130  1.0000 -0.8399876082
O   O17       1.0  0.79420  0.22420  0.17640  1.0000 -0.5668459677
O   O18       1.0  0.99270  0.39430  0.65770  1.0000 -0.8196512454
O   O19       1.0  0.84410  0.18480  0.34630  1.0000 -0.7283290767
O   O20       1.0  0.84020  0.39300  0.58890  1.0000 -0.7818895483
O   O21       1.0  0.89300  0.26280  0.64130  1.0000 -0.8502551659
O   O22       1.0  0.98730  0.26480  0.44500  1.0000 -0.9500498318
O   O23       1.0  0.07420  0.29890  0.62590  1.0000 -0.8196512454
O   O24       1.0  0.77560  0.26030  0.26680  1.0000 -0.4909055227
O   O25       1.0  0.02400  0.19890  0.52300  1.0000 -0.8864545518
O   O26       1.0  0.13990  0.34280  0.54230  1.0000 -0.8714639687
O   O27       1.0  0.01600  0.17140  0.36350  1.0000 -0.9058986449
O   O28       1.0  0.81590  0.46270  0.51750  1.0000 -0.6888778353
O   O29       1.0  0.14400  0.24220  0.45750  1.0000 -0.859906037
O   O30       1.0  0.83920  0.16860  0.54240  1.0000 -0.6822568619
O   O31       1.0  0.88860  0.12590  0.42780  1.0000 -0.6673273587
O   O32       1.0  0.79020  0.23010  0.46120  1.0000 -0.6822568619
O   O33       1.0  0.81590  0.36150  0.68930  1.0000 -0.5608915084
O   O34       1.0  0.69590  0.32330  0.49170  1.0000 -0.5608915084
O   O35       1.0  0.73780  0.28560  0.38240  1.0000 -0.4704213086
O   O36       1.0  0.06600  0.09880  0.42720  1.0000 -0.7283290767
O   O37       1.0  0.27320  0.37050  0.46360  1.0000 -0.6888778353
O   O38       1.0  0.74900  0.26550  0.57820  1.0000 -0.6613324626
O   O39       1.0  0.19500  0.43260  0.65950  1.0000 -0.6096966767
O   O40       1.0  0.97250  0.22010  0.27780  1.0000 -0.5608915084
O   O41       1.0  0.98790  0.16460  0.62280  1.0000 -0.7818895483
O   O42       1.0  0.25430  0.49850  0.56460  1.0000 -0.5108740472
O   O43       1.0  0.54000  0.23020  0.39140  1.0000 -0.6516903781
O   O44       1.0  0.70020  0.18960  0.37208  1.0000 1.140083716
O   O45       1.0  0.59810  0.38610  0.68610  1.0000 -0.5985347601
O   O46       1.0  0.63200  0.37880  0.59560  1.0000 -0.5179611587
N   N1        1.0  0.89370  0.37870  0.28470  1.0000 -0.240378111
N   N2        1.0  0.76300  0.49750  0.63150  1.0000 -0.2008964413
C   C1        1.0  0.95430  0.44430  0.29800  1.0000 0.1141729287
H   H1        1.0  0.95740  0.47700  0.33340  1.0000 0.121278292
C   C2        1.0  0.01090  0.46190  0.25920  1.0000 -0.1114495837
H   H2        1.0  0.05530  0.50540  0.26930  1.0000 0.1493548654
C   C3        1.0  0.00000  0.41560  0.20740  1.0000 -0.0472072111
H   H3        1.0  0.03890  0.42660  0.18120  1.0000 0.1493548654
C   C4        1.0  0.93600  0.35410  0.19250  1.0000 -0.0915930581
H   H4        1.0  0.92830  0.32270  0.15570  1.0000 0.1587167322
C   C5        1.0  0.87900  0.33600  0.23300  1.0000 0.121278292
C   C6        1.0  0.80900  0.26960  0.22340  1.0000 0.5785454369
C   C7        1.0  0.81700  0.55920  0.64500  1.0000 0.1045164621
H   H5        1.0  0.84580  0.57220  0.61630  1.0000 0.1410109209
C   C8        1.0  0.83400  0.60400  0.69520  1.0000 -0.128292252
H   H6        1.0  0.88200  0.64570  0.70460  1.0000 0.1493548654
C   C9        1.0  0.77700  0.58700  0.73810  1.0000 -0.0203627621
H   H7        1.0  0.78210  0.61930  0.77420  1.0000 0.1493548654
C   C10       1.0  0.71900  0.52600  0.72290  1.0000 -0.1114495837
H   H8        1.0  0.68350  0.51120  0.74860  1.0000 0.1587167322
C   C11       1.0  0.71200  0.48500  0.67080  1.0000 0.0492504078
C   C12       1.0  0.64000  0.41900  0.64580  1.0000 0.5710542059
O   O47       1.0  0.28260  0.82458  0.48176  1.0000 2.104419992
O   O48       1.0  0.22610  0.87102  0.61387  1.0000 2.2778418517
O   O49       1.0  0.34022  0.75507  0.57687  1.0000 2.1564305282
Na  Na1       1.0  0.95030  0.11980  0.70360  1.0000 0.0295829053
Na  Na2       1.0  0.37980  0.15270  0.35740  1.0000 1.0117676711
Na  Na3       1.0  0.51410  0.36100  0.75010  1.0000 0.8875849403
W   W9        1.0  0.46750  0.44428  0.16350  1.0000 2.369497285
W   W10       1.0  0.57188  0.32781  0.10853  1.0000 2.369497285
W   W11       1.0  0.23179  0.43208  0.08947  1.0000 2.390278345
W   W12       1.0  0.36649  0.28621  0.15970  1.0000 2.390278345
W   W13       1.0  0.13486  0.31427  0.96016  1.0000 2.3800923086
W   W14       1.0  0.13294  0.27046  0.07671  1.0000 2.431974218
W   W15       1.0  0.18367  0.15555  0.94864  1.0000 2.3165419555
W   W16       1.0  0.38796  0.16393  0.02468  1.0000 2.2966924167
W   W17       1.0  0.39555  0.19668  0.90094  1.0000 2.2932722426
W   W18       1.0  0.45671  0.54160  0.07006  1.0000 2.482262776
W   W19       1.0  0.31483  0.32433  0.85959  1.0000 2.2471369959
Sb  Sb2       1.0  0.37762  0.33464  0.01674  1.0000 1.3199497915
Fe  Fe3       1.0  0.37150  0.66405  0.02863  1.0000 1.2817193723
O   O50       1.0  0.32550  0.68420  0.10650  1.0000 -0.2750982487
O   O51       1.0  0.49360  0.47630  0.10260  1.0000 -0.8714639687
O   O52       1.0  0.33880  0.23190  0.98500  1.0000 -0.9681843364
O   O53       1.0  0.33600  0.43850  0.14400  1.0000 -0.859906037
O   O54       1.0  0.41090  0.59450  0.04190  1.0000 -0.7394223952
O   O55       1.0  0.42250  0.33880  0.09590  1.0000 -0.980381205
O   O56       1.0  0.15160  0.22480  0.93190  1.0000 -0.8812907679
O   O57       1.0  0.57850  0.41430  0.16300  1.0000 -0.8502551659
O   O58       1.0  0.20090  0.50320  0.12590  1.0000 -0.6516903781
O   O59       1.0  0.34740  0.26100  0.87910  1.0000 -0.7993640049
O   O60       1.0  0.41350  0.39880  0.90090  1.0000 -0.7705722694
O   O61       1.0  0.59060  0.35660  0.04820  1.0000 -0.8196512454
O   O62       1.0  0.49720  0.28970  0.16140  1.0000 -0.859906037
O   O63       1.0  0.14300  0.39830  0.01490  1.0000 -0.8399876082
O   O64       1.0  0.41700  0.10100  0.04000  1.0000 -0.5901988589
O   O65       1.0  0.24750  0.33170  0.03540  1.0000 -0.980381205
O   O66       1.0  0.34170  0.20420  0.09180  1.0000 -0.8812907679
O   O67       1.0  0.42630  0.15140  0.95120  1.0000 -0.8502551659
O   O68       1.0  0.05740  0.27220  0.01160  1.0000 -0.8714639687
O   O69       1.0  0.50720  0.51640  0.22240  1.0000 -0.5985347601
O   O70       1.0  0.15560  0.19480  0.02670  1.0000 -0.8714639687
O   O71       1.0  0.16400  0.73380  0.96800  1.0000 -0.3818314441
O   O72       1.0  0.42780  0.58870  0.14900  1.0000 -0.8502551659
O   O73       1.0  0.25350  0.14320  0.88990  1.0000 -0.8304366314
O   O74       1.0  0.33100  0.47100  0.05170  1.0000 -0.8864545518
O   O75       1.0  0.03860  0.30290  0.91080  1.0000 -0.6096966767
O   O76       1.0  0.24060  0.28530  0.13280  1.0000 -0.859906037
O   O77       1.0  0.30400  0.72820  0.01070  1.0000 -0.5179611587
O   O78       1.0  0.14460  0.36580  0.11340  1.0000 -0.8502551659
O   O79       1.0  0.08090  0.08730  0.91960  1.0000 -0.6171256446
O   O80       1.0  0.25530  0.11430  0.98850  1.0000 -0.859906037
O   O81       1.0  0.33720  0.25350  0.21420  1.0000 -0.6613324626
O   O82       1.0  0.68160  0.32360  0.13170  1.0000 -0.5985347601
O   O83       1.0  0.23980  0.34280  0.92880  1.0000 -0.8304366314
O   O84       1.0  0.50900  0.26260  0.93720  1.0000 -0.7705722694
O   O85       1.0  0.50670  0.23480  0.05340  1.0000 -0.8399876082
O   O86       1.0  0.41860  0.15410  0.83820  1.0000 -0.550583511
O   O87       1.0  0.41240  0.37940  0.20150  1.0000 -0.8399876082
O   O88       1.0  0.17750  0.25400  0.81280  1.0000 -0.5327887082
O   O89       1.0  0.03790  0.23430  0.10790  1.0000 -0.6171256446
O   O90       1.0  0.35600  0.30930  0.78890  1.0000 -0.8990753038
O   O91       1.0  0.04400  0.23420  0.75500  1.0000 -0.3818314441
N   N3        1.0  0.23200  0.38160  0.83390  1.0000 -0.3186841452
N   N4        1.0  0.22550  0.59570  0.98790  1.0000 -0.240378111
C   C13       1.0  0.26050  0.45230  0.84750  1.0000 0.0608797167
H   H9        1.0  0.31920  0.47940  0.87200  1.0000 0.1493548654
C   C14       1.0  0.20900  0.48060  0.82750  1.0000 -0.1041080461
H   H10       1.0  0.23220  0.52740  0.83720  1.0000 0.1493548654
C   C15       1.0  0.11800  0.44330  0.79120  1.0000 0.0354092873
H   H11       1.0  0.08170  0.46450  0.77650  1.0000 0.121278292
C   C16       1.0  0.08390  0.37020  0.77780  1.0000 -0.0717034632
H   H12       1.0  0.02420  0.34220  0.75480  1.0000 0.1587167322
C   C17       1.0  0.14120  0.34730  0.79970  1.0000 0.0295829053
C   C18       1.0  0.12100  0.27700  0.78600  1.0000 0.5307665027
C   C19       1.0  0.19090  0.53090  0.98010  1.0000 0.1410109209
H   H13       1.0  0.22970  0.50900  0.99180  1.0000 0.1319010711
C   C20       1.0  0.09280  0.49520  0.95320  1.0000 -0.0915930581
H   H14       1.0  0.06800  0.44890  0.94620  1.0000 0.1410109209
C   C21       1.0  0.02900  0.52900  0.93580  1.0000 -0.0472072111
H   H15       1.0  0.96450  0.50530  0.91740  1.0000 0.1493548654
C   C22       1.0  0.06800  0.59500  0.94810  1.0000 -0.1170017787
H   H16       1.0  0.02880  0.61920  0.94120  1.0000 0.1587167322
C   C23       1.0  0.16600  0.62930  0.97100  1.0000 0.06757645
C   C24       1.0  0.21200  0.70250  0.98500  1.0000 0.5307665027
O   O92       1.0  0.35600  0.25400  0.69500  1.0000 1.6200459457
O   O93       1.0  0.96600  0.02510  0.75220  1.0000 0.2516203828
O   O94       1.0  0.37500  0.36200  0.68000  1.0000 -0.4704213086
Na  Na4       1.0  0.98980  0.11180  0.69000  1.0000 0.1665479994
W   W20       1.0  0.09570  0.49908  0.52624  1.0000 1.2664704777
Gd  Gd2       1.0  0.27032  0.89375  0.88486  1.0000 1.9347283101
W   W21       1.0  0.90918  0.61896  0.38940  1.0000 2.3497969763
W   W22       1.0  0.13867  0.65888  0.37102  1.0000 2.2932722426
W   W23       1.0  0.85212  0.66637  0.53676  1.0000 2.390278345
W   W24       1.0  0.02930  0.75719  0.65018  1.0000 2.3497969763
W   W25       1.0  0.03767  0.77938  0.41087  1.0000 2.4387758232
W   W26       1.0  0.97235  0.82846  0.55815  1.0000 2.3442616916
W   W27       1.0  0.85140  0.49964  0.45987  1.0000 1.199596808
Sb  Sb3       1.0  0.09663  0.68327  0.51505  1.0000 1.2075126029
Fe  Fe4       1.0  0.18530  0.65956  0.65551  1.0000 1.2517468191
Fe  Fe5       1.0  0.27590  0.59088  0.45295  1.0000 1.2601097083
O   O95       1.0  0.30600  0.63770  0.68330  1.0000 -0.2265077078
O   O96       1.0  0.38000  0.56570  0.48250  1.0000 -0.355473026
O   O97       1.0  0.25400  0.88900  0.78290  1.0000 -0.1375401833
O   O98       1.0  0.35100  0.00750  0.87990  1.0000 -0.4909055227
O   O99       1.0  0.10360  0.87140  0.83420  1.0000 -0.0143397202
O   O100      1.0  0.19400  0.97440  0.93960  1.0000 -0.4291474813
O   O101      1.0  0.34000  0.82240  0.91910  1.0000 -0.0379629427
O   O102      1.0  0.15970  0.84350  0.94150  1.0000 -0.1375401833
O   O103      1.0  0.38300  0.96270  0.97800  1.0000 -0.4376815104
O   O104      1.0  0.43540  0.89420  0.86160  1.0000 -0.3702253544
O   O105      1.0  0.05320  0.69280  0.44150  1.0000 -0.9500498318
O   O106      1.0  0.93200  0.55880  0.42220  1.0000 -0.7818895483
O   O107      1.0  0.14320  0.57370  0.59200  1.0000 -0.6291793529
O   O108      1.0  0.07330  0.68770  0.63580  1.0000 -0.7818895483
O   O109      1.0  0.89310  0.59140  0.52460  1.0000 -0.7915392661
O   O110      1.0  0.89550  0.70210  0.61870  1.0000 -0.8399876082
O   O111      1.0  0.20580  0.77580  0.82360  1.0000 -0.5783084177
O   O112      1.0  0.00730  0.60570  0.34230  1.0000 -0.8148036146
O   O113      1.0  0.15590  0.81520  0.65370  1.0000 -0.8399876082
O   O114      1.0  0.15980  0.60700  0.41110  1.0000 -0.7705722694
O   O115      1.0  0.10700  0.73720  0.35870  1.0000 -0.859906037
O   O116      1.0  0.01270  0.73520  0.55500  1.0000 -0.943135693
O   O117      1.0  0.92580  0.70110  0.37410  1.0000 -0.8304366314
O   O118      1.0  0.22440  0.73970  0.73320  1.0000 -0.4704213086
O   O119      1.0  0.97600  0.80110  0.47700  1.0000 -0.859906037
O   O120      1.0  0.86010  0.65720  0.45770  1.0000 -0.8714639687
O   O121      1.0  0.98400  0.82860  0.63650  1.0000 -0.8990753038
O   O122      1.0  0.18410  0.53730  0.48250  1.0000 -0.7025977516
O   O123      1.0  0.85600  0.75780  0.54250  1.0000 -0.8812907679
O   O124      1.0  0.16080  0.83140  0.45760  1.0000 -0.7394223952
O   O125      1.0  0.11140  0.87410  0.57220  1.0000 -0.859906037
O   O126      1.0  0.20980  0.76990  0.53880  1.0000 -0.9320175194
O   O127      1.0  0.18410  0.63850  0.31070  1.0000 -0.550583511
O   O128      1.0  0.30410  0.67670  0.50830  1.0000 -0.6291793529
O   O129      1.0  0.26220  0.71440  0.61760  1.0000 -0.6096966767
O   O130      1.0  0.93400  0.90120  0.57280  1.0000 -0.7191906118
O   O131      1.0  0.72680  0.62950  0.53640  1.0000 -0.6888778353
O   O132      1.0  0.25100  0.73450  0.42180  1.0000 -0.7283290767
O   O133      1.0  0.80500  0.56740  0.34050  1.0000 -0.5985347601
O   O134      1.0  0.02750  0.77990  0.72220  1.0000 -0.5608915084
O   O135      1.0  0.01210  0.83540  0.37720  1.0000 -0.7705722694
O   O136      1.0  0.74570  0.50150  0.43540  1.0000 -0.5108740472
O   O137      1.0  0.46000  0.76980  0.60860  1.0000 -0.8864545518
O   O138      1.0  0.34950  0.76240  0.49440  1.0000 -0.5442999744
O   O139      1.0  0.24340  0.88170  0.53760  1.0000 -0.6516903781
O   O140      1.0  0.29980  0.81040  0.62792  1.0000 -0.5668459677
O   O141      1.0  0.40190  0.61390  0.31390  1.0000 -0.5985347601
O   O142      1.0  0.36800  0.62120  0.40440  1.0000 -0.5108740472
O   O143      1.0  0.34600  0.88020  0.45410  1.0000 -0.5783084177
O   O144      1.0  0.26000  0.95170  0.66630  1.0000 -0.7052734637
N   N5        1.0  0.10630  0.62130  0.71530  1.0000 -0.2578483366
N   N6        1.0  0.23700  0.50250  0.36850  1.0000 -0.2071839714
C   C25       1.0  0.04570  0.55570  0.70200  1.0000 0.121278292
H   H17       1.0  0.04260  0.52300  0.66660  1.0000 0.121278292
C   C26       1.0  0.98910  0.53810  0.74080  1.0000 -0.1114495837
H   H18       1.0  0.94470  0.49460  0.73070  1.0000 0.1587167322
C   C27       1.0  0.00000  0.58440  0.79260  1.0000 -0.0472072111
H   H19       1.0  0.96110  0.57340  0.81880  1.0000 0.1493548654
C   C28       1.0  0.06400  0.64590  0.80750  1.0000 -0.0915930581
H   H20       1.0  0.07170  0.67730  0.84430  1.0000 0.1587167322
C   C29       1.0  0.12100  0.66400  0.76700  1.0000 0.121278292
C   C30       1.0  0.19100  0.73040  0.77660  1.0000 0.5710542059
C   C31       1.0  0.18300  0.44080  0.35500  1.0000 0.1045164621
H   H21       1.0  0.15420  0.42780  0.38370  1.0000 0.1410109209
C   C32       1.0  0.16600  0.39600  0.30480  1.0000 -0.128292252
H   H22       1.0  0.11800  0.35430  0.29540  1.0000 0.1493548654
C   C33       1.0  0.22300  0.41300  0.26190  1.0000 -0.0203627621
H   H23       1.0  0.21790  0.38070  0.22580  1.0000 0.1493548654
C   C34       1.0  0.28100  0.47400  0.27710  1.0000 -0.1114495837
H   H24       1.0  0.31650  0.48880  0.25140  1.0000 0.1493548654
C   C35       1.0  0.28800  0.51500  0.32920  1.0000 0.0492504078
C   C36       1.0  0.36000  0.58100  0.35420  1.0000 0.5710542059
Na  Na5       1.0  0.04970  0.88020  0.29640  1.0000 0.0608797167
Na  Na6       1.0  0.62020  0.84730  0.64260  1.0000 1.0557388521
Na  Na7       1.0  0.48590  0.63900  0.24990  1.0000 0.8875849403
W   W28       1.0  0.53250  0.55572  0.83650  1.0000 2.369497285
W   W29       1.0  0.42812  0.67219  0.89147  1.0000 2.369497285
W   W30       1.0  0.76821  0.56792  0.91053  1.0000 2.390278345
W   W31       1.0  0.63351  0.71379  0.84030  1.0000 2.390278345
W   W32       1.0  0.86514  0.68573  0.03984  1.0000 2.3800923086
W   W33       1.0  0.86706  0.72954  0.92329  1.0000 2.431974218
W   W34       1.0  0.81633  0.84445  0.05136  1.0000 2.2932722426
W   W35       1.0  0.61204  0.83607  0.97532  1.0000 2.2966924167
W   W36       1.0  0.60445  0.80332  0.09906  1.0000 2.2932722426
W   W37       1.0  0.54329  0.45840  0.92994  1.0000 2.482262776
W   W38       1.0  0.68517  0.67567  0.14041  1.0000 2.2471369959
Sb  Sb4       1.0  0.62238  0.66536  0.98326  1.0000 1.3199497915
Fe  Fe6       1.0  0.62850  0.33595  0.97137  1.0000 1.2859259105
O   O145      1.0  0.67450  0.31580  0.89350  1.0000 -0.2670872056
O   O146      1.0  0.50640  0.52370  0.89740  1.0000 -0.8714639687
O   O147      1.0  0.66120  0.76810  0.01500  1.0000 -0.9681843364
O   O148      1.0  0.66400  0.56150  0.85600  1.0000 -0.859906037
O   O149      1.0  0.58910  0.40550  0.95810  1.0000 -0.7394223952
O   O150      1.0  0.57750  0.66120  0.90410  1.0000 -0.980381205
O   O151      1.0  0.84840  0.77520  0.06810  1.0000 -0.8812907679
O   O152      1.0  0.42150  0.58570  0.83700  1.0000 -0.8502551659
O   O153      1.0  0.79910  0.49680  0.87410  1.0000 -0.6516903781
O   O154      1.0  0.65260  0.73900  0.12090  1.0000 -0.7993640049
O   O155      1.0  0.58650  0.60120  0.09910  1.0000 -0.7705722694
O   O156      1.0  0.40940  0.64340  0.95180  1.0000 -0.8196512454
O   O157      1.0  0.50280  0.71030  0.83860  1.0000 -0.859906037
O   O158      1.0  0.85700  0.60170  0.98510  1.0000 -0.8399876082
O   O159      1.0  0.58300  0.89900  0.96000  1.0000 -0.5901988589
O   O160      1.0  0.75250  0.66830  0.96460  1.0000 -0.980381205
O   O161      1.0  0.65830  0.79580  0.90820  1.0000 -0.8812907679
O   O162      1.0  0.57370  0.84860  0.04880  1.0000 -0.8502551659
O   O163      1.0  0.94260  0.72780  0.98840  1.0000 -0.8714639687
O   O164      1.0  0.49280  0.48360  0.77760  1.0000 -0.5985347601
O   O165      1.0  0.84440  0.80520  0.97330  1.0000 -0.8714639687
O   O166      1.0  0.83600  0.26620  0.03200  1.0000 -0.3818314441
O   O167      1.0  0.57220  0.41130  0.85100  1.0000 -0.8502551659
O   O168      1.0  0.74650  0.85680  0.11010  1.0000 -0.8399876082
O   O169      1.0  0.66900  0.52900  0.94830  1.0000 -0.8864545518
O   O170      1.0  0.96140  0.69710  0.08920  1.0000 -0.6096966767
O   O171      1.0  0.75940  0.71470  0.86720  1.0000 -0.859906037
O   O172      1.0  0.69600  0.27180  0.98930  1.0000 -0.5179611587
O   O173      1.0  0.85540  0.63420  0.88660  1.0000 -0.8502551659
O   O174      1.0  0.91910  0.91270  0.08040  1.0000 -0.6171256446
O   O175      1.0  0.74470  0.88570  0.01150  1.0000 -0.859906037
O   O176      1.0  0.66280  0.74650  0.78580  1.0000 -0.6613324626
O   O177      1.0  0.31840  0.67640  0.86830  1.0000 -0.5985347601
O   O178      1.0  0.76020  0.65720  0.07120  1.0000 -0.8304366314
O   O179      1.0  0.49100  0.73740  0.06280  1.0000 -0.7705722694
O   O180      1.0  0.49330  0.76520  0.94660  1.0000 -0.8399876082
O   O181      1.0  0.58140  0.84590  0.16180  1.0000 -0.550583511
O   O182      1.0  0.58760  0.62060  0.79850  1.0000 -0.8399876082
O   O183      1.0  0.82250  0.74600  0.18720  1.0000 -0.5327887082
O   O184      1.0  0.96210  0.76570  0.89210  1.0000 -0.6096966767
O   O185      1.0  0.64400  0.69070  0.21110  1.0000 -0.8990753038
O   O186      1.0  0.95600  0.76580  0.24500  1.0000 -0.3818314441
N   N7        1.0  0.76800  0.61840  0.16610  1.0000 -0.3186841452
N   N8        1.0  0.77450  0.40430  0.01210  1.0000 -0.240378111
C   C37       1.0  0.73950  0.54770  0.15250  1.0000 0.0608797167
H   H25       1.0  0.68080  0.52060  0.12800  1.0000 0.1493548654
C   C38       1.0  0.79100  0.51940  0.17250  1.0000 -0.1041080461
H   H26       1.0  0.76780  0.47260  0.16280  1.0000 0.1587167322
C   C39       1.0  0.88200  0.55670  0.20880  1.0000 0.0295829053
H   H27       1.0  0.91830  0.53550  0.22350  1.0000 0.121278292
C   C40       1.0  0.91610  0.62980  0.22220  1.0000 -0.0717034632
H   H28       1.0  0.97580  0.65780  0.24520  1.0000 0.1587167322
C   C41       1.0  0.85880  0.65270  0.20030  1.0000 0.0295829053
C   C42       1.0  0.87900  0.72300  0.21400  1.0000 0.5307665027
C   C43       1.0  0.80910  0.46910  0.01990  1.0000 0.1410109209
H   H29       1.0  0.77030  0.49100  0.00820  1.0000 0.1319010711
C   C44       1.0  0.90720  0.50480  0.04680  1.0000 -0.0915930581
H   H30       1.0  0.93200  0.55110  0.05380  1.0000 0.1410109209
C   C45       1.0  0.97100  0.47100  0.06420  1.0000 -0.0472072111
H   H31       1.0  0.03550  0.49470  0.08260  1.0000 0.1493548654
C   C46       1.0  0.93200  0.40500  0.05190  1.0000 -0.1170017787
H   H32       1.0  0.97120  0.38080  0.05880  1.0000 0.1587167322
C   C47       1.0  0.83400  0.37070  0.02900  1.0000 0.06757645
C   C48       1.0  0.78800  0.29750  0.01500  1.0000 0.5307665027
O   O187      1.0  0.64400  0.74600  0.30500  1.0000 1.6200459457
O   O188      1.0  0.03400  0.97490  0.24780  1.0000 0.2516203828
O   O189      1.0  0.62500  0.63800  0.32000  1.0000 -0.5034731173
Na  Na8       1.0  0.01020  0.88820  0.31000  1.0000 0.1665479994
W   W39       1.0  0.90430  0.50092  0.47376  1.0000 1.2664704777
O   O190      1.0  0.00000  0.50000  0.50000  1.0000 -0.550583511
O   O191      1.0  0.50000  0.50000  0.00000  1.0000 -0.8812907679
  O   O192      1.0  0.65978  0.24493  0.42313  1.0000
  W   W40       1.0  0.28260  0.82458  0.48176  1.0000
  W   W41       1.0  0.22610  0.87102  0.61387  1.0000
  W   W42       1.0  0.34022  0.75507  0.57687  1.0000
