# DDEC6 charges by PACMAN v1.1 (https://github.com/mtap-research/PACMAN-charge/)
data_JITBEW_ASR_pacman
_chemical_formula_sum              "Dy2 W40 Sb4 Fe6 O190 N8 C48 H32 Na6"
_cell_length_a       14.5798
_cell_length_b       21.9404
_cell_length_c       24.8619
_cell_angle_alpha    108.59
_cell_angle_beta     93.952
_cell_angle_gamma    107.169

_symmetry_space_group_name_H-M    "P 1"
_symmetry_Int_Tables_number       1

loop_
  _symmetry_equiv_pos_as_xyz
  'x, y, z'

loop_
  _atom_site_type_symbol
  _atom_site_label
  _atom_site_symmetry_multiplicity
  _atom_site_fract_x
  _atom_site_fract_y
  _atom_site_fract_z
  _atom_site_occupancy
 _atom_site_charge
Dy  Dy1       1.0  0.72964  0.10728  0.11551  1.0000 2.0215432016
W   W1        1.0  0.09227  0.38123  0.61055  1.0000 2.3538870183
W   W2        1.0  0.86155  0.33900  0.62786  1.0000 2.3288878767
W   W3        1.0  0.15037  0.33457  0.46388  1.0000 2.3097562162
W   W4        1.0  0.97324  0.24218  0.34994  1.0000 2.3288878767
W   W5        1.0  0.96497  0.21913  0.58832  1.0000 2.292447981
W   W6        1.0  0.03077  0.17104  0.44200  1.0000 2.2387347786
W   W7        1.0  0.77780  0.12746  0.38500  1.0000 0.8959978191
W   W8        1.0  0.66130  0.24198  0.42185  1.0000 0.9792287318
W   W9        1.0  0.15050  0.50209  0.54070  1.0000 1.1895524827
Sb  Sb1       1.0  0.90477  0.31555  0.48439  1.0000 1.2781297533
Fe  Fe1       1.0  0.81640  0.33800  0.34331  1.0000 1.235814747
Fe  Fe2       1.0  0.72290  0.40660  0.54697  1.0000 1.2101420728
O   O1        1.0  0.69360  0.36110  0.31740  1.0000 -0.2401544633
O   O2        1.0  0.62100  0.43170  0.51930  1.0000 -0.4295856389
O   O3        1.0  0.72400  0.10500  0.21000  1.0000 -0.4396091434
O   O4        1.0  0.65900  0.99530  0.11670  1.0000 -0.5815117987
O   O5        1.0  0.90000  0.13070  0.16450  1.0000 0.019870567
O   O6        1.0  0.80600  0.02240  0.05990  1.0000 -0.1494611086
O   O7        1.0  0.67000  0.17910  0.07640  1.0000 0.2238584129
O   O8        1.0  0.83400  0.15810  0.06090  1.0000 -0.3140814932
O   O9        1.0  0.62800  0.04460  0.02570  1.0000 -0.5993590302
O   O10       1.0  0.57830  0.11630  0.13730  1.0000 -0.4630454215
O   O11       1.0  0.94750  0.30360  0.55720  1.0000 -0.9436026545
O   O12       1.0  0.07200  0.44370  0.57690  1.0000 -0.7723128232
O   O13       1.0  0.85910  0.42550  0.40590  1.0000 -0.6408059629
O   O14       1.0  0.92750  0.31340  0.36210  1.0000 -0.8114503522
O   O15       1.0  0.10480  0.40740  0.47390  1.0000 -0.7896564975
O   O16       1.0  0.10710  0.30110  0.38240  1.0000 -0.8006295395
O   O17       1.0  0.79500  0.21940  0.17440  1.0000 -0.6301113399
O   O18       1.0  0.99360  0.39490  0.65530  1.0000 -0.8114503522
O   O19       1.0  0.84300  0.18160  0.34740  1.0000 -0.6110895308
O   O20       1.0  0.83700  0.39520  0.59020  1.0000 -0.8006295395
O   O21       1.0  0.90100  0.26530  0.64110  1.0000 -0.8591735899
O   O22       1.0  0.99270  0.26610  0.44600  1.0000 -0.9436026545
O   O23       1.0  0.07600  0.29670  0.62350  1.0000 -0.8114503522
O   O24       1.0  0.77680  0.25660  0.26590  1.0000 -0.4816203596
O   O25       1.0  0.02500  0.19460  0.52380  1.0000 -0.8686662073
O   O26       1.0  0.14500  0.34540  0.54260  1.0000 -0.8686662073
O   O27       1.0  0.02000  0.16950  0.36510  1.0000 -0.9187591704
O   O28       1.0  0.82100  0.46320  0.51960  1.0000 -0.7106012734
O   O29       1.0  0.15000  0.24220  0.45640  1.0000 -0.8686662073
O   O30       1.0  0.84100  0.16630  0.53840  1.0000 -0.6636118921
O   O31       1.0  0.89000  0.12180  0.42160  1.0000 -0.6203678059
O   O32       1.0  0.79000  0.22910  0.46060  1.0000 -0.6710994574
O   O33       1.0  0.80840  0.36530  0.68440  1.0000 -0.5947024258
O   O34       1.0  0.68600  0.31990  0.49290  1.0000 -0.5702427061
O   O35       1.0  0.73340  0.28120  0.38190  1.0000 -0.4042306574
O   O36       1.0  0.07400  0.10080  0.43180  1.0000 -0.7298695477
O   O37       1.0  0.27000  0.37240  0.46630  1.0000 -0.56094009
O   O38       1.0  0.75200  0.26070  0.57490  1.0000 -0.6710994574
O   O39       1.0  0.19610  0.43370  0.66160  1.0000 -0.6203678059
O   O40       1.0  0.98100  0.22510  0.27900  1.0000 -0.56094009
O   O41       1.0  0.98600  0.16450  0.62100  1.0000 -0.7774994405
O   O42       1.0  0.25500  0.50000  0.56380  1.0000 -0.5208039514
O   O43       1.0  0.54700  0.22880  0.39320  1.0000 -0.5702427061
O   O44       1.0  0.70220  0.18630  0.37015  1.0000 0.6545292703
O   O45       1.0  0.58800  0.38560  0.68190  1.0000 -0.5379341674
O   O46       1.0  0.63200  0.36960  0.59550  1.0000 -0.4481189283
O   O47       1.0  0.73600  0.05490  0.33560  1.0000 -0.1139520439
N   N1        1.0  0.89660  0.37940  0.28830  1.0000 -0.2401544633
N   N2        1.0  0.76400  0.50120  0.63150  1.0000 -0.2118474277
C   C1        1.0  0.96100  0.44550  0.29940  1.0000 0.0766545633
H   H1        1.0  0.96700  0.47900  0.33490  1.0000 0.140112978
C   C2        1.0  0.01200  0.46190  0.26230  1.0000 -0.1266698198
H   H2        1.0  0.06000  0.50480  0.27390  1.0000 0.1497761852
C   C3        1.0  0.99900  0.41820  0.20670  1.0000 -0.0297934172
H   H3        1.0  0.03160  0.43280  0.17990  1.0000 0.1323914943
C   C4        1.0  0.93400  0.35040  0.19060  1.0000 -0.0853429469
H   H4        1.0  0.92460  0.31820  0.15400  1.0000 0.1497761852
C   C5        1.0  0.88400  0.33520  0.23330  1.0000 0.1109767189
C   C6        1.0  0.80900  0.26400  0.22120  1.0000 0.6107533542
C   C7        1.0  0.81800  0.55800  0.64440  1.0000 0.1607848647
H   H5        1.0  0.85130  0.57060  0.61720  1.0000 0.1497761852
C   C8        1.0  0.83100  0.60300  0.69670  1.0000 -0.1494611086
H   H6        1.0  0.87600  0.64630  0.70610  1.0000 0.1607848647
C   C9        1.0  0.78300  0.58800  0.73500  1.0000 -0.0432305368
H   H7        1.0  0.79340  0.62080  0.77070  1.0000 0.1681389181
C   C10       1.0  0.72200  0.52800  0.72400  1.0000 -0.0689915413
H   H8        1.0  0.68590  0.52080  0.75210  1.0000 0.1607848647
C   C11       1.0  0.70500  0.46800  0.67000  1.0000 -0.0200194497
C   C12       1.0  0.63800  0.40600  0.64100  1.0000 0.5125283269
O   O48       1.0  0.28150  0.82720  0.48301  1.0000 2.0672110884
O   O49       1.0  0.22220  0.87254  0.61500  1.0000 2.0672110884
O   O50       1.0  0.33870  0.75802  0.57815  1.0000 1.989056882
Na  Na1       1.0  0.97440  0.11410  0.69340  1.0000 0.9562934009
Na  Na2       1.0  0.38370  0.14950  0.35630  1.0000 1.0386686889
Na  Na3       1.0  0.51620  0.36600  0.75390  1.0000 0.869670984
W   W10       1.0  0.46926  0.44473  0.16388  1.0000 2.3699483244
W   W11       1.0  0.57239  0.32742  0.10831  1.0000 2.3699483244
W   W12       1.0  0.23226  0.43248  0.09062  1.0000 2.4005609123
W   W13       1.0  0.36733  0.28573  0.16032  1.0000 2.3771092264
W   W14       1.0  0.13274  0.31353  0.96150  1.0000 2.3871611921
W   W15       1.0  0.13252  0.27022  0.07842  1.0000 2.4216209023
W   W16       1.0  0.18037  0.15420  0.94995  1.0000 2.2202371923
W   W17       1.0  0.38621  0.16265  0.02525  1.0000 2.3364276258
W   W18       1.0  0.39234  0.19517  0.90163  1.0000 2.2451304761
W   W19       1.0  0.45759  0.54217  0.07061  1.0000 2.4761769144
W   W20       1.0  0.31056  0.32186  0.86000  1.0000 2.292447981
Sb  Sb2       1.0  0.37686  0.33396  0.01740  1.0000 1.3062000044
Fe  Fe3       1.0  0.37260  0.66492  0.02882  1.0000 1.3062000044
O   O51       1.0  0.32050  0.68050  0.10550  1.0000 -0.2728928956
O   O52       1.0  0.49470  0.47890  0.10580  1.0000 -0.8591735899
O   O53       1.0  0.33730  0.23160  0.98460  1.0000 -0.9563998612
O   O54       1.0  0.33930  0.44100  0.14550  1.0000 -0.8591735899
O   O55       1.0  0.41110  0.59430  0.04200  1.0000 -0.7402266495
O   O56       1.0  0.42550  0.33830  0.09700  1.0000 -0.9784865411
O   O57       1.0  0.14270  0.22160  0.93310  1.0000 -0.8686662073
O   O58       1.0  0.58050  0.41640  0.16270  1.0000 -0.8470971139
O   O59       1.0  0.20240  0.50530  0.13100  1.0000 -0.6934819253
O   O60       1.0  0.33940  0.25520  0.87920  1.0000 -0.8114503522
O   O61       1.0  0.41210  0.39730  0.89980  1.0000 -0.7896564975
O   O62       1.0  0.59210  0.35600  0.04910  1.0000 -0.8114503522
O   O63       1.0  0.49980  0.28920  0.16190  1.0000 -0.879901303
O   O64       1.0  0.14470  0.40100  0.01790  1.0000 -0.8686662073
O   O65       1.0  0.41960  0.09950  0.03910  1.0000 -0.5993590302
O   O66       1.0  0.24850  0.33240  0.03900  1.0000 -0.9927912386
O   O67       1.0  0.33880  0.20300  0.09350  1.0000 -0.8896799517
O   O68       1.0  0.43070  0.15790  0.95610  1.0000 -0.8402294251
O   O69       1.0  0.05670  0.27150  0.01330  1.0000 -0.879901303
O   O70       1.0  0.51550  0.51740  0.22430  1.0000 -0.6203678059
O   O71       1.0  0.15210  0.19330  0.02960  1.0000 -0.8591735899
O   O72       1.0  0.16770  0.73630  0.97170  1.0000 -0.3183653684
O   O73       1.0  0.42810  0.58890  0.14880  1.0000 -0.8686662073
O   O74       1.0  0.25040  0.15230  0.89460  1.0000 -0.7896564975
O   O75       1.0  0.33380  0.47380  0.05340  1.0000 -0.879901303
O   O76       1.0  0.03580  0.30200  0.91170  1.0000 -0.6203678059
O   O77       1.0  0.24110  0.28630  0.13510  1.0000 -0.8591735899
O   O78       1.0  0.30730  0.72760  0.01080  1.0000 -0.5519482227
O   O79       1.0  0.14690  0.36790  0.11250  1.0000 -0.8198140296
O   O80       1.0  0.08100  0.08790  0.92320  1.0000 -0.5379341674
O   O81       1.0  0.25100  0.11320  0.99080  1.0000 -0.8686662073
O   O82       1.0  0.33800  0.25070  0.21370  1.0000 -0.68275449
O   O83       1.0  0.68310  0.32260  0.13110  1.0000 -0.6203678059
O   O84       1.0  0.23890  0.34040  0.92860  1.0000 -0.8591735899
O   O85       1.0  0.50550  0.25950  0.93540  1.0000 -0.7489439281
O   O86       1.0  0.50730  0.23580  0.05490  1.0000 -0.8470971139
O   O87       1.0  0.41960  0.15270  0.83750  1.0000 -0.5993590302
O   O88       1.0  0.41170  0.38010  0.20150  1.0000 -0.8470971139
O   O89       1.0  0.17300  0.25170  0.81520  1.0000 -0.5815117987
O   O90       1.0  0.03690  0.23200  0.10780  1.0000 -0.6110895308
O   O91       1.0  0.35100  0.30300  0.78870  1.0000 -0.9436026545
O   O92       1.0  0.03200  0.23000  0.76260  1.0000 -0.4097246112
N   N3        1.0  0.22620  0.38140  0.83320  1.0000 -0.2728928956
N   N4        1.0  0.22310  0.59680  0.98850  1.0000 -0.2175940208
C   C13       1.0  0.25900  0.44980  0.84850  1.0000 0.1109767189
H   H9        1.0  0.31700  0.47560  0.87440  1.0000 0.1323914943
C   C14       1.0  0.20700  0.48090  0.82630  1.0000 -0.1206343113
H   H10       1.0  0.23170  0.52760  0.83390  1.0000 0.1497761852
C   C15       1.0  0.11500  0.44090  0.79160  1.0000 0.0305543212
H   H11       1.0  0.07710  0.46240  0.77870  1.0000 0.1226475952
C   C16       1.0  0.07700  0.36600  0.77490  1.0000 -0.0559674198
H   H12       1.0  0.01800  0.33870  0.75060  1.0000 0.1497761852
C   C17       1.0  0.13800  0.34090  0.79860  1.0000 0.0065598746
C   C18       1.0  0.10600  0.27800  0.78980  1.0000 0.3953404395
C   C19       1.0  0.18600  0.52980  0.97900  1.0000 0.0985737747
H   H13       1.0  0.22380  0.50810  0.99160  1.0000 0.140112978
C   C20       1.0  0.09300  0.49380  0.95130  1.0000 -0.1139520439
H   H14       1.0  0.06870  0.44710  0.94400  1.0000 0.1497761852
C   C21       1.0  0.03100  0.52500  0.93310  1.0000 -0.0297934172
H   H15       1.0  0.96730  0.50050  0.91330  1.0000 0.140112978
C   C22       1.0  0.07100  0.59410  0.94690  1.0000 -0.1206343113
H   H16       1.0  0.03310  0.61810  0.93810  1.0000 0.1497761852
C   C23       1.0  0.16500  0.62800  0.97290  1.0000 0.0766545633
C   C24       1.0  0.21000  0.70050  0.98230  1.0000 0.5125283269
O   O93       1.0  0.35700  0.25520  0.69560  1.0000 1.745744404
O   O94       1.0  0.36600  0.35200  0.68200  1.0000 -0.7298695477
W   W21       1.0  0.09670  0.49984  0.52702  1.0000 1.2781297533
Dy  Dy2       1.0  0.27036  0.89272  0.88449  1.0000 2.0085210172
W   W22       1.0  0.90773  0.61877  0.38945  1.0000 2.3602661459
W   W23       1.0  0.13845  0.66100  0.37214  1.0000 2.3034329979
W   W24       1.0  0.84963  0.66543  0.53612  1.0000 2.3034329979
W   W25       1.0  0.02676  0.75782  0.65006  1.0000 2.3602661459
W   W26       1.0  0.03503  0.78087  0.41168  1.0000 2.3602661459
W   W27       1.0  0.96923  0.82896  0.55800  1.0000 2.3097562162
W   W28       1.0  0.84950  0.49791  0.45930  1.0000 1.1797851888
Sb  Sb3       1.0  0.09523  0.68445  0.51561  1.0000 1.1797851888
Fe  Fe4       1.0  0.18360  0.66200  0.65669  1.0000 1.2549582092
Fe  Fe5       1.0  0.27710  0.59340  0.45303  1.0000 1.2301308481
O   O95       1.0  0.30640  0.63890  0.68260  1.0000 -0.1993519249
O   O96       1.0  0.37900  0.56830  0.48070  1.0000 -0.4199371966
O   O97       1.0  0.27600  0.89500  0.79000  1.0000 -0.2870192858
O   O98       1.0  0.34100  0.00470  0.88330  1.0000 -0.5993590302
O   O99       1.0  0.10000  0.86930  0.83550  1.0000 0.019870567
O   O100      1.0  0.19400  0.97760  0.94010  1.0000 -0.1770501169
O   O101      1.0  0.33000  0.82090  0.92360  1.0000 0.2003496257
O   O102      1.0  0.16600  0.84190  0.93910  1.0000 -0.3140814932
O   O103      1.0  0.37200  0.95540  0.97430  1.0000 -0.5993590302
O   O104      1.0  0.42170  0.88370  0.86270  1.0000 -0.4702138933
O   O105      1.0  0.05250  0.69640  0.44280  1.0000 -0.9494083754
O   O106      1.0  0.92800  0.55630  0.42310  1.0000 -0.7723128232
O   O107      1.0  0.14090  0.57450  0.59410  1.0000 -0.6523186596
O   O108      1.0  0.07250  0.68660  0.63790  1.0000 -0.8114503522
O   O109      1.0  0.89520  0.59260  0.52610  1.0000 -0.7896564975
O   O110      1.0  0.89290  0.69890  0.61760  1.0000 -0.8198140296
O   O111      1.0  0.20500  0.78060  0.82560  1.0000 -0.6301113399
O   O112      1.0  0.00640  0.60510  0.34470  1.0000 -0.8198140296
O   O113      1.0  0.15700  0.81840  0.65260  1.0000 -0.8006295395
O   O114      1.0  0.16300  0.60480  0.40980  1.0000 -0.7896564975
O   O115      1.0  0.09900  0.73470  0.35890  1.0000 -0.8591735899
O   O116      1.0  0.00730  0.73390  0.55400  1.0000 -0.9494083754
O   O117      1.0  0.92400  0.70330  0.37650  1.0000 -0.8114503522
O   O118      1.0  0.22320  0.74340  0.73410  1.0000 -0.4816203596
O   O119      1.0  0.97500  0.80540  0.47620  1.0000 -0.8591735899
O   O120      1.0  0.85500  0.65460  0.45740  1.0000 -0.8686662073
O   O121      1.0  0.98000  0.83050  0.63490  1.0000 -0.9124756487
O   O122      1.0  0.17900  0.53680  0.48040  1.0000 -0.7220889362
O   O123      1.0  0.85000  0.75780  0.54360  1.0000 -0.8896799517
O   O124      1.0  0.15900  0.83370  0.46160  1.0000 -0.6984096797
O   O125      1.0  0.11000  0.87820  0.57840  1.0000 -0.8402294251
O   O126      1.0  0.21000  0.77090  0.53940  1.0000 -0.9124756487
O   O127      1.0  0.19160  0.63470  0.31560  1.0000 -0.5815117987
O   O128      1.0  0.31400  0.68010  0.50710  1.0000 -0.5993590302
O   O129      1.0  0.26660  0.71880  0.61810  1.0000 -0.532392664
O   O130      1.0  0.92600  0.89920  0.56820  1.0000 -0.7298695477
O   O131      1.0  0.73000  0.62760  0.53370  1.0000 -0.5519482227
O   O132      1.0  0.24800  0.73930  0.42510  1.0000 -0.7402266495
O   O133      1.0  0.80390  0.56630  0.33840  1.0000 -0.6203678059
O   O134      1.0  0.01900  0.77490  0.72100  1.0000 -0.5815117987
O   O135      1.0  0.01400  0.83550  0.37900  1.0000 -0.764634076
O   O136      1.0  0.74500  0.50000  0.43620  1.0000 -0.5101453694
O   O137      1.0  0.45300  0.77120  0.60680  1.0000 -0.7774994405
O   O138      1.0  0.34780  0.76810  0.49710  1.0000 -0.5379341674
O   O139      1.0  0.23970  0.88510  0.53930  1.0000 -0.6523186596
O   O140      1.0  0.29780  0.81370  0.62985  1.0000 -0.5208039514
O   O141      1.0  0.41200  0.61440  0.31810  1.0000 -0.532392664
O   O142      1.0  0.36800  0.63040  0.40450  1.0000 -0.4199371966
O   O143      1.0  0.35400  0.88560  0.45760  1.0000 -0.6636118921
O   O144      1.0  0.26400  0.94510  0.66440  1.0000 -0.5208039514
N   N5        1.0  0.10340  0.62060  0.71170  1.0000 -0.2553030284
N   N6        1.0  0.23600  0.49880  0.36850  1.0000 -0.2175940208
C   C25       1.0  0.03900  0.55450  0.70060  1.0000 0.0766545633
H   H17       1.0  0.03300  0.52100  0.66510  1.0000 0.140112978
C   C26       1.0  0.98800  0.53810  0.73770  1.0000 -0.1266698198
H   H18       1.0  0.94000  0.49520  0.72610  1.0000 0.1497761852
C   C27       1.0  0.00100  0.58180  0.79330  1.0000 -0.0200194497
H   H19       1.0  0.96840  0.56720  0.82010  1.0000 0.1323914943
C   C28       1.0  0.06600  0.64960  0.80940  1.0000 -0.0827031093
H   H20       1.0  0.07540  0.68180  0.84600  1.0000 0.1497761852
C   C29       1.0  0.11600  0.66480  0.76670  1.0000 0.1109767189
C   C30       1.0  0.19100  0.73600  0.77880  1.0000 0.6003179518
C   C31       1.0  0.18200  0.44200  0.35560  1.0000 0.1607848647
H   H21       1.0  0.14870  0.42940  0.38280  1.0000 0.1497761852
C   C32       1.0  0.16900  0.39700  0.30330  1.0000 -0.1494611086
H   H22       1.0  0.12400  0.35370  0.29390  1.0000 0.1607848647
C   C33       1.0  0.21700  0.41200  0.26500  1.0000 -0.0432305368
H   H23       1.0  0.20660  0.37920  0.22930  1.0000 0.1681389181
C   C34       1.0  0.27800  0.47200  0.27600  1.0000 -0.0689915413
H   H24       1.0  0.31410  0.47920  0.24790  1.0000 0.1607848647
C   C35       1.0  0.29500  0.53200  0.33000  1.0000 -0.008021126
C   C36       1.0  0.36200  0.59400  0.35900  1.0000 0.5125283269
Na  Na4       1.0  0.02560  0.88590  0.30660  1.0000 0.9657892553
Na  Na5       1.0  0.61630  0.85050  0.64370  1.0000 1.0498273937
Na  Na6       1.0  0.48380  0.63400  0.24610  1.0000 0.869670984
W   W29       1.0  0.53074  0.55527  0.83612  1.0000 2.3699483244
W   W30       1.0  0.42761  0.67258  0.89169  1.0000 2.3602661459
W   W31       1.0  0.76774  0.56752  0.90938  1.0000 2.4005609123
W   W32       1.0  0.63267  0.71427  0.83968  1.0000 2.3871611921
W   W33       1.0  0.86726  0.68647  0.03850  1.0000 2.3871611921
W   W34       1.0  0.86748  0.72978  0.92158  1.0000 2.4216209023
W   W35       1.0  0.81963  0.84580  0.05005  1.0000 2.1922759382
W   W36       1.0  0.61379  0.83735  0.97475  1.0000 2.3364276258
W   W37       1.0  0.60766  0.80483  0.09837  1.0000 2.2387347786
W   W38       1.0  0.54241  0.45783  0.92939  1.0000 2.4747800199
W   W39       1.0  0.68944  0.67814  0.14000  1.0000 2.292447981
Sb  Sb4       1.0  0.62314  0.66604  0.98260  1.0000 1.3062000044
Fe  Fe6       1.0  0.62740  0.33508  0.97118  1.0000 1.3037158815
O   O145      1.0  0.67950  0.31950  0.89450  1.0000 -0.2728928956
O   O146      1.0  0.50530  0.52110  0.89420  1.0000 -0.8591735899
O   O147      1.0  0.66270  0.76840  0.01540  1.0000 -0.9494083754
O   O148      1.0  0.66070  0.55900  0.85450  1.0000 -0.8591735899
O   O149      1.0  0.58890  0.40570  0.95800  1.0000 -0.7402266495
O   O150      1.0  0.57450  0.66170  0.90300  1.0000 -0.9784865411
O   O151      1.0  0.85730  0.77840  0.06690  1.0000 -0.8686662073
O   O152      1.0  0.41950  0.58360  0.83730  1.0000 -0.8470971139
O   O153      1.0  0.79760  0.49470  0.86900  1.0000 -0.6934819253
O   O154      1.0  0.66060  0.74480  0.12080  1.0000 -0.8114503522
O   O155      1.0  0.58790  0.60270  0.10020  1.0000 -0.7896564975
O   O156      1.0  0.40790  0.64400  0.95090  1.0000 -0.8114503522
O   O157      1.0  0.50020  0.71080  0.83810  1.0000 -0.879901303
O   O158      1.0  0.85530  0.59900  0.98210  1.0000 -0.8686662073
O   O159      1.0  0.58040  0.90050  0.96090  1.0000 -0.5947024258
O   O160      1.0  0.75150  0.66760  0.96100  1.0000 -0.9927912386
O   O161      1.0  0.66120  0.79700  0.90650  1.0000 -0.8896799517
O   O162      1.0  0.56930  0.84210  0.04390  1.0000 -0.8402294251
O   O163      1.0  0.94330  0.72850  0.98670  1.0000 -0.8686662073
O   O164      1.0  0.48450  0.48260  0.77570  1.0000 -0.6203678059
O   O165      1.0  0.84790  0.80670  0.97040  1.0000 -0.8591735899
O   O166      1.0  0.83230  0.26370  0.02830  1.0000 -0.3183653684
O   O167      1.0  0.57190  0.41110  0.85120  1.0000 -0.8686662073
O   O168      1.0  0.74960  0.84770  0.10540  1.0000 -0.7896564975
O   O169      1.0  0.66620  0.52620  0.94660  1.0000 -0.879901303
O   O170      1.0  0.96420  0.69800  0.08830  1.0000 -0.6203678059
O   O171      1.0  0.75890  0.71370  0.86490  1.0000 -0.8591735899
O   O172      1.0  0.69270  0.27240  0.98920  1.0000 -0.5519482227
O   O173      1.0  0.85310  0.63210  0.88750  1.0000 -0.8198140296
O   O174      1.0  0.91900  0.91210  0.07680  1.0000 -0.532392664
O   O175      1.0  0.74900  0.88680  0.00920  1.0000 -0.8686662073
O   O176      1.0  0.66200  0.74930  0.78630  1.0000 -0.68275449
O   O177      1.0  0.31690  0.67740  0.86890  1.0000 -0.6110895308
O   O178      1.0  0.76110  0.65960  0.07140  1.0000 -0.8591735899
O   O179      1.0  0.49450  0.74050  0.06460  1.0000 -0.7489439281
O   O180      1.0  0.49270  0.76420  0.94510  1.0000 -0.8402294251
O   O181      1.0  0.58040  0.84730  0.16250  1.0000 -0.5993590302
O   O182      1.0  0.58830  0.61990  0.79850  1.0000 -0.8470971139
O   O183      1.0  0.82700  0.74830  0.18480  1.0000 -0.5815117987
O   O184      1.0  0.96310  0.76800  0.89220  1.0000 -0.6110895308
O   O185      1.0  0.64900  0.69700  0.21130  1.0000 -0.9436026545
O   O186      1.0  0.96800  0.77000  0.23740  1.0000 -0.4097246112
N   N7        1.0  0.77380  0.61860  0.16680  1.0000 -0.2728928956
N   N8        1.0  0.77690  0.40320  0.01150  1.0000 -0.2175940208
C   C37       1.0  0.74100  0.55020  0.15150  1.0000 0.1109767189
H   H25       1.0  0.68300  0.52440  0.12560  1.0000 0.1323914943
C   C38       1.0  0.79300  0.51910  0.17370  1.0000 -0.1206343113
H   H26       1.0  0.76830  0.47240  0.16610  1.0000 0.1497761852
C   C39       1.0  0.88500  0.55910  0.20840  1.0000 0.019870567
H   H27       1.0  0.92290  0.53760  0.22130  1.0000 0.1226475952
C   C40       1.0  0.92300  0.63400  0.22510  1.0000 -0.0534482518
H   H28       1.0  0.98200  0.66130  0.24940  1.0000 0.1497761852
C   C41       1.0  0.86200  0.65910  0.20140  1.0000 0.0065598746
C   C42       1.0  0.89400  0.72200  0.21020  1.0000 0.3953404395
C   C43       1.0  0.81400  0.47020  0.02100  1.0000 0.0985737747
H   H29       1.0  0.77620  0.49190  0.00840  1.0000 0.140112978
C   C44       1.0  0.90700  0.50620  0.04870  1.0000 -0.1139520439
H   H30       1.0  0.93130  0.55290  0.05600  1.0000 0.1497761852
C   C45       1.0  0.96900  0.47500  0.06690  1.0000 -0.0297934172
H   H31       1.0  0.03270  0.49950  0.08670  1.0000 0.140112978
C   C46       1.0  0.92900  0.40590  0.05310  1.0000 -0.1206343113
H   H32       1.0  0.96690  0.38190  0.06190  1.0000 0.1497761852
C   C47       1.0  0.83500  0.37200  0.02710  1.0000 0.0766545633
C   C48       1.0  0.79000  0.29950  0.01770  1.0000 0.5125283269
O   O187      1.0  0.64300  0.74480  0.30440  1.0000 1.7158969013
O   O188      1.0  0.63400  0.64800  0.31800  1.0000 -0.7489439281
W   W40       1.0  0.90330  0.50016  0.47298  1.0000 1.2781297533
O   O189      1.0  0.00000  0.50000  0.50000  1.0000 -0.5519482227
O   O190      1.0  0.50000  0.50000  0.00000  1.0000 -0.879901303
  O   O191      1.0  0.77780  0.12746  0.38500  1.0000
  O   O192      1.0  0.66130  0.24198  0.42185  1.0000
  W   W41       1.0  0.28150  0.82720  0.48301  1.0000
  W   W42       1.0  0.22220  0.87254  0.61500  1.0000
  W   W43       1.0  0.33870  0.75802  0.57815  1.0000
