# DDEC6 charges by PACMAN v1.1 (https://github.com/mtap-research/PACMAN-charge/)
data_JITPAH_ASR_pacman
_symmetry_space_group_name_H-M   'P 1'
_cell_length_a   22.29760000
_cell_length_b   22.29760000
_cell_length_c   28.26240000
_cell_angle_alpha   90.00000000
_cell_angle_beta   90.00000000
_cell_angle_gamma   120.00000000
_symmetry_Int_Tables_number   1
_chemical_formula_structural   Y3InH24C48N6O17
_chemical_formula_sum   'Y9 In3 H72 C144 N18 O51'
_cell_volume   12169.02857880
_cell_formula_units_Z   3
loop_
 _symmetry_equiv_pos_site_id
 _symmetry_equiv_pos_as_xyz
  1  'x, y, z'
loop_
 _atom_site_type_symbol
 _atom_site_label
 _atom_site_symmetry_multiplicity
 _atom_site_fract_x
 _atom_site_fract_y
 _atom_site_fract_z
 _atom_site_occupancy
 _atom_site_charge
Y  Y1  1  0.44790000  0.72395000  0.43171000  1.0 1.9533447928
Y  Y2  1  0.27605000  0.55210000  0.56829000  1.0 1.9533447928
Y  Y3  1  0.27605000  0.72395000  0.43171000  1.0 1.9565965242
Y  Y4  1  0.44790000  0.72395000  0.56829000  1.0 1.9533447928
Y  Y5  1  0.27605000  0.72395000  0.56829000  1.0 1.9565965242
Y  Y6  1  0.27605000  0.55210000  0.43171000  1.0 1.9533447928
Y  Y7  1  0.43696000  0.56304000  0.50000000  1.0 1.9316193568
Y  Y8  1  0.12608000  0.56304000  0.50000000  1.0 1.9316193568
Y  Y9  1  0.43696000  0.87392000  0.50000000  1.0 1.9316193568
In  In1  1  0.89065000  0.94532000  0.00000000  1.0 1.5169981229
In  In2  1  0.05468000  0.10935000  0.00000000  1.0 1.5169981229
In  In3  1  0.05467000  0.94532000  0.00000000  1.0 1.5169981229
H  H1  1  0.63680000  0.60320000  0.43180000  1.0 0.1281874106
H  H2  1  0.96640000  0.36320000  0.56820000  1.0 0.1281874106
H  H3  1  0.39680000  0.36320000  0.56820000  1.0 0.1281874106
H  H4  1  0.39680000  0.03360000  0.43180000  1.0 0.1281874106
H  H5  1  0.63680000  0.03360000  0.43180000  1.0 0.1281874106
H  H6  1  0.96640000  0.60320000  0.43180000  1.0 0.1281874106
H  H7  1  0.63680000  0.60320000  0.56820000  1.0 0.1281874106
H  H8  1  0.96640000  0.60320000  0.56820000  1.0 0.1281874106
H  H9  1  0.63680000  0.03360000  0.56820000  1.0 0.1281874106
H  H10  1  0.39680000  0.03360000  0.56820000  1.0 0.1281874106
H  H11  1  0.96640000  0.36320000  0.43180000  1.0 0.1281874106
H  H12  1  0.39680000  0.36320000  0.43180000  1.0 0.1281874106
H  H13  1  0.74350000  0.64170000  0.40190000  1.0 0.1281874106
H  H14  1  0.89820000  0.25650000  0.59810000  1.0 0.1281874106
H  H15  1  0.35830000  0.25650000  0.59810000  1.0 0.1281874106
H  H16  1  0.35830000  0.10180000  0.40190000  1.0 0.1281874106
H  H17  1  0.74350000  0.10180000  0.40190000  1.0 0.1281874106
H  H18  1  0.89820000  0.64170000  0.40190000  1.0 0.1281874106
H  H19  1  0.74350000  0.64170000  0.59810000  1.0 0.1281874106
H  H20  1  0.89820000  0.64170000  0.59810000  1.0 0.1281874106
H  H21  1  0.74350000  0.10180000  0.59810000  1.0 0.1281874106
H  H22  1  0.35830000  0.10180000  0.59810000  1.0 0.1281874106
H  H23  1  0.89820000  0.25650000  0.40190000  1.0 0.1281874106
H  H24  1  0.35830000  0.25650000  0.40190000  1.0 0.1281874106
H  H25  1  0.71760000  0.75530000  0.30480000  1.0 0.1281874106
H  H26  1  0.03770000  0.28240000  0.69520000  1.0 0.1281874106
H  H27  1  0.24470000  0.28240000  0.69520000  1.0 0.1281874106
H  H28  1  0.24470000  0.96230000  0.30480000  1.0 0.1281874106
H  H29  1  0.71760000  0.96230000  0.30480000  1.0 0.1248979352
H  H30  1  0.03770000  0.75530000  0.30480000  1.0 0.1248979352
H  H31  1  0.71760000  0.75530000  0.69520000  1.0 0.1281874106
H  H32  1  0.03770000  0.75530000  0.69520000  1.0 0.1281874106
H  H33  1  0.71760000  0.96230000  0.69520000  1.0 0.1248979352
H  H34  1  0.24470000  0.96230000  0.69520000  1.0 0.1281874106
H  H35  1  0.03770000  0.28240000  0.30480000  1.0 0.1281874106
H  H36  1  0.24470000  0.28240000  0.30480000  1.0 0.1281874106
H  H37  1  0.62860000  0.74880000  0.35330000  1.0 0.1281874106
H  H38  1  0.12020000  0.37140000  0.64670000  1.0 0.1281874106
H  H39  1  0.25120000  0.37140000  0.64670000  1.0 0.1281874106
H  H40  1  0.25120000  0.87980000  0.35330000  1.0 0.1281874106
H  H41  1  0.62860000  0.87980000  0.35330000  1.0 0.1281874106
H  H42  1  0.12020000  0.74880000  0.35330000  1.0 0.1281874106
H  H43  1  0.62860000  0.74880000  0.64670000  1.0 0.1281874106
H  H44  1  0.12020000  0.74880000  0.64670000  1.0 0.1281874106
H  H45  1  0.62860000  0.87980000  0.64670000  1.0 0.1281874106
H  H46  1  0.25120000  0.87980000  0.64670000  1.0 0.1281874106
H  H47  1  0.12020000  0.37140000  0.35330000  1.0 0.1281874106
H  H48  1  0.25120000  0.37140000  0.35330000  1.0 0.1281874106
H  H49  1  0.82530000  0.83360000  0.13260000  1.0 0.1281874106
H  H50  1  0.00830000  0.17470000  0.86740000  1.0 0.1281874106
H  H51  1  0.16640000  0.17470000  0.86740000  1.0 0.1281874106
H  H52  1  0.16640000  0.99170000  0.13260000  1.0 0.1281874106
H  H53  1  0.82530000  0.99170000  0.13260000  1.0 0.1281874106
H  H54  1  0.00830000  0.83360000  0.13260000  1.0 0.1281874106
H  H55  1  0.82530000  0.83360000  0.86740000  1.0 0.1281874106
H  H56  1  0.00830000  0.83360000  0.86740000  1.0 0.1281874106
H  H57  1  0.82530000  0.99170000  0.86740000  1.0 0.1281874106
H  H58  1  0.16640000  0.99170000  0.86740000  1.0 0.1281874106
H  H59  1  0.00830000  0.17470000  0.13260000  1.0 0.1281874106
H  H60  1  0.16640000  0.17470000  0.13260000  1.0 0.1281874106
H  H61  1  0.81060000  0.79780000  0.21340000  1.0 0.1281874106
H  H62  1  0.98720000  0.18940000  0.78660000  1.0 0.1281874106
H  H63  1  0.20220000  0.18940000  0.78660000  1.0 0.1281874106
H  H64  1  0.20220000  0.01280000  0.21340000  1.0 0.1281874106
H  H65  1  0.81060000  0.01280000  0.21340000  1.0 0.1281874106
H  H66  1  0.98720000  0.79780000  0.21340000  1.0 0.1281874106
H  H67  1  0.81060000  0.79780000  0.78660000  1.0 0.1281874106
H  H68  1  0.98720000  0.79780000  0.78660000  1.0 0.1281874106
H  H69  1  0.81060000  0.01280000  0.78660000  1.0 0.1281874106
H  H70  1  0.20220000  0.01280000  0.78660000  1.0 0.1281874106
H  H71  1  0.98720000  0.18940000  0.21340000  1.0 0.1281874106
H  H72  1  0.20220000  0.18940000  0.21340000  1.0 0.1281874106
C  C1  1  0.55510000  0.66220000  0.42080000  1.0 0.6129202519
C  C2  1  0.10710000  0.44490000  0.57920000  1.0 0.6129202519
C  C3  1  0.33780000  0.44490000  0.57920000  1.0 0.6129202519
C  C4  1  0.33780000  0.89290000  0.42080000  1.0 0.6129202519
C  C5  1  0.55510000  0.89290000  0.42080000  1.0 0.6129202519
C  C6  1  0.10710000  0.66220000  0.42080000  1.0 0.6129202519
C  C7  1  0.55510000  0.66220000  0.57920000  1.0 0.6129202519
C  C8  1  0.10710000  0.66220000  0.57920000  1.0 0.6129202519
C  C9  1  0.55510000  0.89290000  0.57920000  1.0 0.6129202519
C  C10  1  0.33780000  0.89290000  0.57920000  1.0 0.6129202519
C  C11  1  0.10710000  0.44490000  0.42080000  1.0 0.6129202519
C  C12  1  0.33780000  0.44490000  0.42080000  1.0 0.6129202519
C  C13  1  0.61650000  0.67070000  0.39410000  1.0 -0.046729206
C  C14  1  0.05420000  0.38350000  0.60590000  1.0 -0.046729206
C  C15  1  0.32930000  0.38350000  0.60590000  1.0 -0.046729206
C  C16  1  0.32930000  0.94580000  0.39410000  1.0 -0.0447902858
C  C17  1  0.61650000  0.94580000  0.39410000  1.0 -0.046729206
C  C18  1  0.05420000  0.67070000  0.39410000  1.0 -0.046729206
C  C19  1  0.61650000  0.67070000  0.60590000  1.0 -0.046729206
C  C20  1  0.05420000  0.67070000  0.60590000  1.0 -0.046729206
C  C21  1  0.61650000  0.94580000  0.60590000  1.0 -0.046729206
C  C22  1  0.32930000  0.94580000  0.60590000  1.0 -0.046729206
C  C23  1  0.05420000  0.38350000  0.39410000  1.0 -0.046729206
C  C24  1  0.32930000  0.38350000  0.39410000  1.0 -0.046729206
C  C25  1  0.65440000  0.63760000  0.40880000  1.0 -0.0812120579
C  C26  1  0.98320000  0.34560000  0.59120000  1.0 -0.0812120579
C  C27  1  0.36240000  0.34560000  0.59120000  1.0 -0.0812120579
C  C28  1  0.36240000  0.01680000  0.40880000  1.0 -0.0812120579
C  C29  1  0.65440000  0.01680000  0.40880000  1.0 -0.0812120579
C  C30  1  0.98320000  0.63760000  0.40880000  1.0 -0.0812120579
C  C31  1  0.65440000  0.63760000  0.59120000  1.0 -0.0812120579
C  C32  1  0.98320000  0.63760000  0.59120000  1.0 -0.0812120579
C  C33  1  0.65440000  0.01680000  0.59120000  1.0 -0.0812120579
C  C34  1  0.36240000  0.01680000  0.59120000  1.0 -0.0812120579
C  C35  1  0.98320000  0.34560000  0.40880000  1.0 -0.0812120579
C  C36  1  0.36240000  0.34560000  0.40880000  1.0 -0.0812120579
C  C37  1  0.71620000  0.65770000  0.38830000  1.0 -0.1034961509
C  C38  1  0.94150000  0.28380000  0.61170000  1.0 -0.1034961509
C  C39  1  0.34230000  0.28380000  0.61170000  1.0 -0.1034961509
C  C40  1  0.34230000  0.05850000  0.38830000  1.0 -0.1034961509
C  C41  1  0.71620000  0.05850000  0.38830000  1.0 -0.1034961509
C  C42  1  0.94150000  0.65770000  0.38830000  1.0 -0.1034961509
C  C43  1  0.71620000  0.65770000  0.61170000  1.0 -0.1034961509
C  C44  1  0.94150000  0.65770000  0.61170000  1.0 -0.1034961509
C  C45  1  0.71620000  0.05850000  0.61170000  1.0 -0.1034961509
C  C46  1  0.34230000  0.05850000  0.61170000  1.0 -0.1034961509
C  C47  1  0.94150000  0.28380000  0.38830000  1.0 -0.1034961509
C  C48  1  0.34230000  0.28380000  0.38830000  1.0 -0.1034961509
C  C49  1  0.74180000  0.69840000  0.35060000  1.0 0.0512311168
C  C50  1  0.95660000  0.25820000  0.64940000  1.0 0.0512311168
C  C51  1  0.30160000  0.25820000  0.64940000  1.0 0.0512311168
C  C52  1  0.30160000  0.04340000  0.35060000  1.0 0.0512311168
C  C53  1  0.74180000  0.04340000  0.35060000  1.0 0.0512311168
C  C54  1  0.95660000  0.69840000  0.35060000  1.0 0.0512311168
C  C55  1  0.74180000  0.69840000  0.64940000  1.0 0.0512311168
C  C56  1  0.95660000  0.69840000  0.64940000  1.0 0.0512311168
C  C57  1  0.74180000  0.04340000  0.64940000  1.0 0.0512311168
C  C58  1  0.30160000  0.04340000  0.64940000  1.0 0.0512311168
C  C59  1  0.95660000  0.25820000  0.35060000  1.0 0.0512311168
C  C60  1  0.30160000  0.25820000  0.35060000  1.0 0.0512311168
C  C61  1  0.70460000  0.72980000  0.33270000  1.0 -0.1260264558
C  C62  1  0.02520000  0.29540000  0.66730000  1.0 -0.1260264558
C  C63  1  0.27020000  0.29540000  0.66730000  1.0 -0.1260264558
C  C64  1  0.27020000  0.97480000  0.33270000  1.0 -0.1260264558
C  C65  1  0.70460000  0.97480000  0.33270000  1.0 -0.1260264558
C  C66  1  0.02520000  0.72980000  0.33270000  1.0 -0.1260264558
C  C67  1  0.70460000  0.72980000  0.66730000  1.0 -0.1260264558
C  C68  1  0.02520000  0.72980000  0.66730000  1.0 -0.1260264558
C  C69  1  0.70460000  0.97480000  0.66730000  1.0 -0.1260264558
C  C70  1  0.27020000  0.97480000  0.66730000  1.0 -0.1260264558
C  C71  1  0.02520000  0.29540000  0.33270000  1.0 -0.1260264558
C  C72  1  0.27020000  0.29540000  0.33270000  1.0 -0.1260264558
C  C73  1  0.64690000  0.72020000  0.35940000  1.0 -0.0938517245
C  C74  1  0.07330000  0.35310000  0.64060000  1.0 -0.0938517245
C  C75  1  0.27980000  0.35310000  0.64060000  1.0 -0.0938517245
C  C76  1  0.27980000  0.92670000  0.35940000  1.0 -0.0938517245
C  C77  1  0.64690000  0.92670000  0.35940000  1.0 -0.0938517245
C  C78  1  0.07330000  0.72020000  0.35940000  1.0 -0.0938517245
C  C79  1  0.64690000  0.72020000  0.64060000  1.0 -0.0938517245
C  C80  1  0.07330000  0.72020000  0.64060000  1.0 -0.0938517245
C  C81  1  0.64690000  0.92670000  0.64060000  1.0 -0.0938517245
C  C82  1  0.27980000  0.92670000  0.64060000  1.0 -0.0938517245
C  C83  1  0.07330000  0.35310000  0.35940000  1.0 -0.0938517245
C  C84  1  0.27980000  0.35310000  0.35940000  1.0 -0.0938517245
C  C85  1  0.93685000  0.87370000  0.07620000  1.0 0.6129202519
C  C86  1  0.93685000  0.06315000  0.92380000  1.0 0.6129202519
C  C87  1  0.12630000  0.06315000  0.92380000  1.0 0.6129202519
C  C88  1  0.12630000  0.06315000  0.07620000  1.0 0.6129202519
C  C89  1  0.93685000  0.06315000  0.07620000  1.0 0.6129202519
C  C90  1  0.93685000  0.87370000  0.92380000  1.0 0.6129202519
C  C91  1  0.92050000  0.84100000  0.12650000  1.0 -0.0087686407
C  C92  1  0.92050000  0.07950000  0.87350000  1.0 -0.0087686407
C  C93  1  0.15900000  0.07950000  0.87350000  1.0 -0.0087686407
C  C94  1  0.15900000  0.07950000  0.12650000  1.0 -0.0087686407
C  C95  1  0.92050000  0.07950000  0.12650000  1.0 -0.0087686407
C  C96  1  0.92050000  0.84100000  0.87350000  1.0 -0.0087686407
C  C97  1  0.85800000  0.82680000  0.14840000  1.0 -0.1034961509
C  C98  1  0.96880000  0.14200000  0.85160000  1.0 -0.1034961509
C  C99  1  0.17320000  0.14200000  0.85160000  1.0 -0.1034961509
C  C100  1  0.17320000  0.03120000  0.14840000  1.0 -0.1034961509
C  C101  1  0.85800000  0.03120000  0.14840000  1.0 -0.1034961509
C  C102  1  0.96880000  0.82680000  0.14840000  1.0 -0.1034961509
C  C103  1  0.85800000  0.82680000  0.85160000  1.0 -0.1034961509
C  C104  1  0.96880000  0.82680000  0.85160000  1.0 -0.1034961509
C  C105  1  0.85800000  0.03120000  0.85160000  1.0 -0.1034961509
C  C106  1  0.17320000  0.03120000  0.85160000  1.0 -0.1034961509
C  C107  1  0.96880000  0.14200000  0.14840000  1.0 -0.1034961509
C  C108  1  0.17320000  0.14200000  0.14840000  1.0 -0.1034961509
C  C109  1  0.84730000  0.80190000  0.19540000  1.0 -0.1066508932
C  C110  1  0.95460000  0.15270000  0.80460000  1.0 -0.1066508932
C  C111  1  0.19810000  0.15270000  0.80460000  1.0 -0.1066508932
C  C112  1  0.19810000  0.04540000  0.19540000  1.0 -0.1066508932
C  C113  1  0.84730000  0.04540000  0.19540000  1.0 -0.1066508932
C  C114  1  0.95460000  0.80190000  0.19540000  1.0 -0.1066508932
C  C115  1  0.84730000  0.80190000  0.80460000  1.0 -0.1066508932
C  C116  1  0.95460000  0.80190000  0.80460000  1.0 -0.1066508932
C  C117  1  0.84730000  0.04540000  0.80460000  1.0 -0.1066508932
C  C118  1  0.19810000  0.04540000  0.80460000  1.0 -0.1066508932
C  C119  1  0.95460000  0.15270000  0.19540000  1.0 -0.1066508932
C  C120  1  0.19810000  0.15270000  0.19540000  1.0 -0.1066508932
C  C121  1  0.89220000  0.78440000  0.21290000  1.0 0.0512311168
C  C122  1  0.89220000  0.10780000  0.78710000  1.0 0.0512311168
C  C123  1  0.21560000  0.10780000  0.78710000  1.0 0.0512311168
C  C124  1  0.21560000  0.10780000  0.21290000  1.0 0.0512311168
C  C125  1  0.89220000  0.10780000  0.21290000  1.0 0.0512311168
C  C126  1  0.89220000  0.78440000  0.78710000  1.0 0.0512311168
C  C127  1  0.80960000  0.71390000  0.32620000  1.0 0.3442276425
C  C128  1  0.90430000  0.19040000  0.67380000  1.0 0.3484159
C  C129  1  0.28610000  0.19040000  0.67380000  1.0 0.3484159
C  C130  1  0.28610000  0.09570000  0.32620000  1.0 0.3484159
C  C131  1  0.80960000  0.09570000  0.32620000  1.0 0.3484159
C  C132  1  0.90430000  0.71390000  0.32620000  1.0 0.3484159
C  C133  1  0.80960000  0.71390000  0.67380000  1.0 0.3442276425
C  C134  1  0.90430000  0.71390000  0.67380000  1.0 0.3484159
C  C135  1  0.80960000  0.09570000  0.67380000  1.0 0.3484159
C  C136  1  0.28610000  0.09570000  0.67380000  1.0 0.3484159
C  C137  1  0.90430000  0.19040000  0.32620000  1.0 0.3484159
C  C138  1  0.28610000  0.19040000  0.32620000  1.0 0.3484159
C  C139  1  0.88125000  0.76250000  0.26590000  1.0 0.3910387961
C  C140  1  0.88125000  0.11875000  0.73410000  1.0 0.3910387961
C  C141  1  0.23750000  0.11875000  0.73410000  1.0 0.3910387961
C  C142  1  0.23750000  0.11875000  0.26590000  1.0 0.3910387961
C  C143  1  0.88125000  0.11875000  0.26590000  1.0 0.3910387961
C  C144  1  0.88125000  0.76250000  0.73410000  1.0 0.3910387961
N  N1  1  0.84845000  0.69690000  0.35120000  1.0 -0.4019935521
N  N2  1  0.84845000  0.15155000  0.64880000  1.0 -0.4019935521
N  N3  1  0.30310000  0.15155000  0.64880000  1.0 -0.4019935521
N  N4  1  0.30310000  0.15155000  0.35120000  1.0 -0.4019935521
N  N5  1  0.84845000  0.15155000  0.35120000  1.0 -0.4019935521
N  N6  1  0.84845000  0.69690000  0.64880000  1.0 -0.4019935521
N  N7  1  0.82190000  0.74680000  0.28430000  1.0 -0.4153870039
N  N8  1  0.92490000  0.17810000  0.71570000  1.0 -0.4141349249
N  N9  1  0.25320000  0.17810000  0.71570000  1.0 -0.4153870039
N  N10  1  0.25320000  0.07510000  0.28430000  1.0 -0.4153870039
N  N11  1  0.82190000  0.07510000  0.28430000  1.0 -0.4141349249
N  N12  1  0.92490000  0.74680000  0.28430000  1.0 -0.4153870039
N  N13  1  0.82190000  0.74680000  0.71570000  1.0 -0.4141349249
N  N14  1  0.92490000  0.74680000  0.71570000  1.0 -0.4153870039
N  N15  1  0.82190000  0.07510000  0.71570000  1.0 -0.4141349249
N  N16  1  0.25320000  0.07510000  0.71570000  1.0 -0.4153870039
N  N17  1  0.92490000  0.17810000  0.28430000  1.0 -0.4141349249
N  N18  1  0.25320000  0.17810000  0.28430000  1.0 -0.4153870039
O  O1  1  0.53589000  0.70504000  0.41112000  1.0 -0.5718836454
O  O2  1  0.16915000  0.46411000  0.58888000  1.0 -0.5718836454
O  O3  1  0.29496000  0.46411000  0.58888000  1.0 -0.5718836454
O  O4  1  0.29496000  0.83085000  0.41112000  1.0 -0.5718836454
O  O5  1  0.53589000  0.83085000  0.41112000  1.0 -0.5718836454
O  O6  1  0.16915000  0.70504000  0.41112000  1.0 -0.5718836454
O  O7  1  0.53589000  0.70504000  0.58888000  1.0 -0.5718836454
O  O8  1  0.16915000  0.70504000  0.58888000  1.0 -0.5718836454
O  O9  1  0.53589000  0.83085000  0.58888000  1.0 -0.5718836454
O  O10  1  0.29496000  0.83085000  0.58888000  1.0 -0.5718836454
O  O11  1  0.16915000  0.46411000  0.41112000  1.0 -0.5718836454
O  O12  1  0.29496000  0.46411000  0.41112000  1.0 -0.5718836454
O  O13  1  0.52785000  0.61321000  0.44806000  1.0 -0.5407844477
O  O14  1  0.08536000  0.47215000  0.55194000  1.0 -0.5407844477
O  O15  1  0.38679000  0.47215000  0.55194000  1.0 -0.5407844477
O  O16  1  0.38679000  0.91464000  0.44806000  1.0 -0.5407844477
O  O17  1  0.52785000  0.91464000  0.44806000  1.0 -0.5407844477
O  O18  1  0.08536000  0.61321000  0.44806000  1.0 -0.5407844477
O  O19  1  0.52785000  0.61321000  0.55194000  1.0 -0.5407844477
O  O20  1  0.08536000  0.61321000  0.55194000  1.0 -0.5407844477
O  O21  1  0.52785000  0.91464000  0.55194000  1.0 -0.5407844477
O  O22  1  0.38679000  0.91464000  0.55194000  1.0 -0.5407844477
O  O23  1  0.08536000  0.47215000  0.44806000  1.0 -0.5407844477
O  O24  1  0.38679000  0.47215000  0.44806000  1.0 -0.5407844477
O  O25  1  0.88810000  0.87860000  0.05738000  1.0 -0.5718836454
O  O26  1  0.99050000  0.11190000  0.94262000  1.0 -0.5718836454
O  O27  1  0.12140000  0.11190000  0.94262000  1.0 -0.5718836454
O  O28  1  0.12140000  0.00950000  0.05738000  1.0 -0.5718836454
O  O29  1  0.88810000  0.00950000  0.05738000  1.0 -0.5718836454
O  O30  1  0.99050000  0.87860000  0.05738000  1.0 -0.5718836454
O  O31  1  0.88810000  0.87860000  0.94262000  1.0 -0.5718836454
O  O32  1  0.99050000  0.87860000  0.94262000  1.0 -0.5718836454
O  O33  1  0.88810000  0.00950000  0.94262000  1.0 -0.5718836454
O  O34  1  0.12140000  0.00950000  0.94262000  1.0 -0.5718836454
O  O35  1  0.99050000  0.11190000  0.05738000  1.0 -0.5718836454
O  O36  1  0.12140000  0.11190000  0.05738000  1.0 -0.5718836454
O  O37  1  0.33333333  0.66666667  0.45330000  1.0 -0.89227423
O  O38  1  0.33333333  0.66666667  0.54670000  1.0 -0.89227423
O  O39  1  0.46359000  0.78622000  0.50000000  1.0 -0.9300708863
O  O40  1  0.32263000  0.53641000  0.50000000  1.0 -0.9300708863
O  O41  1  0.21378000  0.53641000  0.50000000  1.0 -0.9300708863
O  O42  1  0.21378000  0.67737000  0.50000000  1.0 -0.9300708863
O  O43  1  0.46359000  0.67737000  0.50000000  1.0 -0.9300708863
O  O44  1  0.32263000  0.78622000  0.50000000  1.0 -0.9300708863
O  O45  1  0.39550000  0.79100000  0.42922000  1.0 -0.9487043612
O  O46  1  0.39550000  0.60450000  0.57078000  1.0 -0.9487043612
O  O47  1  0.20900000  0.60450000  0.57078000  1.0 -0.9487043612
O  O48  1  0.20900000  0.60450000  0.42922000  1.0 -0.9487043612
O  O49  1  0.39550000  0.60450000  0.42922000  1.0 -0.9487043612
O  O50  1  0.39550000  0.79100000  0.57078000  1.0 -0.9487043612
O  O51  1  0.00000000  0.00000000  0.00000000  1.0 -1.1152311258
