# DDEC6 charges by PACMAN v1.1 (https://github.com/mtap-research/PACMAN-charge/)
data_JITVEQ_ASR_pacman
_symmetry_space_group_name_H-M   'P 1'
_cell_length_a   15.90270000
_cell_length_b   15.90270000
_cell_length_c   20.57300000
_cell_angle_alpha   90.00000000
_cell_angle_beta   90.00000000
_cell_angle_gamma   131.61800000
_symmetry_Int_Tables_number   1
_chemical_formula_structural   Cu7H30C38(NO)12
_chemical_formula_sum   'Cu14 H60 C76 N24 O24'
_cell_volume   3889.57846469
_cell_formula_units_Z   2
loop_
 _symmetry_equiv_pos_site_id
 _symmetry_equiv_pos_as_xyz
  1  'x, y, z'
loop_
 _atom_site_type_symbol
 _atom_site_label
 _atom_site_symmetry_multiplicity
 _atom_site_fract_x
 _atom_site_fract_y
 _atom_site_fract_z
 _atom_site_occupancy
 _atom_site_charge
Cu  Cu1  1  0.90574000  0.34182000  0.91983000  1.0 0.6694526991
Cu  Cu2  1  0.09426000  0.65818000  0.91983000  1.0 0.6694526991
Cu  Cu3  1  0.65818000  0.09426000  0.08017000  1.0 0.6694526991
Cu  Cu4  1  0.34182000  0.90574000  0.08017000  1.0 0.6694526991
Cu  Cu5  1  0.09426000  0.65818000  0.08017000  1.0 0.6694526991
Cu  Cu6  1  0.90574000  0.34182000  0.08017000  1.0 0.6694526991
Cu  Cu7  1  0.34182000  0.90574000  0.91983000  1.0 0.6694526991
Cu  Cu8  1  0.65818000  0.09426000  0.91983000  1.0 0.6694526991
Cu  Cu9  1  0.80778000  0.44040000  0.00000000  1.0 0.6269390083
Cu  Cu10  1  0.19222000  0.55960000  0.00000000  1.0 0.6187870797
Cu  Cu11  1  0.55960000  0.19222000  0.00000000  1.0 0.6187870797
Cu  Cu12  1  0.44040000  0.80778000  0.00000000  1.0 0.6187870797
Cu  Cu13  1  0.90080000  0.90080000  0.50000000  1.0 0.8449958063
Cu  Cu14  1  0.09920000  0.09920000  0.50000000  1.0 0.8468213177
H  H1  1  0.05850000  0.24430000  0.65870000  1.0 0.1292813516
H  H2  1  0.01110000  0.29430000  0.74780000  1.0 0.1209240726
H  H3  1  0.02850000  0.24090000  0.90410000  1.0 0.1101893724
H  H4  1  0.87230000  0.40270000  0.77630000  1.0 0.1101893724
H  H5  1  0.79450000  0.49430000  0.76460000  1.0 0.1209240726
H  H6  1  0.75870000  0.52390000  0.87620000  1.0 0.1101893724
H  H7  1  0.94150000  0.75570000  0.65870000  1.0 0.1292813516
H  H8  1  0.98890000  0.70570000  0.74780000  1.0 0.1209240726
H  H9  1  0.97150000  0.75910000  0.90410000  1.0 0.1101893724
H  H10  1  0.12770000  0.59730000  0.77630000  1.0 0.1101893724
H  H11  1  0.20550000  0.50570000  0.76460000  1.0 0.1209240726
H  H12  1  0.24130000  0.47610000  0.87620000  1.0 0.1101893724
H  H13  1  0.75570000  0.94150000  0.34130000  1.0 0.1292813516
H  H14  1  0.70570000  0.98890000  0.25220000  1.0 0.1209240726
H  H15  1  0.75910000  0.97150000  0.09590000  1.0 0.1101893724
H  H16  1  0.59730000  0.12770000  0.22370000  1.0 0.1101893724
H  H17  1  0.50570000  0.20550000  0.23540000  1.0 0.1209240726
H  H18  1  0.47610000  0.24130000  0.12380000  1.0 0.1101893724
H  H19  1  0.24430000  0.05850000  0.34130000  1.0 0.1292813516
H  H20  1  0.29430000  0.01110000  0.25220000  1.0 0.1209240726
H  H21  1  0.24090000  0.02850000  0.09590000  1.0 0.1101893724
H  H22  1  0.40270000  0.87230000  0.22370000  1.0 0.1101893724
H  H23  1  0.49430000  0.79450000  0.23540000  1.0 0.1209240726
H  H24  1  0.52390000  0.75870000  0.12380000  1.0 0.1101893724
H  H25  1  0.94150000  0.75570000  0.34130000  1.0 0.1292813516
H  H26  1  0.98890000  0.70570000  0.25220000  1.0 0.1209240726
H  H27  1  0.97150000  0.75910000  0.09590000  1.0 0.1101893724
H  H28  1  0.12770000  0.59730000  0.22370000  1.0 0.1101893724
H  H29  1  0.20550000  0.50570000  0.23540000  1.0 0.1209240726
H  H30  1  0.24130000  0.47610000  0.12380000  1.0 0.1101893724
H  H31  1  0.05850000  0.24430000  0.34130000  1.0 0.1292813516
H  H32  1  0.01110000  0.29430000  0.25220000  1.0 0.1209240726
H  H33  1  0.02850000  0.24090000  0.09590000  1.0 0.1101893724
H  H34  1  0.87230000  0.40270000  0.22370000  1.0 0.1101893724
H  H35  1  0.79450000  0.49430000  0.23540000  1.0 0.1209240726
H  H36  1  0.75870000  0.52390000  0.12380000  1.0 0.1101893724
H  H37  1  0.24430000  0.05850000  0.65870000  1.0 0.1292813516
H  H38  1  0.29430000  0.01110000  0.74780000  1.0 0.1209240726
H  H39  1  0.24090000  0.02850000  0.90410000  1.0 0.1101893724
H  H40  1  0.40270000  0.87230000  0.77630000  1.0 0.1101893724
H  H41  1  0.49430000  0.79450000  0.76460000  1.0 0.1209240726
H  H42  1  0.52390000  0.75870000  0.87620000  1.0 0.1101893724
H  H43  1  0.75570000  0.94150000  0.65870000  1.0 0.1292813516
H  H44  1  0.70570000  0.98890000  0.74780000  1.0 0.1209240726
H  H45  1  0.75910000  0.97150000  0.90410000  1.0 0.1101893724
H  H46  1  0.59730000  0.12770000  0.77630000  1.0 0.1101893724
H  H47  1  0.50570000  0.20550000  0.76460000  1.0 0.1209240726
H  H48  1  0.47610000  0.24130000  0.87620000  1.0 0.1101893724
H  H49  1  0.09060000  0.20340000  0.00000000  1.0 0.1209240726
H  H50  1  0.69250000  0.61210000  0.00000000  1.0 0.1209240726
H  H51  1  0.94200000  0.44000000  0.00000000  1.0 0.1884390361
H  H52  1  0.90940000  0.79660000  0.00000000  1.0 0.1209240726
H  H53  1  0.30750000  0.38790000  0.00000000  1.0 0.1209240726
H  H54  1  0.05800000  0.56000000  0.00000000  1.0 0.1884390361
H  H55  1  0.79660000  0.90940000  0.00000000  1.0 0.1209240726
H  H56  1  0.38790000  0.30750000  0.00000000  1.0 0.1209240726
H  H57  1  0.56000000  0.05800000  0.00000000  1.0 0.1884390361
H  H58  1  0.20340000  0.09060000  0.00000000  1.0 0.1209240726
H  H59  1  0.61210000  0.69250000  0.00000000  1.0 0.1209240726
H  H60  1  0.44000000  0.94200000  0.00000000  1.0 0.1884390361
C  C1  1  0.98620000  0.19320000  0.67580000  1.0 -0.1095953616
C  C2  1  0.95890000  0.22250000  0.73010000  1.0 -0.1159173278
C  C3  1  0.01920000  0.25120000  0.94710000  1.0 -0.01880804
C  C4  1  0.85050000  0.42310000  0.81040000  1.0 -0.000948576
C  C5  1  0.80720000  0.47440000  0.80340000  1.0 -0.2212807838
C  C6  1  0.78690000  0.49010000  0.86500000  1.0 -0.000948576
C  C7  1  0.01380000  0.80680000  0.67580000  1.0 -0.1095953616
C  C8  1  0.04110000  0.77750000  0.73010000  1.0 -0.1095953616
C  C9  1  0.98080000  0.74880000  0.94710000  1.0 -0.01880804
C  C10  1  0.14950000  0.57690000  0.81040000  1.0 -0.000948576
C  C11  1  0.19280000  0.52560000  0.80340000  1.0 -0.2212807838
C  C12  1  0.21310000  0.50990000  0.86500000  1.0 -0.000948576
C  C13  1  0.80680000  0.01380000  0.32420000  1.0 -0.1095953616
C  C14  1  0.77750000  0.04110000  0.26990000  1.0 -0.1159173278
C  C15  1  0.74880000  0.98080000  0.05290000  1.0 -0.01880804
C  C16  1  0.57690000  0.14950000  0.18960000  1.0 -0.000948576
C  C17  1  0.52560000  0.19280000  0.19660000  1.0 -0.2212807838
C  C18  1  0.50990000  0.21310000  0.13500000  1.0 -0.000948576
C  C19  1  0.19320000  0.98620000  0.32420000  1.0 -0.1095953616
C  C20  1  0.22250000  0.95890000  0.26990000  1.0 -0.1159173278
C  C21  1  0.25120000  0.01920000  0.05290000  1.0 -0.01880804
C  C22  1  0.42310000  0.85050000  0.18960000  1.0 -0.000948576
C  C23  1  0.47440000  0.80720000  0.19660000  1.0 -0.2212807838
C  C24  1  0.49010000  0.78690000  0.13500000  1.0 -0.000948576
C  C25  1  0.01380000  0.80680000  0.32420000  1.0 -0.1095953616
C  C26  1  0.04110000  0.77750000  0.26990000  1.0 -0.1095953616
C  C27  1  0.98080000  0.74880000  0.05290000  1.0 -0.01880804
C  C28  1  0.14950000  0.57690000  0.18960000  1.0 -0.000948576
C  C29  1  0.19280000  0.52560000  0.19660000  1.0 -0.2212807838
C  C30  1  0.21310000  0.50990000  0.13500000  1.0 -0.000948576
C  C31  1  0.98620000  0.19320000  0.32420000  1.0 -0.1095953616
C  C32  1  0.95890000  0.22250000  0.26990000  1.0 -0.1159173278
C  C33  1  0.01920000  0.25120000  0.05290000  1.0 -0.01880804
C  C34  1  0.85050000  0.42310000  0.18960000  1.0 -0.000948576
C  C35  1  0.80720000  0.47440000  0.19660000  1.0 -0.2212807838
C  C36  1  0.78690000  0.49010000  0.13500000  1.0 -0.000948576
C  C37  1  0.19320000  0.98620000  0.67580000  1.0 -0.1095953616
C  C38  1  0.22250000  0.95890000  0.73010000  1.0 -0.1159173278
C  C39  1  0.25120000  0.01920000  0.94710000  1.0 -0.01880804
C  C40  1  0.42310000  0.85050000  0.81040000  1.0 -0.000948576
C  C41  1  0.47440000  0.80720000  0.80340000  1.0 -0.2212807838
C  C42  1  0.49010000  0.78690000  0.86500000  1.0 -0.000948576
C  C43  1  0.80680000  0.01380000  0.67580000  1.0 -0.1095953616
C  C44  1  0.77750000  0.04110000  0.73010000  1.0 -0.1159173278
C  C45  1  0.74880000  0.98080000  0.94710000  1.0 -0.01880804
C  C46  1  0.57690000  0.14950000  0.81040000  1.0 -0.000948576
C  C47  1  0.52560000  0.19280000  0.80340000  1.0 -0.2212807838
C  C48  1  0.50990000  0.21310000  0.86500000  1.0 -0.000948576
C  C49  1  0.94050000  0.05950000  0.58930000  1.0 0.5713499284
C  C50  1  0.90900000  0.09100000  0.64740000  1.0 -0.01880804
C  C51  1  0.85490000  0.14510000  0.75740000  1.0 -0.0296804915
C  C52  1  0.82600000  0.17400000  0.81800000  1.0 0.5482857323
C  C53  1  0.05950000  0.94050000  0.58930000  1.0 0.5713499284
C  C54  1  0.09100000  0.90900000  0.64740000  1.0 -0.01880804
C  C55  1  0.14510000  0.85490000  0.75740000  1.0 -0.0296804915
C  C56  1  0.17400000  0.82600000  0.81800000  1.0 0.5482857323
C  C57  1  0.94050000  0.05950000  0.41070000  1.0 0.5713499284
C  C58  1  0.90900000  0.09100000  0.35260000  1.0 -0.01880804
C  C59  1  0.85490000  0.14510000  0.24260000  1.0 -0.0296804915
C  C60  1  0.82600000  0.17400000  0.18200000  1.0 0.5482857323
C  C61  1  0.05950000  0.94050000  0.41070000  1.0 0.5713499284
C  C62  1  0.09100000  0.90900000  0.35260000  1.0 -0.01880804
C  C63  1  0.14510000  0.85490000  0.24260000  1.0 -0.0296804915
C  C64  1  0.17400000  0.82600000  0.18200000  1.0 0.5482857323
C  C65  1  0.05230000  0.22910000  0.00000000  1.0 -0.2212807838
C  C66  1  0.61470000  0.56630000  0.00000000  1.0 -0.1095953616
C  C67  1  0.94770000  0.77090000  0.00000000  1.0 -0.2212807838
C  C68  1  0.38530000  0.43370000  0.00000000  1.0 -0.1095953616
C  C69  1  0.77090000  0.94770000  0.00000000  1.0 -0.2212807838
C  C70  1  0.43370000  0.38530000  0.00000000  1.0 -0.1095953616
C  C71  1  0.22910000  0.05230000  0.00000000  1.0 -0.2212807838
C  C72  1  0.56630000  0.61470000  0.00000000  1.0 -0.1095953616
C  C73  1  0.59940000  0.40060000  0.00000000  1.0 0.5409558213
C  C74  1  0.54760000  0.45240000  0.00000000  1.0 -0.0296804915
C  C75  1  0.40060000  0.59940000  0.00000000  1.0 0.5409558213
C  C76  1  0.45240000  0.54760000  0.00000000  1.0 -0.0296804915
N  N1  1  0.85650000  0.40690000  0.87340000  1.0 -0.1803426106
N  N2  1  0.81566000  0.44694000  0.90570000  1.0 -0.1803426106
N  N3  1  0.96974000  0.29146000  0.96750000  1.0 -0.1803426106
N  N4  1  0.14350000  0.59310000  0.87340000  1.0 -0.1803426106
N  N5  1  0.18434000  0.55306000  0.90570000  1.0 -0.1803426106
N  N6  1  0.03026000  0.70854000  0.96750000  1.0 -0.1803426106
N  N7  1  0.59310000  0.14350000  0.12660000  1.0 -0.1803426106
N  N8  1  0.55306000  0.18434000  0.09430000  1.0 -0.1803426106
N  N9  1  0.70854000  0.03026000  0.03250000  1.0 -0.1803426106
N  N10  1  0.40690000  0.85650000  0.12660000  1.0 -0.1803426106
N  N11  1  0.44694000  0.81566000  0.09430000  1.0 -0.1803426106
N  N12  1  0.29146000  0.96974000  0.03250000  1.0 -0.1803426106
N  N13  1  0.14350000  0.59310000  0.12660000  1.0 -0.1803426106
N  N14  1  0.18434000  0.55306000  0.09430000  1.0 -0.1803426106
N  N15  1  0.03026000  0.70854000  0.03250000  1.0 -0.1803426106
N  N16  1  0.85650000  0.40690000  0.12660000  1.0 -0.1803426106
N  N17  1  0.81566000  0.44694000  0.09430000  1.0 -0.1803426106
N  N18  1  0.96974000  0.29146000  0.03250000  1.0 -0.1803426106
N  N19  1  0.40690000  0.85650000  0.87340000  1.0 -0.1803426106
N  N20  1  0.44694000  0.81566000  0.90570000  1.0 -0.1803426106
N  N21  1  0.29146000  0.96974000  0.96750000  1.0 -0.1803426106
N  N22  1  0.59310000  0.14350000  0.87340000  1.0 -0.1803426106
N  N23  1  0.55306000  0.18434000  0.90570000  1.0 -0.1803426106
N  N24  1  0.70854000  0.03026000  0.96750000  1.0 -0.1803426106
O  O1  1  0.89852000  0.26928000  0.84150000  1.0 -0.5067354966
O  O2  1  0.86858000  0.96202000  0.56731000  1.0 -0.5184854173
O  O3  1  0.10148000  0.73072000  0.84150000  1.0 -0.5067354966
O  O4  1  0.13142000  0.03798000  0.56731000  1.0 -0.5184854173
O  O5  1  0.73072000  0.10148000  0.15850000  1.0 -0.5067354966
O  O6  1  0.03798000  0.13142000  0.43269000  1.0 -0.5184854173
O  O7  1  0.26928000  0.89852000  0.15850000  1.0 -0.5067354966
O  O8  1  0.96202000  0.86858000  0.43269000  1.0 -0.5184854173
O  O9  1  0.10148000  0.73072000  0.15850000  1.0 -0.5067354966
O  O10  1  0.13142000  0.03798000  0.43269000  1.0 -0.5184854173
O  O11  1  0.89852000  0.26928000  0.15850000  1.0 -0.5067354966
O  O12  1  0.86858000  0.96202000  0.43269000  1.0 -0.5184854173
O  O13  1  0.26928000  0.89852000  0.84150000  1.0 -0.5067354966
O  O14  1  0.96202000  0.86858000  0.56731000  1.0 -0.5184854173
O  O15  1  0.73072000  0.10148000  0.84150000  1.0 -0.5067354966
O  O16  1  0.03798000  0.13142000  0.56731000  1.0 -0.5184854173
O  O17  1  0.90216000  0.40324000  0.00000000  1.0 -0.6412064635
O  O18  1  0.70308000  0.46492000  0.00000000  1.0 -0.5067354966
O  O19  1  0.09784000  0.59676000  0.00000000  1.0 -0.6412064635
O  O20  1  0.29692000  0.53508000  0.00000000  1.0 -0.5067354966
O  O21  1  0.59676000  0.09784000  0.00000000  1.0 -0.6412064635
O  O22  1  0.53508000  0.29692000  0.00000000  1.0 -0.5067354966
O  O23  1  0.40324000  0.90216000  0.00000000  1.0 -0.6412064635
O  O24  1  0.46492000  0.70308000  0.00000000  1.0 -0.5067354966
