# DDEC6 charges by PACMAN v1.1 (https://github.com/mtap-research/PACMAN-charge/)
data_JIVQOU_ASR_pacman
_symmetry_space_group_name_H-M   'P 1'
_cell_length_a   9.17680000
_cell_length_b   12.72290000
_cell_length_c   16.48300000
_cell_angle_alpha   68.53000000
_cell_angle_beta   83.28500000
_cell_angle_gamma   73.25900000
_symmetry_Int_Tables_number   1
_chemical_formula_structural   Fe6P9O35
_chemical_formula_sum   'Fe12 P18 O70'
_cell_volume   1714.89109434
_cell_formula_units_Z   2
loop_
 _symmetry_equiv_pos_site_id
 _symmetry_equiv_pos_as_xyz
  1  'x, y, z'
loop_
 _atom_site_type_symbol
 _atom_site_label
 _atom_site_symmetry_multiplicity
 _atom_site_fract_x
 _atom_site_fract_y
 _atom_site_fract_z
 _atom_site_occupancy
 _atom_site_charge
Fe  Fe1  1  0.94514000  0.55459000  0.12999000  1.0 1.4980905656
Fe  Fe2  1  0.05486000  0.44541000  0.87001000  1.0 1.4980905656
Fe  Fe3  1  0.97130000  0.06611000  0.12269000  1.0 1.3993852142
Fe  Fe4  1  0.02870000  0.93389000  0.87731000  1.0 1.3993852142
Fe  Fe5  1  0.31144000  0.19092000  0.24756000  1.0 1.4321069125
Fe  Fe6  1  0.68856000  0.80908000  0.75244000  1.0 1.4321069125
Fe  Fe7  1  0.31093000  0.68775000  0.25197000  1.0 1.4588908557
Fe  Fe8  1  0.68907000  0.31225000  0.74803000  1.0 1.4588908557
Fe  Fe9  1  0.96282000  0.44117000  0.38236000  1.0 1.4378628139
Fe  Fe10  1  0.03718000  0.55883000  0.61764000  1.0 1.4378628139
Fe  Fe11  1  0.96301000  0.94138000  0.38258000  1.0 1.3883650307
Fe  Fe12  1  0.03699000  0.05862000  0.61742000  1.0 1.3883650307
P  P1  1  0.09340000  0.30870000  0.07950000  1.0 1.5193656389
P  P2  1  0.90660000  0.69130000  0.92050000  1.0 1.5193656389
P  P3  1  0.65930000  0.52230000  0.26290000  1.0 1.4378628139
P  P4  1  0.34070000  0.47770000  0.73710000  1.0 1.4378628139
P  P5  1  0.12570000  0.87760000  0.07970000  1.0 1.477044384
P  P6  1  0.87430000  0.12240000  0.92030000  1.0 1.477044384
P  P7  1  0.22750000  0.93910000  0.28010000  1.0 1.4980905656
P  P8  1  0.77250000  0.06090000  0.71990000  1.0 1.4980905656
P  P9  1  0.21940000  0.43770000  0.27545000  1.0 1.5193656389
P  P10  1  0.78060000  0.56230000  0.72455000  1.0 1.5193656389
P  P11  1  0.05270000  0.65910000  0.40090000  1.0 1.4980905656
P  P12  1  0.94730000  0.34090000  0.59910000  1.0 1.4980905656
P  P13  1  0.04710000  0.16370000  0.40290000  1.0 1.477044384
P  P14  1  0.95290000  0.83630000  0.59710000  1.0 1.4745774273
P  P15  1  0.67080000  0.04400000  0.25280000  1.0 0.4729654991
P  P16  1  0.32920000  0.95600000  0.74720000  1.0 0.4729654991
P  P17  1  0.69770000  0.10830000  0.25420000  1.0 0.5149384145
P  P18  1  0.30230000  0.89170000  0.74580000  1.0 0.5163934831
O  O1  1  0.00370000  0.21760000  0.10640000  1.0 -0.7389977719
O  O2  1  0.99630000  0.78240000  0.89360000  1.0 -0.7389977719
O  O3  1  0.24190000  0.26170000  0.13050000  1.0 -0.7272783589
O  O4  1  0.75810000  0.73830000  0.86950000  1.0 -0.7272783589
O  O5  1  0.99460000  0.41890000  0.09500000  1.0 -0.7684532996
O  O6  1  0.00540000  0.58110000  0.90500000  1.0 -0.7684532996
O  O7  1  0.14090000  0.33790000  0.98240000  1.0 -0.7389977719
O  O8  1  0.85910000  0.66210000  0.01760000  1.0 -0.7389977719
O  O9  1  0.74560000  0.52930000  0.17650000  1.0 -0.7617764469
O  O10  1  0.25440000  0.47070000  0.82350000  1.0 -0.7617764469
O  O11  1  0.52470000  0.62870000  0.25160000  1.0 -0.7107714212
O  O12  1  0.47530000  0.37130000  0.74840000  1.0 -0.7107714212
O  O13  1  0.75690000  0.50830000  0.33540000  1.0 -0.7007752483
O  O14  1  0.24310000  0.49170000  0.66460000  1.0 -0.7007752483
O  O15  1  0.59690000  0.41080000  0.28950000  1.0 -0.5452919599
O  O16  1  0.40310000  0.58920000  0.71050000  1.0 -0.5452919599
O  O17  1  0.16950000  0.99090000  0.06900000  1.0 -0.7272783589
O  O18  1  0.83050000  0.00910000  0.93100000  1.0 -0.7272783589
O  O19  1  0.12570000  0.85750000  0.99390000  1.0 -0.7007752483
O  O20  1  0.87430000  0.14250000  0.00610000  1.0 -0.7007752483
O  O21  1  0.96770000  0.89690000  0.12310000  1.0 -0.7192011472
O  O22  1  0.03230000  0.10310000  0.87690000  1.0 -0.7192011472
O  O23  1  0.24020000  0.76750000  0.13550000  1.0 -0.7007752483
O  O24  1  0.75980000  0.23250000  0.86450000  1.0 -0.7007752483
O  O25  1  0.31400000  0.03280000  0.24950000  1.0 -0.7007752483
O  O26  1  0.68600000  0.96720000  0.75050000  1.0 -0.7007752483
O  O27  1  0.32700000  0.83730000  0.25520000  1.0 -0.7107714212
O  O28  1  0.67300000  0.16270000  0.74480000  1.0 -0.7107714212
O  O29  1  0.19250000  0.90190000  0.37940000  1.0 -0.7007752483
O  O30  1  0.80750000  0.09810000  0.62060000  1.0 -0.7007752483
O  O31  1  0.06420000  0.98550000  0.24300000  1.0 -0.7867260572
O  O32  1  0.93580000  0.01450000  0.75700000  1.0 -0.7867260572
O  O33  1  0.05340000  0.46610000  0.24360000  1.0 -0.8220632967
O  O34  1  0.94660000  0.53390000  0.75640000  1.0 -0.8220632967
O  O35  1  0.32880000  0.34250000  0.24680000  1.0 -0.692051604
O  O36  1  0.67120000  0.65750000  0.75320000  1.0 -0.692051604
O  O37  1  0.27440000  0.54850000  0.23500000  1.0 -0.7107714212
O  O38  1  0.72560000  0.45150000  0.76500000  1.0 -0.7107714212
O  O39  1  0.19480000  0.40000000  0.37510000  1.0 -0.7107714212
O  O40  1  0.80520000  0.60000000  0.62490000  1.0 -0.7107714212
O  O41  1  0.21320000  0.65710000  0.36180000  1.0 -0.7272783589
O  O42  1  0.78680000  0.34290000  0.63820000  1.0 -0.7272783589
O  O43  1  0.96600000  0.60700000  0.35740000  1.0 -0.7107714212
O  O44  1  0.03400000  0.39300000  0.64260000  1.0 -0.7107714212
O  O45  1  0.96010000  0.78510000  0.38660000  1.0 -0.7007752483
O  O46  1  0.03990000  0.21490000  0.61340000  1.0 -0.7007752483
O  O47  1  0.07430000  0.58710000  0.49750000  1.0 -0.692051604
O  O48  1  0.92570000  0.41290000  0.50250000  1.0 -0.692051604
O  O49  1  0.19440000  0.17230000  0.35010000  1.0 -0.7272783589
O  O50  1  0.80560000  0.82770000  0.64990000  1.0 -0.7272783589
O  O51  1  0.94450000  0.28610000  0.39420000  1.0 -0.7107714212
O  O52  1  0.05550000  0.71390000  0.60580000  1.0 -0.7107714212
O  O53  1  0.95540000  0.10530000  0.36990000  1.0 -0.6724208292
O  O54  1  0.04460000  0.89470000  0.63010000  1.0 -0.6724208292
O  O55  1  0.09410000  0.09330000  0.49720000  1.0 -0.7007752483
O  O56  1  0.90590000  0.90670000  0.50280000  1.0 -0.7007752483
O  O57  1  0.76620000  0.08720000  0.17210000  1.0 -0.4336418506
O  O58  1  0.23380000  0.91280000  0.82790000  1.0 -0.4336418506
O  O59  1  0.52820000  0.13960000  0.25390000  1.0 -0.4201370176
O  O60  1  0.47180000  0.86040000  0.74610000  1.0 -0.4201370176
O  O61  1  0.75640000  0.99820000  0.33690000  1.0 -0.4201370176
O  O62  1  0.24360000  0.00180000  0.66310000  1.0 -0.4201370176
O  O63  1  0.61500000  0.94320000  0.24400000  1.0 0.076960564
O  O64  1  0.38500000  0.05680000  0.75600000  1.0 0.076960564
O  O65  1  0.78400000  0.26200000  0.23900000  1.0 0.5976451639
O  O66  1  0.21600000  0.73800000  0.76100000  1.0 0.5976451639
O  O67  1  0.64300000  0.87200000  0.24700000  1.0 0.4729654991
O  O68  1  0.35700000  0.12800000  0.75300000  1.0 0.4757885937
O  O69  1  0.73400000  0.21100000  0.26400000  1.0 0.1131702479
O  O70  1  0.26600000  0.78900000  0.73600000  1.0 0.1131702479
