# DDEC6 charges by PACMAN v1.1 (https://github.com/mtap-research/PACMAN-charge/)
data_JIVSIR01_FSR_pacman
_symmetry_space_group_name_H-M   'P 1'
_cell_length_a   18.83180000
_cell_length_b   18.83180000
_cell_length_c   6.20450000
_cell_angle_alpha   82.38800000
_cell_angle_beta   97.61200000
_cell_angle_gamma   158.40700000
_symmetry_Int_Tables_number   1
_chemical_formula_structural   Nd2CuH32C50(NO8)2
_chemical_formula_sum   'Nd2 Cu1 H32 C50 N2 O16'
_cell_volume   802.35410637
_cell_formula_units_Z   1
loop_
 _symmetry_equiv_pos_site_id
 _symmetry_equiv_pos_as_xyz
  1  'x, y, z'
loop_
 _atom_site_type_symbol
 _atom_site_label
 _atom_site_symmetry_multiplicity
 _atom_site_fract_x
 _atom_site_fract_y
 _atom_site_fract_z
 _atom_site_occupancy
 _atom_site_charge
Nd  Nd1  1  0.78041000  0.21959000  0.47851000  1.0 1.9550025168
Nd  Nd2  1  0.21959000  0.78041000  0.52149000  1.0 1.9535343352
Cu  Cu1  1  0.00000000  0.00000000  0.00000000  1.0 0.1923563334
H  H1  1  0.85960000  0.91780000  0.40430000  1.0 0.0609945062
H  H2  1  0.91780000  0.85960000  0.59570000  1.0 0.0609945062
H  H3  1  0.14040000  0.08220000  0.59570000  1.0 0.0609945062
H  H4  1  0.08220000  0.14040000  0.40430000  1.0 0.0609945062
H  H5  1  0.79950000  0.97330000  0.52120000  1.0 0.0902444897
H  H6  1  0.97330000  0.79950000  0.47880000  1.0 0.0902444897
H  H7  1  0.20050000  0.02670000  0.47880000  1.0 0.0902444897
H  H8  1  0.02670000  0.20050000  0.52120000  1.0 0.0902444897
H  H9  1  0.96010000  0.22370000  0.93350000  1.0 0.0902444897
H  H10  1  0.22370000  0.96010000  0.06650000  1.0 0.0902444897
H  H11  1  0.03990000  0.77630000  0.06650000  1.0 0.0902444897
H  H12  1  0.77630000  0.03990000  0.93350000  1.0 0.0902444897
H  H13  1  0.01180000  0.16040000  0.81430000  1.0 0.0209167667
H  H14  1  0.16040000  0.01180000  0.18570000  1.0 0.0209167667
H  H15  1  0.98820000  0.83960000  0.18570000  1.0 0.0209167667
H  H16  1  0.83960000  0.98820000  0.81430000  1.0 0.0209167667
H  H17  1  0.48900000  0.21320000  0.18820000  1.0 0.0987815897
H  H18  1  0.21320000  0.48900000  0.81180000  1.0 0.0987815897
H  H19  1  0.51100000  0.78680000  0.81180000  1.0 0.0987815897
H  H20  1  0.78680000  0.51100000  0.18820000  1.0 0.0987815897
H  H21  1  0.54740000  0.37800000  0.97500000  1.0 0.0816492888
H  H22  1  0.37800000  0.54740000  0.02500000  1.0 0.0816492888
H  H23  1  0.45260000  0.62200000  0.02500000  1.0 0.0816492888
H  H24  1  0.62200000  0.45260000  0.97500000  1.0 0.0816492888
H  H25  1  0.66450000  0.48910000  0.62280000  1.0 0.0609945062
H  H26  1  0.48910000  0.66450000  0.37720000  1.0 0.0609945062
H  H27  1  0.33550000  0.51090000  0.37720000  1.0 0.0609945062
H  H28  1  0.51090000  0.33550000  0.62280000  1.0 0.0609945062
H  H29  1  0.74290000  0.45490000  0.49030000  1.0 0.0902444897
H  H30  1  0.45490000  0.74290000  0.50970000  1.0 0.0902444897
H  H31  1  0.25710000  0.54510000  0.50970000  1.0 0.0902444897
H  H32  1  0.54510000  0.25710000  0.49030000  1.0 0.0902444897
C  C1  1  0.88230000  0.98270000  0.30870000  1.0 -0.0209632483
C  C2  1  0.98270000  0.88230000  0.69130000  1.0 -0.0209632483
C  C3  1  0.11770000  0.01730000  0.69130000  1.0 -0.0209632483
C  C4  1  0.01730000  0.11770000  0.30870000  1.0 -0.0209632483
C  C5  1  0.84450000  0.01290000  0.37630000  1.0 -0.0209632483
C  C6  1  0.01290000  0.84450000  0.62370000  1.0 -0.0209632483
C  C7  1  0.15550000  0.98710000  0.62370000  1.0 -0.0209632483
C  C8  1  0.98710000  0.15550000  0.37630000  1.0 -0.0209632483
C  C9  1  0.87108000  0.10012000  0.23650000  1.0 -0.0639314476
C  C10  1  0.10012000  0.87108000  0.76350000  1.0 -0.0639314476
C  C11  1  0.12892000  0.89988000  0.76350000  1.0 -0.0639314476
C  C12  1  0.89988000  0.12892000  0.23650000  1.0 -0.0639314476
C  C13  1  0.93790000  0.15950000  0.02980000  1.0 0.0123427718
C  C14  1  0.15950000  0.93790000  0.97020000  1.0 0.0123427718
C  C15  1  0.06210000  0.84050000  0.97020000  1.0 0.0123427718
C  C16  1  0.84050000  0.06210000  0.02980000  1.0 0.0123427718
C  C17  1  0.97320000  0.12660000  0.96160000  1.0 0.0018997754
C  C18  1  0.12660000  0.97320000  0.03840000  1.0 0.0018997754
C  C19  1  0.02680000  0.87340000  0.03840000  1.0 0.0018997754
C  C20  1  0.87340000  0.02680000  0.96160000  1.0 0.0018997754
C  C21  1  0.84920000  0.15080000  0.32200000  1.0 0.3968055251
C  C22  1  0.15080000  0.84920000  0.67800000  1.0 0.3968055251
C  C23  1  0.67452000  0.32548000  0.76190000  1.0 -0.0283396962
C  C24  1  0.32548000  0.67452000  0.23810000  1.0 -0.0283396962
C  C25  1  0.58590000  0.24070000  0.96720000  1.0 -0.0283396962
C  C26  1  0.24070000  0.58590000  0.03280000  1.0 -0.0283396962
C  C27  1  0.41410000  0.75930000  0.03280000  1.0 -0.0283396962
C  C28  1  0.75930000  0.41410000  0.96720000  1.0 -0.0283396962
C  C29  1  0.54200000  0.26360000  0.04600000  1.0 -0.0957097185
C  C30  1  0.26360000  0.54200000  0.95400000  1.0 -0.0957097185
C  C31  1  0.45800000  0.73640000  0.95400000  1.0 -0.0957097185
C  C32  1  0.73640000  0.45800000  0.04600000  1.0 -0.0957097185
C  C33  1  0.57480000  0.35940000  0.91940000  1.0 -0.0639314476
C  C34  1  0.35940000  0.57480000  0.08060000  1.0 -0.0639314476
C  C35  1  0.42520000  0.64060000  0.08060000  1.0 -0.0639314476
C  C36  1  0.64060000  0.42520000  0.91940000  1.0 -0.0639314476
C  C37  1  0.64724000  0.42796000  0.71290000  1.0 -0.0477361099
C  C38  1  0.42796000  0.64724000  0.28710000  1.0 -0.0477361099
C  C39  1  0.35276000  0.57204000  0.28710000  1.0 -0.0477361099
C  C40  1  0.57204000  0.35276000  0.71290000  1.0 -0.0477361099
C  C41  1  0.69490000  0.40890000  0.63500000  1.0 -0.0477361099
C  C42  1  0.40890000  0.69490000  0.36500000  1.0 -0.0477361099
C  C43  1  0.30510000  0.59110000  0.36500000  1.0 -0.0477361099
C  C44  1  0.59110000  0.30510000  0.63500000  1.0 -0.0477361099
C  C45  1  0.70970000  0.29030000  0.66820000  1.0 0.5328493419
C  C46  1  0.29030000  0.70970000  0.33180000  1.0 0.5328493419
C  C47  1  0.55930000  0.14670000  0.12500000  1.0 0.4388219419
C  C48  1  0.14670000  0.55930000  0.87500000  1.0 0.4388219419
C  C49  1  0.44070000  0.85330000  0.87500000  1.0 0.4388219419
C  C50  1  0.85330000  0.44070000  0.12500000  1.0 0.4388219419
N  N1  1  0.95358000  0.04642000  0.10130000  1.0 -0.1957840619
N  N2  1  0.04642000  0.95358000  0.89870000  1.0 -0.1948127595
O  O1  1  0.82070000  0.17930000  0.19210000  1.0 -0.5370936391
O  O2  1  0.17930000  0.82070000  0.80790000  1.0 -0.5370936391
O  O3  1  0.78960000  0.09460000  0.51430000  1.0 -0.2809135465
O  O4  1  0.09460000  0.78960000  0.48570000  1.0 -0.2809135465
O  O5  1  0.21040000  0.90540000  0.48570000  1.0 -0.2809135465
O  O6  1  0.90540000  0.21040000  0.51430000  1.0 -0.2809135465
O  O7  1  0.73250000  0.26750000  0.15890000  1.0 -0.4657590089
O  O8  1  0.26750000  0.73250000  0.84110000  1.0 -0.4657590089
O  O9  1  0.39269000  0.99271000  0.20880000  1.0 -0.6063194272
O  O10  1  0.99271000  0.39269000  0.79120000  1.0 -0.6063194272
O  O11  1  0.60731000  0.00729000  0.79120000  1.0 -0.6063194272
O  O12  1  0.00729000  0.60731000  0.20880000  1.0 -0.6063194272
O  O13  1  0.57085000  0.12275000  0.62290000  1.0 -0.6473959682
O  O14  1  0.12275000  0.57085000  0.37710000  1.0 -0.6473959682
O  O15  1  0.42915000  0.87725000  0.37710000  1.0 -0.6473959682
O  O16  1  0.87725000  0.42915000  0.62290000  1.0 -0.6473959682
