# DDEC6 charges by PACMAN v1.1 (https://github.com/mtap-research/PACMAN-charge/)
data_JIVSAJ01_FSR_pacman
_symmetry_space_group_name_H-M   'P 1'
_cell_length_a   18.73550000
_cell_length_b   18.73550000
_cell_length_c   6.20240000
_cell_angle_alpha   82.71060000
_cell_angle_beta   97.28940000
_cell_angle_gamma   158.52700000
_symmetry_Int_Tables_number   1
_chemical_formula_structural   Eu2CuH32C50(NO4)4
_chemical_formula_sum   'Eu2 Cu1 H32 C50 N4 O16'
_cell_volume   790.30336915
_cell_formula_units_Z   1
loop_
 _symmetry_equiv_pos_site_id
 _symmetry_equiv_pos_as_xyz
  1  'x, y, z'
loop_
 _atom_site_type_symbol
 _atom_site_label
 _atom_site_symmetry_multiplicity
 _atom_site_fract_x
 _atom_site_fract_y
 _atom_site_fract_z
 _atom_site_occupancy
 _atom_site_charge
Eu  Eu1  1  0.22002000  0.77998000  0.52100000  1.0 1.9424944878
Eu  Eu2  1  0.77998000  0.22002000  0.47900000  1.0 1.9424944878
Cu  Cu1  1  0.00000000  0.00000000  0.00000000  1.0 0.1464932025
H  H1  1  0.14560000  0.08660000  0.59870000  1.0 0.0670659857
H  H2  1  0.08660000  0.14560000  0.40130000  1.0 0.0670659857
H  H3  1  0.85440000  0.91340000  0.40130000  1.0 0.0670659857
H  H4  1  0.91340000  0.85440000  0.59870000  1.0 0.0670659857
H  H5  1  0.21600000  0.03940000  0.48630000  1.0 0.0977663207
H  H6  1  0.03940000  0.21600000  0.51370000  1.0 0.0977663207
H  H7  1  0.78400000  0.96060000  0.51370000  1.0 0.0977663207
H  H8  1  0.96060000  0.78400000  0.48630000  1.0 0.0977663207
H  H9  1  0.06170000  0.79590000  0.07710000  1.0 0.0908715071
H  H10  1  0.79590000  0.06170000  0.92290000  1.0 0.0908715071
H  H11  1  0.93830000  0.20410000  0.92290000  1.0 0.0908715071
H  H12  1  0.20410000  0.93830000  0.07710000  1.0 0.0908715071
H  H13  1  0.97190000  0.82370000  0.18380000  1.0 0.0492048543
H  H14  1  0.82370000  0.97190000  0.81620000  1.0 0.0492048543
H  H15  1  0.02810000  0.17630000  0.81620000  1.0 0.0492048543
H  H16  1  0.17630000  0.02810000  0.18380000  1.0 0.0492048543
H  H17  1  0.50550000  0.78290000  0.80200000  1.0 0.0977663207
H  H18  1  0.78290000  0.50550000  0.19800000  1.0 0.0977663207
H  H19  1  0.49450000  0.21710000  0.19800000  1.0 0.0977663207
H  H20  1  0.21710000  0.49450000  0.80200000  1.0 0.0977663207
H  H21  1  0.45350000  0.62330000  0.01730000  1.0 0.0908715071
H  H22  1  0.62330000  0.45350000  0.98270000  1.0 0.0908715071
H  H23  1  0.54650000  0.37670000  0.98270000  1.0 0.0908715071
H  H24  1  0.37670000  0.54650000  0.01730000  1.0 0.0908715071
H  H25  1  0.33470000  0.51010000  0.37190000  1.0 0.0670659857
H  H26  1  0.51010000  0.33470000  0.62810000  1.0 0.0670659857
H  H27  1  0.66530000  0.48990000  0.62810000  1.0 0.0670659857
H  H28  1  0.48990000  0.66530000  0.37190000  1.0 0.0670659857
H  H29  1  0.25190000  0.54070000  0.50650000  1.0 0.0908715071
H  H30  1  0.54070000  0.25190000  0.49350000  1.0 0.0908715071
H  H31  1  0.74810000  0.45930000  0.49350000  1.0 0.0908715071
H  H32  1  0.45930000  0.74810000  0.50650000  1.0 0.0908715071
C  C1  1  0.12580000  0.02420000  0.69630000  1.0 0.0492048543
C  C2  1  0.02420000  0.12580000  0.30370000  1.0 0.0492048543
C  C3  1  0.87420000  0.97580000  0.30370000  1.0 0.0492048543
C  C4  1  0.97580000  0.87420000  0.69630000  1.0 0.0492048543
C  C5  1  0.16100000  0.99100000  0.62700000  1.0 -0.0593725327
C  C6  1  0.99100000  0.16100000  0.37300000  1.0 -0.0593725327
C  C7  1  0.83900000  0.00900000  0.37300000  1.0 -0.0593725327
C  C8  1  0.00900000  0.83900000  0.62700000  1.0 -0.0593725327
C  C9  1  0.11432000  0.88368000  0.76590000  1.0 -0.0593725327
C  C10  1  0.88368000  0.11432000  0.23410000  1.0 -0.0593725327
C  C11  1  0.88568000  0.11632000  0.23410000  1.0 -0.0593725327
C  C12  1  0.11632000  0.88568000  0.76590000  1.0 -0.0593725327
C  C13  1  0.06680000  0.84400000  0.97440000  1.0 -9.93763e-05
C  C14  1  0.84400000  0.06680000  0.02560000  1.0 -9.93763e-05
C  C15  1  0.93320000  0.15600000  0.02560000  1.0 -9.93763e-05
C  C16  1  0.15600000  0.93320000  0.97440000  1.0 -9.93763e-05
C  C17  1  0.02610000  0.87190000  0.04230000  1.0 0.0670659857
C  C18  1  0.87190000  0.02610000  0.95770000  1.0 0.0670659857
C  C19  1  0.97390000  0.12810000  0.95770000  1.0 0.0670659857
C  C20  1  0.12810000  0.97390000  0.04230000  1.0 0.0670659857
C  C21  1  0.15220000  0.84780000  0.68200000  1.0 0.3927308978
C  C22  1  0.84780000  0.15220000  0.31800000  1.0 0.3927308978
C  C23  1  0.32461000  0.67539000  0.23610000  1.0 -0.0296313628
C  C24  1  0.67539000  0.32461000  0.76390000  1.0 -0.0296313628
C  C25  1  0.41156000  0.75884000  0.02690000  1.0 -0.0204314929
C  C26  1  0.75884000  0.41156000  0.97310000  1.0 -0.0204314929
C  C27  1  0.58844000  0.24116000  0.97310000  1.0 -0.0204314929
C  C28  1  0.24116000  0.58844000  0.02690000  1.0 -0.0204314929
C  C29  1  0.45490000  0.73470000  0.94560000  1.0 -0.0875820159
C  C30  1  0.73470000  0.45490000  0.05440000  1.0 -0.0875820159
C  C31  1  0.54510000  0.26530000  0.05440000  1.0 -0.0875820159
C  C32  1  0.26530000  0.54510000  0.94560000  1.0 -0.0875820159
C  C33  1  0.42431000  0.64029000  0.07330000  1.0 -0.0593725327
C  C34  1  0.64029000  0.42431000  0.92670000  1.0 -0.0593725327
C  C35  1  0.57569000  0.35971000  0.92670000  1.0 -0.0593725327
C  C36  1  0.35971000  0.57569000  0.07330000  1.0 -0.0593725327
C  C37  1  0.35116000  0.57064000  0.28260000  1.0 -0.0204314929
C  C38  1  0.57064000  0.35116000  0.71740000  1.0 -0.0204314929
C  C39  1  0.64884000  0.42936000  0.71740000  1.0 -0.0204314929
C  C40  1  0.42936000  0.64884000  0.28260000  1.0 -0.0204314929
C  C41  1  0.30190000  0.58890000  0.36260000  1.0 -0.0475335918
C  C42  1  0.58890000  0.30190000  0.63740000  1.0 -0.0475335918
C  C43  1  0.69810000  0.41110000  0.63740000  1.0 -0.0475335918
C  C44  1  0.41110000  0.69810000  0.36260000  1.0 -0.0475335918
C  C45  1  0.29010000  0.70990000  0.33210000  1.0 0.5477064909
C  C46  1  0.70990000  0.29010000  0.66790000  1.0 0.5477064909
C  C47  1  0.43450000  0.84750000  0.87100000  1.0 0.4116434664
C  C48  1  0.84750000  0.43450000  0.12900000  1.0 0.4116434664
C  C49  1  0.56550000  0.15250000  0.12900000  1.0 0.4116434664
C  C50  1  0.15250000  0.56550000  0.87100000  1.0 0.4116434664
N  N1  1  0.06387000  0.97013000  0.90500000  1.0 -0.2987927436
N  N2  1  0.97013000  0.06387000  0.09500000  1.0 -0.2987927436
N  N3  1  0.93613000  0.02987000  0.09500000  1.0 -0.2987927436
N  N4  1  0.02987000  0.93613000  0.90500000  1.0 -0.2987927436
O  O1  1  0.18080000  0.81920000  0.80730000  1.0 -0.5221118866
O  O2  1  0.81920000  0.18080000  0.19270000  1.0 -0.5221118866
O  O3  1  0.20720000  0.89960000  0.48470000  1.0 -0.248414529
O  O4  1  0.89960000  0.20720000  0.51530000  1.0 -0.248414529
O  O5  1  0.79280000  0.10040000  0.51530000  1.0 -0.248414529
O  O6  1  0.10040000  0.79280000  0.48470000  1.0 -0.248414529
O  O7  1  0.26720000  0.73280000  0.83730000  1.0 -0.3943989515
O  O8  1  0.73280000  0.26720000  0.16270000  1.0 -0.3962917268
O  O9  1  0.60871000  0.01009000  0.78710000  1.0 -0.6300072014
O  O10  1  0.01009000  0.60871000  0.21290000  1.0 -0.6300072014
O  O11  1  0.39129000  0.98991000  0.21290000  1.0 -0.6300072014
O  O12  1  0.98991000  0.39129000  0.78710000  1.0 -0.6300072014
O  O13  1  0.43085000  0.87915000  0.37770000  1.0 -0.6525331973
O  O14  1  0.87915000  0.43085000  0.62230000  1.0 -0.6525331973
O  O15  1  0.56915000  0.12085000  0.62230000  1.0 -0.6525331973
O  O16  1  0.12085000  0.56915000  0.37770000  1.0 -0.6525331973
