# DDEC6 charges by PACMAN v1.1 (https://github.com/mtap-research/PACMAN-charge/)
data_JIVSEN01_FSR_pacman
_symmetry_space_group_name_H-M   'P 1'
_cell_length_a   18.75020000
_cell_length_b   18.75020000
_cell_length_c   6.19880000
_cell_angle_alpha   82.68190000
_cell_angle_beta   97.31810000
_cell_angle_gamma   158.46400000
_symmetry_Int_Tables_number   1
_chemical_formula_structural   Sm2CuH30C50(NO8)2
_chemical_formula_sum   'Sm2 Cu1 H30 C50 N2 O16'
_cell_volume   793.24117651
_cell_formula_units_Z   1
loop_
 _symmetry_equiv_pos_site_id
 _symmetry_equiv_pos_as_xyz
  1  'x, y, z'
loop_
 _atom_site_type_symbol
 _atom_site_label
 _atom_site_symmetry_multiplicity
 _atom_site_fract_x
 _atom_site_fract_y
 _atom_site_fract_z
 _atom_site_occupancy
 _atom_site_charge
Sm  Sm1  1  0.21995000  0.78005000  0.52151000  1.0 1.8240740049
Sm  Sm2  1  0.78005000  0.21995000  0.47849000  1.0 1.8240740049
Cu  Cu1  1  0.00000000  0.00000000  0.00000000  1.0 0.1387006391
H  H1  1  0.15990000  0.10010000  0.61000000  1.0 0.0653941456
H  H2  1  0.10010000  0.15990000  0.39000000  1.0 0.0653941456
H  H3  1  0.84010000  0.89990000  0.39000000  1.0 0.0653941456
H  H4  1  0.89990000  0.84010000  0.61000000  1.0 0.0653941456
H  H5  1  0.23880000  0.06120000  0.50700000  1.0 0.0976995688
H  H6  1  0.06120000  0.23880000  0.49300000  1.0 0.0976995688
H  H7  1  0.76120000  0.93880000  0.49300000  1.0 0.0976995688
H  H8  1  0.93880000  0.76120000  0.50700000  1.0 0.0976995688
H  H9  1  0.13180000  0.86820000  0.09100000  1.0 0.1225809801
H  H10  1  0.86820000  0.13180000  0.90900000  1.0 0.1225809801
H  H11  1  0.99460000  0.84540000  0.19400000  1.0 0.0271263943
H  H12  1  0.84540000  0.99460000  0.80600000  1.0 0.0271263943
H  H13  1  0.00540000  0.15460000  0.80600000  1.0 0.0271263943
H  H14  1  0.15460000  0.00540000  0.19400000  1.0 0.0271263943
H  H15  1  0.50320000  0.78060000  0.80730000  1.0 0.0976995688
H  H16  1  0.78060000  0.50320000  0.19270000  1.0 0.0976995688
H  H17  1  0.49680000  0.21940000  0.19270000  1.0 0.0976995688
H  H18  1  0.21940000  0.49680000  0.80730000  1.0 0.0976995688
H  H19  1  0.44730000  0.61730000  0.01750000  1.0 0.0976995688
H  H20  1  0.61730000  0.44730000  0.98250000  1.0 0.0976995688
H  H21  1  0.55270000  0.38270000  0.98250000  1.0 0.0976995688
H  H22  1  0.38270000  0.55270000  0.01750000  1.0 0.0976995688
H  H23  1  0.31650000  0.49210000  0.36570000  1.0 0.0764596734
H  H24  1  0.49210000  0.31650000  0.63430000  1.0 0.0764596734
H  H25  1  0.68350000  0.50790000  0.63430000  1.0 0.0764596734
H  H26  1  0.50790000  0.68350000  0.36570000  1.0 0.0764596734
H  H27  1  0.24360000  0.53180000  0.50480000  1.0 0.0976995688
H  H28  1  0.53180000  0.24360000  0.49520000  1.0 0.0976995688
H  H29  1  0.75640000  0.46820000  0.49520000  1.0 0.0976995688
H  H30  1  0.46820000  0.75640000  0.50480000  1.0 0.0976995688
C  C1  1  0.11830000  0.01770000  0.69800000  1.0 0.0006841046
C  C2  1  0.01770000  0.11830000  0.30200000  1.0 0.0006841046
C  C3  1  0.88170000  0.98230000  0.30200000  1.0 0.0006841046
C  C4  1  0.98230000  0.88170000  0.69800000  1.0 0.0006841046
C  C5  1  0.16090000  0.99110000  0.63100000  1.0 -0.0971238006
C  C6  1  0.99110000  0.16090000  0.36900000  1.0 -0.0971238006
C  C7  1  0.83910000  0.00890000  0.36900000  1.0 -0.0971238006
C  C8  1  0.00890000  0.83910000  0.63100000  1.0 -0.0971238006
C  C9  1  0.11480000  0.88520000  0.76400000  1.0 -0.021318375
C  C10  1  0.88520000  0.11480000  0.23600000  1.0 -0.021318375
C  C11  1  0.07000000  0.84600000  0.98200000  1.0 -0.0016766921
C  C12  1  0.84600000  0.07000000  0.01800000  1.0 -0.0016766921
C  C13  1  0.93000000  0.15400000  0.01800000  1.0 -0.0016766921
C  C14  1  0.15400000  0.93000000  0.98200000  1.0 -0.0016766921
C  C15  1  0.02490000  0.87110000  0.04400000  1.0 -0.0072812437
C  C16  1  0.87110000  0.02490000  0.95600000  1.0 -0.0072812437
C  C17  1  0.97510000  0.12890000  0.95600000  1.0 -0.0072812437
C  C18  1  0.12890000  0.97510000  0.04400000  1.0 -0.0072812437
C  C19  1  0.15140000  0.84860000  0.68300000  1.0 0.450301801
C  C20  1  0.84860000  0.15140000  0.31700000  1.0 0.450301801
C  C21  1  0.32509000  0.67491000  0.23750000  1.0 -0.0353362587
C  C22  1  0.67491000  0.32509000  0.76250000  1.0 -0.0353362587
C  C23  1  0.40559000  0.75221000  0.03090000  1.0 0.016991394
C  C24  1  0.75221000  0.40559000  0.96910000  1.0 0.016991394
C  C25  1  0.59441000  0.24779000  0.96910000  1.0 0.016991394
C  C26  1  0.24779000  0.59441000  0.03090000  1.0 0.016991394
C  C27  1  0.45010000  0.72970000  0.94900000  1.0 -0.0544693124
C  C28  1  0.72970000  0.45010000  0.05100000  1.0 -0.0544693124
C  C29  1  0.54990000  0.27030000  0.05100000  1.0 -0.0544693124
C  C30  1  0.27030000  0.54990000  0.94900000  1.0 -0.0544693124
C  C31  1  0.41690000  0.63290000  0.07370000  1.0 -0.1160586875
C  C32  1  0.63290000  0.41690000  0.92630000  1.0 -0.1160586875
C  C33  1  0.58310000  0.36710000  0.92630000  1.0 -0.1160586875
C  C34  1  0.36710000  0.58310000  0.07370000  1.0 -0.1160586875
C  C35  1  0.33930000  0.55850000  0.28020000  1.0 0.016991394
C  C36  1  0.55850000  0.33930000  0.71980000  1.0 0.016991394
C  C37  1  0.66070000  0.44150000  0.71980000  1.0 0.016991394
C  C38  1  0.44150000  0.66070000  0.28020000  1.0 0.016991394
C  C39  1  0.29490000  0.58110000  0.36220000  1.0 -0.0697264698
C  C40  1  0.58110000  0.29490000  0.63780000  1.0 -0.0697264698
C  C41  1  0.70510000  0.41890000  0.63780000  1.0 -0.0697264698
C  C42  1  0.41890000  0.70510000  0.36220000  1.0 -0.0697264698
C  C43  1  0.28980000  0.70860000  0.33530000  1.0 0.2053979534
C  C44  1  0.70860000  0.28980000  0.66470000  1.0 0.2053979534
C  C45  1  0.71020000  0.29140000  0.66470000  1.0 0.2053979534
C  C46  1  0.29140000  0.71020000  0.33530000  1.0 0.2053979534
C  C47  1  0.43270000  0.84530000  0.87430000  1.0 0.239902598
C  C48  1  0.84530000  0.43270000  0.12570000  1.0 0.239902598
C  C49  1  0.56730000  0.15470000  0.12570000  1.0 0.239902598
C  C50  1  0.15470000  0.56730000  0.87430000  1.0 0.239902598
N  N1  1  0.04610000  0.95390000  0.90300000  1.0 -0.2046911817
N  N2  1  0.95390000  0.04610000  0.09700000  1.0 -0.2046911817
O  O1  1  0.18080000  0.81920000  0.80820000  1.0 -0.5297348153
O  O2  1  0.81920000  0.18080000  0.19180000  1.0 -0.5297348153
O  O3  1  0.21230000  0.90570000  0.48800000  1.0 -0.2589891505
O  O4  1  0.90570000  0.21230000  0.51200000  1.0 -0.2589891505
O  O5  1  0.78770000  0.09430000  0.51200000  1.0 -0.2589891505
O  O6  1  0.09430000  0.78770000  0.48800000  1.0 -0.2589891505
O  O7  1  0.26730000  0.73270000  0.83370000  1.0 -0.4071927917
O  O8  1  0.73270000  0.26730000  0.16630000  1.0 -0.4071927917
O  O9  1  0.60930000  0.01030000  0.78860000  1.0 -0.6429648649
O  O10  1  0.01030000  0.60930000  0.21140000  1.0 -0.6429648649
O  O11  1  0.39070000  0.98970000  0.21140000  1.0 -0.6429648649
O  O12  1  0.98970000  0.39070000  0.78860000  1.0 -0.6429648649
O  O13  1  0.42900000  0.87720000  0.37940000  1.0 -0.4254725527
O  O14  1  0.87720000  0.42900000  0.62060000  1.0 -0.4254725527
O  O15  1  0.57100000  0.12280000  0.62060000  1.0 -0.4254725527
O  O16  1  0.12280000  0.57100000  0.37940000  1.0 -0.4254725527
