# DDEC6 charges by PACMAN v1.1 (https://github.com/mtap-research/PACMAN-charge/)
data_JIVSIQ_ASR_pacman
_symmetry_space_group_name_H-M   'P 1'
_cell_length_a   5.38120000
_cell_length_b   6.66000000
_cell_length_c   24.08700000
_cell_angle_alpha   90.00000000
_cell_angle_beta   90.00000000
_cell_angle_gamma   90.00000000
_symmetry_Int_Tables_number   1
_chemical_formula_structural   ZrP2HO8
_chemical_formula_sum   'Zr4 P8 H4 O32'
_cell_volume   863.24898290
_cell_formula_units_Z   4
loop_
 _symmetry_equiv_pos_site_id
 _symmetry_equiv_pos_as_xyz
  1  'x, y, z'
loop_
 _atom_site_type_symbol
 _atom_site_label
 _atom_site_symmetry_multiplicity
 _atom_site_fract_x
 _atom_site_fract_y
 _atom_site_fract_z
 _atom_site_occupancy
 _atom_site_charge
Zr  Zr1  1  0.45000000  0.50000000  0.68410000  1.0 2.4837787766
Zr  Zr2  1  0.55000000  0.50000000  0.31590000  1.0 2.4851487298
Zr  Zr3  1  0.05000000  0.00000000  0.18410000  1.0 2.4837787766
Zr  Zr4  1  0.95000000  0.00000000  0.81590000  1.0 2.4837787766
P  P1  1  0.44370000  0.00000000  0.72070000  1.0 1.6235585231
P  P2  1  0.55630000  0.00000000  0.27930000  1.0 1.6235585231
P  P3  1  0.05630000  0.50000000  0.22070000  1.0 1.6235585231
P  P4  1  0.94370000  0.50000000  0.77930000  1.0 1.6235585231
P  P5  1  0.95770000  0.50000000  0.58720000  1.0 1.5312095899
P  P6  1  0.04230000  0.50000000  0.41280000  1.0 1.5312095899
P  P7  1  0.54230000  0.00000000  0.08720000  1.0 1.5312095899
P  P8  1  0.45770000  0.00000000  0.91280000  1.0 1.5312095899
H  H1  1  0.00000000  0.68860000  0.50000000  1.0 0.47101284
H  H2  1  0.50000000  0.81140000  0.00000000  1.0 0.47101284
H  H3  1  0.00000000  0.31140000  0.50000000  1.0 0.47101284
H  H4  1  0.50000000  0.18860000  0.00000000  1.0 0.47101284
O  O1  1  0.65950000  0.00000000  0.76110000  1.0 -0.8616396319
O  O2  1  0.34050000  0.00000000  0.23890000  1.0 -0.8616396319
O  O3  1  0.84050000  0.50000000  0.26110000  1.0 -0.8616396319
O  O4  1  0.15950000  0.50000000  0.73890000  1.0 -0.8616396319
O  O5  1  0.19750000  0.00000000  0.75260000  1.0 -0.8616396319
O  O6  1  0.80250000  0.00000000  0.24740000  1.0 -0.8616396319
O  O7  1  0.30250000  0.50000000  0.25260000  1.0 -0.8616396319
O  O8  1  0.69750000  0.50000000  0.74740000  1.0 -0.8616396319
O  O9  1  0.45760000  0.81450000  0.68270000  1.0 -0.7990629704
O  O10  1  0.54240000  0.81450000  0.31730000  1.0 -0.7990629704
O  O11  1  0.04240000  0.68550000  0.18270000  1.0 -0.7990629704
O  O12  1  0.95760000  0.68550000  0.81730000  1.0 -0.7990629704
O  O13  1  0.54240000  0.18550000  0.31730000  1.0 -0.7990629704
O  O14  1  0.45760000  0.18550000  0.68270000  1.0 -0.7990629704
O  O15  1  0.95760000  0.31450000  0.81730000  1.0 -0.7990629704
O  O16  1  0.04240000  0.31450000  0.18270000  1.0 -0.7990629704
O  O17  1  0.74300000  0.50000000  0.62800000  1.0 -0.7890811395
O  O18  1  0.25700000  0.50000000  0.37200000  1.0 -0.7890811395
O  O19  1  0.75700000  0.00000000  0.12800000  1.0 -0.7890811395
O  O20  1  0.24300000  0.00000000  0.87200000  1.0 -0.7890811395
O  O21  1  0.20500000  0.50000000  0.61760000  1.0 -0.7990629704
O  O22  1  0.79500000  0.50000000  0.38240000  1.0 -0.7990629704
O  O23  1  0.29500000  0.00000000  0.11760000  1.0 -0.7990629704
O  O24  1  0.70500000  0.00000000  0.88240000  1.0 -0.7990629704
O  O25  1  0.93760000  0.31140000  0.55030000  1.0 -0.6001764517
O  O26  1  0.06240000  0.31140000  0.44970000  1.0 -0.6001764517
O  O27  1  0.56240000  0.18860000  0.05030000  1.0 -0.6001764517
O  O28  1  0.43760000  0.18860000  0.94970000  1.0 -0.6001764517
O  O29  1  0.06240000  0.68860000  0.44970000  1.0 -0.6001764517
O  O30  1  0.93760000  0.68860000  0.55030000  1.0 -0.6001764517
O  O31  1  0.43760000  0.81140000  0.94970000  1.0 -0.6001764517
O  O32  1  0.56240000  0.81140000  0.05030000  1.0 -0.6001764517
