# DDEC6 charges by PACMAN v1.1 (https://github.com/mtap-research/PACMAN-charge/)
data_JIVSAJ01_ASR_pacman
_symmetry_space_group_name_H-M   'P 1'
_cell_length_a   36.81500000
_cell_length_b   6.98050000
_cell_length_c   6.20240000
_cell_angle_alpha   90.00000000
_cell_angle_beta   97.42000000
_cell_angle_gamma   90.00000000
_symmetry_Int_Tables_number   1
_chemical_formula_structural   Eu2CuH16C30(NO5)2
_chemical_formula_sum   'Eu4 Cu2 H32 C60 N4 O20'
_cell_volume   1580.58943774
_cell_formula_units_Z   2
loop_
 _symmetry_equiv_pos_site_id
 _symmetry_equiv_pos_as_xyz
  1  'x, y, z'
loop_
 _atom_site_type_symbol
 _atom_site_label
 _atom_site_symmetry_multiplicity
 _atom_site_fract_x
 _atom_site_fract_y
 _atom_site_fract_z
 _atom_site_occupancy
 _atom_site_charge
Eu  Eu1  1  0.27998000  0.50000000  0.47903000  1.0 2.0081122409
Eu  Eu2  1  0.72002000  0.50000000  0.52097000  1.0 2.0081122409
Eu  Eu3  1  0.77998000  0.00000000  0.47903000  1.0 2.0081122409
Eu  Eu4  1  0.22002000  0.00000000  0.52097000  1.0 2.0081122409
Cu  Cu1  1  0.50000000  0.50000000  0.00000000  1.0 0.0456803407
Cu  Cu2  1  0.00000000  0.00000000  0.00000000  1.0 0.0377198275
H  H1  1  0.47067000  0.50000000  0.40216000  1.0 0.0576919767
H  H2  1  0.52933000  0.50000000  0.59784000  1.0 0.0576919767
H  H3  1  0.97067000  0.00000000  0.40216000  1.0 0.0576919767
H  H4  1  0.02933000  0.00000000  0.59784000  1.0 0.0576919767
H  H5  1  0.41166000  0.50000000  0.51522000  1.0 0.1075386892
H  H6  1  0.58834000  0.50000000  0.48478000  1.0 0.1075386892
H  H7  1  0.91166000  0.00000000  0.51522000  1.0 0.1075386892
H  H8  1  0.08834000  0.00000000  0.48478000  1.0 0.1075386892
H  H9  1  0.36695000  0.50000000  0.92229000  1.0 0.1434604324
H  H10  1  0.63305000  0.50000000  0.07771000  1.0 0.1434604324
H  H11  1  0.86695000  0.00000000  0.92229000  1.0 0.1434604324
H  H12  1  0.13305000  0.00000000  0.07771000  1.0 0.1434604324
H  H13  1  0.42591000  0.50000000  0.81467000  1.0 0.0576919767
H  H14  1  0.57409000  0.50000000  0.18533000  1.0 0.0576919767
H  H15  1  0.92591000  0.00000000  0.81467000  1.0 0.0576919767
H  H16  1  0.07409000  0.00000000  0.18533000  1.0 0.0576919767
H  H17  1  0.13870000  0.50000000  0.19960000  1.0 0.1075386892
H  H18  1  0.86130000  0.50000000  0.80040000  1.0 0.1075386892
H  H19  1  0.63870000  0.00000000  0.19960000  1.0 0.1075386892
H  H20  1  0.36130000  0.00000000  0.80040000  1.0 0.1075386892
H  H21  1  0.08476000  0.50000000  0.98305000  1.0 0.1434604324
H  H22  1  0.91524000  0.50000000  0.01695000  1.0 0.1434604324
H  H23  1  0.58476000  0.00000000  0.98305000  1.0 0.1434604324
H  H24  1  0.41524000  0.00000000  0.01695000  1.0 0.1434604324
H  H25  1  0.08751000  0.50000000  0.62721000  1.0 0.098513447
H  H26  1  0.91249000  0.50000000  0.37279000  1.0 0.098513447
H  H27  1  0.58751000  0.00000000  0.62721000  1.0 0.098513447
H  H28  1  0.41249000  0.00000000  0.37279000  1.0 0.098513447
H  H29  1  0.14440000  0.50000000  0.49189000  1.0 0.1159011464
H  H30  1  0.85560000  0.50000000  0.50811000  1.0 0.1159011464
H  H31  1  0.64440000  0.00000000  0.49189000  1.0 0.1159011464
H  H32  1  0.35560000  0.00000000  0.50811000  1.0 0.1159011464
C  C1  1  0.44905000  0.50000000  0.30305000  1.0 0.0723146222
C  C2  1  0.55095000  0.50000000  0.69695000  1.0 0.0723146222
C  C3  1  0.94905000  0.00000000  0.30305000  1.0 0.0723146222
C  C4  1  0.05095000  0.00000000  0.69695000  1.0 0.0723146222
C  C5  1  0.41544000  0.50000000  0.37396000  1.0 -0.3621277732
C  C6  1  0.58456000  0.50000000  0.62604000  1.0 -0.3621277732
C  C7  1  0.91544000  0.00000000  0.37396000  1.0 -0.3621277732
C  C8  1  0.08456000  0.00000000  0.62604000  1.0 -0.3621277732
C  C9  1  0.38473000  0.78371000  0.23386000  1.0 0.0246330912
C  C10  1  0.61527000  0.21629000  0.76614000  1.0 0.026379593
C  C11  1  0.61527000  0.78371000  0.76614000  1.0 0.026379593
C  C12  1  0.38473000  0.21629000  0.23386000  1.0 0.026379593
C  C13  1  0.88473000  0.28371000  0.23386000  1.0 0.026379593
C  C14  1  0.11527000  0.71629000  0.76614000  1.0 0.0246330912
C  C15  1  0.11527000  0.28371000  0.76614000  1.0 0.026379593
C  C16  1  0.88473000  0.71629000  0.23386000  1.0 0.026379593
C  C17  1  0.38870000  0.50000000  0.02317000  1.0 -0.3621277732
C  C18  1  0.61130000  0.50000000  0.97683000  1.0 -0.3621277732
C  C19  1  0.88870000  0.00000000  0.02317000  1.0 -0.3621277732
C  C20  1  0.11130000  0.00000000  0.97683000  1.0 -0.3621277732
C  C21  1  0.42287000  0.50000000  0.95903000  1.0 0.0830604735
C  C22  1  0.57713000  0.50000000  0.04097000  1.0 0.0830604735
C  C23  1  0.92287000  0.00000000  0.95903000  1.0 0.0830604735
C  C24  1  0.07713000  0.00000000  0.04097000  1.0 0.0830604735
C  C25  1  0.34733000  0.50000000  0.31910000  1.0 0.5790772925
C  C26  1  0.65267000  0.50000000  0.68090000  1.0 0.5790772925
C  C27  1  0.84733000  0.00000000  0.31910000  1.0 0.5790772925
C  C28  1  0.15267000  0.00000000  0.68090000  1.0 0.5790772925
C  C29  1  0.17542000  0.50000000  0.76343000  1.0 -0.041969747
C  C30  1  0.82458000  0.50000000  0.23657000  1.0 -0.041969747
C  C31  1  0.67542000  0.00000000  0.76343000  1.0 -0.041969747
C  C32  1  0.32458000  0.00000000  0.23657000  1.0 -0.041969747
C  C33  1  0.17363000  0.50000000  0.97405000  1.0 -0.0517949301
C  C34  1  0.82637000  0.50000000  0.02595000  1.0 -0.0517949301
C  C35  1  0.67363000  0.00000000  0.97405000  1.0 -0.0517949301
C  C36  1  0.32637000  0.00000000  0.02595000  1.0 -0.0517949301
C  C37  1  0.13994000  0.50000000  0.05333000  1.0 -0.1439166811
C  C38  1  0.86006000  0.50000000  0.94667000  1.0 -0.1439166811
C  C39  1  0.63994000  0.00000000  0.05333000  1.0 -0.1439166811
C  C40  1  0.36006000  0.00000000  0.94667000  1.0 -0.1439166811
C  C41  1  0.10809000  0.50000000  0.92677000  1.0 -0.080484796
C  C42  1  0.89191000  0.50000000  0.07323000  1.0 -0.080484796
C  C43  1  0.60809000  0.00000000  0.92677000  1.0 -0.080484796
C  C44  1  0.39191000  0.00000000  0.07323000  1.0 -0.080484796
C  C45  1  0.10990000  0.50000000  0.71742000  1.0 0.0147595036
C  C46  1  0.89010000  0.50000000  0.28258000  1.0 0.0147595036
C  C47  1  0.60990000  0.00000000  0.71742000  1.0 0.0147595036
C  C48  1  0.39010000  0.00000000  0.28258000  1.0 0.0147595036
C  C49  1  0.14345000  0.50000000  0.63848000  1.0 -0.1519528103
C  C50  1  0.85655000  0.50000000  0.36152000  1.0 -0.1519528103
C  C51  1  0.64345000  0.00000000  0.63848000  1.0 -0.1519528103
C  C52  1  0.35655000  0.00000000  0.36152000  1.0 -0.1519528103
C  C53  1  0.20989000  0.50000000  0.66797000  1.0 0.6269976686
C  C54  1  0.79011000  0.50000000  0.33203000  1.0 0.6269976686
C  C55  1  0.70989000  0.00000000  0.66797000  1.0 0.6269976686
C  C56  1  0.29011000  0.00000000  0.33203000  1.0 0.6269976686
C  C57  1  0.20537000  0.50000000  0.12762000  1.0 0.098513447
C  C58  1  0.79463000  0.50000000  0.87238000  1.0 0.098513447
C  C59  1  0.70537000  0.00000000  0.12762000  1.0 0.098513447
C  C60  1  0.29463000  0.00000000  0.87238000  1.0 0.098513447
N  N1  1  0.45319000  0.50000000  0.09487000  1.0 -0.2433735465
N  N2  1  0.54681000  0.50000000  0.90513000  1.0 -0.2433735465
N  N3  1  0.95319000  0.00000000  0.09487000  1.0 -0.2433735465
N  N4  1  0.04681000  0.00000000  0.90513000  1.0 -0.2433735465
O  O1  1  0.31916000  0.50000000  0.19211000  1.0 -0.557378899
O  O2  1  0.68084000  0.50000000  0.80789000  1.0 -0.557378899
O  O3  1  0.81916000  0.00000000  0.19211000  1.0 -0.557378899
O  O4  1  0.18084000  0.00000000  0.80789000  1.0 -0.557378899
O  O5  1  0.34625000  0.50000000  0.51591000  1.0 -0.6221374978
O  O6  1  0.65375000  0.50000000  0.48409000  1.0 -0.6221374978
O  O7  1  0.84625000  0.00000000  0.51591000  1.0 -0.6221374978
O  O8  1  0.15375000  0.00000000  0.48409000  1.0 -0.6221374978
O  O9  1  0.23391000  0.50000000  0.16403000  1.0 -0.3130030145
O  O10  1  0.76609000  0.50000000  0.83597000  1.0 -0.3130030145
O  O11  1  0.73391000  0.00000000  0.16403000  1.0 -0.3130030145
O  O12  1  0.26609000  0.00000000  0.83597000  1.0 -0.3130030145
O  O13  1  0.22417000  0.34471000  0.62226000  1.0 -0.7285502736
O  O14  1  0.77583000  0.65529000  0.37774000  1.0 -0.7285502736
O  O15  1  0.77583000  0.34471000  0.37774000  1.0 -0.7285502736
O  O16  1  0.22417000  0.65529000  0.62226000  1.0 -0.7285502736
O  O17  1  0.72417000  0.84471000  0.62226000  1.0 -0.7285502736
O  O18  1  0.27583000  0.15529000  0.37774000  1.0 -0.7285502736
O  O19  1  0.27583000  0.84471000  0.37774000  1.0 -0.7285502736
O  O20  1  0.72417000  0.15529000  0.62226000  1.0 -0.7285502736
