# DDEC6 charges by PACMAN v1.1 (https://github.com/mtap-research/PACMAN-charge/)
data_JIWKUW_FSR_pacman
_symmetry_space_group_name_H-M   'P 1'
_cell_length_a   16.87500000
_cell_length_b   17.31030000
_cell_length_c   20.24410000
_cell_angle_alpha   99.18200000
_cell_angle_beta   97.80900000
_cell_angle_gamma   108.54300000
_symmetry_Int_Tables_number   1
_chemical_formula_structural   Na2Tb2H34C34N4O23
_chemical_formula_sum   'Na8 Tb8 H136 C136 N16 O92'
_cell_volume   5423.55504388
_cell_formula_units_Z   4
loop_
 _symmetry_equiv_pos_site_id
 _symmetry_equiv_pos_as_xyz
  1  'x, y, z'
loop_
 _atom_site_type_symbol
 _atom_site_label
 _atom_site_symmetry_multiplicity
 _atom_site_fract_x
 _atom_site_fract_y
 _atom_site_fract_z
 _atom_site_occupancy
 _atom_site_charge
Na  Na1  1  0.64260000  0.45706000  0.45455000  1.0 0.8520771141
Na  Na2  1  0.35740000  0.54294000  0.54545000  1.0 0.8520771141
Na  Na3  1  0.95540000  0.28040000  0.85285000  1.0 0.8312816495
Na  Na4  1  0.04460000  0.71960000  0.14715000  1.0 0.8312816495
Na  Na5  1  0.15950000  0.62760000  0.20610000  1.0 0.8520771141
Na  Na6  1  0.84050000  0.37240000  0.79390000  1.0 0.8520771141
Na  Na7  1  0.04190000  0.57290000  0.45280000  1.0 0.8312816495
Na  Na8  1  0.95810000  0.42710000  0.54720000  1.0 0.8312816495
Tb  Tb1  1  0.83361000  0.37894000  0.09934000  1.0 1.8643838639
Tb  Tb2  1  0.16639000  0.62106000  0.90066000  1.0 1.8643838639
Tb  Tb3  1  0.74098000  0.42143000  0.25671000  1.0 1.8802175397
Tb  Tb4  1  0.25902000  0.57857000  0.74329000  1.0 1.8802175397
Tb  Tb5  1  0.83587000  0.01326000  0.72962000  1.0 1.8972072477
Tb  Tb6  1  0.16413000  0.98674000  0.27038000  1.0 1.8972072477
Tb  Tb7  1  0.75227000  0.79236000  0.62141000  1.0 1.8802175397
Tb  Tb8  1  0.24773000  0.20764000  0.37859000  1.0 1.8802175397
H  H1  1  0.88190000  0.11840000  0.20980000  1.0 0.1495472034
H  H2  1  0.11810000  0.88160000  0.79020000  1.0 0.1495472034
H  H3  1  0.63910000  0.08150000  0.22370000  1.0 0.1302642098
H  H4  1  0.36090000  0.91850000  0.77630000  1.0 0.1419974509
H  H5  1  0.75090000  0.96450000  0.19020000  1.0 0.1674605384
H  H6  1  0.24910000  0.03550000  0.80980000  1.0 0.1674605384
H  H7  1  0.69070000  0.97710000  0.24260000  1.0 0.1419974509
H  H8  1  0.30930000  0.02290000  0.75740000  1.0 0.1419974509
H  H9  1  0.79140000  0.00410000  0.26940000  1.0 0.1495472034
H  H10  1  0.20860000  0.99590000  0.73060000  1.0 0.1495472034
H  H11  1  0.95420000  0.32170000  0.22990000  1.0 0.1419974509
H  H12  1  0.04580000  0.67830000  0.77010000  1.0 0.1419974509
H  H13  1  0.97240000  0.24060000  0.19630000  1.0 0.1127607996
H  H14  1  0.02760000  0.75940000  0.80370000  1.0 0.1127607996
H  H15  1  0.86480000  0.18630000  0.06810000  1.0 0.1589510142
H  H16  1  0.13520000  0.81370000  0.93190000  1.0 0.1589510142
H  H17  1  0.96520000  0.21040000  0.06980000  1.0 0.1589510142
H  H18  1  0.03480000  0.78960000  0.93020000  1.0 0.1589510142
H  H19  1  0.03390000  0.36740000  0.08740000  1.0 0.1589510142
H  H20  1  0.96610000  0.63260000  0.91260000  1.0 0.1589510142
H  H21  1  0.06390000  0.33940000  0.15540000  1.0 0.1419974509
H  H22  1  0.93610000  0.66060000  0.84460000  1.0 0.1419974509
H  H23  1  0.61870000  0.24550000  0.16060000  1.0 0.1419974509
H  H24  1  0.38130000  0.75450000  0.83940000  1.0 0.1419974509
H  H25  1  0.57160000  0.17230000  0.19600000  1.0 0.1223468929
H  H26  1  0.42840000  0.82770000  0.80400000  1.0 0.1223468929
H  H27  1  0.62670000  0.19720000  0.31790000  1.0 0.1302642098
H  H28  1  0.37330000  0.80280000  0.68210000  1.0 0.1302642098
H  H29  1  0.61630000  0.27820000  0.36080000  1.0 0.1589510142
H  H30  1  0.38370000  0.72180000  0.63920000  1.0 0.1589510142
H  H31  1  0.53440000  0.32070000  0.30000000  1.0 0.1674605384
H  H32  1  0.46560000  0.67930000  0.70000000  1.0 0.1674605384
H  H33  1  0.49730000  0.24300000  0.23610000  1.0 0.1495472034
H  H34  1  0.50270000  0.75700000  0.76390000  1.0 0.1495472034
H  H35  1  0.70320000  0.68680000  0.15070000  1.0 0.1419974509
H  H36  1  0.29680000  0.31320000  0.84930000  1.0 0.1419974509
H  H37  1  0.58960000  0.49970000  0.98830000  1.0 0.1419974509
H  H38  1  0.41040000  0.50030000  0.01170000  1.0 0.1419974509
H  H39  1  0.63860000  0.69830000  0.01630000  1.0 0.1674605384
H  H40  1  0.36140000  0.30170000  0.98370000  1.0 0.1674605384
H  H41  1  0.57150000  0.68020000  0.06570000  1.0 0.1419974509
H  H42  1  0.42850000  0.31980000  0.93430000  1.0 0.1419974509
H  H43  1  0.55200000  0.61940000  0.99250000  1.0 0.1419974509
H  H44  1  0.44800000  0.38060000  0.00750000  1.0 0.1419974509
H  H45  1  0.85160000  0.61640000  0.22100000  1.0 0.1419974509
H  H46  1  0.14840000  0.38360000  0.77900000  1.0 0.1419974509
H  H47  1  0.80360000  0.68070000  0.23960000  1.0 0.1223468929
H  H48  1  0.19640000  0.31930000  0.76040000  1.0 0.1223468929
H  H49  1  0.64430000  0.57550000  0.25380000  1.0 0.1589510142
H  H50  1  0.35570000  0.42450000  0.74620000  1.0 0.1589510142
H  H51  1  0.69840000  0.64670000  0.32010000  1.0 0.1495472034
H  H52  1  0.30160000  0.35330000  0.67990000  1.0 0.1495472034
H  H53  1  0.80980000  0.60690000  0.38260000  1.0 0.1589510142
H  H54  1  0.19020000  0.39310000  0.61740000  1.0 0.1589510142
H  H55  1  0.85590000  0.67800000  0.34460000  1.0 0.1419974509
H  H56  1  0.14410000  0.32200000  0.65540000  1.0 0.1419974509
H  H57  1  0.60030000  0.36830000  0.98560000  1.0 0.1302642098
H  H58  1  0.39970000  0.63170000  0.01440000  1.0 0.1302642098
H  H59  1  0.63470000  0.34720000  0.05550000  1.0 0.1419974509
H  H60  1  0.36530000  0.65280000  0.94450000  1.0 0.1419974509
H  H61  1  0.71490000  0.45200000  0.93600000  1.0 0.1302642098
H  H62  1  0.28510000  0.54800000  0.06400000  1.0 0.1302642098
H  H63  1  0.78330000  0.40910000  0.92030000  1.0 0.1419974509
H  H64  1  0.21670000  0.59090000  0.07970000  1.0 0.1419974509
H  H65  1  0.73450000  0.28180000  0.92090000  1.0 0.1589510142
H  H66  1  0.26550000  0.71820000  0.07910000  1.0 0.1589510142
H  H67  1  0.63760000  0.27230000  0.92390000  1.0 0.1419974509
H  H68  1  0.36240000  0.72770000  0.07610000  1.0 0.1419974509
H  H69  1  0.08220000  0.04360000  0.57120000  1.0 0.1495472034
H  H70  1  0.91780000  0.95640000  0.42880000  1.0 0.1495472034
H  H71  1  0.09480000  0.83830000  0.63290000  1.0 0.1495472034
H  H72  1  0.90520000  0.16170000  0.36710000  1.0 0.1495472034
H  H73  1  0.21680000  0.92550000  0.60000000  1.0 0.1589510142
H  H74  1  0.78320000  0.07450000  0.40000000  1.0 0.1589510142
H  H75  1  0.21710000  0.01170000  0.58090000  1.0 0.1495472034
H  H76  1  0.78290000  0.98830000  0.41910000  1.0 0.1495472034
H  H77  1  0.17190000  0.92610000  0.52530000  1.0 0.1589510142
H  H78  1  0.82810000  0.07390000  0.47470000  1.0 0.1589510142
H  H79  1  0.87360000  0.01230000  0.57850000  1.0 0.1302642098
H  H80  1  0.12640000  0.98770000  0.42150000  1.0 0.1302642098
H  H81  1  0.95880000  0.07940000  0.56820000  1.0 0.1302642098
H  H82  1  0.04120000  0.92060000  0.43180000  1.0 0.1302642098
H  H83  1  0.03030000  0.20610000  0.72420000  1.0 0.1419974509
H  H84  1  0.96970000  0.79390000  0.27580000  1.0 0.1419974509
H  H85  1  0.06330000  0.14880000  0.67280000  1.0 0.1495472034
H  H86  1  0.93670000  0.85120000  0.32720000  1.0 0.1495472034
H  H87  1  0.91500000  0.17970000  0.60150000  1.0 0.1495472034
H  H88  1  0.08500000  0.82030000  0.39850000  1.0 0.1495472034
H  H89  1  0.91750000  0.21620000  0.67980000  1.0 0.1589510142
H  H90  1  0.08250000  0.78380000  0.32020000  1.0 0.1589510142
H  H91  1  0.99450000  0.76410000  0.69020000  1.0 0.1223468929
H  H92  1  0.00550000  0.23590000  0.30980000  1.0 0.1223468929
H  H93  1  0.94840000  0.81770000  0.73140000  1.0 0.1419974509
H  H94  1  0.05160000  0.18230000  0.26860000  1.0 0.1419974509
H  H95  1  0.90550000  0.64410000  0.59370000  1.0 0.1495472034
H  H96  1  0.09450000  0.35590000  0.40630000  1.0 0.1495472034
H  H97  1  0.90650000  0.72010000  0.55730000  1.0 0.1495472034
H  H98  1  0.09350000  0.27990000  0.44270000  1.0 0.1495472034
H  H99  1  0.88710000  0.66110000  0.71640000  1.0 0.1302642098
H  H100  1  0.11290000  0.33890000  0.28360000  1.0 0.1302642098
H  H101  1  0.79460000  0.62290000  0.66740000  1.0 0.1495472034
H  H102  1  0.20540000  0.37710000  0.33260000  1.0 0.1495472034
H  H103  1  0.49470000  0.89460000  0.51900000  1.0 0.1495472034
H  H104  1  0.50530000  0.10540000  0.48100000  1.0 0.1495472034
H  H105  1  0.49310000  0.96610000  0.71740000  1.0 0.1419974509
H  H106  1  0.50690000  0.03390000  0.28260000  1.0 0.1419974509
H  H107  1  0.39700000  0.99670000  0.62520000  1.0 0.1495472034
H  H108  1  0.60300000  0.00330000  0.37480000  1.0 0.1495472034
H  H109  1  0.34890000  0.89780000  0.60600000  1.0 0.1589510142
H  H110  1  0.65110000  0.10220000  0.39400000  1.0 0.1589510142
H  H111  1  0.38340000  0.94600000  0.54870000  1.0 0.1589510142
H  H112  1  0.61660000  0.05400000  0.45130000  1.0 0.1589510142
H  H113  1  0.61230000  0.87960000  0.48150000  1.0 0.1302642098
H  H114  1  0.38770000  0.12040000  0.51850000  1.0 0.1302642098
H  H115  1  0.70150000  0.91450000  0.53430000  1.0 0.1419974509
H  H116  1  0.29850000  0.08550000  0.46570000  1.0 0.1419974509
H  H117  1  0.67600000  0.11830000  0.82570000  1.0 0.1589510142
H  H118  1  0.32400000  0.88170000  0.17430000  1.0 0.1589510142
H  H119  1  0.67090000  0.09480000  0.74500000  1.0 0.1589510142
H  H120  1  0.32910000  0.90520000  0.25500000  1.0 0.1589510142
H  H121  1  0.64840000  0.90040000  0.78350000  1.0 0.1495472034
H  H122  1  0.35160000  0.09960000  0.21650000  1.0 0.1495472034
H  H123  1  0.59570000  0.95990000  0.80320000  1.0 0.1302642098
H  H124  1  0.40430000  0.04010000  0.19680000  1.0 0.1302642098
H  H125  1  0.66240000  0.80040000  0.41990000  1.0 0.1495472034
H  H126  1  0.33760000  0.19960000  0.58010000  1.0 0.1495472034
H  H127  1  0.65980000  0.71180000  0.43480000  1.0 0.1589510142
H  H128  1  0.34020000  0.28820000  0.56520000  1.0 0.1589510142
H  H129  1  0.55710000  0.67370000  0.47770000  1.0 0.1589510142
H  H130  1  0.44290000  0.32630000  0.52230000  1.0 0.1589510142
H  H131  1  0.51720000  0.74560000  0.49230000  1.0 0.1302642098
H  H132  1  0.48280000  0.25440000  0.50770000  1.0 0.1302642098
H  H133  1  0.78980000  0.08890000  0.89020000  1.0 0.1589510142
H  H134  1  0.21020000  0.91110000  0.10980000  1.0 0.1589510142
H  H135  1  0.70650000  0.01430000  0.89420000  1.0 0.1495472034
H  H136  1  0.29350000  0.98570000  0.10580000  1.0 0.1495472034
C  C1  1  0.78010000  0.24820000  0.20000000  1.0 0.2157510395
C  C2  1  0.21990000  0.75180000  0.80000000  1.0 0.2157510395
C  C3  1  0.84530000  0.21780000  0.19760000  1.0 -0.0070253961
C  C4  1  0.15470000  0.78220000  0.80240000  1.0 -0.0070253961
C  C5  1  0.83480000  0.13730000  0.20890000  1.0 -0.2071678573
C  C6  1  0.16520000  0.86270000  0.79110000  1.0 -0.2071678573
C  C7  1  0.75870000  0.08480000  0.21860000  1.0 0.1891745205
C  C8  1  0.24130000  0.91520000  0.78140000  1.0 0.1891745205
C  C9  1  0.69260000  0.11610000  0.21740000  1.0 -0.2071678573
C  C10  1  0.30740000  0.88390000  0.78260000  1.0 -0.2071678573
C  C11  1  0.70040000  0.19550000  0.20750000  1.0 0.0195682328
C  C12  1  0.29960000  0.80450000  0.79250000  1.0 0.0195682328
C  C13  1  0.74690000  0.00050000  0.23120000  1.0 -0.4372210627
C  C14  1  0.25310000  0.99950000  0.76880000  1.0 -0.4372210627
C  C15  1  0.93300000  0.27220000  0.19170000  1.0 -0.1397627629
C  C16  1  0.06700000  0.72780000  0.80830000  1.0 -0.1397627629
C  C17  1  0.91750000  0.23220000  0.06740000  1.0 -0.2713974816
C  C18  1  0.08250000  0.76780000  0.93260000  1.0 -0.2713974816
C  C19  1  0.90690000  0.26360000  0.00190000  1.0 0.6296480571
C  C20  1  0.09310000  0.73640000  0.99810000  1.0 0.6296480571
C  C21  1  0.02200000  0.36110000  0.13320000  1.0 -0.2893684673
C  C22  1  0.97800000  0.63890000  0.86680000  1.0 -0.2893684673
C  C23  1  0.03230000  0.44530000  0.17520000  1.0 0.64816726
C  C24  1  0.96770000  0.55470000  0.82480000  1.0 0.64816726
C  C25  1  0.62340000  0.22210000  0.20180000  1.0 -0.1592931077
C  C26  1  0.37660000  0.77790000  0.79820000  1.0 -0.1592931077
C  C27  1  0.64710000  0.25890000  0.32710000  1.0 -0.2893684673
C  C28  1  0.35290000  0.74110000  0.67290000  1.0 -0.2893684673
C  C29  1  0.73990000  0.29190000  0.35700000  1.0 0.6112275893
C  C30  1  0.26010000  0.70810000  0.64300000  1.0 0.6112275893
C  C31  1  0.54330000  0.29770000  0.25470000  1.0 -0.2713974816
C  C32  1  0.45670000  0.70230000  0.74530000  1.0 -0.2713974816
C  C33  1  0.53770000  0.35610000  0.20770000  1.0 0.6185155684
C  C34  1  0.46230000  0.64390000  0.79230000  1.0 0.6185155684
C  C35  1  0.72270000  0.50390000  0.12340000  1.0 0.2356231684
C  C36  1  0.27730000  0.49610000  0.87660000  1.0 0.2356231684
C  C37  1  0.73520000  0.58480000  0.15800000  1.0 0.0106843062
C  C38  1  0.26480000  0.41520000  0.84200000  1.0 0.0106843062
C  C39  1  0.69440000  0.63170000  0.12720000  1.0 -0.191082639
C  C40  1  0.30560000  0.36830000  0.87280000  1.0 -0.191082639
C  C41  1  0.64140000  0.60120000  0.06330000  1.0 0.1846812243
C  C42  1  0.35860000  0.39880000  0.93670000  1.0 0.1846812243
C  C43  1  0.62770000  0.52180000  0.03140000  1.0 -0.2071678573
C  C44  1  0.37230000  0.47820000  0.96860000  1.0 -0.2071678573
C  C45  1  0.66730000  0.47050000  0.05910000  1.0 0.0106843062
C  C46  1  0.33270000  0.52950000  0.94090000  1.0 0.0106843062
C  C47  1  0.59690000  0.65450000  0.03160000  1.0 -0.4264655983
C  C48  1  0.40310000  0.34550000  0.96840000  1.0 -0.4264655983
C  C49  1  0.79550000  0.62070000  0.22590000  1.0 -0.1397627629
C  C50  1  0.20450000  0.37930000  0.77410000  1.0 -0.1397627629
C  C51  1  0.68650000  0.58820000  0.29670000  1.0 -0.2820229456
C  C52  1  0.31350000  0.41180000  0.70330000  1.0 -0.2820229456
C  C53  1  0.65100000  0.53050000  0.34170000  1.0 0.6296480571
C  C54  1  0.34900000  0.46950000  0.65830000  1.0 0.6296480571
C  C55  1  0.83310000  0.61690000  0.34120000  1.0 -0.2713974816
C  C56  1  0.16690000  0.38310000  0.65880000  1.0 -0.2713974816
C  C57  1  0.90570000  0.58160000  0.33780000  1.0 0.64816726
C  C58  1  0.09430000  0.41840000  0.66220000  1.0 0.6391890123
C  C59  1  0.65020000  0.38450000  0.02340000  1.0 -0.166755346
C  C60  1  0.34980000  0.61550000  0.97660000  1.0 -0.166755346
C  C61  1  0.76050000  0.43400000  0.95740000  1.0 -0.2713974816
C  C62  1  0.23950000  0.56600000  0.04260000  1.0 -0.2713974816
C  C63  1  0.83160000  0.51020000  0.00220000  1.0 0.6296480571
C  C64  1  0.16840000  0.48980000  0.99780000  1.0 0.6296480571
C  C65  1  0.69470000  0.28490000  0.95210000  1.0 -0.2893684673
C  C66  1  0.30530000  0.71510000  0.04790000  1.0 -0.2893684673
C  C67  1  0.69040000  0.22150000  0.99440000  1.0 0.6296480571
C  C68  1  0.30960000  0.77850000  0.00560000  1.0 0.6296480571
C  C69  1  0.94700000  0.92150000  0.64400000  1.0 0.2356231684
C  C70  1  0.05300000  0.07850000  0.35600000  1.0 0.2356231684
C  C71  1  0.98140000  0.98860000  0.61320000  1.0 0.0274583973
C  C72  1  0.01860000  0.01140000  0.38680000  1.0 0.0274583973
C  C73  1  0.05820000  0.99780000  0.59130000  1.0 -0.1990681117
C  C74  1  0.94180000  0.00220000  0.40870000  1.0 -0.1990681117
C  C75  1  0.10050000  0.94180000  0.59830000  1.0 0.1891745205
C  C76  1  0.89950000  0.05820000  0.40170000  1.0 0.1891745205
C  C77  1  0.06580000  0.87650000  0.62750000  1.0 -0.2071678573
C  C78  1  0.93420000  0.12350000  0.37250000  1.0 -0.2071678573
C  C79  1  0.98890000  0.86440000  0.64970000  1.0 0.0106843062
C  C80  1  0.01110000  0.13560000  0.35030000  1.0 0.0106843062
C  C81  1  0.18400000  0.95220000  0.57400000  1.0 -0.4501608437
C  C82  1  0.81600000  0.04780000  0.42600000  1.0 -0.4501608437
C  C83  1  0.93350000  0.04610000  0.60050000  1.0 -0.1592931077
C  C84  1  0.06650000  0.95390000  0.39950000  1.0 -0.1592931077
C  C85  1  0.02290000  0.14760000  0.70410000  1.0 -0.2713974816
C  C86  1  0.97710000  0.85240000  0.29590000  1.0 -0.2713974816
C  C87  1  0.04490000  0.10580000  0.76090000  1.0 0.6185155684
C  C88  1  0.95510000  0.89420000  0.23910000  1.0 0.6185155684
C  C89  1  0.89630000  0.16470000  0.64350000  1.0 -0.2893684673
C  C90  1  0.10370000  0.83530000  0.35650000  1.0 -0.2893684673
C  C91  1  0.80080000  0.13130000  0.63040000  1.0 0.6112275893
C  C92  1  0.19920000  0.86870000  0.36960000  1.0 0.6112275893
C  C93  1  0.95330000  0.79360000  0.68500000  1.0 -0.1397627629
C  C94  1  0.04670000  0.20640000  0.31500000  1.0 -0.1397627629
C  C95  1  0.87450000  0.68220000  0.58400000  1.0 -0.2820229456
C  C96  1  0.12550000  0.31780000  0.41600000  1.0 -0.2820229456
C  C97  1  0.78500000  0.63160000  0.54260000  1.0 0.6391890123
C  C98  1  0.21500000  0.36840000  0.45740000  1.0 0.6391890123
C  C99  1  0.83900000  0.67520000  0.69440000  1.0 -0.2893684673
C  C100  1  0.16100000  0.32480000  0.30560000  1.0 -0.2893684673
C  C101  1  0.80270000  0.71580000  0.74870000  1.0 0.6296480571
C  C102  1  0.19730000  0.28420000  0.25130000  1.0 0.6296480571
C  C103  1  0.63750000  0.91050000  0.65170000  1.0 0.245080697
C  C104  1  0.36250000  0.08950000  0.34830000  1.0 0.245080697
C  C105  1  0.59880000  0.89560000  0.58130000  1.0 0.0195682328
C  C106  1  0.40120000  0.10440000  0.41870000  1.0 0.0195682328
C  C107  1  0.52110000  0.90570000  0.56570000  1.0 -0.2071678573
C  C108  1  0.47890000  0.09430000  0.43430000  1.0 -0.2071678573
C  C109  1  0.47950000  0.93130000  0.61490000  1.0 0.1983960892
C  C110  1  0.52050000  0.06870000  0.38510000  1.0 0.1983960892
C  C111  1  0.51960000  0.94720000  0.68270000  1.0 -0.2171278621
C  C112  1  0.48040000  0.05280000  0.31730000  1.0 -0.2171278621
C  C113  1  0.59760000  0.93640000  0.70180000  1.0 -0.0070253961
C  C114  1  0.40240000  0.06360000  0.29820000  1.0 -0.0070253961
C  C115  1  0.39460000  0.94410000  0.59710000  1.0 -0.4692403202
C  C116  1  0.60540000  0.05590000  0.40290000  1.0 -0.4692403202
C  C117  1  0.77820000  0.80230000  0.46860000  1.0 0.6296480571
C  C118  1  0.22180000  0.19770000  0.53140000  1.0 0.6296480571
C  C119  1  0.64260000  0.87380000  0.52480000  1.0 -0.1592931077
C  C120  1  0.35740000  0.12620000  0.47520000  1.0 -0.1592931077
C  C121  1  0.70630000  0.10220000  0.79030000  1.0 -0.2713974816
C  C122  1  0.29370000  0.89780000  0.20970000  1.0 -0.2713974816
C  C123  1  0.63690000  0.95100000  0.77500000  1.0 -0.1397627629
C  C124  1  0.36310000  0.04900000  0.22500000  1.0 -0.1397627629
C  C125  1  0.54650000  0.70240000  0.57710000  1.0 0.6391890123
C  C126  1  0.45350000  0.29760000  0.42290000  1.0 0.6391890123
C  C127  1  0.68220000  0.77250000  0.45450000  1.0 -0.2820229456
C  C128  1  0.31780000  0.22750000  0.54550000  1.0 -0.2820229456
C  C129  1  0.79200000  0.17100000  0.79800000  1.0 0.6391890123
C  C130  1  0.20800000  0.82900000  0.20200000  1.0 0.6391890123
C  C131  1  0.56210000  0.72470000  0.51060000  1.0 -0.2893684673
C  C132  1  0.43790000  0.27530000  0.48940000  1.0 -0.2893684673
C  C133  1  0.75380000  0.03020000  0.86930000  1.0 -0.2893684673
C  C134  1  0.24620000  0.96980000  0.13070000  1.0 -0.2893684673
C  C135  1  0.80520000  0.97640000  0.87720000  1.0 0.6391890123
C  C136  1  0.19480000  0.02360000  0.12280000  1.0 0.6391890123
N  N1  1  0.64660000  0.78870000  0.51550000  1.0 -0.1319020664
N  N2  1  0.35340000  0.21130000  0.48450000  1.0 -0.1319020664
N  N3  1  0.93500000  0.30090000  0.12580000  1.0 -0.1397627629
N  N4  1  0.06500000  0.69910000  0.87420000  1.0 -0.1397627629
N  N5  1  0.62650000  0.28580000  0.26290000  1.0 -0.1319020664
N  N6  1  0.37350000  0.71420000  0.73710000  1.0 -0.1319020664
N  N7  1  0.76520000  0.57820000  0.28110000  1.0 -0.1397627629
N  N8  1  0.23480000  0.42180000  0.71890000  1.0 -0.1397627629
N  N9  1  0.72370000  0.37080000  0.99470000  1.0 -0.1319020664
N  N10  1  0.27630000  0.62920000  0.00530000  1.0 -0.1319020664
N  N11  1  0.93410000  0.10480000  0.66410000  1.0 -0.1319020664
N  N12  1  0.06590000  0.89520000  0.33590000  1.0 -0.1319020664
N  N13  1  0.86890000  0.73180000  0.64920000  1.0 -0.1459624892
N  N14  1  0.13110000  0.26820000  0.35080000  1.0 -0.1459624892
N  N15  1  0.71800000  0.02410000  0.79720000  1.0 -0.1181287629
N  N16  1  0.28200000  0.97590000  0.20280000  1.0 -0.1181287629
O  O1  1  0.85550000  0.15010000  0.78940000  1.0 -0.6594102507
O  O2  1  0.14450000  0.84990000  0.21060000  1.0 -0.6594102507
O  O3  1  0.81640000  0.82310000  0.53030000  1.0 -0.6311215585
O  O4  1  0.18360000  0.17690000  0.46970000  1.0 -0.6311215585
O  O5  1  0.83720000  0.95510000  0.82670000  1.0 -0.602606905
O  O6  1  0.16280000  0.04490000  0.17330000  1.0 -0.602606905
O  O7  1  0.61010000  0.71930000  0.62570000  1.0 -0.6127951269
O  O8  1  0.38990000  0.28070000  0.37430000  1.0 -0.6127951269
O  O9  1  0.78950000  0.32730000  0.19300000  1.0 -0.7660849815
O  O10  1  0.21050000  0.67270000  0.80700000  1.0 -0.7660849815
O  O11  1  0.88730000  0.32790000  0.00560000  1.0 -0.5702741121
O  O12  1  0.11270000  0.67210000  0.99440000  1.0 -0.5702741121
O  O13  1  0.91830000  0.22380000  0.94960000  1.0 -0.5325442975
O  O14  1  0.08170000  0.77620000  0.05040000  1.0 -0.5325442975
O  O15  1  0.96640000  0.46540000  0.17070000  1.0 -0.5325442975
O  O16  1  0.03360000  0.53460000  0.82930000  1.0 -0.5325442975
O  O17  1  0.10510000  0.48880000  0.20870000  1.0 -0.5702741121
O  O18  1  0.89490000  0.51120000  0.79130000  1.0 -0.5702741121
O  O19  1  0.78570000  0.36020000  0.34310000  1.0 -0.5566731816
O  O20  1  0.21430000  0.63980000  0.65690000  1.0 -0.5566731816
O  O21  1  0.76910000  0.25370000  0.39470000  1.0 -0.4501608437
O  O22  1  0.23090000  0.74630000  0.60530000  1.0 -0.4501608437
O  O23  1  0.60580000  0.40300000  0.19600000  1.0 -0.636119855
O  O24  1  0.39420000  0.59700000  0.80400000  1.0 -0.636119855
O  O25  1  0.46650000  0.35640000  0.18400000  1.0 -0.4501608437
O  O26  1  0.53350000  0.64360000  0.81600000  1.0 -0.4501608437
O  O27  1  0.76220000  0.45690000  0.15140000  1.0 -0.7533815627
O  O28  1  0.23780000  0.54310000  0.84860000  1.0 -0.7533815627
O  O29  1  0.67670000  0.46880000  0.34460000  1.0 -0.667117012
O  O30  1  0.32330000  0.53120000  0.65540000  1.0 -0.667117012
O  O31  1  0.59580000  0.54320000  0.37400000  1.0 -0.5365584915
O  O32  1  0.40420000  0.45680000  0.62600000  1.0 -0.5365584915
O  O33  1  0.88370000  0.50660000  0.30530000  1.0 -0.5099046355
O  O34  1  0.11630000  0.49340000  0.69470000  1.0 -0.5099046355
O  O35  1  0.97810000  0.62650000  0.36850000  1.0 -0.5493740415
O  O36  1  0.02190000  0.37350000  0.63150000  1.0 -0.5493740415
O  O37  1  0.87550000  0.49740000  0.05260000  1.0 -0.5493740415
O  O38  1  0.12450000  0.50260000  0.94740000  1.0 -0.5493740415
O  O39  1  0.84570000  0.57930000  0.98580000  1.0 -0.4692403202
O  O40  1  0.15430000  0.42070000  0.01420000  1.0 -0.4692403202
O  O41  1  0.73200000  0.24460000  0.05500000  1.0 -0.6212961202
O  O42  1  0.26800000  0.75540000  0.94500000  1.0 -0.6212961202
O  O43  1  0.65010000  0.14610000  0.96660000  1.0 -0.5241973972
O  O44  1  0.34990000  0.85390000  0.03340000  1.0 -0.5241973972
O  O45  1  0.87340000  0.91220000  0.66720000  1.0 -0.7810989743
O  O46  1  0.12660000  0.08780000  0.33280000  1.0 -0.7810989743
O  O47  1  0.98310000  0.05850000  0.78150000  1.0 -0.602606905
O  O48  1  0.01690000  0.94150000  0.21850000  1.0 -0.602606905
O  O49  1  0.12000000  0.12440000  0.78620000  1.0 -0.4870507245
O  O50  1  0.88000000  0.87560000  0.21380000  1.0 -0.4870507245
O  O51  1  0.76480000  0.06540000  0.64910000  1.0 -0.6311215585
O  O52  1  0.23520000  0.93460000  0.35090000  1.0 -0.6311215585
O  O53  1  0.76210000  0.17310000  0.60460000  1.0 -0.4501608437
O  O54  1  0.23790000  0.82690000  0.39540000  1.0 -0.4501608437
O  O55  1  0.72370000  0.65580000  0.55600000  1.0 -0.6212961202
O  O56  1  0.27630000  0.34420000  0.44400000  1.0 -0.6212961202
O  O57  1  0.77570000  0.56830000  0.49750000  1.0 -0.5241973972
O  O58  1  0.22430000  0.43170000  0.50250000  1.0 -0.5241973972
O  O59  1  0.76520000  0.76340000  0.73200000  1.0 -0.5821900095
O  O60  1  0.23480000  0.23660000  0.26800000  1.0 -0.5821900095
O  O61  1  0.81180000  0.69920000  0.80730000  1.0 -0.4754004901
O  O62  1  0.18820000  0.30080000  0.19270000  1.0 -0.4754004901
O  O63  1  0.71350000  0.90190000  0.66790000  1.0 -0.7533815627
O  O64  1  0.28650000  0.09810000  0.33210000  1.0 -0.7533815627
O  O65  1  0.81480000  0.80150000  0.41880000  1.0 -0.5365584915
O  O66  1  0.18520000  0.19850000  0.58120000  1.0 -0.5365584915
O  O67  1  0.47190000  0.66250000  0.58110000  1.0 -0.5821900095
O  O68  1  0.52810000  0.33750000  0.41890000  1.0 -0.5821900095
O  O69  1  0.79420000  0.24360000  0.81010000  1.0 -0.5821900095
O  O70  1  0.20580000  0.75640000  0.18990000  1.0 -0.5821900095
O  O71  1  0.81840000  0.95830000  0.93360000  1.0 -0.4161944961
O  O72  1  0.18160000  0.04170000  0.06640000  1.0 -0.4161944961
O  O73  1  0.21700000  0.66740000  0.32100000  1.0 0.0106843062
O  O74  1  0.78300000  0.33260000  0.67900000  1.0 0.0106843062
O  O75  1  0.09310000  0.29230000  0.89340000  1.0 -0.2267771935
O  O76  1  0.90690000  0.70770000  0.10660000  1.0 -0.2267771935
O  O77  1  0.58210000  0.51490000  0.53970000  1.0 0.0274583973
O  O78  1  0.41790000  0.48510000  0.46030000  1.0 0.0274583973
O  O79  1  0.10470000  0.50670000  0.53200000  1.0 -0.3886804705
O  O80  1  0.89530000  0.49330000  0.46800000  1.0 -0.3886804705
O  O81  1  0.97740000  0.36550000  0.76610000  1.0 -0.321082217
O  O82  1  0.02260000  0.63450000  0.23390000  1.0 -0.3261758213
O  O83  1  0.94370000  0.40820000  0.90590000  1.0 -0.2071678573
O  O84  1  0.05630000  0.59180000  0.09410000  1.0 -0.2171278621
O  O85  1  0.00310000  0.44300000  0.35360000  1.0 0.0106843062
O  O86  1  0.99690000  0.55700000  0.64640000  1.0 0.0195682328
O  O87  1  0.05750000  0.67480000  0.55860000  1.0 -0.1181287629
O  O88  1  0.94250000  0.32520000  0.44140000  1.0 -0.1181287629
O  O89  1  0.68890000  0.37350000  0.52320000  1.0 -0.2411264231
O  O90  1  0.31110000  0.62650000  0.47680000  1.0 -0.2411264231
O  O91  1  0.31840000  0.64990000  0.21250000  1.0 -0.2620377069
O  O92  1  0.68160000  0.35010000  0.78750000  1.0 -0.2713974816
