# DDEC6 charges by PACMAN v1.1 (https://github.com/mtap-research/PACMAN-charge/)
data_JIXPEP_ASR_pacman
_symmetry_space_group_name_H-M   'P 1'
_cell_length_a   10.81720000
_cell_length_b   15.46590000
_cell_length_c   16.90530000
_cell_angle_alpha   90.00000000
_cell_angle_beta   98.95200000
_cell_angle_gamma   90.00000000
_symmetry_Int_Tables_number   1
_chemical_formula_structural   DyH12C16(NO4)3
_chemical_formula_sum   'Dy4 H48 C64 N12 O48'
_cell_volume   2793.76798214
_cell_formula_units_Z   4
loop_
 _symmetry_equiv_pos_site_id
 _symmetry_equiv_pos_as_xyz
  1  'x, y, z'
loop_
 _atom_site_type_symbol
 _atom_site_label
 _atom_site_symmetry_multiplicity
 _atom_site_fract_x
 _atom_site_fract_y
 _atom_site_fract_z
 _atom_site_occupancy
 _atom_site_charge
Dy  Dy1  1  0.54475000  0.07171000  0.61301000  1.0 1.9624390958
Dy  Dy2  1  0.45525000  0.57171000  0.88699000  1.0 1.9624390958
Dy  Dy3  1  0.45525000  0.92829000  0.38699000  1.0 1.9624390958
Dy  Dy4  1  0.54475000  0.42829000  0.11301000  1.0 1.9624390958
H  H1  1  0.94258000  0.10923000  0.76161000  1.0 0.1404963641
H  H2  1  0.05742000  0.60923000  0.73839000  1.0 0.1404963641
H  H3  1  0.05742000  0.89077000  0.23839000  1.0 0.1404963641
H  H4  1  0.94258000  0.39077000  0.26161000  1.0 0.1404963641
H  H5  1  0.97440000  0.04645000  0.69264000  1.0 0.1404963641
H  H6  1  0.02560000  0.54645000  0.80736000  1.0 0.1404963641
H  H7  1  0.02560000  0.95355000  0.30736000  1.0 0.1404963641
H  H8  1  0.97440000  0.45355000  0.19264000  1.0 0.1404963641
H  H9  1  0.06751000  0.93628000  0.95736000  1.0 0.11001186
H  H10  1  0.93249000  0.43628000  0.54264000  1.0 0.11001186
H  H11  1  0.93249000  0.06372000  0.04264000  1.0 0.11001186
H  H12  1  0.06751000  0.56372000  0.45736000  1.0 0.11001186
H  H13  1  0.12622000  0.84633000  0.86895000  1.0 0.102549894
H  H14  1  0.87378000  0.34633000  0.63105000  1.0 0.102549894
H  H15  1  0.87378000  0.15367000  0.13105000  1.0 0.102549894
H  H16  1  0.12622000  0.65367000  0.36895000  1.0 0.102549894
H  H17  1  0.86964000  0.91073000  0.00491000  1.0 0.0845729602
H  H18  1  0.13036000  0.41073000  0.49509000  1.0 0.0845729602
H  H19  1  0.13036000  0.08927000  0.99509000  1.0 0.0845729602
H  H20  1  0.86964000  0.58927000  0.50491000  1.0 0.0845729602
H  H21  1  0.98485000  0.72952000  0.81549000  1.0 0.0902401329
H  H22  1  0.01515000  0.22952000  0.68451000  1.0 0.0902401329
H  H23  1  0.01515000  0.27048000  0.18451000  1.0 0.0902401329
H  H24  1  0.98485000  0.77048000  0.31549000  1.0 0.0902401329
H  H25  1  0.70870000  0.85319000  0.90763000  1.0 0.11001186
H  H26  1  0.29130000  0.35319000  0.59237000  1.0 0.11001186
H  H27  1  0.29130000  0.14681000  0.09237000  1.0 0.11001186
H  H28  1  0.70870000  0.64681000  0.40763000  1.0 0.11001186
H  H29  1  0.76751000  0.76193000  0.80857000  1.0 0.1189914578
H  H30  1  0.23249000  0.26193000  0.69143000  1.0 0.1189914578
H  H31  1  0.23249000  0.23807000  0.19143000  1.0 0.1189914578
H  H32  1  0.76751000  0.73807000  0.30857000  1.0 0.1189914578
H  H33  1  0.04939000  0.81493000  0.04308000  1.0 0.1189914578
H  H34  1  0.95061000  0.31493000  0.45692000  1.0 0.1189914578
H  H35  1  0.95061000  0.18507000  0.95692000  1.0 0.1189914578
H  H36  1  0.04939000  0.68507000  0.54308000  1.0 0.1189914578
H  H37  1  0.10293000  0.72441000  0.95124000  1.0 0.1189914578
H  H38  1  0.89707000  0.22441000  0.54876000  1.0 0.1189914578
H  H39  1  0.89707000  0.27559000  0.04876000  1.0 0.1189914578
H  H40  1  0.10293000  0.77559000  0.45124000  1.0 0.1189914578
H  H41  1  0.86593000  0.53518000  0.05663000  1.0 0.1492987854
H  H42  1  0.13407000  0.03518000  0.44337000  1.0 0.1492987854
H  H43  1  0.13407000  0.46482000  0.94337000  1.0 0.1492987854
H  H44  1  0.86593000  0.96482000  0.55663000  1.0 0.1492987854
H  H45  1  0.80372000  0.60422000  0.10893000  1.0 0.1492987854
H  H46  1  0.19628000  0.10422000  0.39107000  1.0 0.1492987854
H  H47  1  0.19628000  0.39578000  0.89107000  1.0 0.1492987854
H  H48  1  0.80372000  0.89578000  0.60893000  1.0 0.1492987854
C  C1  1  0.78730000  0.05630000  0.69560000  1.0 0.6022233723
C  C2  1  0.21270000  0.55630000  0.80440000  1.0 0.6022233723
C  C3  1  0.21270000  0.94370000  0.30440000  1.0 0.6022233723
C  C4  1  0.78730000  0.44370000  0.19560000  1.0 0.6022233723
C  C5  1  0.92120000  0.05300000  0.73490000  1.0 -0.2452557178
C  C6  1  0.07880000  0.55300000  0.76510000  1.0 -0.2452557178
C  C7  1  0.07880000  0.94700000  0.26510000  1.0 -0.2452557178
C  C8  1  0.92120000  0.44700000  0.23490000  1.0 -0.2452557178
C  C9  1  0.93580000  0.99410000  0.87160000  1.0 0.4429639189
C  C10  1  0.06420000  0.49410000  0.62840000  1.0 0.4429639189
C  C11  1  0.06420000  0.00590000  0.12840000  1.0 0.4429639189
C  C12  1  0.93580000  0.50590000  0.37160000  1.0 0.4429639189
C  C13  1  0.00190000  0.90380000  0.77820000  1.0 0.4429639189
C  C14  1  0.99810000  0.40380000  0.72180000  1.0 0.4429639189
C  C15  1  0.99810000  0.09620000  0.22180000  1.0 0.4429639189
C  C16  1  0.00190000  0.59620000  0.27820000  1.0 0.4429639189
C  C17  1  0.99260000  0.91730000  0.91900000  1.0 -0.1870713474
C  C18  1  0.00740000  0.41730000  0.58100000  1.0 -0.1870713474
C  C19  1  0.00740000  0.08270000  0.08100000  1.0 -0.1870713474
C  C20  1  0.99260000  0.58270000  0.41900000  1.0 -0.1870713474
C  C21  1  0.03380000  0.85600000  0.85670000  1.0 -0.1801538335
C  C22  1  0.96620000  0.35600000  0.64330000  1.0 -0.1801538335
C  C23  1  0.96620000  0.14400000  0.14330000  1.0 -0.1801538335
C  C24  1  0.03380000  0.64400000  0.35670000  1.0 -0.1801538335
C  C25  1  0.89970000  0.87110000  0.96520000  1.0 -0.0020450805
C  C26  1  0.10030000  0.37110000  0.53480000  1.0 -0.0020450805
C  C27  1  0.10030000  0.12890000  0.03480000  1.0 -0.0020450805
C  C28  1  0.89970000  0.62890000  0.46520000  1.0 -0.0020450805
C  C29  1  0.96490000  0.76940000  0.85830000  1.0 -0.0020450805
C  C30  1  0.03510000  0.26940000  0.64170000  1.0 -0.0020450805
C  C31  1  0.03510000  0.23060000  0.14170000  1.0 -0.0020450805
C  C32  1  0.96490000  0.73060000  0.35830000  1.0 -0.0020450805
C  C33  1  0.79330000  0.83820000  0.90570000  1.0 -0.1292186415
C  C34  1  0.20670000  0.33820000  0.59430000  1.0 -0.1292186415
C  C35  1  0.20670000  0.16180000  0.09430000  1.0 -0.1292186415
C  C36  1  0.79330000  0.66180000  0.40570000  1.0 -0.1292186415
C  C37  1  0.82640000  0.78640000  0.85010000  1.0 -0.1292186415
C  C38  1  0.17360000  0.28640000  0.64990000  1.0 -0.1292186415
C  C39  1  0.17360000  0.21360000  0.14990000  1.0 -0.1292186415
C  C40  1  0.82640000  0.71360000  0.35010000  1.0 -0.1292186415
C  C41  1  0.97310000  0.79410000  0.00700000  1.0 -0.1801538335
C  C42  1  0.02690000  0.29410000  0.49300000  1.0 -0.1801538335
C  C43  1  0.02690000  0.20590000  0.99300000  1.0 -0.1801538335
C  C44  1  0.97310000  0.70590000  0.50700000  1.0 -0.1801538335
C  C45  1  0.01000000  0.73180000  0.94300000  1.0 -0.1741334142
C  C46  1  0.99000000  0.23180000  0.55700000  1.0 -0.1741334142
C  C47  1  0.99000000  0.26820000  0.05700000  1.0 -0.1741334142
C  C48  1  0.01000000  0.76820000  0.44300000  1.0 -0.1741334142
C  C49  1  0.89250000  0.74120000  0.05330000  1.0 0.4565941824
C  C50  1  0.10750000  0.24120000  0.44670000  1.0 0.4565941824
C  C51  1  0.10750000  0.25880000  0.94670000  1.0 0.4565941824
C  C52  1  0.89250000  0.75880000  0.55330000  1.0 0.4565941824
C  C53  1  0.94830000  0.64690000  0.95830000  1.0 0.4565941824
C  C54  1  0.05170000  0.14690000  0.54170000  1.0 0.4565941824
C  C55  1  0.05170000  0.35310000  0.04170000  1.0 0.4565941824
C  C56  1  0.94830000  0.85310000  0.45830000  1.0 0.4565941824
C  C57  1  0.81720000  0.58960000  0.05390000  1.0 -0.2434788549
C  C58  1  0.18280000  0.08960000  0.44610000  1.0 -0.2434788549
C  C59  1  0.18280000  0.41040000  0.94610000  1.0 -0.2434788549
C  C60  1  0.81720000  0.91040000  0.55390000  1.0 -0.2434788549
C  C61  1  0.69160000  0.57520000  0.00220000  1.0 0.6777276753
C  C62  1  0.30840000  0.07520000  0.49780000  1.0 0.6777276753
C  C63  1  0.30840000  0.42480000  0.99780000  1.0 0.6777276753
C  C64  1  0.69160000  0.92480000  0.50220000  1.0 0.6777276753
N  N1  1  0.95350000  0.98500000  0.79340000  1.0 -0.1594588363
N  N2  1  0.04650000  0.48500000  0.70660000  1.0 -0.1594588363
N  N3  1  0.04650000  0.01500000  0.20660000  1.0 -0.1594588363
N  N4  1  0.95350000  0.51500000  0.29340000  1.0 -0.1594588363
N  N5  1  0.88770000  0.65690000  0.02440000  1.0 -0.1594588363
N  N6  1  0.11230000  0.15690000  0.47560000  1.0 -0.1594588363
N  N7  1  0.11230000  0.34310000  0.97560000  1.0 -0.1594588363
N  N8  1  0.88770000  0.84310000  0.52440000  1.0 -0.1594588363
N  N9  1  0.56820000  0.24560000  0.55510000  1.0 0.5695693551
N  N10  1  0.43180000  0.74560000  0.94490000  1.0 0.5695693551
N  N11  1  0.43180000  0.75440000  0.44490000  1.0 0.5695693551
N  N12  1  0.56820000  0.25440000  0.05510000  1.0 0.5695693551
O  O1  1  0.71290000  0.99840000  0.70680000  1.0 -0.6214282902
O  O2  1  0.28710000  0.49840000  0.79320000  1.0 -0.6214282902
O  O3  1  0.28710000  0.00160000  0.29320000  1.0 -0.6214282902
O  O4  1  0.71290000  0.50160000  0.20680000  1.0 -0.6214282902
O  O5  1  0.75630000  0.11910000  0.64890000  1.0 -0.6295288147
O  O6  1  0.24370000  0.61910000  0.85110000  1.0 -0.6295288147
O  O7  1  0.24370000  0.88090000  0.35110000  1.0 -0.6295288147
O  O8  1  0.75630000  0.38090000  0.14890000  1.0 -0.6295288147
O  O9  1  0.88360000  0.05560000  0.89620000  1.0 -0.4536500277
O  O10  1  0.11640000  0.55560000  0.60380000  1.0 -0.4536500277
O  O11  1  0.11640000  0.94440000  0.10380000  1.0 -0.4536500277
O  O12  1  0.88360000  0.44440000  0.39620000  1.0 -0.4536500277
O  O13  1  0.01620000  0.87940000  0.71220000  1.0 -0.4416008683
O  O14  1  0.98380000  0.37940000  0.78780000  1.0 -0.4416008683
O  O15  1  0.98380000  0.12060000  0.28780000  1.0 -0.4416008683
O  O16  1  0.01620000  0.62060000  0.21220000  1.0 -0.4416008683
O  O17  1  0.83780000  0.76630000  0.10660000  1.0 -0.4551414193
O  O18  1  0.16220000  0.26630000  0.39340000  1.0 -0.4551414193
O  O19  1  0.16220000  0.23370000  0.89340000  1.0 -0.4551414193
O  O20  1  0.83780000  0.73370000  0.60660000  1.0 -0.4536500277
O  O21  1  0.95020000  0.57950000  0.92230000  1.0 -0.4416008683
O  O22  1  0.04980000  0.07950000  0.57770000  1.0 -0.4416008683
O  O23  1  0.04980000  0.42050000  0.07770000  1.0 -0.4416008683
O  O24  1  0.95020000  0.92050000  0.42230000  1.0 -0.4416008683
O  O25  1  0.66220000  0.61900000  0.93950000  1.0 -0.6410338672
O  O26  1  0.33780000  0.11900000  0.56050000  1.0 -0.6410338672
O  O27  1  0.33780000  0.38100000  0.06050000  1.0 -0.6410338672
O  O28  1  0.66220000  0.88100000  0.43950000  1.0 -0.6410338672
O  O29  1  0.62170000  0.52050000  0.02510000  1.0 -0.6984227838
O  O30  1  0.37830000  0.02050000  0.47490000  1.0 -0.6984227838
O  O31  1  0.37830000  0.47950000  0.97490000  1.0 -0.6984227838
O  O32  1  0.62170000  0.97950000  0.52510000  1.0 -0.6984227838
O  O33  1  0.57740000  0.17910000  0.51200000  1.0 -0.5043112876
O  O34  1  0.42260000  0.67910000  0.98800000  1.0 -0.5069844268
O  O35  1  0.42260000  0.82090000  0.48800000  1.0 -0.5069844268
O  O36  1  0.57740000  0.32090000  0.01200000  1.0 -0.5069844268
O  O37  1  0.54210000  0.23220000  0.62430000  1.0 -0.5249651911
O  O38  1  0.45790000  0.73220000  0.87570000  1.0 -0.5276370885
O  O39  1  0.45790000  0.76780000  0.37570000  1.0 -0.5276370885
O  O40  1  0.54210000  0.26780000  0.12430000  1.0 -0.5249651911
O  O41  1  0.55470000  0.32230000  0.52830000  1.0 0.0902401329
O  O42  1  0.44530000  0.82230000  0.97170000  1.0 0.0902401329
O  O43  1  0.44530000  0.67770000  0.47170000  1.0 0.0845729602
O  O44  1  0.55470000  0.17770000  0.02830000  1.0 0.102549894
O  O45  1  0.62440000  0.31150000  0.53470000  1.0 0.0720768331
O  O46  1  0.37560000  0.81150000  0.96530000  1.0 0.0720768331
O  O47  1  0.37560000  0.68850000  0.46530000  1.0 0.0614320247
O  O48  1  0.62440000  0.18850000  0.03470000  1.0 0.0720768331
