# DDEC6 charges by PACMAN v1.1 (https://github.com/mtap-research/PACMAN-charge/)
data_JIYBUR_FSR_pacman
_symmetry_space_group_name_H-M   'P 1'
_cell_length_a   9.86150000
_cell_length_b   14.62210000
_cell_length_c   21.27500000
_cell_angle_alpha   85.96500000
_cell_angle_beta   86.94500000
_cell_angle_gamma   73.60300000
_symmetry_Int_Tables_number   1
_chemical_formula_structural   CdNiH56C52(N2O3)2
_chemical_formula_sum   'Cd2 Ni2 H112 C104 N8 O12'
_cell_volume   2933.90968332
_cell_formula_units_Z   2
loop_
 _symmetry_equiv_pos_site_id
 _symmetry_equiv_pos_as_xyz
  1  'x, y, z'
loop_
 _atom_site_type_symbol
 _atom_site_label
 _atom_site_symmetry_multiplicity
 _atom_site_fract_x
 _atom_site_fract_y
 _atom_site_fract_z
 _atom_site_occupancy
 _atom_site_charge
Cd  Cd1  1  0.90823000  0.64432000  0.49306000  1.0 0.8663333826
Cd  Cd2  1  0.09177000  0.35568000  0.50694000  1.0 0.8663333826
Ni  Ni1  1  0.30782000  0.60307000  0.02238000  1.0 0.3253714018
Ni  Ni2  1  0.69218000  0.39693000  0.97762000  1.0 0.3253714018
H  H1  1  0.07390000  0.74810000  0.57360000  1.0 0.1194634937
H  H2  1  0.14800000  0.76150000  0.67170000  1.0 0.1392686858
H  H3  1  0.95050000  0.56750000  0.73880000  1.0 0.1298608848
H  H4  1  0.88140000  0.56070000  0.63830000  1.0 0.1194634937
H  H5  1  0.10460000  0.80920000  0.77170000  1.0 0.1194634937
H  H6  1  0.12110000  0.53630000  0.81400000  1.0 0.1194634937
H  H7  1  0.18450000  0.46520000  0.91340000  1.0 0.1077679239
H  H8  1  0.13170000  0.47520000  0.06030000  1.0 0.0712389451
H  H9  1  0.26150000  0.32890000  0.98140000  1.0 0.0799328578
H  H10  1  0.09850000  0.37890000  0.98630000  1.0 0.0799328578
H  H11  1  0.08260000  0.31170000  0.08860000  1.0 0.0712389451
H  H12  1  0.15990000  0.22800000  0.04570000  1.0 0.1077679239
H  H13  1  0.37740000  0.22390000  0.08170000  1.0 0.0712389451
H  H14  1  0.27830000  0.22070000  0.14130000  1.0 0.1077679239
H  H15  1  0.25610000  0.38540000  0.15820000  1.0 0.0799328578
H  H16  1  0.41910000  0.33280000  0.15200000  1.0 0.0712389451
H  H17  1  0.42500000  0.38260000  0.04410000  1.0 0.0712389451
H  H18  1  0.46130000  0.46170000  0.16120000  1.0 0.0985813461
H  H19  1  0.58220000  0.52920000  0.22650000  1.0 0.1194634937
H  H20  1  0.55920000  0.80600000  0.20750000  1.0 0.1077679239
H  H21  1  0.77780000  0.51800000  0.40640000  1.0 0.0985813461
H  H22  1  0.65400000  0.52700000  0.31790000  1.0 0.1298608848
H  H23  1  0.72590000  0.77760000  0.27120000  1.0 0.1392686858
H  H24  1  0.84060000  0.76350000  0.36310000  1.0 0.1194634937
H  H25  1  0.17180000  0.93440000  0.78850000  1.0 0.1298608848
H  H26  1  0.11760000  0.00660000  0.84160000  1.0 0.1392686858
H  H27  1  0.02030000  0.94750000  0.81960000  1.0 0.1194634937
H  H28  1  0.37340000  0.81320000  0.91600000  1.0 0.148549965
H  H29  1  0.33850000  0.92290000  0.89770000  1.0 0.1298608848
H  H30  1  0.38380000  0.84910000  0.84520000  1.0 0.1298608848
H  H31  1  0.99370000  0.90010000  0.93290000  1.0 0.1298608848
H  H32  1  0.10120000  0.95430000  0.95090000  1.0 0.1392686858
H  H33  1  0.12640000  0.84600000  0.97170000  1.0 0.1567205362
H  H34  1  0.22500000  0.85020000  0.07650000  1.0 0.148549965
H  H35  1  0.22160000  0.95800000  0.07690000  1.0 0.1298608848
H  H36  1  0.20740000  0.90000000  0.14050000  1.0 0.1392686858
H  H37  1  0.58370000  0.85460000  0.04360000  1.0 0.1194634937
H  H38  1  0.44660000  0.92720000  0.01720000  1.0 0.1298608848
H  H39  1  0.46590000  0.81700000  0.01660000  1.0 0.1392686858
H  H40  1  0.40600000  0.94480000  0.18270000  1.0 0.1298608848
H  H41  1  0.41220000  0.00550000  0.11940000  1.0 0.1392686858
H  H42  1  0.54900000  0.92990000  0.14350000  1.0 0.1298608848
H  H43  1  0.39730000  0.39390000  0.45950000  1.0 0.1298608848
H  H44  1  0.36620000  0.65450000  0.51640000  1.0 0.1194634937
H  H45  1  0.72630000  0.99040000  0.46050000  1.0 0.1194634937
H  H46  1  0.44560000  0.86370000  0.54050000  1.0 0.1194634937
H  H47  1  0.39610000  0.38220000  0.00970000  1.0 0.0712389451
H  H48  1  0.10300000  0.37650000  0.01110000  1.0 0.0880020909
H  H49  1  0.22290000  0.32080000  0.96480000  1.0 0.0712389451
H  H50  1  0.17940000  0.21890000  0.05140000  1.0 0.1077679239
H  H51  1  0.33730000  0.22120000  0.04660000  1.0 0.0799328578
H  H52  1  0.13300000  0.31680000  0.13510000  1.0 0.0712389451
H  H53  1  0.26300000  0.22880000  0.15090000  1.0 0.0880020909
H  H54  1  0.41630000  0.31760000  0.12410000  1.0 0.0880020909
H  H55  1  0.30610000  0.36940000  0.17510000  1.0 0.0712389451
H  H56  1  0.17670000  0.47310000  0.09580000  1.0 0.0712389451
H  H57  1  0.92610000  0.25190000  0.42640000  1.0 0.1194634937
H  H58  1  0.85200000  0.23850000  0.32830000  1.0 0.1392686858
H  H59  1  0.04950000  0.43250000  0.26120000  1.0 0.1298608848
H  H60  1  0.11860000  0.43930000  0.36170000  1.0 0.1194634937
H  H61  1  0.89540000  0.19080000  0.22830000  1.0 0.1194634937
H  H62  1  0.87890000  0.46370000  0.18600000  1.0 0.1194634937
H  H63  1  0.81550000  0.53480000  0.08660000  1.0 0.1077679239
H  H64  1  0.86830000  0.52480000  0.93970000  1.0 0.0712389451
H  H65  1  0.73850000  0.67110000  0.01860000  1.0 0.0799328578
H  H66  1  0.90150000  0.62110000  0.01370000  1.0 0.0799328578
H  H67  1  0.91740000  0.68830000  0.91140000  1.0 0.0712389451
H  H68  1  0.84010000  0.77200000  0.95430000  1.0 0.1077679239
H  H69  1  0.62260000  0.77610000  0.91830000  1.0 0.0712389451
H  H70  1  0.72170000  0.77930000  0.85870000  1.0 0.1077679239
H  H71  1  0.74390000  0.61460000  0.84180000  1.0 0.0799328578
H  H72  1  0.58090000  0.66720000  0.84800000  1.0 0.0799328578
H  H73  1  0.57500000  0.61740000  0.95590000  1.0 0.0712389451
H  H74  1  0.53870000  0.53830000  0.83880000  1.0 0.0985813461
H  H75  1  0.41780000  0.47080000  0.77350000  1.0 0.1194634937
H  H76  1  0.44080000  0.19400000  0.79250000  1.0 0.1077679239
H  H77  1  0.22220000  0.48200000  0.59360000  1.0 0.0985813461
H  H78  1  0.34600000  0.47300000  0.68210000  1.0 0.1298608848
H  H79  1  0.27410000  0.22240000  0.72880000  1.0 0.1392686858
H  H80  1  0.15940000  0.23650000  0.63690000  1.0 0.1194634937
H  H81  1  0.82820000  0.06560000  0.21150000  1.0 0.1298608848
H  H82  1  0.88240000  0.99340000  0.15840000  1.0 0.1392686858
H  H83  1  0.97970000  0.05250000  0.18040000  1.0 0.1194634937
H  H84  1  0.62660000  0.18680000  0.08400000  1.0 0.148549965
H  H85  1  0.66150000  0.07710000  0.10230000  1.0 0.1298608848
H  H86  1  0.61620000  0.15090000  0.15480000  1.0 0.1298608848
H  H87  1  0.00630000  0.09990000  0.06710000  1.0 0.1298608848
H  H88  1  0.89880000  0.04570000  0.04910000  1.0 0.1392686858
H  H89  1  0.87360000  0.15400000  0.02830000  1.0 0.1567205362
H  H90  1  0.77500000  0.14980000  0.92350000  1.0 0.148549965
H  H91  1  0.77840000  0.04200000  0.92310000  1.0 0.1298608848
H  H92  1  0.79260000  0.10000000  0.85950000  1.0 0.1392686858
H  H93  1  0.41630000  0.14540000  0.95640000  1.0 0.1194634937
H  H94  1  0.55340000  0.07280000  0.98280000  1.0 0.1298608848
H  H95  1  0.53410000  0.18300000  0.98340000  1.0 0.1392686858
H  H96  1  0.59400000  0.05520000  0.81730000  1.0 0.1298608848
H  H97  1  0.58780000  0.99450000  0.88060000  1.0 0.1392686858
H  H98  1  0.45100000  0.07010000  0.85650000  1.0 0.1298608848
H  H99  1  0.60270000  0.60610000  0.54050000  1.0 0.1298608848
H  H100  1  0.63380000  0.34550000  0.48360000  1.0 0.1194634937
H  H101  1  0.27370000  0.00960000  0.53950000  1.0 0.1194634937
H  H102  1  0.55440000  0.13630000  0.45950000  1.0 0.1194634937
H  H103  1  0.60390000  0.61780000  0.99030000  1.0 0.0712389451
H  H104  1  0.89700000  0.62350000  0.98890000  1.0 0.0880020909
H  H105  1  0.77710000  0.67920000  0.03520000  1.0 0.0712389451
H  H106  1  0.82060000  0.78110000  0.94860000  1.0 0.1077679239
H  H107  1  0.66270000  0.77880000  0.95340000  1.0 0.0799328578
H  H108  1  0.86700000  0.68320000  0.86490000  1.0 0.0712389451
H  H109  1  0.73700000  0.77120000  0.84910000  1.0 0.0880020909
H  H110  1  0.58370000  0.68240000  0.87590000  1.0 0.0880020909
H  H111  1  0.69390000  0.63060000  0.82490000  1.0 0.0712389451
H  H112  1  0.82330000  0.52690000  0.90420000  1.0 0.0712389451
C  C1  1  0.04990000  0.71090000  0.60730000  1.0 0.0880020909
C  C2  1  0.09480000  0.71950000  0.66620000  1.0 -0.1895101607
C  C3  1  0.06000000  0.66480000  0.71756000  1.0 0.1298608848
C  C4  1  0.97770000  0.60470000  0.70591000  1.0 -0.2190471448
C  C5  1  0.93690000  0.60080000  0.64516000  1.0 0.0985813461
C  C6  1  0.10810000  0.67060000  0.78159000  1.0 0.0392566741
C  C7  1  0.12480000  0.75690000  0.80055000  1.0 -0.1814191219
C  C8  1  0.16880000  0.76920000  0.85901000  1.0 -0.0128031648
C  C9  1  0.20720000  0.68660000  0.90219000  1.0 0.2228410862
C  C10  1  0.18490000  0.60010000  0.88451000  1.0 -0.1553629018
C  C11  1  0.13540000  0.59340000  0.82462000  1.0 -0.2378831632
C  C12  1  0.20390000  0.51870000  0.92761000  1.0 -0.141006393
C  C13  1  0.21210000  0.44240000  0.03350000  1.0 0.0392566741
C  C14  1  0.18400000  0.35900000  0.00990000  1.0 -0.1895101607
C  C15  1  0.16800000  0.28540000  0.06360000  1.0 -0.0776260622
C  C16  1  0.29560000  0.26070000  0.10520000  1.0 -0.062181247
C  C17  1  0.33100000  0.35180000  0.12980000  1.0 -0.1895101607
C  C18  1  0.34390000  0.41520000  0.07070000  1.0 0.0392566741
C  C19  1  0.43270000  0.51650000  0.13463000  1.0 -0.0497786455
C  C20  1  0.47380000  0.59700000  0.15013000  1.0 -0.0497786455
C  C21  1  0.55270000  0.58840000  0.20459000  1.0 -0.1651685663
C  C22  1  0.58720000  0.66480000  0.22617000  1.0 0.0392566741
C  C23  1  0.53850000  0.75350000  0.19227000  1.0 -0.1814191219
C  C24  1  0.46250000  0.76800000  0.13817000  1.0 -0.0284046248
C  C25  1  0.43170000  0.68610000  0.11408000  1.0 0.2783401631
C  C26  1  0.76550000  0.57210000  0.37922000  1.0 0.0799328578
C  C27  1  0.69080000  0.57690000  0.32573000  1.0 -0.2085268326
C  C28  1  0.67020000  0.65570000  0.28353000  1.0 0.1298608848
C  C29  1  0.73210000  0.72420000  0.29858000  1.0 -0.2028109223
C  C30  1  0.80310000  0.71460000  0.35382000  1.0 0.0880020909
C  C31  1  0.17740000  0.86660000  0.87717000  1.0 0.3017817311
C  C32  1  0.11600000  0.94630000  0.82703000  1.0 -0.4591110624
C  C33  1  0.33280000  0.86260000  0.88470000  1.0 -0.5304497607
C  C34  1  0.09160000  0.89440000  0.93899000  1.0 -0.5113400646
C  C35  1  0.41220000  0.86770000  0.10459000  1.0 0.3017817311
C  C36  1  0.25160000  0.89670000  0.09910000  1.0 -0.4723938606
C  C37  1  0.48370000  0.86650000  0.03953000  1.0 -0.549716535
C  C38  1  0.44820000  0.94410000  0.14100000  1.0 -0.4723938606
C  C39  1  0.20230000  0.56020000  0.47198000  1.0 0.550823646
C  C40  1  0.35810000  0.52970000  0.48453000  1.0 -0.0284046248
C  C41  1  0.43850000  0.43680000  0.47556000  1.0 -0.1009388817
C  C42  1  0.41990000  0.59240000  0.50953000  1.0 -0.105949951
C  C43  1  0.71440000  0.81710000  0.50172000  1.0 0.5408895783
C  C44  1  0.60370000  0.91250000  0.50144000  1.0 -0.0128031648
C  C45  1  0.63560000  0.99390000  0.47662000  1.0 -0.1009388817
C  C46  1  0.46810000  0.91850000  0.52431000  1.0 -0.1009388817
C  C47  1  0.29610000  0.41240000  0.02000000  1.0 0.0320513941
C  C48  1  0.20300000  0.34300000  0.00710000  1.0 -0.1895101607
C  C49  1  0.24130000  0.25900000  0.05590000  1.0 -0.071833694
C  C50  1  0.23090000  0.28600000  0.12340000  1.0 -0.0776260622
C  C51  1  0.31700000  0.35090000  0.13180000  1.0 -0.1814191219
C  C52  1  0.27680000  0.44020000  0.08770000  1.0 0.0392566741
C  C53  1  0.95010000  0.28910000  0.39270000  1.0 0.0880020909
C  C54  1  0.90520000  0.28050000  0.33380000  1.0 -0.1895101607
C  C55  1  0.94000000  0.33520000  0.28244000  1.0 0.1298608848
C  C56  1  0.02230000  0.39530000  0.29409000  1.0 -0.2190471448
C  C57  1  0.06310000  0.39920000  0.35484000  1.0 0.0985813461
C  C58  1  0.89190000  0.32940000  0.21841000  1.0 0.0392566741
C  C59  1  0.87520000  0.24310000  0.19945000  1.0 -0.1814191219
C  C60  1  0.83120000  0.23080000  0.14099000  1.0 -0.0128031648
C  C61  1  0.79280000  0.31340000  0.09781000  1.0 0.2266037636
C  C62  1  0.81510000  0.39990000  0.11549000  1.0 -0.1529816814
C  C63  1  0.86460000  0.40660000  0.17538000  1.0 -0.2378831632
C  C64  1  0.79610000  0.48130000  0.07239000  1.0 -0.141006393
C  C65  1  0.78790000  0.55760000  0.96650000  1.0 0.0392566741
C  C66  1  0.81600000  0.64100000  0.99010000  1.0 -0.1895101607
C  C67  1  0.83200000  0.71460000  0.93640000  1.0 -0.0776260622
C  C68  1  0.70440000  0.73930000  0.89480000  1.0 -0.062181247
C  C69  1  0.66900000  0.64820000  0.87020000  1.0 -0.1895101607
C  C70  1  0.65610000  0.58480000  0.92930000  1.0 0.0392566741
C  C71  1  0.56730000  0.48350000  0.86537000  1.0 -0.0497786455
C  C72  1  0.52620000  0.40300000  0.84987000  1.0 -0.0497786455
C  C73  1  0.44730000  0.41160000  0.79541000  1.0 -0.1651685663
C  C74  1  0.41280000  0.33520000  0.77383000  1.0 0.0392566741
C  C75  1  0.46150000  0.24650000  0.80773000  1.0 -0.1814191219
C  C76  1  0.53750000  0.23200000  0.86183000  1.0 -0.0284046248
C  C77  1  0.56830000  0.31390000  0.88592000  1.0 0.2783401631
C  C78  1  0.23450000  0.42790000  0.62078000  1.0 0.0799328578
C  C79  1  0.30920000  0.42310000  0.67427000  1.0 -0.2085268326
C  C80  1  0.32980000  0.34430000  0.71647000  1.0 0.1298608848
C  C81  1  0.26790000  0.27580000  0.70142000  1.0 -0.2028109223
C  C82  1  0.19690000  0.28540000  0.64618000  1.0 0.0880020909
C  C83  1  0.82260000  0.13340000  0.12283000  1.0 0.3017817311
C  C84  1  0.88400000  0.05370000  0.17297000  1.0 -0.4591110624
C  C85  1  0.66720000  0.13740000  0.11530000  1.0 -0.5304497607
C  C86  1  0.90840000  0.10560000  0.06101000  1.0 -0.5113400646
C  C87  1  0.58780000  0.13230000  0.89541000  1.0 0.3017817311
C  C88  1  0.74840000  0.10330000  0.90090000  1.0 -0.4723938606
C  C89  1  0.51630000  0.13350000  0.96047000  1.0 -0.549716535
C  C90  1  0.55180000  0.05590000  0.85900000  1.0 -0.4723938606
C  C91  1  0.79770000  0.43980000  0.52802000  1.0 0.550823646
C  C92  1  0.64190000  0.47030000  0.51547000  1.0 -0.0284046248
C  C93  1  0.56150000  0.56320000  0.52444000  1.0 -0.1009388817
C  C94  1  0.58010000  0.40760000  0.49047000  1.0 -0.105949951
C  C95  1  0.28560000  0.18290000  0.49828000  1.0 0.5408895783
C  C96  1  0.39630000  0.08750000  0.49856000  1.0 -0.0128031648
C  C97  1  0.36440000  0.00610000  0.52338000  1.0 -0.1009388817
C  C98  1  0.53190000  0.08150000  0.47569000  1.0 -0.1009388817
C  C99  1  0.70390000  0.58760000  0.98000000  1.0 0.0320513941
C  C100  1  0.79700000  0.65700000  0.99290000  1.0 -0.1895101607
C  C101  1  0.75870000  0.74100000  0.94410000  1.0 -0.071833694
C  C102  1  0.76910000  0.71400000  0.87660000  1.0 -0.0776260622
C  C103  1  0.68300000  0.64910000  0.86820000  1.0 -0.1814191219
C  C104  1  0.72320000  0.55980000  0.91230000  1.0 0.0392566741
N  N1  1  0.97320000  0.65153000  0.59592000  1.0 -0.2311582543
N  N2  1  0.24570000  0.51270000  0.98457000  1.0 -0.2085268326
N  N3  1  0.35940000  0.51160000  0.08723000  1.0 -0.2028109223
N  N4  1  0.82090000  0.63975000  0.39445000  1.0 -0.2190471448
N  N5  1  0.02680000  0.34847000  0.40408000  1.0 -0.2311582543
N  N6  1  0.75430000  0.48730000  0.01543000  1.0 -0.2190471448
N  N7  1  0.64060000  0.48840000  0.91277000  1.0 -0.2028109223
N  N8  1  0.17910000  0.36025000  0.60555000  1.0 -0.2190471448
O  O1  1  0.25940000  0.69359000  0.95645000  1.0 -0.4231273062
O  O2  1  0.36720000  0.69440000  0.06110000  1.0 -0.437913505
O  O3  1  0.14090000  0.64787000  0.46685000  1.0 -0.5304497607
O  O4  1  0.13700000  0.49889000  0.47004000  1.0 -0.5763128825
O  O5  1  0.83610000  0.81387000  0.47988000  1.0 -0.549716535
O  O6  1  0.68050000  0.74475000  0.52302000  1.0 -0.549716535
O  O7  1  0.74060000  0.30641000  0.04355000  1.0 -0.4231273062
O  O8  1  0.63280000  0.30560000  0.93890000  1.0 -0.437913505
O  O9  1  0.85910000  0.35213000  0.53315000  1.0 -0.5304497607
O  O10  1  0.86300000  0.50111000  0.52996000  1.0 -0.5763128825
O  O11  1  0.16390000  0.18613000  0.52012000  1.0 -0.549716535
O  O12  1  0.31950000  0.25525000  0.47698000  1.0 -0.549716535
