# DDEC6 charges by PACMAN v1.1 (https://github.com/mtap-research/PACMAN-charge/)
data_JIYXUL_ASR_pacman
_symmetry_space_group_name_H-M   'P 1'
_cell_length_a   12.58980000
_cell_length_b   14.93390000
_cell_length_c   19.95020000
_cell_angle_alpha   112.85200000
_cell_angle_beta   104.59000000
_cell_angle_gamma   86.02300000
_symmetry_Int_Tables_number   1
_chemical_formula_structural   Na15Fe4Sb2W18(C4O47)2
_chemical_formula_sum   'Na15 Fe4 Sb2 W18 C8 O94'
_cell_volume   3343.35931659
_cell_formula_units_Z   1
loop_
 _symmetry_equiv_pos_site_id
 _symmetry_equiv_pos_as_xyz
  1  'x, y, z'
loop_
 _atom_site_type_symbol
 _atom_site_label
 _atom_site_symmetry_multiplicity
 _atom_site_fract_x
 _atom_site_fract_y
 _atom_site_fract_z
 _atom_site_occupancy
 _atom_site_charge
Na  Na1  1  0.89430000  0.01110000  0.42140000  1.0 0.8883937463
Na  Na2  1  0.10570000  0.98890000  0.57860000  1.0 0.8883937463
Na  Na3  1  0.02190000  0.39960000  0.42640000  1.0 0.831512547
Na  Na4  1  0.97810000  0.60040000  0.57360000  1.0 0.831512547
Na  Na5  1  0.62130000  0.27880000  0.38720000  1.0 0.8065586751
Na  Na6  1  0.37870000  0.72120000  0.61280000  1.0 0.8065586751
Na  Na7  1  0.50000000  0.50000000  0.50000000  1.0 0.8883937463
Na  Na8  1  0.83050000  0.71090000  0.13640000  1.0 1.0695912306
Na  Na9  1  0.16950000  0.28910000  0.86360000  1.0 1.0695912306
Na  Na10  1  0.35690000  0.49100000  0.95280000  1.0 0.9280255104
Na  Na11  1  0.64310000  0.50900000  0.04720000  1.0 0.9280255104
Na  Na12  1  0.05710000  0.61290000  0.75820000  1.0 0.9403175975
Na  Na13  1  0.94290000  0.38710000  0.24180000  1.0 0.9403175975
Na  Na14  1  0.89800000  0.64590000  0.92430000  1.0 0.9280255104
Na  Na15  1  0.10200000  0.35410000  0.07570000  1.0 0.9403175975
Fe  Fe1  1  0.34663000  0.12831000  0.48166000  1.0 1.3420748775
Fe  Fe2  1  0.65337000  0.87169000  0.51834000  1.0 1.3420748775
Fe  Fe3  1  0.79497000  0.24712000  0.56353000  1.0 1.3205213611
Fe  Fe4  1  0.20503000  0.75288000  0.43647000  1.0 1.3205213611
Sb  Sb1  1  0.40051000  0.86435000  0.35593000  1.0 1.3420748775
Sb  Sb2  1  0.59949000  0.13565000  0.64407000  1.0 1.3420748775
W  W1  1  0.60529000  0.04475000  0.41946000  1.0 2.3518171375
W  W2  1  0.39471000  0.95525000  0.58054000  1.0 2.3518171375
W  W3  1  0.45745000  0.01810000  0.24635000  1.0 2.4507174556
W  W4  1  0.54255000  0.98190000  0.75365000  1.0 2.4417060678
W  W5  1  0.64618000  0.85712000  0.26783000  1.0 2.3518171375
W  W6  1  0.35382000  0.14288000  0.73217000  1.0 2.3518171375
W  W7  1  0.59635000  0.67685000  0.34157000  1.0 2.4117091959
W  W8  1  0.40365000  0.32315000  0.65843000  1.0 2.4117091959
W  W9  1  0.45035000  0.64795000  0.17065000  1.0 2.2917984788
W  W10  1  0.54965000  0.35205000  0.82935000  1.0 2.3089624708
W  W11  1  0.33286000  0.61168000  0.29261000  1.0 2.4304736917
W  W12  1  0.66714000  0.38832000  0.70739000  1.0 2.4304736917
W  W13  1  0.12020000  0.78774000  0.26567000  1.0 2.3858183687
W  W14  1  0.87980000  0.21226000  0.73433000  1.0 2.3841670816
W  W15  1  0.23922000  0.82713000  0.14597000  1.0 2.4417060678
W  W16  1  0.76078000  0.17287000  0.85403000  1.0 2.4507174556
W  W17  1  0.19416000  0.01112000  0.29355000  1.0 2.4212707346
W  W18  1  0.80584000  0.98888000  0.70645000  1.0 2.4212707346
C  C1  1  0.15370000  0.24320000  0.47750000  1.0 0.4531037375
C  C2  1  0.84630000  0.75680000  0.52250000  1.0 0.4531037375
C  C3  1  0.23050000  0.27860000  0.44240000  1.0 0.4531037375
C  C4  1  0.76950000  0.72140000  0.55760000  1.0 0.4559965198
C  C5  1  0.91780000  0.42120000  0.60260000  1.0 0.4977320348
C  C6  1  0.08220000  0.57880000  0.39740000  1.0 0.4977320348
C  C7  1  0.85220000  0.39500000  0.52070000  1.0 0.4908129042
C  C8  1  0.14780000  0.60500000  0.47930000  1.0 0.4908129042
O  O1  1  0.70010000  0.14370000  0.47670000  1.0 -0.7813132937
O  O2  1  0.29990000  0.85630000  0.52330000  1.0 -0.7813132937
O  O3  1  0.48090000  0.08830000  0.44740000  1.0 -0.807118618
O  O4  1  0.51910000  0.91170000  0.55260000  1.0 -0.807118618
O  O5  1  0.63890000  0.96210000  0.46630000  1.0 -0.8224833245
O  O6  1  0.36110000  0.03790000  0.53370000  1.0 -0.8224833245
O  O7  1  0.70440000  0.96820000  0.35220000  1.0 -0.9656440551
O  O8  1  0.29560000  0.03180000  0.64780000  1.0 -0.9646170671
O  O9  1  0.55260000  0.09560000  0.33540000  1.0 -0.9529378052
O  O10  1  0.44740000  0.90440000  0.66460000  1.0 -0.9529378052
O  O11  1  0.50230000  0.92570000  0.32210000  1.0 -1.0027796561
O  O12  1  0.49770000  0.07430000  0.67790000  1.0 -1.0027796561
O  O13  1  0.32900000  0.05410000  0.28360000  1.0 -0.9276146109
O  O14  1  0.67100000  0.94590000  0.71640000  1.0 -0.9276146109
O  O15  1  0.57720000  0.93920000  0.21500000  1.0 -0.9416038926
O  O16  1  0.42280000  0.06080000  0.78500000  1.0 -0.9416038926
O  O17  1  0.36890000  0.89990000  0.17270000  1.0 -0.9529378052
O  O18  1  0.63110000  0.10010000  0.82730000  1.0 -0.9529378052
O  O19  1  0.75670000  0.82630000  0.22840000  1.0 -0.7318591411
O  O20  1  0.24330000  0.17370000  0.77160000  1.0 -0.7373166219
O  O21  1  0.66390000  0.77670000  0.32290000  1.0 -0.8915793533
O  O22  1  0.33610000  0.22330000  0.67710000  1.0 -0.8915793533
O  O23  1  0.53710000  0.75920000  0.19340000  1.0 -0.8788435395
O  O24  1  0.46290000  0.24080000  0.80660000  1.0 -0.8788435395
O  O25  1  0.42820000  0.23050000  0.57360000  1.0 -0.8381163115
O  O26  1  0.57180000  0.76950000  0.42640000  1.0 -0.8381163115
O  O27  1  0.48410000  0.58540000  0.33080000  1.0 -0.8915793533
O  O28  1  0.51590000  0.41460000  0.66920000  1.0 -0.8915793533
O  O29  1  0.57470000  0.60990000  0.23210000  1.0 -0.8915793533
O  O30  1  0.42530000  0.39010000  0.76790000  1.0 -0.8915793533
O  O31  1  0.43350000  0.73000000  0.29170000  1.0 -1.0146101649
O  O32  1  0.56650000  0.27000000  0.70830000  1.0 -1.0146101649
O  O33  1  0.46700000  0.57020000  0.08340000  1.0 -0.8309290742
O  O34  1  0.53300000  0.42980000  0.91660000  1.0 -0.8309290742
O  O35  1  0.32280000  0.71220000  0.14140000  1.0 -0.9117979045
O  O36  1  0.67720000  0.28780000  0.85860000  1.0 -0.9117979045
O  O37  1  0.36380000  0.56560000  0.19190000  1.0 -0.9276146109
O  O38  1  0.63620000  0.43440000  0.80810000  1.0 -0.9249535139
O  O39  1  0.67670000  0.30850000  0.61210000  1.0 -0.8547947342
O  O40  1  0.32330000  0.69150000  0.38790000  1.0 -0.8556167419
O  O41  1  0.20830000  0.67340000  0.25270000  1.0 -0.9117979045
O  O42  1  0.79170000  0.32660000  0.74730000  1.0 -0.9117979045
O  O43  1  0.98950000  0.73900000  0.24370000  1.0 -0.6633382971
O  O44  1  0.01050000  0.26100000  0.75630000  1.0 -0.6633382971
O  O45  1  0.83310000  0.18010000  0.63210000  1.0 -0.8309290742
O  O46  1  0.16690000  0.81990000  0.36790000  1.0 -0.8309290742
O  O47  1  0.12280000  0.76660000  0.16290000  1.0 -0.9276146109
O  O48  1  0.87720000  0.23340000  0.83710000  1.0 -0.9276146109
O  O49  1  0.08120000  0.92140000  0.28230000  1.0 -0.9012748832
O  O50  1  0.91880000  0.07860000  0.71770000  1.0 -0.9012748832
O  O51  1  0.27410000  0.86490000  0.27260000  1.0 -1.0027796561
O  O52  1  0.72590000  0.13510000  0.72740000  1.0 -1.0027796561
O  O53  1  0.16860000  0.94710000  0.18360000  1.0 -0.9824946011
O  O54  1  0.83140000  0.05290000  0.81640000  1.0 -0.9824946011
O  O55  1  0.25950000  0.02970000  0.38940000  1.0 -0.8309290742
O  O56  1  0.74050000  0.97030000  0.61060000  1.0 -0.8309290742
O  O57  1  0.31840000  0.23290000  0.43700000  1.0 -0.4733646597
O  O58  1  0.68160000  0.76710000  0.56300000  1.0 -0.4733646597
O  O59  1  0.19680000  0.17960000  0.50420000  1.0 -0.4947637851
O  O60  1  0.80320000  0.82040000  0.49580000  1.0 -0.4947637851
O  O61  1  0.90180000  0.36200000  0.63110000  1.0 -0.5077367957
O  O62  1  0.09820000  0.63800000  0.36890000  1.0 -0.5077367957
O  O63  1  0.78110000  0.32430000  0.49660000  1.0 -0.5339253481
O  O64  1  0.21890000  0.67570000  0.50340000  1.0 -0.5339253481
O  O65  1  0.92920000  0.18040000  0.51820000  1.0 -0.3561098809
O  O66  1  0.07080000  0.81960000  0.48180000  1.0 -0.3561098809
O  O67  1  0.86860000  0.44150000  0.48520000  1.0 -0.4415460462
O  O68  1  0.13140000  0.55850000  0.51480000  1.0 -0.4415460462
O  O69  1  0.20070000  0.34600000  0.42140000  1.0 -0.4210475022
O  O70  1  0.79930000  0.65400000  0.57860000  1.0 -0.4210475022
O  O71  1  0.06160000  0.27570000  0.47820000  1.0 -0.4123133654
O  O72  1  0.93840000  0.72430000  0.52180000  1.0 -0.4123133654
O  O73  1  0.97790000  0.49450000  0.63330000  1.0 -0.5339253481
O  O74  1  0.02210000  0.50550000  0.36670000  1.0 -0.5339253481
O  O75  1  0.91180000  0.99830000  0.54020000  1.0 -0.3748160536
O  O76  1  0.08820000  0.00170000  0.45980000  1.0 -0.3805465634
O  O77  1  0.62420000  0.46100000  0.41660000  1.0 -0.5818547244
O  O78  1  0.37580000  0.53900000  0.58340000  1.0 -0.5818547244
O  O79  1  0.66666667  0.66120000  0.03830000  1.0 -0.8788435395
O  O80  1  0.33333333  0.33880000  0.96170000  1.0 -0.8703318174
O  O81  1  0.75890000  0.59030000  0.16940000  1.0 -0.5582513745
O  O82  1  0.24110000  0.40970000  0.83060000  1.0 -0.5582513745
O  O83  1  0.93600000  0.61910000  0.05140000  1.0 -0.7373166219
O  O84  1  0.06400000  0.38090000  0.94860000  1.0 -0.7373166219
O  O85  1  0.52590000  0.33360000  0.48590000  1.0 -0.4415460462
O  O86  1  0.47410000  0.66640000  0.51410000  1.0 -0.4415460462
O  O87  1  0.96510000  0.27530000  0.30350000  1.0 -0.7541106279
O  O88  1  0.03490000  0.72470000  0.69650000  1.0 -0.7595204647
O  O89  1  0.88710000  0.65630000  0.79920000  1.0 -0.9824946011
O  O90  1  0.11290000  0.34370000  0.20080000  1.0 -0.9824946011
O  O91  1  0.48710000  0.29770000  0.28640000  1.0 0.0397418038
O  O92  1  0.51290000  0.70230000  0.71360000  1.0 0.0397418038
O  O93  1  0.42500000  0.27390000  0.31750000  1.0 0.0272069591
O  O94  1  0.57500000  0.72610000  0.68250000  1.0 0.0272069591
