# DDEC6 charges by PACMAN v1.1 (https://github.com/mtap-research/PACMAN-charge/)
data_JIZWEW_FSR_pacman
_symmetry_space_group_name_H-M   'P 1'
_cell_length_a   6.61029000
_cell_length_b   17.89840000
_cell_length_c   11.09890000
_cell_angle_alpha   90.00000000
_cell_angle_beta   91.24610000
_cell_angle_gamma   90.00000000
_symmetry_Int_Tables_number   1
_chemical_formula_structural   AlC8O5
_chemical_formula_sum   'Al4 C32 O20'
_cell_volume   1312.84042885
_cell_formula_units_Z   4
loop_
 _symmetry_equiv_pos_site_id
 _symmetry_equiv_pos_as_xyz
  1  'x, y, z'
loop_
 _atom_site_type_symbol
 _atom_site_label
 _atom_site_symmetry_multiplicity
 _atom_site_fract_x
 _atom_site_fract_y
 _atom_site_fract_z
 _atom_site_occupancy
 _atom_site_charge
Al  Al1  1  0.77030000  0.77611000  0.74570000  1.0 1.5258944233
Al  Al2  1  0.22970000  0.27611000  0.25430000  1.0 1.5258944233
Al  Al3  1  0.75430000  0.27678000  0.24570000  1.0 1.5555104812
Al  Al4  1  0.24570000  0.77678000  0.75430000  1.0 1.5555104812
C  C1  1  0.67897000  0.05642000  0.04356000  1.0 -0.0183649786
C  C2  1  0.32103000  0.55642000  0.95644000  1.0 -0.0183649786
C  C3  1  0.66717000  0.99501000  0.94918000  1.0 0.0724434418
C  C4  1  0.33283000  0.49501000  0.05082000  1.0 0.0724434418
C  C5  1  0.29662000  0.98326000  0.98024000  1.0 0.0436296699
C  C6  1  0.70338000  0.48326000  0.01976000  1.0 0.0436296699
C  C7  1  0.31114000  0.04363000  0.07572000  1.0 -0.0896622954
C  C8  1  0.68886000  0.54363000  0.92428000  1.0 -0.0896622954
C  C9  1  0.47988000  0.09870000  0.04959000  1.0 -0.0977572488
C  C10  1  0.52012000  0.59870000  0.95041000  1.0 -0.0977572488
C  C11  1  0.49455000  0.94103000  0.97298000  1.0 -0.1080243836
C  C12  1  0.50545000  0.44103000  0.02702000  1.0 -0.1080243836
C  C13  1  0.48399000  0.15975000  0.14249000  1.0 0.6175544759
C  C14  1  0.51601000  0.65975000  0.85751000  1.0 0.6175544759
C  C15  1  0.48809000  0.87717000  0.88474000  1.0 0.6352220377
C  C16  1  0.51191000  0.37717000  0.11526000  1.0 0.6292502483
C  C17  1  0.15402000  0.48970000  0.43243000  1.0 0.0644034607
C  C18  1  0.84598000  0.98970000  0.56757000  1.0 0.0644034607
C  C19  1  0.17832000  0.55870000  0.51100000  1.0 -0.0896622954
C  C20  1  0.82168000  0.05870000  0.48900000  1.0 -0.0896622954
C  C21  1  0.83201000  0.54176000  0.58379000  1.0 -0.000454744
C  C22  1  0.16799000  0.04176000  0.41621000  1.0 0.0043385796
C  C23  1  0.80432000  0.47125000  0.50781000  1.0 0.0476074473
C  C24  1  0.19568000  0.97125000  0.49219000  1.0 0.0476074473
C  C25  1  0.00522000  0.43351000  0.48306000  1.0 -0.1080243836
C  C26  1  0.99478000  0.93351000  0.51694000  1.0 -0.1080243836
C  C27  1  0.97511000  0.59630000  0.52430000  1.0 -0.0678667283
C  C28  1  0.02489000  0.09630000  0.47570000  1.0 -0.0678667283
C  C29  1  0.99091000  0.36623000  0.40133000  1.0 0.6292502483
C  C30  1  0.00909000  0.86623000  0.59867000  1.0 0.6292502483
C  C31  1  0.98376000  0.67075000  0.58739000  1.0 0.5799051424
C  C32  1  0.01624000  0.17075000  0.41261000  1.0 0.5799051424
O  O1  1  0.01260000  0.77900000  0.84490000  1.0 -0.8514089684
O  O2  1  0.98740000  0.27900000  0.15510000  1.0 -0.8514089684
O  O3  1  0.17600000  0.35080000  0.37930000  1.0 -0.5177861253
O  O4  1  0.82400000  0.85080000  0.62070000  1.0 -0.5177861253
O  O5  1  0.63550000  0.85480000  0.83170000  1.0 -0.4467361818
O  O6  1  0.36450000  0.35480000  0.16830000  1.0 -0.4467361818
O  O7  1  0.83400000  0.69170000  0.64430000  1.0 -0.359342436
O  O8  1  0.16600000  0.19170000  0.35570000  1.0 -0.359342436
O  O9  1  0.32860000  0.20350000  0.14150000  1.0 -0.4215024064
O  O10  1  0.67140000  0.70350000  0.85850000  1.0 -0.4215024064
O  O11  1  0.50290000  0.26760000  0.32070000  1.0 -0.8111515442
O  O12  1  0.49710000  0.76760000  0.67930000  1.0 -0.8111515442
O  O13  1  0.63630000  0.20427000  0.13950000  1.0 -0.426210622
O  O14  1  0.36370000  0.70427000  0.86050000  1.0 -0.426210622
O  O15  1  0.11520000  0.70150000  0.65600000  1.0 -0.4031391541
O  O16  1  0.88480000  0.20150000  0.34400000  1.0 -0.4031391541
O  O17  1  0.31850000  0.86030000  0.84250000  1.0 -0.4558585684
O  O18  1  0.68150000  0.36030000  0.15750000  1.0 -0.4558585684
O  O19  1  0.81820000  0.34950000  0.36320000  1.0 -0.4978785316
O  O20  1  0.18180000  0.84950000  0.63680000  1.0 -0.4978785316
