# DDEC6 charges by PACMAN v1.1 (https://github.com/mtap-research/PACMAN-charge/)
data_JIZWOG_ASR_pacman
_symmetry_space_group_name_H-M   'P 1'
_cell_length_a   11.08360000
_cell_length_b   17.89230000
_cell_length_c   13.22460000
_cell_angle_alpha   90.00000000
_cell_angle_beta   90.19900000
_cell_angle_gamma   90.00000000
_symmetry_Int_Tables_number   1
_chemical_formula_structural   AlC8O5
_chemical_formula_sum   'Al8 C64 O40'
_cell_volume   2622.56910556
_cell_formula_units_Z   8
loop_
 _symmetry_equiv_pos_site_id
 _symmetry_equiv_pos_as_xyz
  1  'x, y, z'
loop_
 _atom_site_type_symbol
 _atom_site_label
 _atom_site_symmetry_multiplicity
 _atom_site_fract_x
 _atom_site_fract_y
 _atom_site_fract_z
 _atom_site_occupancy
 _atom_site_charge
Al  Al1  1  0.24160000  0.76280000  0.88380000  1.0 1.5619135594
Al  Al2  1  0.75840000  0.26280000  0.11620000  1.0 1.5619135594
Al  Al3  1  0.75440000  0.26620000  0.86900000  1.0 1.6107243096
Al  Al4  1  0.24560000  0.76620000  0.13100000  1.0 1.6107243096
Al  Al5  1  0.76090000  0.27270000  0.62540000  1.0 1.6337010955
Al  Al6  1  0.23910000  0.77270000  0.37460000  1.0 1.6385945176
Al  Al7  1  0.26490000  0.76600000  0.62780000  1.0 1.6107243096
Al  Al8  1  0.73510000  0.26600000  0.37220000  1.0 1.6107243096
C  C1  1  0.02421000  0.06771000  0.84810000  1.0 0.0808049572
C  C2  1  0.97579000  0.56771000  0.15190000  1.0 0.0808049572
C  C3  1  0.10900000  0.00127000  0.83599000  1.0 -0.1000780205
C  C4  1  0.89100000  0.50127000  0.16401000  1.0 -0.1000780205
C  C5  1  0.04815000  0.98510000  0.65580000  1.0 0.0312408527
C  C6  1  0.95185000  0.48510000  0.34420000  1.0 0.0312408527
C  C7  1  0.96308000  0.05135000  0.66704000  1.0 0.0202582344
C  C8  1  0.03692000  0.55135000  0.33296000  1.0 0.0121164866
C  C9  1  0.00731000  0.10723000  0.74617000  1.0 -0.1094475773
C  C10  1  0.99269000  0.60723000  0.25383000  1.0 -0.1195661361
C  C11  1  0.06078000  0.94631000  0.75833000  1.0 -0.1000780205
C  C12  1  0.93922000  0.44631000  0.24167000  1.0 -0.088628372
C  C13  1  0.92199000  0.17238000  0.75425000  1.0 0.6612459052
C  C14  1  0.07801000  0.67238000  0.24575000  1.0 0.6612459052
C  C15  1  0.13319000  0.87542000  0.75322000  1.0 0.6497021611
C  C16  1  0.86681000  0.37542000  0.24678000  1.0 0.6497021611
C  C17  1  0.54113000  0.48497000  0.07584000  1.0 -0.088628372
C  C18  1  0.45887000  0.98497000  0.92416000  1.0 -0.1000780205
C  C19  1  0.45121000  0.54892000  0.08312000  1.0 0.0630005879
C  C20  1  0.54879000  0.04892000  0.91688000  1.0 0.069908134
C  C21  1  0.40521000  0.53316000  0.89936000  1.0 0.0121164866
C  C22  1  0.59479000  0.03316000  0.10064000  1.0 0.0121164866
C  C23  1  0.49350000  0.46803000  0.89177000  1.0 0.0202582344
C  C24  1  0.50650000  0.96803000  0.10823000  1.0 0.0202582344
C  C25  1  0.50606000  0.42832000  0.99447000  1.0 -0.088628372
C  C26  1  0.49394000  0.92832000  0.00553000  1.0 -0.088628372
C  C27  1  0.44369000  0.58865000  0.98068000  1.0 -0.0827156434
C  C28  1  0.55631000  0.08865000  0.01932000  1.0 -0.088628372
C  C29  1  0.59662000  0.36560000  0.98959000  1.0 0.641559352
C  C30  1  0.40338000  0.86560000  0.01041000  1.0 0.641559352
C  C31  1  0.36494000  0.65715000  0.98432000  1.0 0.6497021611
C  C32  1  0.63506000  0.15715000  0.01568000  1.0 0.641559352
C  C33  1  0.00755000  0.57017000  0.66367000  1.0 0.0202582344
C  C34  1  0.99245000  0.07017000  0.33633000  1.0 0.0312408527
C  C35  1  0.91755000  0.50636000  0.67536000  1.0 0.069908134
C  C36  1  0.08245000  0.00636000  0.32464000  1.0 0.069908134
C  C37  1  0.97751000  0.48745000  0.85527000  1.0 0.069908134
C  C38  1  0.02249000  0.98745000  0.14473000  1.0 0.069908134
C  C39  1  0.06778000  0.55104000  0.84443000  1.0 -0.1302949394
C  C40  1  0.93222000  0.05104000  0.15557000  1.0 -0.1195661361
C  C41  1  0.02789000  0.60862000  0.76591000  1.0 -0.1094475773
C  C42  1  0.97211000  0.10862000  0.23409000  1.0 -0.1094475773
C  C43  1  0.96149000  0.44960000  0.75241000  1.0 -0.1000780205
C  C44  1  0.03851000  0.94960000  0.24759000  1.0 -0.1094475773
C  C45  1  0.11832000  0.67109000  0.75823000  1.0 0.6612459052
C  C46  1  0.88168000  0.17109000  0.24177000  1.0 0.6612459052
C  C47  1  0.88348000  0.38101000  0.75703000  1.0 0.6612459052
C  C48  1  0.11652000  0.88101000  0.24297000  1.0 0.6612459052
C  C49  1  0.46434000  0.98159000  0.43095000  1.0 0.0011622861
C  C50  1  0.53566000  0.48159000  0.56905000  1.0 0.0121164866
C  C51  1  0.55487000  0.04525000  0.42419000  1.0 0.069908134
C  C52  1  0.44513000  0.54525000  0.57581000  1.0 0.069908134
C  C53  1  0.59336000  0.03262000  0.60958000  1.0 -0.1094475773
C  C54  1  0.40664000  0.53262000  0.39042000  1.0 -0.1195661361
C  C55  1  0.50445000  0.96780000  0.61673000  1.0 0.1001906303
C  C56  1  0.49555000  0.46780000  0.38327000  1.0 0.1001906303
C  C57  1  0.49581000  0.92632000  0.51503000  1.0 -0.1195661361
C  C58  1  0.50419000  0.42632000  0.48497000  1.0 -0.1195661361
C  C59  1  0.55847000  0.08674000  0.52548000  1.0 -0.1094475773
C  C60  1  0.44153000  0.58674000  0.47452000  1.0 -0.1094475773
C  C61  1  0.40475000  0.86386000  0.51934000  1.0 0.6612459052
C  C62  1  0.59525000  0.36386000  0.48066000  1.0 0.6612459052
C  C63  1  0.63771000  0.15503000  0.52190000  1.0 0.6658308004
C  C64  1  0.36229000  0.65503000  0.47810000  1.0 0.6612459052
O  O1  1  0.61880000  0.31650000  0.05730000  1.0 -0.4507988298
O  O2  1  0.38120000  0.81650000  0.94270000  1.0 -0.4507988298
O  O3  1  0.13650000  0.83820000  0.83610000  1.0 -0.4090243526
O  O4  1  0.86350000  0.33820000  0.16390000  1.0 -0.4090243526
O  O5  1  0.32620000  0.66690000  0.90000000  1.0 -0.4385552411
O  O6  1  0.67380000  0.16690000  0.10000000  1.0 -0.4385552411
O  O7  1  0.88760000  0.20540000  0.67270000  1.0 -0.5101877754
O  O8  1  0.11240000  0.70540000  0.32730000  1.0 -0.5173499291
O  O9  1  0.83340000  0.27800000  0.99330000  1.0 -0.8324227834
O  O10  1  0.16660000  0.77800000  0.00670000  1.0 -0.8324227834
O  O11  1  0.68120000  0.26100000  0.74410000  1.0 -0.9142500664
O  O12  1  0.31880000  0.76100000  0.25590000  1.0 -0.9046613777
O  O13  1  0.86660000  0.18920000  0.83600000  1.0 -0.5006990338
O  O14  1  0.13340000  0.68920000  0.16400000  1.0 -0.5006990338
O  O15  1  0.35050000  0.70370000  0.05590000  1.0 -0.5173499291
O  O16  1  0.64950000  0.20370000  0.94410000  1.0 -0.5173499291
O  O17  1  0.62770000  0.33910000  0.90400000  1.0 -0.4090243526
O  O18  1  0.37230000  0.83910000  0.09600000  1.0 -0.4090243526
O  O19  1  0.14320000  0.83810000  0.66960000  1.0 -0.4646821374
O  O20  1  0.85680000  0.33810000  0.33040000  1.0 -0.4646821374
O  O21  1  0.09700000  0.72280000  0.82400000  1.0 -0.4034676159
O  O22  1  0.90300000  0.22280000  0.17600000  1.0 -0.4090243526
O  O23  1  0.35840000  0.83700000  0.43940000  1.0 -0.4807098041
O  O24  1  0.64160000  0.33700000  0.56060000  1.0 -0.4807098041
O  O25  1  0.85970000  0.35140000  0.67050000  1.0 -0.5433892811
O  O26  1  0.14030000  0.85140000  0.32950000  1.0 -0.5433892811
O  O27  1  0.64700000  0.20210000  0.59390000  1.0 -0.4334984029
O  O28  1  0.35300000  0.70210000  0.40610000  1.0 -0.4385552411
O  O29  1  0.86160000  0.35260000  0.84280000  1.0 -0.4880807305
O  O30  1  0.13840000  0.85260000  0.15720000  1.0 -0.4880807305
O  O31  1  0.18940000  0.76750000  0.50690000  1.0 -0.9046613777
O  O32  1  0.81060000  0.26750000  0.49310000  1.0 -0.9190639163
O  O33  1  0.31150000  0.74530000  0.75820000  1.0 -0.8620188738
O  O34  1  0.68850000  0.24530000  0.24180000  1.0 -0.8620188738
O  O35  1  0.14090000  0.69480000  0.66930000  1.0 -0.4090243526
O  O36  1  0.85910000  0.19480000  0.33070000  1.0 -0.4090243526
O  O37  1  0.63950000  0.18250000  0.43160000  1.0 -0.4807098041
O  O38  1  0.36050000  0.68250000  0.56840000  1.0 -0.4807098041
O  O39  1  0.38090000  0.83800000  0.60650000  1.0 -0.5101877754
O  O40  1  0.61910000  0.33800000  0.39350000  1.0 -0.5101877754
