# DDEC6 charges by PACMAN v1.1 (https://github.com/mtap-research/PACMAN-charge/)
data_JIZWIA_ASR_pacman
_symmetry_space_group_name_H-M   'P 1'
_cell_length_a   6.60306000
_cell_length_b   18.05990000
_cell_length_c   10.85790000
_cell_angle_alpha   90.00000000
_cell_angle_beta   90.37360000
_cell_angle_gamma   90.00000000
_symmetry_Int_Tables_number   1
_chemical_formula_structural   AlC8O5
_chemical_formula_sum   'Al4 C32 O20'
_cell_volume   1294.78359949
_cell_formula_units_Z   4
loop_
 _symmetry_equiv_pos_site_id
 _symmetry_equiv_pos_as_xyz
  1  'x, y, z'
loop_
 _atom_site_type_symbol
 _atom_site_label
 _atom_site_symmetry_multiplicity
 _atom_site_fract_x
 _atom_site_fract_y
 _atom_site_fract_z
 _atom_site_occupancy
 _atom_site_charge
Al  Al1  1  0.76340000  0.76540000  0.75600000  1.0 1.5940130303
Al  Al2  1  0.23660000  0.26540000  0.24400000  1.0 1.5940130303
Al  Al3  1  0.74540000  0.26350000  0.24490000  1.0 1.6038467238
Al  Al4  1  0.25460000  0.76350000  0.75510000  1.0 1.6050813744
C  C1  1  0.18395000  0.48918000  0.46528000  1.0 -0.0180270512
C  C2  1  0.81605000  0.98918000  0.53472000  1.0 -0.0180270512
C  C3  1  0.16949000  0.56003000  0.54031000  1.0 0.059222222
C  C4  1  0.83051000  0.06003000  0.45969000  1.0 0.059222222
C  C5  1  0.79577000  0.56124000  0.52093000  1.0 0.0183713641
C  C6  1  0.20423000  0.06124000  0.47907000  1.0 0.0183713641
C  C7  1  0.80052000  0.48788000  0.44923000  1.0 -0.0025298498
C  C8  1  0.19948000  0.98788000  0.55077000  1.0 -0.0025298498
C  C9  1  0.99419000  0.44348000  0.46863000  1.0 -0.0979327311
C  C10  1  0.00581000  0.94348000  0.53137000  1.0 -0.0979327311
C  C11  1  0.98677000  0.60740000  0.50861000  1.0 -0.1197671592
C  C12  1  0.01323000  0.10740000  0.49139000  1.0 -0.1197671592
C  C13  1  0.00703000  0.37360000  0.39352000  1.0 0.6463771711
C  C14  1  0.99297000  0.87360000  0.60648000  1.0 0.6463771711
C  C15  1  0.98166000  0.67516000  0.58947000  1.0 0.6063655565
C  C16  1  0.01834000  0.17516000  0.41053000  1.0 0.6063655565
C  C17  1  0.67790000  0.04464000  0.05307000  1.0 0.0183713641
C  C18  1  0.32210000  0.54464000  0.94693000  1.0 0.0109214943
C  C19  1  0.68564000  0.97361000  0.97526000  1.0 0.076770621
C  C20  1  0.31436000  0.47361000  0.02474000  1.0 0.076770621
C  C21  1  0.31734000  0.98219000  0.93371000  1.0 0.0109214943
C  C22  1  0.68266000  0.48219000  0.06629000  1.0 0.0109214943
C  C23  1  0.29909000  0.05079000  0.01400000  1.0 0.0109214943
C  C24  1  0.70091000  0.55079000  0.98600000  1.0 0.0109214943
C  C25  1  0.49393000  0.09303000  0.02638000  1.0 -0.0936063242
C  C26  1  0.50607000  0.59303000  0.97362000  1.0 -0.0936063242
C  C27  1  0.48802000  0.93065000  0.97167000  1.0 -0.1197671592
C  C28  1  0.51198000  0.43065000  0.02833000  1.0 -0.1111346161
C  C29  1  0.47715000  0.16064000  0.10678000  1.0 0.6175959955
C  C30  1  0.52285000  0.66064000  0.89322000  1.0 0.6175959955
C  C31  1  0.49832000  0.86549000  0.88531000  1.0 0.6630999992
C  C32  1  0.50168000  0.36549000  0.11469000  1.0 0.6630999992
O  O1  1  0.01090000  0.76790000  0.84020000  1.0 -0.8916276743
O  O2  1  0.98910000  0.26790000  0.15980000  1.0 -0.8916276743
O  O3  1  0.16460000  0.33890000  0.36410000  1.0 -0.4734616329
O  O4  1  0.83540000  0.83890000  0.63590000  1.0 -0.4734616329
O  O5  1  0.67650000  0.84160000  0.86650000  1.0 -0.5140541842
O  O6  1  0.32350000  0.34160000  0.13350000  1.0 -0.5140541842
O  O7  1  0.83820000  0.69210000  0.64520000  1.0 -0.3999943038
O  O8  1  0.16180000  0.19210000  0.35480000  1.0 -0.3999943038
O  O9  1  0.31880000  0.19520000  0.11970000  1.0 -0.4243905892
O  O10  1  0.68120000  0.69520000  0.88030000  1.0 -0.4243905892
O  O11  1  0.49250000  0.26950000  0.31700000  1.0 -0.9082306971
O  O12  1  0.50750000  0.76950000  0.68300000  1.0 -0.9082306971
O  O13  1  0.63490000  0.19780000  0.12700000  1.0 -0.483245035
O  O14  1  0.36510000  0.69780000  0.87300000  1.0 -0.483245035
O  O15  1  0.14980000  0.70010000  0.63430000  1.0 -0.4874348988
O  O16  1  0.85020000  0.20010000  0.36570000  1.0 -0.4874348988
O  O17  1  0.32460000  0.85550000  0.83380000  1.0 -0.4603780558
O  O18  1  0.67540000  0.35550000  0.16620000  1.0 -0.4603780558
O  O19  1  0.84060000  0.34990000  0.34300000  1.0 -0.4326383521
O  O20  1  0.15940000  0.84990000  0.65700000  1.0 -0.4326383521
