# DDEC6 charges by PACMAN v1.1 (https://github.com/mtap-research/PACMAN-charge/)
data_JOBFIQ_ASR_pacman
_symmetry_space_group_name_H-M   'P 1'
_cell_length_a   15.37310000
_cell_length_b   15.37310000
_cell_length_c   20.32700000
_cell_angle_alpha   84.18900000
_cell_angle_beta   95.81100000
_cell_angle_gamma   128.73100000
_symmetry_Int_Tables_number   1
_chemical_formula_structural   Cu3H17WC29(SN2)3
_chemical_formula_sum   'Cu12 H68 W4 C116 S12 N24'
_cell_volume   3723.79750008
_cell_formula_units_Z   4
loop_
 _symmetry_equiv_pos_site_id
 _symmetry_equiv_pos_as_xyz
  1  'x, y, z'
loop_
 _atom_site_type_symbol
 _atom_site_label
 _atom_site_symmetry_multiplicity
 _atom_site_fract_x
 _atom_site_fract_y
 _atom_site_fract_z
 _atom_site_occupancy
 _atom_site_charge
Cu  Cu1  1  0.54336000  0.36714000  0.23111000  1.0 0.3394312506
Cu  Cu2  1  0.36714000  0.54336000  0.26889000  1.0 0.3341190016
Cu  Cu3  1  0.45664000  0.63286000  0.76889000  1.0 0.3341190016
Cu  Cu4  1  0.63286000  0.45664000  0.73111000  1.0 0.3394312506
Cu  Cu5  1  0.54146000  0.15990000  0.13036000  1.0 0.2791426947
Cu  Cu6  1  0.15990000  0.54146000  0.36964000  1.0 0.2791426947
Cu  Cu7  1  0.45854000  0.84010000  0.86964000  1.0 0.2791426947
Cu  Cu8  1  0.84010000  0.45854000  0.63036000  1.0 0.2791426947
Cu  Cu9  1  0.79277000  0.36761000  0.24118000  1.0 0.3881560063
Cu  Cu10  1  0.36761000  0.79277000  0.25882000  1.0 0.3881560063
Cu  Cu11  1  0.20723000  0.63239000  0.75882000  1.0 0.3881560063
Cu  Cu12  1  0.63239000  0.20723000  0.74118000  1.0 0.3881560063
H  H1  1  0.38150000  0.94910000  0.05280000  1.0 0.0908584071
H  H2  1  0.94910000  0.38150000  0.44720000  1.0 0.0908584071
H  H3  1  0.61850000  0.05090000  0.94720000  1.0 0.0908584071
H  H4  1  0.05090000  0.61850000  0.55280000  1.0 0.0908584071
H  H5  1  0.54600000  0.26340000  0.99090000  1.0 0.0962597539
H  H6  1  0.26340000  0.54600000  0.50910000  1.0 0.0962597539
H  H7  1  0.45400000  0.73660000  0.00910000  1.0 0.0962597539
H  H8  1  0.73660000  0.45400000  0.49090000  1.0 0.0962597539
H  H9  1  0.45970000  0.21150000  0.88810000  1.0 0.1398025705
H  H10  1  0.21150000  0.45970000  0.61190000  1.0 0.1398025705
H  H11  1  0.54030000  0.78850000  0.11190000  1.0 0.1398025705
H  H12  1  0.78850000  0.54030000  0.38810000  1.0 0.1398025705
H  H13  1  0.50600000  0.35360000  0.37470000  1.0 0.0962597539
H  H14  1  0.35360000  0.50600000  0.12530000  1.0 0.0962597539
H  H15  1  0.49400000  0.64640000  0.62530000  1.0 0.0962597539
H  H16  1  0.64640000  0.49400000  0.87470000  1.0 0.0962597539
H  H17  1  0.44490000  0.12450000  0.26370000  1.0 0.0962597539
H  H18  1  0.12450000  0.44490000  0.23630000  1.0 0.0962597539
H  H19  1  0.55510000  0.87550000  0.73630000  1.0 0.0962597539
H  H20  1  0.87550000  0.55510000  0.76370000  1.0 0.0962597539
H  H21  1  0.39120000  0.00100000  0.35210000  1.0 0.1199970322
H  H22  1  0.00100000  0.39120000  0.14790000  1.0 0.1199970322
H  H23  1  0.60880000  0.99900000  0.64790000  1.0 0.1199970322
H  H24  1  0.99900000  0.60880000  0.85210000  1.0 0.1199970322
H  H25  1  0.34660000  0.89340000  0.72900000  1.0 0.0962597539
H  H26  1  0.89340000  0.34660000  0.77100000  1.0 0.0962597539
H  H27  1  0.65340000  0.10660000  0.27100000  1.0 0.0962597539
H  H28  1  0.10660000  0.65340000  0.22900000  1.0 0.0962597539
H  H29  1  0.26080000  0.65540000  0.61830000  1.0 0.0908584071
H  H30  1  0.65540000  0.26080000  0.88170000  1.0 0.0908584071
H  H31  1  0.73920000  0.34460000  0.38170000  1.0 0.0908584071
H  H32  1  0.34460000  0.73920000  0.11830000  1.0 0.0908584071
H  H33  1  0.29890000  0.76730000  0.52320000  1.0 0.1132733817
H  H34  1  0.76730000  0.29890000  0.97680000  1.0 0.1132733817
H  H35  1  0.70110000  0.23270000  0.47680000  1.0 0.1132733817
H  H36  1  0.23270000  0.70110000  0.02320000  1.0 0.1132733817
H  H37  1  0.18690000  0.04710000  0.60060000  1.0 0.1199970322
H  H38  1  0.04710000  0.18690000  0.89940000  1.0 0.1199970322
H  H39  1  0.81310000  0.95290000  0.39940000  1.0 0.1199970322
H  H40  1  0.95290000  0.81310000  0.10060000  1.0 0.1199970322
H  H41  1  0.08620000  0.76600000  0.75730000  1.0 0.1470149577
H  H42  1  0.76600000  0.08620000  0.74270000  1.0 0.1470149577
H  H43  1  0.91380000  0.23400000  0.24270000  1.0 0.1470149577
H  H44  1  0.23400000  0.91380000  0.25730000  1.0 0.1470149577
H  H45  1  0.32930000  0.09650000  0.81470000  1.0 0.1398025705
H  H46  1  0.09650000  0.32930000  0.68530000  1.0 0.1398025705
H  H47  1  0.67070000  0.90350000  0.18530000  1.0 0.1398025705
H  H48  1  0.90350000  0.67070000  0.31470000  1.0 0.1398025705
H  H49  1  0.28230000  0.89310000  0.95020000  1.0 0.1295746412
H  H50  1  0.89310000  0.28230000  0.54980000  1.0 0.1295746412
H  H51  1  0.71770000  0.10690000  0.04980000  1.0 0.1295746412
H  H52  1  0.10690000  0.71770000  0.45020000  1.0 0.1295746412
H  H53  1  0.27140000  0.09420000  0.70630000  1.0 0.1554376428
H  H54  1  0.09420000  0.27140000  0.79370000  1.0 0.1554376428
H  H55  1  0.72860000  0.90580000  0.29370000  1.0 0.1554376428
H  H56  1  0.90580000  0.72860000  0.20630000  1.0 0.1554376428
H  H57  1  0.21430000  0.88470000  0.83730000  1.0 0.1398025705
H  H58  1  0.88470000  0.21430000  0.66270000  1.0 0.1398025705
H  H59  1  0.78570000  0.11530000  0.16270000  1.0 0.1398025705
H  H60  1  0.11530000  0.78570000  0.33730000  1.0 0.1398025705
H  H61  1  0.45130000  0.23350000  0.46710000  1.0 0.1132733817
H  H62  1  0.23350000  0.45130000  0.03290000  1.0 0.1132733817
H  H63  1  0.54870000  0.76650000  0.53290000  1.0 0.1132733817
H  H64  1  0.76650000  0.54870000  0.96710000  1.0 0.1132733817
H  H65  1  0.38890000  0.01250000  0.63670000  1.0 0.1132733817
H  H66  1  0.01250000  0.38890000  0.86330000  1.0 0.1132733817
H  H67  1  0.61110000  0.98750000  0.36330000  1.0 0.1132733817
H  H68  1  0.98750000  0.61110000  0.13670000  1.0 0.1132733817
W  W1  1  0.67280000  0.38526000  0.14107000  1.0 0.6034479385
W  W2  1  0.38526000  0.67280000  0.35893000  1.0 0.6034479385
W  W3  1  0.32720000  0.61474000  0.85893000  1.0 0.6034479385
W  W4  1  0.61474000  0.32720000  0.64107000  1.0 0.6034479385
C  C1  1  0.39740000  0.00440000  0.01930000  1.0 0.0908584071
C  C2  1  0.00440000  0.39740000  0.48070000  1.0 0.0908584071
C  C3  1  0.60260000  0.99560000  0.98070000  1.0 0.0908584071
C  C4  1  0.99560000  0.60260000  0.51930000  1.0 0.0908584071
C  C5  1  0.49340000  0.18620000  0.98280000  1.0 0.0682615789
C  C6  1  0.18620000  0.49340000  0.51720000  1.0 0.0682615789
C  C7  1  0.50660000  0.81380000  0.01720000  1.0 0.0682615789
C  C8  1  0.81380000  0.50660000  0.48280000  1.0 0.0682615789
C  C9  1  0.43880000  0.15440000  0.92140000  1.0 -0.1922427042
C  C10  1  0.15440000  0.43880000  0.57860000  1.0 -0.1922427042
C  C11  1  0.56120000  0.84560000  0.07860000  1.0 -0.1922427042
C  C12  1  0.84560000  0.56120000  0.42140000  1.0 -0.1922427042
C  C13  1  0.35980000  0.05020000  0.90580000  1.0 0.1398025705
C  C14  1  0.05020000  0.35980000  0.59420000  1.0 0.1398025705
C  C15  1  0.64020000  0.94980000  0.09420000  1.0 0.1398025705
C  C16  1  0.94980000  0.64020000  0.40580000  1.0 0.1398025705
C  C17  1  0.47380000  0.02040000  0.18180000  1.0 -0.129616374
C  C18  1  0.02040000  0.47380000  0.31820000  1.0 -0.129616374
C  C19  1  0.52620000  0.97960000  0.81820000  1.0 -0.129616374
C  C20  1  0.97960000  0.52620000  0.68180000  1.0 -0.129616374
C  C21  1  0.48180000  0.28040000  0.37030000  1.0 0.0682615789
C  C22  1  0.28040000  0.48180000  0.12970000  1.0 0.0682615789
C  C23  1  0.51820000  0.71960000  0.62970000  1.0 0.0682615789
C  C24  1  0.71960000  0.51820000  0.87030000  1.0 0.0682615789
C  C25  1  0.44650000  0.14730000  0.30580000  1.0 0.0823732476
C  C26  1  0.14730000  0.44650000  0.19420000  1.0 0.0823732476
C  C27  1  0.55350000  0.85270000  0.69420000  1.0 0.0823732476
C  C28  1  0.85270000  0.55350000  0.80580000  1.0 0.0823732476
C  C29  1  0.41420000  0.07340000  0.35810000  1.0 -0.2087936679
C  C30  1  0.07340000  0.41420000  0.14190000  1.0 -0.2087936679
C  C31  1  0.58580000  0.92660000  0.64190000  1.0 -0.2087936679
C  C32  1  0.92660000  0.58580000  0.85810000  1.0 -0.2087936679
C  C33  1  0.41470000  0.10250000  0.41980000  1.0 0.1295746412
C  C34  1  0.10250000  0.41470000  0.08020000  1.0 0.1295746412
C  C35  1  0.58530000  0.89750000  0.58020000  1.0 0.1295746412
C  C36  1  0.89750000  0.58530000  0.91980000  1.0 0.1295746412
C  C37  1  0.33540000  0.86640000  0.68650000  1.0 0.0823732476
C  C38  1  0.86640000  0.33540000  0.81350000  1.0 0.0823732476
C  C39  1  0.66460000  0.13360000  0.31350000  1.0 0.0823732476
C  C40  1  0.13360000  0.66460000  0.18650000  1.0 0.0823732476
C  C41  1  0.28570000  0.72890000  0.62260000  1.0 0.0908584071
C  C42  1  0.72890000  0.28570000  0.87740000  1.0 0.0908584071
C  C43  1  0.71430000  0.27110000  0.37740000  1.0 0.0908584071
C  C44  1  0.27110000  0.71430000  0.12260000  1.0 0.0908584071
C  C45  1  0.49810000  0.45790000  0.24550000  1.0 -0.1394102528
C  C46  1  0.45790000  0.49810000  0.25450000  1.0 -0.129616374
C  C47  1  0.50190000  0.54210000  0.75450000  1.0 -0.129616374
C  C48  1  0.54210000  0.50190000  0.74550000  1.0 -0.1394102528
C  C49  1  0.30970000  0.79610000  0.56510000  1.0 -0.2454761992
C  C50  1  0.79610000  0.30970000  0.93490000  1.0 -0.2454761992
C  C51  1  0.69030000  0.20390000  0.43490000  1.0 -0.2454761992
C  C52  1  0.20390000  0.69030000  0.06510000  1.0 -0.2454761992
C  C53  1  0.16370000  0.98870000  0.63330000  1.0 0.028303493
C  C54  1  0.98870000  0.16370000  0.86670000  1.0 0.028303493
C  C55  1  0.83630000  0.01130000  0.36670000  1.0 0.028303493
C  C56  1  0.01130000  0.83630000  0.13330000  1.0 0.028303493
C  C57  1  0.10390000  0.82910000  0.72590000  1.0 -0.1394102528
C  C58  1  0.82910000  0.10390000  0.77410000  1.0 -0.1394102528
C  C59  1  0.89610000  0.17090000  0.27410000  1.0 -0.1394102528
C  C60  1  0.17090000  0.89610000  0.22590000  1.0 -0.1394102528
C  C61  1  0.18790000  0.93610000  0.74470000  1.0 0.0908584071
C  C62  1  0.93610000  0.18790000  0.75530000  1.0 0.0908584071
C  C63  1  0.81210000  0.06390000  0.25530000  1.0 0.0908584071
C  C64  1  0.06390000  0.81210000  0.24470000  1.0 0.0908584071
C  C65  1  0.30510000  0.02990000  0.83980000  1.0 -0.0811148881
C  C66  1  0.02990000  0.30510000  0.66020000  1.0 -0.0811148881
C  C67  1  0.69490000  0.97010000  0.16020000  1.0 -0.0811148881
C  C68  1  0.97010000  0.69490000  0.33980000  1.0 -0.0811148881
C  C69  1  0.33780000  0.97040000  0.95740000  1.0 -0.2169912599
C  C70  1  0.97040000  0.33780000  0.54260000  1.0 -0.2169912599
C  C71  1  0.66220000  0.02960000  0.04260000  1.0 -0.2169912599
C  C72  1  0.02960000  0.66220000  0.45740000  1.0 -0.2169912599
C  C73  1  0.21630000  0.01790000  0.69670000  1.0 -0.2393252587
C  C74  1  0.01790000  0.21630000  0.80330000  1.0 -0.2393252587
C  C75  1  0.78370000  0.98210000  0.30330000  1.0 -0.2393252587
C  C76  1  0.98210000  0.78370000  0.19670000  1.0 -0.2393252587
C  C77  1  0.24020000  0.95220000  0.81260000  1.0 -0.1051134596
C  C78  1  0.95220000  0.24020000  0.68740000  1.0 -0.1051134596
C  C79  1  0.75980000  0.04780000  0.18740000  1.0 -0.104205502
C  C80  1  0.04780000  0.75980000  0.31260000  1.0 -0.1051134596
C  C81  1  0.34940000  0.90520000  0.56870000  1.0 0.1295746412
C  C82  1  0.90520000  0.34940000  0.93130000  1.0 0.1295746412
C  C83  1  0.65060000  0.09480000  0.43130000  1.0 0.1295746412
C  C84  1  0.09480000  0.65060000  0.06870000  1.0 0.1295746412
C  C85  1  0.44960000  0.20960000  0.42540000  1.0 -0.2169912599
C  C86  1  0.20960000  0.44960000  0.07460000  1.0 -0.2169912599
C  C87  1  0.55040000  0.79040000  0.57460000  1.0 -0.2169912599
C  C88  1  0.79040000  0.55040000  0.92540000  1.0 -0.2169912599
C  C89  1  0.36890000  0.95250000  0.49560000  1.0 -0.0313666987
C  C90  1  0.95250000  0.36890000  0.00440000  1.0 -0.0313666987
C  C91  1  0.63110000  0.04750000  0.50440000  1.0 -0.0313666987
C  C92  1  0.04750000  0.63110000  0.99560000  1.0 -0.0313666987
C  C93  1  0.36180000  0.93860000  0.63100000  1.0 -0.2393252587
C  C94  1  0.93860000  0.36180000  0.86900000  1.0 -0.2393252587
C  C95  1  0.63820000  0.06140000  0.36900000  1.0 -0.2393252587
C  C96  1  0.06140000  0.63820000  0.13100000  1.0 -0.2393252587
C  C97  1  0.06510000  0.80490000  0.65540000  1.0 0.1398025705
C  C98  1  0.80490000  0.06510000  0.84460000  1.0 0.1470149577
C  C99  1  0.93490000  0.19510000  0.34460000  1.0 0.1470149577
C  C100  1  0.19510000  0.93490000  0.15540000  1.0 0.1398025705
C  C101  1  0.38950000  0.05270000  0.48820000  1.0 -0.0195098196
C  C102  1  0.05270000  0.38950000  0.01180000  1.0 -0.0195098196
C  C103  1  0.61050000  0.94730000  0.51180000  1.0 -0.0195098196
C  C104  1  0.94730000  0.61050000  0.98820000  1.0 -0.0195098196
C  C105  1  0.61690000  0.98690000  0.47230000  1.0 -0.0313666987
C  C106  1  0.98690000  0.61690000  0.02770000  1.0 -0.0313666987
C  C107  1  0.38310000  0.01310000  0.52770000  1.0 -0.0313666987
C  C108  1  0.01310000  0.38310000  0.97230000  1.0 -0.0313666987
C  C109  1  0.04300000  0.80500000  0.67080000  1.0 0.0682615789
C  C110  1  0.80500000  0.04300000  0.82920000  1.0 0.0682615789
C  C111  1  0.95700000  0.19500000  0.32920000  1.0 0.0682615789
C  C112  1  0.19500000  0.95700000  0.17080000  1.0 0.0682615789
C  C113  1  0.37820000  0.99400000  0.46500000  1.0 -0.0110608971
C  C114  1  0.99400000  0.37820000  0.03500000  1.0 -0.0110608971
C  C115  1  0.62180000  0.00600000  0.53500000  1.0 -0.0110608971
C  C116  1  0.00600000  0.62180000  0.96500000  1.0 -0.0110608971
S  S1  1  0.73533000  0.47545000  0.23593000  1.0 -0.5006172443
S  S2  1  0.47545000  0.73533000  0.26407000  1.0 -0.4941275621
S  S3  1  0.26467000  0.52455000  0.76407000  1.0 -0.4941275621
S  S4  1  0.52455000  0.26467000  0.73593000  1.0 -0.5006172443
S  S5  1  0.73488000  0.28590000  0.14048000  1.0 -0.505028298
S  S6  1  0.28590000  0.73488000  0.35952000  1.0 -0.5006172443
S  S7  1  0.26512000  0.71410000  0.85952000  1.0 -0.5006172443
S  S8  1  0.71410000  0.26512000  0.64048000  1.0 -0.5006172443
S  S9  1  0.48477000  0.26827000  0.13738000  1.0 -0.4340739528
S  S10  1  0.26827000  0.48477000  0.36262000  1.0 -0.4340739528
S  S11  1  0.51523000  0.73173000  0.86262000  1.0 -0.4340739528
S  S12  1  0.73173000  0.51523000  0.63738000  1.0 -0.4340739528
N  N1  1  0.43650000  0.94030000  0.21470000  1.0 -0.339201344
N  N2  1  0.94030000  0.43650000  0.28530000  1.0 -0.339201344
N  N3  1  0.56350000  0.05970000  0.78530000  1.0 -0.339201344
N  N4  1  0.05970000  0.56350000  0.71470000  1.0 -0.339201344
N  N5  1  0.47460000  0.11080000  0.03200000  1.0 -0.1845580766
N  N6  1  0.11080000  0.47460000  0.46800000  1.0 -0.1845580766
N  N7  1  0.52540000  0.88920000  0.96800000  1.0 -0.1845580766
N  N8  1  0.88920000  0.52540000  0.53200000  1.0 -0.1845580766
N  N9  1  0.08370000  0.88450000  0.61630000  1.0 -0.1225172783
N  N10  1  0.88450000  0.08370000  0.88370000  1.0 -0.1225172783
N  N11  1  0.91630000  0.11550000  0.38370000  1.0 -0.1225172783
N  N12  1  0.11550000  0.91630000  0.11630000  1.0 -0.1225172783
N  N13  1  0.48010000  0.24990000  0.30990000  1.0 -0.1922427042
N  N14  1  0.24990000  0.48010000  0.19010000  1.0 -0.1922427042
N  N15  1  0.51990000  0.75010000  0.69010000  1.0 -0.1922427042
N  N16  1  0.75010000  0.51990000  0.80990000  1.0 -0.1922427042
N  N17  1  0.29500000  0.76020000  0.68260000  1.0 -0.2169912599
N  N18  1  0.76020000  0.29500000  0.81740000  1.0 -0.2169912599
N  N19  1  0.70500000  0.23980000  0.31740000  1.0 -0.2169912599
N  N20  1  0.23980000  0.70500000  0.18260000  1.0 -0.2169912599
N  N21  1  0.47830000  0.43950000  0.24300000  1.0 -0.0876292734
N  N22  1  0.43950000  0.47830000  0.25700000  1.0 -0.0876292734
N  N23  1  0.52170000  0.56050000  0.75700000  1.0 -0.0876292734
N  N24  1  0.56050000  0.52170000  0.74300000  1.0 -0.0876292734
