# DDEC6 charges by PACMAN v1.1 (https://github.com/mtap-research/PACMAN-charge/)
data_JOFCEP_ASR_pacman
_symmetry_space_group_name_H-M   'P 1'
_cell_length_a   22.60040000
_cell_length_b   22.60040000
_cell_length_c   16.75220000
_cell_angle_alpha   90.00000000
_cell_angle_beta   90.00000000
_cell_angle_gamma   120.00000000
_symmetry_Int_Tables_number   1
_chemical_formula_structural   Eu6H69C93O32
_chemical_formula_sum   'Eu12 H138 C186 O64'
_cell_volume   7410.28194762
_cell_formula_units_Z   2
loop_
 _symmetry_equiv_pos_site_id
 _symmetry_equiv_pos_as_xyz
  1  'x, y, z'
loop_
 _atom_site_type_symbol
 _atom_site_label
 _atom_site_symmetry_multiplicity
 _atom_site_fract_x
 _atom_site_fract_y
 _atom_site_fract_z
 _atom_site_occupancy
 _atom_site_charge
Eu  Eu1  1  0.60870000  0.21740000  0.93290000  1.0 2.1965064076
Eu  Eu2  1  0.60870000  0.39130000  0.93290000  1.0 2.190881943
Eu  Eu3  1  0.78260000  0.39130000  0.93290000  1.0 2.190881943
Eu  Eu4  1  0.39130000  0.78260000  0.43290000  1.0 2.190881943
Eu  Eu5  1  0.39130000  0.60870000  0.43290000  1.0 2.190881943
Eu  Eu6  1  0.21740000  0.60870000  0.43290000  1.0 2.190881943
Eu  Eu7  1  0.54847000  0.27424000  0.73959000  1.0 2.1808119086
Eu  Eu8  1  0.72576000  0.45153000  0.73959000  1.0 2.190881943
Eu  Eu9  1  0.72576000  0.27424000  0.73959000  1.0 2.190881943
Eu  Eu10  1  0.45153000  0.72576000  0.23959000  1.0 2.1808119086
Eu  Eu11  1  0.27424000  0.54847000  0.23959000  1.0 2.1808119086
Eu  Eu12  1  0.27424000  0.72576000  0.23959000  1.0 2.1808119086
H  H1  1  0.57934000  0.99728000  0.40748000  1.0 0.0999926451
H  H2  1  0.67237000  0.10835000  0.37670000  1.0 0.0702661174
H  H3  1  0.68633000  0.03657000  0.15260000  1.0 0.0999926451
H  H4  1  0.61953000  0.92302000  0.20922000  1.0 0.1139601704
H  H5  1  0.53203000  0.99957000  0.33653000  1.0 0.0798440877
H  H6  1  0.62650000  0.10937000  0.33804000  1.0 0.0702661174
H  H7  1  0.73115000  0.03404000  0.20942000  1.0 0.0798440877
H  H8  1  0.66910000  0.93155000  0.28940000  1.0 0.1139601704
H  H9  1  0.83998000  0.21197000  0.37950000  1.0 0.0572967307
H  H10  1  0.86060000  0.16812000  0.32287000  1.0 0.0572967307
H  H11  1  0.78516000  0.13419000  0.35934000  1.0 0.050101642
H  H12  1  0.41794000  0.42066000  0.40748000  1.0 0.0999926451
H  H13  1  0.43598000  0.32763000  0.37670000  1.0 0.0702661174
H  H14  1  0.35024000  0.31367000  0.15260000  1.0 0.0999926451
H  H15  1  0.30349000  0.38047000  0.20922000  1.0 0.1139601704
H  H16  1  0.46754000  0.46797000  0.33653000  1.0 0.0798440877
H  H17  1  0.48287000  0.37350000  0.33804000  1.0 0.0702661174
H  H18  1  0.30289000  0.26885000  0.20942000  1.0 0.0798440877
H  H19  1  0.26245000  0.33090000  0.28940000  1.0 0.1139601704
H  H20  1  0.37199000  0.16002000  0.37950000  1.0 0.0572967307
H  H21  1  0.30752000  0.13940000  0.32287000  1.0 0.0572967307
H  H22  1  0.34903000  0.21484000  0.35934000  1.0 0.050101642
H  H23  1  0.00272000  0.58206000  0.40748000  1.0 0.0999926451
H  H24  1  0.89165000  0.56402000  0.37670000  1.0 0.0702661174
H  H25  1  0.96343000  0.64976000  0.15260000  1.0 0.0999926451
H  H26  1  0.07698000  0.69651000  0.20922000  1.0 0.1139601704
H  H27  1  0.00043000  0.53246000  0.33653000  1.0 0.0798440877
H  H28  1  0.89063000  0.51713000  0.33804000  1.0 0.0702661174
H  H29  1  0.96596000  0.69711000  0.20942000  1.0 0.0798440877
H  H30  1  0.06845000  0.73755000  0.28940000  1.0 0.1139601704
H  H31  1  0.78803000  0.62801000  0.37950000  1.0 0.0572967307
H  H32  1  0.83188000  0.69248000  0.32287000  1.0 0.0572967307
H  H33  1  0.86581000  0.65097000  0.35934000  1.0 0.050101642
H  H34  1  0.42066000  0.00272000  0.90748000  1.0 0.0999926451
H  H35  1  0.32763000  0.89165000  0.87670000  1.0 0.0702661174
H  H36  1  0.31367000  0.96343000  0.65260000  1.0 0.0999926451
H  H37  1  0.38047000  0.07698000  0.70922000  1.0 0.1139601704
H  H38  1  0.46797000  0.00043000  0.83653000  1.0 0.0798440877
H  H39  1  0.37350000  0.89063000  0.83804000  1.0 0.0702661174
H  H40  1  0.26885000  0.96596000  0.70942000  1.0 0.0798440877
H  H41  1  0.33090000  0.06845000  0.78940000  1.0 0.1139601704
H  H42  1  0.16002000  0.78803000  0.87950000  1.0 0.0572967307
H  H43  1  0.13940000  0.83188000  0.82287000  1.0 0.0572967307
H  H44  1  0.21484000  0.86581000  0.85934000  1.0 0.050101642
H  H45  1  0.58206000  0.57934000  0.90748000  1.0 0.0999926451
H  H46  1  0.56402000  0.67237000  0.87670000  1.0 0.0702661174
H  H47  1  0.64976000  0.68633000  0.65260000  1.0 0.0999926451
H  H48  1  0.69651000  0.61953000  0.70922000  1.0 0.1139601704
H  H49  1  0.53246000  0.53203000  0.83653000  1.0 0.0798440877
H  H50  1  0.51713000  0.62650000  0.83804000  1.0 0.0702661174
H  H51  1  0.69711000  0.73115000  0.70942000  1.0 0.0798440877
H  H52  1  0.73755000  0.66910000  0.78940000  1.0 0.1139601704
H  H53  1  0.62801000  0.83998000  0.87950000  1.0 0.050101642
H  H54  1  0.69248000  0.86060000  0.82287000  1.0 0.0572967307
H  H55  1  0.65097000  0.78516000  0.85934000  1.0 0.050101642
H  H56  1  0.99728000  0.41794000  0.90748000  1.0 0.0999926451
H  H57  1  0.10835000  0.43598000  0.87670000  1.0 0.0798440877
H  H58  1  0.03657000  0.35024000  0.65260000  1.0 0.0999926451
H  H59  1  0.92302000  0.30349000  0.70922000  1.0 0.1139601704
H  H60  1  0.99957000  0.46754000  0.83653000  1.0 0.0798440877
H  H61  1  0.10937000  0.48287000  0.83804000  1.0 0.0702661174
H  H62  1  0.03404000  0.30289000  0.70942000  1.0 0.0798440877
H  H63  1  0.93155000  0.26245000  0.78940000  1.0 0.1139601704
H  H64  1  0.21197000  0.37199000  0.87950000  1.0 0.0572967307
H  H65  1  0.16812000  0.30752000  0.82287000  1.0 0.0572967307
H  H66  1  0.13419000  0.34903000  0.85934000  1.0 0.050101642
H  H67  1  0.41794000  0.99728000  0.40748000  1.0 0.0999926451
H  H68  1  0.43598000  0.10835000  0.37670000  1.0 0.0798440877
H  H69  1  0.35024000  0.03657000  0.15260000  1.0 0.0999926451
H  H70  1  0.30349000  0.92302000  0.20922000  1.0 0.1139601704
H  H71  1  0.46754000  0.99957000  0.33653000  1.0 0.0798440877
H  H72  1  0.48287000  0.10937000  0.33804000  1.0 0.0702661174
H  H73  1  0.30289000  0.03404000  0.20942000  1.0 0.0798440877
H  H74  1  0.26245000  0.93155000  0.28940000  1.0 0.1139601704
H  H75  1  0.37199000  0.21197000  0.37950000  1.0 0.0572967307
H  H76  1  0.30752000  0.16812000  0.32287000  1.0 0.0572967307
H  H77  1  0.34903000  0.13419000  0.35934000  1.0 0.050101642
H  H78  1  0.00272000  0.42066000  0.40748000  1.0 0.0999926451
H  H79  1  0.89165000  0.32763000  0.37670000  1.0 0.0702661174
H  H80  1  0.96343000  0.31367000  0.15260000  1.0 0.0999926451
H  H81  1  0.07698000  0.38047000  0.20922000  1.0 0.1139601704
H  H82  1  0.00043000  0.46797000  0.33653000  1.0 0.0798440877
H  H83  1  0.89063000  0.37350000  0.33804000  1.0 0.0702661174
H  H84  1  0.96596000  0.26885000  0.20942000  1.0 0.0798440877
H  H85  1  0.06845000  0.33090000  0.28940000  1.0 0.1139601704
H  H86  1  0.78803000  0.16002000  0.37950000  1.0 0.050101642
H  H87  1  0.83188000  0.13940000  0.32287000  1.0 0.0572967307
H  H88  1  0.86581000  0.21484000  0.35934000  1.0 0.050101642
H  H89  1  0.57934000  0.58206000  0.40748000  1.0 0.0999926451
H  H90  1  0.67237000  0.56402000  0.37670000  1.0 0.0798440877
H  H91  1  0.68633000  0.64976000  0.15260000  1.0 0.0999926451
H  H92  1  0.61953000  0.69651000  0.20922000  1.0 0.1139601704
H  H93  1  0.53203000  0.53246000  0.33653000  1.0 0.0798440877
H  H94  1  0.62650000  0.51713000  0.33804000  1.0 0.0702661174
H  H95  1  0.73115000  0.69711000  0.20942000  1.0 0.0798440877
H  H96  1  0.66910000  0.73755000  0.28940000  1.0 0.1139601704
H  H97  1  0.83998000  0.62801000  0.37950000  1.0 0.0572967307
H  H98  1  0.86060000  0.69248000  0.32287000  1.0 0.0572967307
H  H99  1  0.78516000  0.65097000  0.35934000  1.0 0.050101642
H  H100  1  0.58206000  0.00272000  0.90748000  1.0 0.0999926451
H  H101  1  0.56402000  0.89165000  0.87670000  1.0 0.0702661174
H  H102  1  0.64976000  0.96343000  0.65260000  1.0 0.0999926451
H  H103  1  0.69651000  0.07698000  0.70922000  1.0 0.1139601704
H  H104  1  0.53246000  0.00043000  0.83653000  1.0 0.0798440877
H  H105  1  0.51713000  0.89063000  0.83804000  1.0 0.0702661174
H  H106  1  0.69711000  0.96596000  0.70942000  1.0 0.0798440877
H  H107  1  0.73755000  0.06845000  0.78940000  1.0 0.1139601704
H  H108  1  0.62801000  0.78803000  0.87950000  1.0 0.0572967307
H  H109  1  0.69248000  0.83188000  0.82287000  1.0 0.0572967307
H  H110  1  0.65097000  0.86581000  0.85934000  1.0 0.050101642
H  H111  1  0.99728000  0.57934000  0.90748000  1.0 0.0999926451
H  H112  1  0.10835000  0.67237000  0.87670000  1.0 0.0798440877
H  H113  1  0.03657000  0.68633000  0.65260000  1.0 0.0999926451
H  H114  1  0.92302000  0.61953000  0.70922000  1.0 0.1139601704
H  H115  1  0.99957000  0.53203000  0.83653000  1.0 0.0798440877
H  H116  1  0.10937000  0.62650000  0.83804000  1.0 0.0702661174
H  H117  1  0.03404000  0.73115000  0.70942000  1.0 0.0798440877
H  H118  1  0.93155000  0.66910000  0.78940000  1.0 0.1139601704
H  H119  1  0.21197000  0.83998000  0.87950000  1.0 0.0572967307
H  H120  1  0.16812000  0.86060000  0.82287000  1.0 0.0572967307
H  H121  1  0.13419000  0.78516000  0.85934000  1.0 0.050101642
H  H122  1  0.42066000  0.41794000  0.90748000  1.0 0.0999926451
H  H123  1  0.32763000  0.43598000  0.87670000  1.0 0.0798440877
H  H124  1  0.31367000  0.35024000  0.65260000  1.0 0.0999926451
H  H125  1  0.38047000  0.30349000  0.70922000  1.0 0.1139601704
H  H126  1  0.46797000  0.46754000  0.83653000  1.0 0.0798440877
H  H127  1  0.37350000  0.48287000  0.83804000  1.0 0.0702661174
H  H128  1  0.26885000  0.30289000  0.70942000  1.0 0.0798440877
H  H129  1  0.33090000  0.26245000  0.78940000  1.0 0.1139601704
H  H130  1  0.16002000  0.37199000  0.87950000  1.0 0.0572967307
H  H131  1  0.13940000  0.30752000  0.82287000  1.0 0.0572967307
H  H132  1  0.21484000  0.34903000  0.85934000  1.0 0.050101642
H  H133  1  0.56585000  0.13170000  0.62366000  1.0 0.13473386
H  H134  1  0.56585000  0.43415000  0.62366000  1.0 0.13473386
H  H135  1  0.86830000  0.43415000  0.62366000  1.0 0.13473386
H  H136  1  0.43415000  0.86830000  0.12366000  1.0 0.13473386
H  H137  1  0.43415000  0.56585000  0.12366000  1.0 0.13473386
H  H138  1  0.13170000  0.56585000  0.12366000  1.0 0.13473386
C  C1  1  0.53830000  0.88030000  0.33010000  1.0 0.6121436325
C  C2  1  0.59500000  0.95180000  0.31050000  1.0 -0.0146581973
C  C3  1  0.60610000  0.00510000  0.36100000  1.0 -0.0307411483
C  C4  1  0.65900000  0.07190000  0.33980000  1.0 -0.0700983388
C  C5  1  0.69150000  0.08470000  0.26610000  1.0 0.0702661174
C  C6  1  0.67140000  0.02890000  0.20650000  1.0 -0.0807715691
C  C7  1  0.62680000  0.96180000  0.23900000  1.0 -0.0205129242
C  C8  1  0.73820000  0.15530000  0.23670000  1.0 -0.0307411483
C  C9  1  0.71740000  0.17800000  0.17050000  1.0 -0.0807715691
C  C10  1  0.57680000  0.00910000  0.32300000  1.0 -0.0491344707
C  C11  1  0.62840000  0.07210000  0.31500000  1.0 -0.0593934595
C  C12  1  0.69780000  0.02940000  0.24700000  1.0 -0.0307411483
C  C13  1  0.65470000  0.96430000  0.28420000  1.0 -0.0890373488
C  C14  1  0.34200000  0.46170000  0.33010000  1.0 0.6121436325
C  C15  1  0.35680000  0.40500000  0.31050000  1.0 -0.0146581973
C  C16  1  0.39900000  0.39390000  0.36100000  1.0 -0.0307411483
C  C17  1  0.41290000  0.34100000  0.33980000  1.0 -0.0700983388
C  C18  1  0.39320000  0.30850000  0.26610000  1.0 0.0702661174
C  C19  1  0.35750000  0.32860000  0.20650000  1.0 -0.0890373488
C  C20  1  0.33500000  0.37320000  0.23900000  1.0 -0.0205129242
C  C21  1  0.41710000  0.26180000  0.23670000  1.0 -0.0307411483
C  C22  1  0.46060000  0.28260000  0.17050000  1.0 -0.0700983388
C  C23  1  0.43230000  0.42320000  0.32300000  1.0 -0.0491344707
C  C24  1  0.44370000  0.37160000  0.31500000  1.0 -0.0593934595
C  C25  1  0.33160000  0.30220000  0.24700000  1.0 -0.0307411483
C  C26  1  0.30960000  0.34530000  0.28420000  1.0 -0.0890373488
C  C27  1  0.11970000  0.65800000  0.33010000  1.0 0.6121436325
C  C28  1  0.04820000  0.64320000  0.31050000  1.0 -0.0146581973
C  C29  1  0.99490000  0.60100000  0.36100000  1.0 -0.0307411483
C  C30  1  0.92810000  0.58710000  0.33980000  1.0 -0.0700983388
C  C31  1  0.91530000  0.60680000  0.26610000  1.0 0.0702661174
C  C32  1  0.97110000  0.64250000  0.20650000  1.0 -0.0807715691
C  C33  1  0.03820000  0.66500000  0.23900000  1.0 -0.0205129242
C  C34  1  0.84470000  0.58290000  0.23670000  1.0 -0.0307411483
C  C35  1  0.82200000  0.53940000  0.17050000  1.0 -0.0700983388
C  C36  1  0.99090000  0.56770000  0.32300000  1.0 -0.0491344707
C  C37  1  0.92790000  0.55630000  0.31500000  1.0 -0.0593934595
C  C38  1  0.97060000  0.66840000  0.24700000  1.0 -0.0307411483
C  C39  1  0.03570000  0.69040000  0.28420000  1.0 -0.0890373488
C  C40  1  0.46170000  0.11970000  0.83010000  1.0 0.6121436325
C  C41  1  0.40500000  0.04820000  0.81050000  1.0 -0.0146581973
C  C42  1  0.39390000  0.99490000  0.86100000  1.0 -0.0307411483
C  C43  1  0.34100000  0.92810000  0.83980000  1.0 -0.0700983388
C  C44  1  0.30850000  0.91530000  0.76610000  1.0 0.0702661174
C  C45  1  0.32860000  0.97110000  0.70650000  1.0 -0.0890373488
C  C46  1  0.37320000  0.03820000  0.73900000  1.0 -0.0205129242
C  C47  1  0.26180000  0.84470000  0.73670000  1.0 -0.0307411483
C  C48  1  0.28260000  0.82200000  0.67050000  1.0 -0.0807715691
C  C49  1  0.42320000  0.99090000  0.82300000  1.0 -0.0491344707
C  C50  1  0.37160000  0.92790000  0.81500000  1.0 -0.0593934595
C  C51  1  0.30220000  0.97060000  0.74700000  1.0 -0.0307411483
C  C52  1  0.34530000  0.03570000  0.78420000  1.0 -0.0890373488
C  C53  1  0.65800000  0.53830000  0.83010000  1.0 0.6121436325
C  C54  1  0.64320000  0.59500000  0.81050000  1.0 -0.0205129242
C  C55  1  0.60100000  0.60610000  0.86100000  1.0 -0.0307411483
C  C56  1  0.58710000  0.65900000  0.83980000  1.0 -0.0700983388
C  C57  1  0.60680000  0.69150000  0.76610000  1.0 0.0702661174
C  C58  1  0.64250000  0.67140000  0.70650000  1.0 -0.0807715691
C  C59  1  0.66500000  0.62680000  0.73900000  1.0 -0.0205129242
C  C60  1  0.58290000  0.73820000  0.73670000  1.0 -0.0307411483
C  C61  1  0.53940000  0.71740000  0.67050000  1.0 -0.0807715691
C  C62  1  0.56770000  0.57680000  0.82300000  1.0 -0.0491344707
C  C63  1  0.55630000  0.62840000  0.81500000  1.0 -0.0593934595
C  C64  1  0.66840000  0.69780000  0.74700000  1.0 -0.0307411483
C  C65  1  0.69040000  0.65470000  0.78420000  1.0 -0.0890373488
C  C66  1  0.88030000  0.34200000  0.83010000  1.0 0.6121436325
C  C67  1  0.95180000  0.35680000  0.81050000  1.0 -0.0146581973
C  C68  1  0.00510000  0.39900000  0.86100000  1.0 -0.0307411483
C  C69  1  0.07190000  0.41290000  0.83980000  1.0 -0.0700983388
C  C70  1  0.08470000  0.39320000  0.76610000  1.0 0.0702661174
C  C71  1  0.02890000  0.35750000  0.70650000  1.0 -0.0890373488
C  C72  1  0.96180000  0.33500000  0.73900000  1.0 -0.0205129242
C  C73  1  0.15530000  0.41710000  0.73670000  1.0 -0.0307411483
C  C74  1  0.17800000  0.46060000  0.67050000  1.0 -0.0807715691
C  C75  1  0.00910000  0.43230000  0.82300000  1.0 -0.0491344707
C  C76  1  0.07210000  0.44370000  0.81500000  1.0 -0.0593934595
C  C77  1  0.02940000  0.33160000  0.74700000  1.0 -0.0307411483
C  C78  1  0.96430000  0.30960000  0.78420000  1.0 -0.0890373488
C  C79  1  0.34200000  0.88030000  0.33010000  1.0 0.6121436325
C  C80  1  0.35680000  0.95180000  0.31050000  1.0 -0.0146581973
C  C81  1  0.39900000  0.00510000  0.36100000  1.0 -0.0307411483
C  C82  1  0.41290000  0.07190000  0.33980000  1.0 -0.0700983388
C  C83  1  0.39320000  0.08470000  0.26610000  1.0 0.0702661174
C  C84  1  0.35750000  0.02890000  0.20650000  1.0 -0.0807715691
C  C85  1  0.33500000  0.96180000  0.23900000  1.0 -0.0205129242
C  C86  1  0.41710000  0.15530000  0.23670000  1.0 -0.0307411483
C  C87  1  0.46060000  0.17800000  0.17050000  1.0 -0.0807715691
C  C88  1  0.43230000  0.00910000  0.32300000  1.0 -0.0491344707
C  C89  1  0.44370000  0.07210000  0.31500000  1.0 -0.0593934595
C  C90  1  0.33160000  0.02940000  0.24700000  1.0 -0.0307411483
C  C91  1  0.30960000  0.96430000  0.28420000  1.0 -0.0890373488
C  C92  1  0.11970000  0.46170000  0.33010000  1.0 0.6121436325
C  C93  1  0.04820000  0.40500000  0.31050000  1.0 -0.0146581973
C  C94  1  0.99490000  0.39390000  0.36100000  1.0 -0.0307411483
C  C95  1  0.92810000  0.34100000  0.33980000  1.0 -0.0700983388
C  C96  1  0.91530000  0.30850000  0.26610000  1.0 0.0702661174
C  C97  1  0.97110000  0.32860000  0.20650000  1.0 -0.0807715691
C  C98  1  0.03820000  0.37320000  0.23900000  1.0 -0.0205129242
C  C99  1  0.84470000  0.26180000  0.23670000  1.0 -0.0307411483
C  C100  1  0.82200000  0.28260000  0.17050000  1.0 -0.0807715691
C  C101  1  0.99090000  0.42320000  0.32300000  1.0 -0.0491344707
C  C102  1  0.92790000  0.37160000  0.31500000  1.0 -0.0593934595
C  C103  1  0.97060000  0.30220000  0.24700000  1.0 -0.0307411483
C  C104  1  0.03570000  0.34530000  0.28420000  1.0 -0.0890373488
C  C105  1  0.53830000  0.65800000  0.33010000  1.0 0.6121436325
C  C106  1  0.59500000  0.64320000  0.31050000  1.0 -0.0146581973
C  C107  1  0.60610000  0.60100000  0.36100000  1.0 -0.0307411483
C  C108  1  0.65900000  0.58710000  0.33980000  1.0 -0.0700983388
C  C109  1  0.69150000  0.60680000  0.26610000  1.0 0.0702661174
C  C110  1  0.67140000  0.64250000  0.20650000  1.0 -0.0807715691
C  C111  1  0.62680000  0.66500000  0.23900000  1.0 -0.0205129242
C  C112  1  0.73820000  0.58290000  0.23670000  1.0 -0.0307411483
C  C113  1  0.71740000  0.53940000  0.17050000  1.0 -0.0700983388
C  C114  1  0.57680000  0.56770000  0.32300000  1.0 -0.0491344707
C  C115  1  0.62840000  0.55630000  0.31500000  1.0 -0.0593934595
C  C116  1  0.69780000  0.66840000  0.24700000  1.0 -0.0307411483
C  C117  1  0.65470000  0.69040000  0.28420000  1.0 -0.0890373488
C  C118  1  0.65800000  0.11970000  0.83010000  1.0 0.6121436325
C  C119  1  0.64320000  0.04820000  0.81050000  1.0 -0.0205129242
C  C120  1  0.60100000  0.99490000  0.86100000  1.0 -0.0307411483
C  C121  1  0.58710000  0.92810000  0.83980000  1.0 -0.0700983388
C  C122  1  0.60680000  0.91530000  0.76610000  1.0 0.0702661174
C  C123  1  0.64250000  0.97110000  0.70650000  1.0 -0.0807715691
C  C124  1  0.66500000  0.03820000  0.73900000  1.0 -0.0205129242
C  C125  1  0.58290000  0.84470000  0.73670000  1.0 -0.0307411483
C  C126  1  0.53940000  0.82200000  0.67050000  1.0 -0.0807715691
C  C127  1  0.56770000  0.99090000  0.82300000  1.0 -0.0491344707
C  C128  1  0.55630000  0.92790000  0.81500000  1.0 -0.0593934595
C  C129  1  0.66840000  0.97060000  0.74700000  1.0 -0.0307411483
C  C130  1  0.69040000  0.03570000  0.78420000  1.0 -0.0890373488
C  C131  1  0.88030000  0.53830000  0.83010000  1.0 0.6121436325
C  C132  1  0.95180000  0.59500000  0.81050000  1.0 -0.0146581973
C  C133  1  0.00510000  0.60610000  0.86100000  1.0 -0.0307411483
C  C134  1  0.07190000  0.65900000  0.83980000  1.0 -0.0700983388
C  C135  1  0.08470000  0.69150000  0.76610000  1.0 0.0702661174
C  C136  1  0.02890000  0.67140000  0.70650000  1.0 -0.0890373488
C  C137  1  0.96180000  0.62680000  0.73900000  1.0 -0.0205129242
C  C138  1  0.15530000  0.73820000  0.73670000  1.0 -0.0307411483
C  C139  1  0.17800000  0.71740000  0.67050000  1.0 -0.0807715691
C  C140  1  0.00910000  0.57680000  0.82300000  1.0 -0.0491344707
C  C141  1  0.07210000  0.62840000  0.81500000  1.0 -0.0593934595
C  C142  1  0.02940000  0.69780000  0.74700000  1.0 -0.0307411483
C  C143  1  0.96430000  0.65470000  0.78420000  1.0 -0.0890373488
C  C144  1  0.46170000  0.34200000  0.83010000  1.0 0.6121436325
C  C145  1  0.40500000  0.35680000  0.81050000  1.0 -0.0146581973
C  C146  1  0.39390000  0.39900000  0.86100000  1.0 -0.0307411483
C  C147  1  0.34100000  0.41290000  0.83980000  1.0 -0.0700983388
C  C148  1  0.30850000  0.39320000  0.76610000  1.0 0.0702661174
C  C149  1  0.32860000  0.35750000  0.70650000  1.0 -0.0807715691
C  C150  1  0.37320000  0.33500000  0.73900000  1.0 -0.0205129242
C  C151  1  0.26180000  0.41710000  0.73670000  1.0 -0.0307411483
C  C152  1  0.28260000  0.46060000  0.67050000  1.0 -0.0807715691
C  C153  1  0.42320000  0.43230000  0.82300000  1.0 -0.0491344707
C  C154  1  0.37160000  0.44370000  0.81500000  1.0 -0.0593934595
C  C155  1  0.30220000  0.33160000  0.74700000  1.0 -0.0307411483
C  C156  1  0.34530000  0.30960000  0.78420000  1.0 -0.0890373488
C  C157  1  0.59010000  0.18020000  0.62760000  1.0 0.5160509216
C  C158  1  0.59010000  0.40990000  0.62760000  1.0 0.5160509216
C  C159  1  0.81980000  0.40990000  0.62760000  1.0 0.5160509216
C  C160  1  0.40990000  0.81980000  0.12760000  1.0 0.5160509216
C  C161  1  0.40990000  0.59010000  0.12760000  1.0 0.5160509216
C  C162  1  0.18020000  0.59010000  0.12760000  1.0 0.5160509216
C  C163  1  0.75900000  0.24100000  0.13720000  1.0 -0.0890373488
C  C164  1  0.73845000  0.26155000  0.06330000  1.0 0.6823406882
C  C165  1  0.80225000  0.19775000  0.27210000  1.0 0.0173321073
C  C166  1  0.82355000  0.17645000  0.33830000  1.0 -0.2842284474
C  C167  1  0.48200000  0.24100000  0.13720000  1.0 -0.0890373488
C  C168  1  0.52310000  0.26155000  0.06330000  1.0 0.6823406882
C  C169  1  0.39550000  0.19775000  0.27210000  1.0 0.0173321073
C  C170  1  0.35290000  0.17645000  0.33830000  1.0 -0.2842284474
C  C171  1  0.75900000  0.51800000  0.13720000  1.0 -0.0890373488
C  C172  1  0.73845000  0.47690000  0.06330000  1.0 0.6823406882
C  C173  1  0.80225000  0.60450000  0.27210000  1.0 0.0173321073
C  C174  1  0.82355000  0.64710000  0.33830000  1.0 -0.2842284474
C  C175  1  0.24100000  0.75900000  0.63720000  1.0 -0.0890373488
C  C176  1  0.26155000  0.73845000  0.56330000  1.0 0.6823406882
C  C177  1  0.19775000  0.80225000  0.77210000  1.0 0.0173321073
C  C178  1  0.17645000  0.82355000  0.83830000  1.0 -0.2842284474
C  C179  1  0.51800000  0.75900000  0.63720000  1.0 -0.0890373488
C  C180  1  0.47690000  0.73845000  0.56330000  1.0 0.6823406882
C  C181  1  0.60450000  0.80225000  0.77210000  1.0 0.0173321073
C  C182  1  0.64710000  0.82355000  0.83830000  1.0 -0.2842284474
C  C183  1  0.24100000  0.48200000  0.63720000  1.0 -0.0890373488
C  C184  1  0.26155000  0.52310000  0.56330000  1.0 0.6823406882
C  C185  1  0.19775000  0.39550000  0.77210000  1.0 0.0173321073
C  C186  1  0.17645000  0.35290000  0.83830000  1.0 -0.2842284474
O  O1  1  0.53410000  0.83410000  0.28180000  1.0 -0.6020807358
O  O2  1  0.50110000  0.87160000  0.39010000  1.0 -0.5786248776
O  O3  1  0.68000000  0.22140000  0.03690000  1.0 -0.5928720864
O  O4  1  0.55070000  0.20680000  0.62980000  1.0 -0.6020807358
O  O5  1  0.30000000  0.46590000  0.28180000  1.0 -0.6020807358
O  O6  1  0.37050000  0.49890000  0.39010000  1.0 -0.5786248776
O  O7  1  0.54140000  0.32000000  0.03690000  1.0 -0.5928720864
O  O8  1  0.65610000  0.44930000  0.62980000  1.0 -0.6020807358
O  O9  1  0.16590000  0.70000000  0.28180000  1.0 -0.6020807358
O  O10  1  0.12840000  0.62950000  0.39010000  1.0 -0.5786248776
O  O11  1  0.77860000  0.45860000  0.03690000  1.0 -0.5928720864
O  O12  1  0.79320000  0.34390000  0.62980000  1.0 -0.6020807358
O  O13  1  0.46590000  0.16590000  0.78180000  1.0 -0.6020807358
O  O14  1  0.49890000  0.12840000  0.89010000  1.0 -0.5786248776
O  O15  1  0.32000000  0.77860000  0.53690000  1.0 -0.5928720864
O  O16  1  0.44930000  0.79320000  0.12980000  1.0 -0.6020807358
O  O17  1  0.70000000  0.53410000  0.78180000  1.0 -0.6020807358
O  O18  1  0.62950000  0.50110000  0.89010000  1.0 -0.5786248776
O  O19  1  0.45860000  0.68000000  0.53690000  1.0 -0.5928720864
O  O20  1  0.34390000  0.55070000  0.12980000  1.0 -0.6020807358
O  O21  1  0.83410000  0.30000000  0.78180000  1.0 -0.6020807358
O  O22  1  0.87160000  0.37050000  0.89010000  1.0 -0.5786248776
O  O23  1  0.22140000  0.54140000  0.53690000  1.0 -0.5928720864
O  O24  1  0.20680000  0.65610000  0.12980000  1.0 -0.6020807358
O  O25  1  0.30000000  0.83410000  0.28180000  1.0 -0.6020807358
O  O26  1  0.37050000  0.87160000  0.39010000  1.0 -0.5786248776
O  O27  1  0.54140000  0.22140000  0.03690000  1.0 -0.5928720864
O  O28  1  0.65610000  0.20680000  0.62980000  1.0 -0.6020807358
O  O29  1  0.16590000  0.46590000  0.28180000  1.0 -0.6020807358
O  O30  1  0.12840000  0.49890000  0.39010000  1.0 -0.5786248776
O  O31  1  0.77860000  0.32000000  0.03690000  1.0 -0.5928720864
O  O32  1  0.79320000  0.44930000  0.62980000  1.0 -0.6020807358
O  O33  1  0.53410000  0.70000000  0.28180000  1.0 -0.6020807358
O  O34  1  0.50110000  0.62950000  0.39010000  1.0 -0.5786248776
O  O35  1  0.68000000  0.45860000  0.03690000  1.0 -0.5928720864
O  O36  1  0.55070000  0.34390000  0.62980000  1.0 -0.6020807358
O  O37  1  0.70000000  0.16590000  0.78180000  1.0 -0.6020807358
O  O38  1  0.62950000  0.12840000  0.89010000  1.0 -0.5786248776
O  O39  1  0.45860000  0.77860000  0.53690000  1.0 -0.5928720864
O  O40  1  0.34390000  0.79320000  0.12980000  1.0 -0.6020807358
O  O41  1  0.83410000  0.53410000  0.78180000  1.0 -0.6020807358
O  O42  1  0.87160000  0.50110000  0.89010000  1.0 -0.5786248776
O  O43  1  0.22140000  0.68000000  0.53690000  1.0 -0.5928720864
O  O44  1  0.20680000  0.55070000  0.12980000  1.0 -0.6020807358
O  O45  1  0.46590000  0.30000000  0.78180000  1.0 -0.6020807358
O  O46  1  0.49890000  0.37050000  0.89010000  1.0 -0.5786248776
O  O47  1  0.32000000  0.54140000  0.53690000  1.0 -0.5928720864
O  O48  1  0.44930000  0.65610000  0.12980000  1.0 -0.6020807358
O  O49  1  0.61205000  0.22410000  0.78610000  1.0 -0.9417186015
O  O50  1  0.61205000  0.38795000  0.78610000  1.0 -0.9417186015
O  O51  1  0.77590000  0.38795000  0.78610000  1.0 -0.9417186015
O  O52  1  0.38795000  0.77590000  0.28610000  1.0 -0.9417186015
O  O53  1  0.38795000  0.61205000  0.28610000  1.0 -0.9417186015
O  O54  1  0.22410000  0.61205000  0.28610000  1.0 -0.9417186015
O  O55  1  0.56380000  0.28190000  0.87500000  1.0 -0.9999526672
O  O56  1  0.71810000  0.43620000  0.87500000  1.0 -0.9999526672
O  O57  1  0.71810000  0.28190000  0.87500000  1.0 -0.9999526672
O  O58  1  0.43620000  0.71810000  0.37500000  1.0 -0.9904307457
O  O59  1  0.28190000  0.56380000  0.37500000  1.0 -0.9904307457
O  O60  1  0.28190000  0.71810000  0.37500000  1.0 -0.9904307457
O  O61  1  0.66666667  0.33333333  0.70230000  1.0 -1.058504227
O  O62  1  0.66666667  0.33333333  0.96890000  1.0 -1.058504227
O  O63  1  0.33333333  0.66666667  0.20230000  1.0 -1.058504227
O  O64  1  0.33333333  0.66666667  0.46890000  1.0 -1.058504227
