# DDEC6 charges by PACMAN v1.1 (https://github.com/mtap-research/PACMAN-charge/)
data_JOFQAZ_ASR_pacman
_symmetry_space_group_name_H-M   'P 1'
_cell_length_a   22.70020000
_cell_length_b   22.70020000
_cell_length_c   16.42980000
_cell_angle_alpha   90.00000000
_cell_angle_beta   90.00000000
_cell_angle_gamma   120.00000000
_symmetry_Int_Tables_number   1
_chemical_formula_structural   Eu6H51C90Cl3O32
_chemical_formula_sum   'Eu12 H102 C180 Cl6 O64'
_cell_volume   7331.99694972
_cell_formula_units_Z   2
loop_
 _symmetry_equiv_pos_site_id
 _symmetry_equiv_pos_as_xyz
  1  'x, y, z'
loop_
 _atom_site_type_symbol
 _atom_site_label
 _atom_site_symmetry_multiplicity
 _atom_site_fract_x
 _atom_site_fract_y
 _atom_site_fract_z
 _atom_site_occupancy
 _atom_site_charge
Eu  Eu1  1  0.39114000  0.78228000  0.24791000  1.0 2.2166907819
Eu  Eu2  1  0.39114000  0.60886000  0.24791000  1.0 2.2166907819
Eu  Eu3  1  0.21772000  0.60886000  0.24791000  1.0 2.2166907819
Eu  Eu4  1  0.60886000  0.21772000  0.74791000  1.0 2.2141908836
Eu  Eu5  1  0.60886000  0.39114000  0.74791000  1.0 2.2141908836
Eu  Eu6  1  0.78228000  0.39114000  0.74791000  1.0 2.2141908836
Eu  Eu7  1  0.27432000  0.72567000  0.05218000  1.0 2.2013599507
Eu  Eu8  1  0.45135000  0.72567000  0.05218000  1.0 2.2013599507
Eu  Eu9  1  0.27432000  0.54865000  0.05218000  1.0 2.2013599507
Eu  Eu10  1  0.72568000  0.27432000  0.55218000  1.0 2.2013599507
Eu  Eu11  1  0.54865000  0.27432000  0.55218000  1.0 2.2013599507
Eu  Eu12  1  0.72568000  0.45135000  0.55218000  1.0 2.2013599507
H  H1  1  0.69218000  0.07552000  0.51600000  1.0 0.1090468167
H  H2  1  0.66087000  0.96419000  0.46595000  1.0 0.0892812176
H  H3  1  0.56138000  0.89529000  0.69817000  1.0 0.0802444667
H  H4  1  0.57621000  0.00188000  0.72734000  1.0 0.1090468167
H  H5  1  0.54126000  0.01287000  0.64362000  1.0 0.0892812176
H  H6  1  0.51839000  0.89359000  0.64801000  1.0 0.0705611005
H  H7  1  0.69366000  0.96081000  0.51923000  1.0 0.0802444667
H  H8  1  0.73536000  0.07207000  0.58690000  1.0 0.1090468167
H  H9  1  0.38334000  0.30782000  0.51600000  1.0 0.1090468167
H  H10  1  0.30332000  0.33913000  0.46595000  1.0 0.0892812176
H  H11  1  0.33391000  0.43862000  0.69817000  1.0 0.0802444667
H  H12  1  0.42567000  0.42379000  0.72734000  1.0 0.1090468167
H  H13  1  0.47161000  0.45874000  0.64362000  1.0 0.0892812176
H  H14  1  0.37520000  0.48161000  0.64801000  1.0 0.0705611005
H  H15  1  0.26715000  0.30634000  0.51923000  1.0 0.0802444667
H  H16  1  0.33671000  0.26464000  0.58690000  1.0 0.1090468167
H  H17  1  0.92448000  0.61666000  0.51600000  1.0 0.1090468167
H  H18  1  0.03581000  0.69668000  0.46595000  1.0 0.0892812176
H  H19  1  0.10471000  0.66609000  0.69817000  1.0 0.0802444667
H  H20  1  0.99812000  0.57433000  0.72734000  1.0 0.1090468167
H  H21  1  0.98713000  0.52839000  0.64362000  1.0 0.0892812176
H  H22  1  0.10641000  0.62480000  0.64801000  1.0 0.0705611005
H  H23  1  0.03919000  0.73285000  0.51923000  1.0 0.0802444667
H  H24  1  0.92793000  0.66329000  0.58690000  1.0 0.1046667826
H  H25  1  0.30782000  0.92448000  0.01600000  1.0 0.1090468167
H  H26  1  0.33913000  0.03581000  0.96595000  1.0 0.0892812176
H  H27  1  0.43862000  0.10471000  0.19817000  1.0 0.0802444667
H  H28  1  0.42379000  0.99812000  0.22734000  1.0 0.1090468167
H  H29  1  0.45874000  0.98713000  0.14362000  1.0 0.0892812176
H  H30  1  0.48161000  0.10641000  0.14801000  1.0 0.0705611005
H  H31  1  0.30634000  0.03919000  0.01923000  1.0 0.0802444667
H  H32  1  0.26464000  0.92793000  0.08690000  1.0 0.1046667826
H  H33  1  0.61666000  0.69218000  0.01600000  1.0 0.1090468167
H  H34  1  0.69668000  0.66087000  0.96595000  1.0 0.0892812176
H  H35  1  0.66609000  0.56138000  0.19817000  1.0 0.0802444667
H  H36  1  0.57433000  0.57621000  0.22734000  1.0 0.1090468167
H  H37  1  0.52839000  0.54126000  0.14362000  1.0 0.0892812176
H  H38  1  0.62480000  0.51839000  0.14801000  1.0 0.0705611005
H  H39  1  0.73285000  0.69366000  0.01923000  1.0 0.0802444667
H  H40  1  0.66329000  0.73536000  0.08690000  1.0 0.1046667826
H  H41  1  0.07552000  0.38334000  0.01600000  1.0 0.1090468167
H  H42  1  0.96419000  0.30332000  0.96595000  1.0 0.0892812176
H  H43  1  0.89529000  0.33391000  0.19817000  1.0 0.0802444667
H  H44  1  0.00188000  0.42567000  0.22734000  1.0 0.1090468167
H  H45  1  0.01287000  0.47161000  0.14362000  1.0 0.0892812176
H  H46  1  0.89359000  0.37520000  0.14801000  1.0 0.0705611005
H  H47  1  0.96081000  0.26715000  0.01923000  1.0 0.0802444667
H  H48  1  0.07207000  0.33671000  0.08690000  1.0 0.1046667826
H  H49  1  0.38334000  0.07552000  0.51600000  1.0 0.1090468167
H  H50  1  0.30332000  0.96419000  0.46595000  1.0 0.0892812176
H  H51  1  0.33391000  0.89529000  0.69817000  1.0 0.0802444667
H  H52  1  0.42567000  0.00188000  0.72734000  1.0 0.1090468167
H  H53  1  0.47161000  0.01287000  0.64362000  1.0 0.0892812176
H  H54  1  0.37520000  0.89359000  0.64801000  1.0 0.0705611005
H  H55  1  0.26715000  0.96081000  0.51923000  1.0 0.0802444667
H  H56  1  0.33671000  0.07207000  0.58690000  1.0 0.1046667826
H  H57  1  0.92448000  0.30782000  0.51600000  1.0 0.1090468167
H  H58  1  0.03581000  0.33913000  0.46595000  1.0 0.0892812176
H  H59  1  0.10471000  0.43862000  0.69817000  1.0 0.0802444667
H  H60  1  0.99812000  0.42379000  0.72734000  1.0 0.1090468167
H  H61  1  0.98713000  0.45874000  0.64362000  1.0 0.0892812176
H  H62  1  0.10641000  0.48161000  0.64801000  1.0 0.0705611005
H  H63  1  0.03919000  0.30634000  0.51923000  1.0 0.0802444667
H  H64  1  0.92793000  0.26464000  0.58690000  1.0 0.1046667826
H  H65  1  0.69218000  0.61666000  0.51600000  1.0 0.1090468167
H  H66  1  0.66087000  0.69668000  0.46595000  1.0 0.0892812176
H  H67  1  0.56138000  0.66609000  0.69817000  1.0 0.0802444667
H  H68  1  0.57621000  0.57433000  0.72734000  1.0 0.1090468167
H  H69  1  0.54126000  0.52839000  0.64362000  1.0 0.0892812176
H  H70  1  0.51839000  0.62480000  0.64801000  1.0 0.0705611005
H  H71  1  0.69366000  0.73285000  0.51923000  1.0 0.0802444667
H  H72  1  0.73536000  0.66329000  0.58690000  1.0 0.1046667826
H  H73  1  0.61666000  0.92448000  0.01600000  1.0 0.1090468167
H  H74  1  0.69668000  0.03581000  0.96595000  1.0 0.0892812176
H  H75  1  0.66609000  0.10471000  0.19817000  1.0 0.0802444667
H  H76  1  0.57433000  0.99812000  0.22734000  1.0 0.1090468167
H  H77  1  0.52839000  0.98713000  0.14362000  1.0 0.0892812176
H  H78  1  0.62480000  0.10641000  0.14801000  1.0 0.0705611005
H  H79  1  0.73285000  0.03919000  0.01923000  1.0 0.0802444667
H  H80  1  0.66329000  0.92793000  0.08690000  1.0 0.1046667826
H  H81  1  0.07552000  0.69218000  0.01600000  1.0 0.1090468167
H  H82  1  0.96419000  0.66087000  0.96595000  1.0 0.0892812176
H  H83  1  0.89529000  0.56138000  0.19817000  1.0 0.0802444667
H  H84  1  0.00188000  0.57621000  0.22734000  1.0 0.1090468167
H  H85  1  0.01287000  0.54126000  0.14362000  1.0 0.0892812176
H  H86  1  0.89359000  0.51839000  0.14801000  1.0 0.0705611005
H  H87  1  0.96081000  0.69366000  0.01923000  1.0 0.0802444667
H  H88  1  0.07207000  0.73536000  0.08690000  1.0 0.1046667826
H  H89  1  0.30782000  0.38334000  0.01600000  1.0 0.1090468167
H  H90  1  0.33913000  0.30332000  0.96595000  1.0 0.0892812176
H  H91  1  0.43862000  0.33391000  0.19817000  1.0 0.0802444667
H  H92  1  0.42379000  0.42567000  0.22734000  1.0 0.1090468167
H  H93  1  0.45874000  0.47161000  0.14362000  1.0 0.0892812176
H  H94  1  0.48161000  0.37520000  0.14801000  1.0 0.0705611005
H  H95  1  0.30634000  0.26715000  0.01923000  1.0 0.0802444667
H  H96  1  0.26464000  0.33671000  0.08690000  1.0 0.1046667826
H  H97  1  0.12517000  0.56259000  0.94353000  1.0 0.1090468167
H  H98  1  0.43741000  0.87483000  0.94353000  1.0 0.1090468167
H  H99  1  0.43741000  0.56259000  0.94353000  1.0 0.1090468167
H  H100  1  0.87483000  0.43741000  0.44353000  1.0 0.1046667826
H  H101  1  0.56259000  0.12517000  0.44353000  1.0 0.1046667826
H  H102  1  0.56259000  0.43741000  0.44353000  1.0 0.1090468167
C  C1  1  0.65780000  0.11950000  0.64640000  1.0 0.6061541271
C  C2  1  0.64260000  0.04940000  0.62750000  1.0 -0.0267796764
C  C3  1  0.66480000  0.03700000  0.54900000  1.0 -0.0267796764
C  C4  1  0.64920000  0.97310000  0.51800000  1.0 -0.061451085
C  C5  1  0.60680000  0.91630000  0.58980000  1.0 0.0599764381
C  C6  1  0.58580000  0.84680000  0.55580000  1.0 -0.0503235956
C  C7  1  0.54080000  0.82370000  0.49190000  1.0 -0.0267796764
C  C8  1  0.58560000  0.93130000  0.66100000  1.0 -0.0763866323
C  C9  1  0.59680000  0.99440000  0.68100000  1.0 -0.0205848155
C  C10  1  0.57560000  0.00130000  0.63500000  1.0 -0.061451085
C  C11  1  0.55990000  0.92970000  0.62700000  1.0 -0.0205848155
C  C12  1  0.66770000  0.96860000  0.55900000  1.0 0.0231513867
C  C13  1  0.68920000  0.03690000  0.59100000  1.0 -0.0400151821
C  C14  1  0.46170000  0.34220000  0.64640000  1.0 0.6061541271
C  C15  1  0.40680000  0.35740000  0.62750000  1.0 -0.0267796764
C  C16  1  0.37220000  0.33520000  0.54900000  1.0 -0.0267796764
C  C17  1  0.32390000  0.35080000  0.51800000  1.0 -0.061451085
C  C18  1  0.30950000  0.39320000  0.58980000  1.0 0.0599764381
C  C19  1  0.26100000  0.41420000  0.55580000  1.0 -0.0503235956
C  C20  1  0.28290000  0.45920000  0.49190000  1.0 -0.0267796764
C  C21  1  0.34570000  0.41440000  0.66100000  1.0 -0.0763866323
C  C22  1  0.39760000  0.40320000  0.68100000  1.0 -0.0205848155
C  C23  1  0.42570000  0.42440000  0.63500000  1.0 -0.061451085
C  C24  1  0.36980000  0.44010000  0.62700000  1.0 -0.0267796764
C  C25  1  0.30090000  0.33230000  0.55900000  1.0 0.0231513867
C  C26  1  0.34770000  0.31080000  0.59100000  1.0 -0.0400151821
C  C27  1  0.88050000  0.53830000  0.64640000  1.0 0.6061541271
C  C28  1  0.95060000  0.59320000  0.62750000  1.0 -0.0267796764
C  C29  1  0.96300000  0.62780000  0.54900000  1.0 -0.0267796764
C  C30  1  0.02690000  0.67610000  0.51800000  1.0 -0.061451085
C  C31  1  0.08370000  0.69050000  0.58980000  1.0 0.0599764381
C  C32  1  0.15320000  0.73900000  0.55580000  1.0 -0.0503235956
C  C33  1  0.17630000  0.71710000  0.49190000  1.0 -0.0267796764
C  C34  1  0.06870000  0.65430000  0.66100000  1.0 -0.0763866323
C  C35  1  0.00560000  0.60240000  0.68100000  1.0 -0.0205848155
C  C36  1  0.99870000  0.57430000  0.63500000  1.0 -0.061451085
C  C37  1  0.07030000  0.63020000  0.62700000  1.0 -0.0205848155
C  C38  1  0.03140000  0.69910000  0.55900000  1.0 0.0231513867
C  C39  1  0.96310000  0.65230000  0.59100000  1.0 -0.0400151821
C  C40  1  0.34220000  0.88050000  0.14640000  1.0 0.6031905991
C  C41  1  0.35740000  0.95060000  0.12750000  1.0 -0.0267796764
C  C42  1  0.33520000  0.96300000  0.04900000  1.0 -0.0267796764
C  C43  1  0.35080000  0.02690000  0.01800000  1.0 -0.061451085
C  C44  1  0.39320000  0.08370000  0.08980000  1.0 0.0599764381
C  C45  1  0.41420000  0.15320000  0.05580000  1.0 -0.0503235956
C  C46  1  0.45920000  0.17630000  0.99190000  1.0 -0.0205848155
C  C47  1  0.41440000  0.06870000  0.16100000  1.0 -0.0712674691
C  C48  1  0.40320000  0.00560000  0.18100000  1.0 -0.0205848155
C  C49  1  0.42440000  0.99870000  0.13500000  1.0 -0.0712674691
C  C50  1  0.44010000  0.07030000  0.12700000  1.0 -0.0205848155
C  C51  1  0.33230000  0.03140000  0.05900000  1.0 0.0231513867
C  C52  1  0.31080000  0.96310000  0.09100000  1.0 -0.0400151821
C  C53  1  0.53830000  0.65780000  0.14640000  1.0 0.6031905991
C  C54  1  0.59320000  0.64260000  0.12750000  1.0 -0.0267796764
C  C55  1  0.62780000  0.66480000  0.04900000  1.0 -0.0267796764
C  C56  1  0.67610000  0.64920000  0.01800000  1.0 -0.061451085
C  C57  1  0.69050000  0.60680000  0.08980000  1.0 0.0599764381
C  C58  1  0.73900000  0.58580000  0.05580000  1.0 -0.0503235956
C  C59  1  0.71710000  0.54080000  0.99190000  1.0 -0.0205848155
C  C60  1  0.65430000  0.58560000  0.16100000  1.0 -0.0712674691
C  C61  1  0.60240000  0.59680000  0.18100000  1.0 -0.0205848155
C  C62  1  0.57430000  0.57560000  0.13500000  1.0 -0.0712674691
C  C63  1  0.63020000  0.55990000  0.12700000  1.0 -0.0205848155
C  C64  1  0.69910000  0.66770000  0.05900000  1.0 0.0231513867
C  C65  1  0.65230000  0.68920000  0.09100000  1.0 -0.0400151821
C  C66  1  0.11950000  0.46170000  0.14640000  1.0 0.6031905991
C  C67  1  0.04940000  0.40680000  0.12750000  1.0 -0.0267796764
C  C68  1  0.03700000  0.37220000  0.04900000  1.0 -0.0267796764
C  C69  1  0.97310000  0.32390000  0.01800000  1.0 -0.0503235956
C  C70  1  0.91630000  0.30950000  0.08980000  1.0 0.0599764381
C  C71  1  0.84680000  0.26100000  0.05580000  1.0 -0.0503235956
C  C72  1  0.82370000  0.28290000  0.99190000  1.0 -0.0267796764
C  C73  1  0.93130000  0.34570000  0.16100000  1.0 -0.0712674691
C  C74  1  0.99440000  0.39760000  0.18100000  1.0 -0.0205848155
C  C75  1  0.00130000  0.42570000  0.13500000  1.0 -0.0712674691
C  C76  1  0.92970000  0.36980000  0.12700000  1.0 -0.0205848155
C  C77  1  0.96860000  0.30090000  0.05900000  1.0 0.0231513867
C  C78  1  0.03690000  0.34770000  0.09100000  1.0 -0.0400151821
C  C79  1  0.46170000  0.11950000  0.64640000  1.0 0.6061541271
C  C80  1  0.40680000  0.04940000  0.62750000  1.0 -0.0267796764
C  C81  1  0.37220000  0.03700000  0.54900000  1.0 -0.0267796764
C  C82  1  0.32390000  0.97310000  0.51800000  1.0 -0.061451085
C  C83  1  0.30950000  0.91630000  0.58980000  1.0 0.0599764381
C  C84  1  0.26100000  0.84680000  0.55580000  1.0 -0.0503235956
C  C85  1  0.28290000  0.82370000  0.49190000  1.0 -0.0267796764
C  C86  1  0.34570000  0.93130000  0.66100000  1.0 -0.0712674691
C  C87  1  0.39760000  0.99440000  0.68100000  1.0 -0.0205848155
C  C88  1  0.42570000  0.00130000  0.63500000  1.0 -0.061451085
C  C89  1  0.36980000  0.92970000  0.62700000  1.0 -0.0205848155
C  C90  1  0.30090000  0.96860000  0.55900000  1.0 0.0231513867
C  C91  1  0.34770000  0.03690000  0.59100000  1.0 -0.0400151821
C  C92  1  0.88050000  0.34220000  0.64640000  1.0 0.6061541271
C  C93  1  0.95060000  0.35740000  0.62750000  1.0 -0.0267796764
C  C94  1  0.96300000  0.33520000  0.54900000  1.0 -0.0267796764
C  C95  1  0.02690000  0.35080000  0.51800000  1.0 -0.061451085
C  C96  1  0.08370000  0.39320000  0.58980000  1.0 0.0599764381
C  C97  1  0.15320000  0.41420000  0.55580000  1.0 -0.0503235956
C  C98  1  0.17630000  0.45920000  0.49190000  1.0 -0.0267796764
C  C99  1  0.06870000  0.41440000  0.66100000  1.0 -0.0712674691
C  C100  1  0.00560000  0.40320000  0.68100000  1.0 -0.0205848155
C  C101  1  0.99870000  0.42440000  0.63500000  1.0 -0.061451085
C  C102  1  0.07030000  0.44010000  0.62700000  1.0 -0.0267796764
C  C103  1  0.03140000  0.33230000  0.55900000  1.0 0.0231513867
C  C104  1  0.96310000  0.31080000  0.59100000  1.0 -0.0400151821
C  C105  1  0.65780000  0.53830000  0.64640000  1.0 0.6061541271
C  C106  1  0.64260000  0.59320000  0.62750000  1.0 -0.0267796764
C  C107  1  0.66480000  0.62780000  0.54900000  1.0 -0.0267796764
C  C108  1  0.64920000  0.67610000  0.51800000  1.0 -0.061451085
C  C109  1  0.60680000  0.69050000  0.58980000  1.0 0.0599764381
C  C110  1  0.58580000  0.73900000  0.55580000  1.0 -0.0503235956
C  C111  1  0.54080000  0.71710000  0.49190000  1.0 -0.0267796764
C  C112  1  0.58560000  0.65430000  0.66100000  1.0 -0.0763866323
C  C113  1  0.59680000  0.60240000  0.68100000  1.0 -0.0205848155
C  C114  1  0.57560000  0.57430000  0.63500000  1.0 -0.061451085
C  C115  1  0.55990000  0.63020000  0.62700000  1.0 -0.0205848155
C  C116  1  0.66770000  0.69910000  0.55900000  1.0 0.0231513867
C  C117  1  0.68920000  0.65230000  0.59100000  1.0 -0.0400151821
C  C118  1  0.53830000  0.88050000  0.14640000  1.0 0.6031905991
C  C119  1  0.59320000  0.95060000  0.12750000  1.0 -0.0267796764
C  C120  1  0.62780000  0.96300000  0.04900000  1.0 -0.0267796764
C  C121  1  0.67610000  0.02690000  0.01800000  1.0 -0.061451085
C  C122  1  0.69050000  0.08370000  0.08980000  1.0 0.0599764381
C  C123  1  0.73900000  0.15320000  0.05580000  1.0 -0.0503235956
C  C124  1  0.71710000  0.17630000  0.99190000  1.0 -0.0205848155
C  C125  1  0.65430000  0.06870000  0.16100000  1.0 -0.0712674691
C  C126  1  0.60240000  0.00560000  0.18100000  1.0 -0.0205848155
C  C127  1  0.57430000  0.99870000  0.13500000  1.0 -0.061451085
C  C128  1  0.63020000  0.07030000  0.12700000  1.0 -0.0267796764
C  C129  1  0.69910000  0.03140000  0.05900000  1.0 0.0231513867
C  C130  1  0.65230000  0.96310000  0.09100000  1.0 -0.0400151821
C  C131  1  0.11950000  0.65780000  0.14640000  1.0 0.6061541271
C  C132  1  0.04940000  0.64260000  0.12750000  1.0 -0.0267796764
C  C133  1  0.03700000  0.66480000  0.04900000  1.0 -0.0205848155
C  C134  1  0.97310000  0.64920000  0.01800000  1.0 -0.061451085
C  C135  1  0.91630000  0.60680000  0.08980000  1.0 0.0599764381
C  C136  1  0.84680000  0.58580000  0.05580000  1.0 -0.0503235956
C  C137  1  0.82370000  0.54080000  0.99190000  1.0 -0.0267796764
C  C138  1  0.93130000  0.58560000  0.16100000  1.0 -0.0763866323
C  C139  1  0.99440000  0.59680000  0.18100000  1.0 -0.0205848155
C  C140  1  0.00130000  0.57560000  0.13500000  1.0 -0.0712674691
C  C141  1  0.92970000  0.55990000  0.12700000  1.0 -0.0205848155
C  C142  1  0.96860000  0.66770000  0.05900000  1.0 0.0231513867
C  C143  1  0.03690000  0.68920000  0.09100000  1.0 -0.0400151821
C  C144  1  0.34220000  0.46170000  0.14640000  1.0 0.6061541271
C  C145  1  0.35740000  0.40680000  0.12750000  1.0 -0.0267796764
C  C146  1  0.33520000  0.37220000  0.04900000  1.0 -0.0267796764
C  C147  1  0.35080000  0.32390000  0.01800000  1.0 -0.061451085
C  C148  1  0.39320000  0.30950000  0.08980000  1.0 0.0599764381
C  C149  1  0.41420000  0.26100000  0.05580000  1.0 -0.0503235956
C  C150  1  0.45920000  0.28290000  0.99190000  1.0 -0.0267796764
C  C151  1  0.41440000  0.34570000  0.16100000  1.0 -0.0712674691
C  C152  1  0.40320000  0.39760000  0.18100000  1.0 -0.0205848155
C  C153  1  0.42440000  0.42570000  0.13500000  1.0 -0.061451085
C  C154  1  0.44010000  0.36980000  0.12700000  1.0 -0.0205848155
C  C155  1  0.33230000  0.30090000  0.05900000  1.0 0.0231513867
C  C156  1  0.31080000  0.34770000  0.09100000  1.0 -0.0400151821
C  C157  1  0.60770000  0.80385000  0.59120000  1.0 0.0705611005
C  C158  1  0.51770000  0.75885000  0.45680000  1.0 -0.0907066781
C  C159  1  0.47590000  0.73795000  0.38370000  1.0 0.6786682638
C  C160  1  0.17350000  0.58675000  0.94200000  1.0 0.4889510852
C  C161  1  0.19615000  0.39230000  0.59120000  1.0 0.0705611005
C  C162  1  0.24115000  0.48230000  0.45680000  1.0 -0.0907066781
C  C163  1  0.26205000  0.52410000  0.38370000  1.0 0.6786682638
C  C164  1  0.41325000  0.82650000  0.94200000  1.0 0.4889510852
C  C165  1  0.19615000  0.80385000  0.59120000  1.0 0.0705611005
C  C166  1  0.24115000  0.75885000  0.45680000  1.0 -0.0907066781
C  C167  1  0.26205000  0.73795000  0.38370000  1.0 0.6786682638
C  C168  1  0.41325000  0.58675000  0.94200000  1.0 0.4889510852
C  C169  1  0.39230000  0.19615000  0.09120000  1.0 0.0705611005
C  C170  1  0.48230000  0.24115000  0.95680000  1.0 -0.0907066781
C  C171  1  0.52410000  0.26205000  0.88370000  1.0 0.6786682638
C  C172  1  0.82650000  0.41325000  0.44200000  1.0 0.4889510852
C  C173  1  0.80385000  0.60770000  0.09120000  1.0 0.0705611005
C  C174  1  0.75885000  0.51770000  0.95680000  1.0 -0.0907066781
C  C175  1  0.73795000  0.47590000  0.88370000  1.0 0.6786682638
C  C176  1  0.58675000  0.17350000  0.44200000  1.0 0.4889510852
C  C177  1  0.80385000  0.19615000  0.09120000  1.0 0.0705611005
C  C178  1  0.75885000  0.24115000  0.95680000  1.0 -0.0907066781
C  C179  1  0.73795000  0.26205000  0.88370000  1.0 0.6786682638
C  C180  1  0.58675000  0.41325000  0.44200000  1.0 0.4889510852
Cl  Cl1  1  0.66010000  0.83005000  0.67440000  1.0 -0.2166119757
Cl  Cl2  1  0.16995000  0.33990000  0.67440000  1.0 -0.2166119757
Cl  Cl3  1  0.16995000  0.83005000  0.67440000  1.0 -0.2166119757
Cl  Cl4  1  0.33990000  0.16995000  0.17440000  1.0 -0.2166119757
Cl  Cl5  1  0.83005000  0.66010000  0.17440000  1.0 -0.2166119757
Cl  Cl6  1  0.83005000  0.16995000  0.17440000  1.0 -0.2166119757
O  O1  1  0.69910000  0.16510000  0.59740000  1.0 -0.5810143668
O  O2  1  0.63000000  0.12950000  0.70980000  1.0 -0.6095174668
O  O3  1  0.45700000  0.77770000  0.35600000  1.0 -0.5873195795
O  O4  1  0.20600000  0.65560000  0.94060000  1.0 -0.6095174668
O  O5  1  0.46600000  0.30090000  0.59740000  1.0 -0.5810143668
O  O6  1  0.49950000  0.37000000  0.70980000  1.0 -0.6095174668
O  O7  1  0.32070000  0.54300000  0.35600000  1.0 -0.5873195795
O  O8  1  0.44960000  0.79400000  0.94060000  1.0 -0.6095174668
O  O9  1  0.83490000  0.53400000  0.59740000  1.0 -0.5810143668
O  O10  1  0.87050000  0.50050000  0.70980000  1.0 -0.6095174668
O  O11  1  0.22230000  0.67930000  0.35600000  1.0 -0.5873195795
O  O12  1  0.34440000  0.55040000  0.94060000  1.0 -0.6095174668
O  O13  1  0.30090000  0.83490000  0.09740000  1.0 -0.5810143668
O  O14  1  0.37000000  0.87050000  0.20980000  1.0 -0.6095174668
O  O15  1  0.54300000  0.22230000  0.85600000  1.0 -0.5873195795
O  O16  1  0.79400000  0.34440000  0.44060000  1.0 -0.6095174668
O  O17  1  0.53400000  0.69910000  0.09740000  1.0 -0.5810143668
O  O18  1  0.50050000  0.63000000  0.20980000  1.0 -0.6095174668
O  O19  1  0.67930000  0.45700000  0.85600000  1.0 -0.5873195795
O  O20  1  0.55040000  0.20600000  0.44060000  1.0 -0.6095174668
O  O21  1  0.16510000  0.46600000  0.09740000  1.0 -0.5810143668
O  O22  1  0.12950000  0.49950000  0.20980000  1.0 -0.6095174668
O  O23  1  0.77770000  0.32070000  0.85600000  1.0 -0.5873195795
O  O24  1  0.65560000  0.44960000  0.44060000  1.0 -0.6095174668
O  O25  1  0.46600000  0.16510000  0.59740000  1.0 -0.5810143668
O  O26  1  0.49950000  0.12950000  0.70980000  1.0 -0.6095174668
O  O27  1  0.32070000  0.77770000  0.35600000  1.0 -0.5873195795
O  O28  1  0.44960000  0.65560000  0.94060000  1.0 -0.6095174668
O  O29  1  0.83490000  0.30090000  0.59740000  1.0 -0.5810143668
O  O30  1  0.87050000  0.37000000  0.70980000  1.0 -0.6095174668
O  O31  1  0.22230000  0.54300000  0.35600000  1.0 -0.5873195795
O  O32  1  0.34440000  0.79400000  0.94060000  1.0 -0.6095174668
O  O33  1  0.69910000  0.53400000  0.59740000  1.0 -0.5810143668
O  O34  1  0.63000000  0.50050000  0.70980000  1.0 -0.6095174668
O  O35  1  0.45700000  0.67930000  0.35600000  1.0 -0.5873195795
O  O36  1  0.20600000  0.55040000  0.94060000  1.0 -0.6095174668
O  O37  1  0.53400000  0.83490000  0.09740000  1.0 -0.5810143668
O  O38  1  0.50050000  0.87050000  0.20980000  1.0 -0.6095174668
O  O39  1  0.67930000  0.22230000  0.85600000  1.0 -0.5873195795
O  O40  1  0.55040000  0.34440000  0.44060000  1.0 -0.6095174668
O  O41  1  0.16510000  0.69910000  0.09740000  1.0 -0.5810143668
O  O42  1  0.12950000  0.63000000  0.20980000  1.0 -0.6095174668
O  O43  1  0.77770000  0.45700000  0.85600000  1.0 -0.5873195795
O  O44  1  0.65560000  0.20600000  0.44060000  1.0 -0.6095174668
O  O45  1  0.30090000  0.46600000  0.09740000  1.0 -0.5810143668
O  O46  1  0.37000000  0.49950000  0.20980000  1.0 -0.6095174668
O  O47  1  0.54300000  0.32070000  0.85600000  1.0 -0.5873195795
O  O48  1  0.79400000  0.44960000  0.44060000  1.0 -0.6095174668
O  O49  1  0.38757000  0.77514000  0.10250000  1.0 -1.019674288
O  O50  1  0.38757000  0.61243000  0.10250000  1.0 -1.019674288
O  O51  1  0.22486000  0.61243000  0.10250000  1.0 -1.019674288
O  O52  1  0.61243000  0.22486000  0.60250000  1.0 -1.0281829107
O  O53  1  0.61243000  0.38757000  0.60250000  1.0 -1.0281829107
O  O54  1  0.77514000  0.38757000  0.60250000  1.0 -1.0281829107
O  O55  1  0.28165000  0.71835000  0.19500000  1.0 -0.9768589505
O  O56  1  0.43670000  0.71835000  0.19500000  1.0 -0.9768589505
O  O57  1  0.28165000  0.56330000  0.19500000  1.0 -0.9768589505
O  O58  1  0.71835000  0.28165000  0.69500000  1.0 -0.9688744712
O  O59  1  0.56330000  0.28165000  0.69500000  1.0 -0.9688744712
O  O60  1  0.71835000  0.43670000  0.69500000  1.0 -0.9688744712
O  O61  1  0.33333333  0.66666667  0.01180000  1.0 -1.0988884735
O  O62  1  0.33333333  0.66666667  0.28600000  1.0 -1.019674288
O  O63  1  0.66666667  0.33333333  0.51180000  1.0 -1.0925722885
O  O64  1  0.66666667  0.33333333  0.78600000  1.0 -1.0281829107
