# DDEC6 charges by PACMAN v1.1 (https://github.com/mtap-research/PACMAN-charge/)
data_JOFYEL_ASR_pacman
_symmetry_space_group_name_H-M   'P 1'
_cell_length_a   7.11200000
_cell_length_b   14.65000000
_cell_length_c   36.56000000
_cell_angle_alpha   90.00000000
_cell_angle_beta   90.00000000
_cell_angle_gamma   90.00000000
_symmetry_Int_Tables_number   1
_chemical_formula_structural   KNiPH8C10N2O7
_chemical_formula_sum   'K8 Ni8 P8 H64 C80 N16 O56'
_cell_volume   3809.21564800
_cell_formula_units_Z   8
loop_
 _symmetry_equiv_pos_site_id
 _symmetry_equiv_pos_as_xyz
  1  'x, y, z'
loop_
 _atom_site_type_symbol
 _atom_site_label
 _atom_site_symmetry_multiplicity
 _atom_site_fract_x
 _atom_site_fract_y
 _atom_site_fract_z
 _atom_site_occupancy
 _atom_site_charge
K  K1  1  0.60540000  0.18986000  0.59535000  1.0 1.0893226218
K  K2  1  0.60540000  0.31014000  0.90465000  1.0 1.0893226218
K  K3  1  0.10540000  0.18986000  0.90465000  1.0 1.0893226218
K  K4  1  0.10540000  0.31014000  0.59535000  1.0 1.0893226218
K  K5  1  0.89460000  0.81014000  0.09535000  1.0 1.0811247579
K  K6  1  0.89460000  0.68986000  0.40465000  1.0 1.0893226218
K  K7  1  0.39460000  0.81014000  0.40465000  1.0 1.0811247579
K  K8  1  0.39460000  0.68986000  0.09535000  1.0 1.0893226218
Ni  Ni1  1  0.15820000  0.89875000  0.61041000  1.0 0.7336215653
Ni  Ni2  1  0.15820000  0.60125000  0.88959000  1.0 0.7336215653
Ni  Ni3  1  0.65820000  0.89875000  0.88959000  1.0 0.7336215653
Ni  Ni4  1  0.65820000  0.60125000  0.61041000  1.0 0.7336215653
Ni  Ni5  1  0.34180000  0.10125000  0.11041000  1.0 0.7336215653
Ni  Ni6  1  0.34180000  0.39875000  0.38959000  1.0 0.7336215653
Ni  Ni7  1  0.84180000  0.10125000  0.38959000  1.0 0.7336215653
Ni  Ni8  1  0.84180000  0.39875000  0.11041000  1.0 0.7336215653
P  P1  1  0.09370000  0.10126000  0.59671000  1.0 1.3314454011
P  P2  1  0.09370000  0.39874000  0.90329000  1.0 1.3314454011
P  P3  1  0.59370000  0.10126000  0.90329000  1.0 1.3314454011
P  P4  1  0.59370000  0.39874000  0.59671000  1.0 1.3314454011
P  P5  1  0.40630000  0.89874000  0.09671000  1.0 1.3314454011
P  P6  1  0.40630000  0.60126000  0.40329000  1.0 1.3314454011
P  P7  1  0.90630000  0.89874000  0.40329000  1.0 1.3314454011
P  P8  1  0.90630000  0.60126000  0.09671000  1.0 1.3314454011
H  H1  1  0.22340000  0.95430000  0.68670000  1.0 0.1400344899
H  H2  1  0.20320000  0.90180000  0.74500000  1.0 0.1400344899
H  H3  1  0.10780000  0.65450000  0.70370000  1.0 0.1400344899
H  H4  1  0.10850000  0.71590000  0.64700000  1.0 0.1400344899
H  H5  1  0.04320000  0.88680000  0.51180000  1.0 0.1546226984
H  H6  1  0.44080000  0.97290000  0.52920000  1.0 0.1631919131
H  H7  1  0.93230000  0.01870000  0.55230000  1.0 0.1847071699
H  H8  1  0.10190000  0.07070000  0.53430000  1.0 0.1733218725
H  H9  1  0.22340000  0.54570000  0.81330000  1.0 0.1400344899
H  H10  1  0.20320000  0.59820000  0.75500000  1.0 0.1400344899
H  H11  1  0.10780000  0.84550000  0.79630000  1.0 0.1400344899
H  H12  1  0.10850000  0.78410000  0.85300000  1.0 0.1400344899
H  H13  1  0.04320000  0.61320000  0.98820000  1.0 0.1546226984
H  H14  1  0.44080000  0.52710000  0.97080000  1.0 0.1631919131
H  H15  1  0.93230000  0.48130000  0.94770000  1.0 0.1847071699
H  H16  1  0.10190000  0.42930000  0.96570000  1.0 0.1733218725
H  H17  1  0.72340000  0.95430000  0.81330000  1.0 0.1400344899
H  H18  1  0.70320000  0.90180000  0.75500000  1.0 0.1400344899
H  H19  1  0.60780000  0.65450000  0.79630000  1.0 0.1400344899
H  H20  1  0.60850000  0.71590000  0.85300000  1.0 0.1400344899
H  H21  1  0.54320000  0.88680000  0.98820000  1.0 0.1546226984
H  H22  1  0.94080000  0.97290000  0.97080000  1.0 0.1631919131
H  H23  1  0.43230000  0.01870000  0.94770000  1.0 0.1847071699
H  H24  1  0.60190000  0.07070000  0.96570000  1.0 0.1733218725
H  H25  1  0.72340000  0.54570000  0.68670000  1.0 0.1400344899
H  H26  1  0.70320000  0.59820000  0.74500000  1.0 0.1400344899
H  H27  1  0.60780000  0.84550000  0.70370000  1.0 0.1400344899
H  H28  1  0.60850000  0.78410000  0.64700000  1.0 0.1400344899
H  H29  1  0.54320000  0.61320000  0.51180000  1.0 0.1546226984
H  H30  1  0.94080000  0.52710000  0.52920000  1.0 0.1631919131
H  H31  1  0.43230000  0.48130000  0.55230000  1.0 0.1847071699
H  H32  1  0.60190000  0.42930000  0.53430000  1.0 0.1733218725
H  H33  1  0.27660000  0.04570000  0.18670000  1.0 0.1400344899
H  H34  1  0.29680000  0.09820000  0.24500000  1.0 0.1400344899
H  H35  1  0.39220000  0.34550000  0.20370000  1.0 0.1400344899
H  H36  1  0.39150000  0.28410000  0.14700000  1.0 0.1400344899
H  H37  1  0.45680000  0.11320000  0.01180000  1.0 0.1631919131
H  H38  1  0.05920000  0.02710000  0.02920000  1.0 0.1631919131
H  H39  1  0.56770000  0.98130000  0.05230000  1.0 0.1847071699
H  H40  1  0.39810000  0.92930000  0.03430000  1.0 0.1733218725
H  H41  1  0.27660000  0.45430000  0.31330000  1.0 0.1400344899
H  H42  1  0.29680000  0.40180000  0.25500000  1.0 0.1400344899
H  H43  1  0.39220000  0.15450000  0.29630000  1.0 0.1400344899
H  H44  1  0.39150000  0.21590000  0.35300000  1.0 0.1400344899
H  H45  1  0.45680000  0.38680000  0.48820000  1.0 0.1546226984
H  H46  1  0.05920000  0.47290000  0.47080000  1.0 0.1631919131
H  H47  1  0.56770000  0.51870000  0.44770000  1.0 0.1847071699
H  H48  1  0.39810000  0.57070000  0.46570000  1.0 0.1733218725
H  H49  1  0.77660000  0.04570000  0.31330000  1.0 0.1400344899
H  H50  1  0.79680000  0.09820000  0.25500000  1.0 0.1400344899
H  H51  1  0.89220000  0.34550000  0.29630000  1.0 0.1400344899
H  H52  1  0.89150000  0.28410000  0.35300000  1.0 0.1400344899
H  H53  1  0.95680000  0.11320000  0.48820000  1.0 0.1546226984
H  H54  1  0.55920000  0.02710000  0.47080000  1.0 0.1631919131
H  H55  1  0.06770000  0.98130000  0.44770000  1.0 0.1847071699
H  H56  1  0.89810000  0.92930000  0.46570000  1.0 0.1733218725
H  H57  1  0.77660000  0.45430000  0.18670000  1.0 0.1400344899
H  H58  1  0.79680000  0.40180000  0.24500000  1.0 0.1400344899
H  H59  1  0.89220000  0.15450000  0.20370000  1.0 0.1400344899
H  H60  1  0.89150000  0.21590000  0.14700000  1.0 0.1400344899
H  H61  1  0.95680000  0.38680000  0.01180000  1.0 0.1546226984
H  H62  1  0.55920000  0.47290000  0.02920000  1.0 0.1631919131
H  H63  1  0.06770000  0.51870000  0.05230000  1.0 0.1847071699
H  H64  1  0.89810000  0.57070000  0.03430000  1.0 0.1733218725
C  C1  1  0.19330000  0.89310000  0.69020000  1.0 0.1071391791
C  C2  1  0.19000000  0.86180000  0.72540000  1.0 -0.2105683533
C  C3  1  0.16570000  0.76890000  0.73140000  1.0 0.1030661003
C  C4  1  0.13090000  0.71670000  0.70090000  1.0 -0.1820142963
C  C5  1  0.12960000  0.75380000  0.66700000  1.0 0.0888423739
C  C6  1  0.17470000  0.78450000  0.54790000  1.0 0.5789303831
C  C7  1  0.11260000  0.87760000  0.53300000  1.0 -0.1630101338
C  C8  1  0.38450000  0.96810000  0.55210000  1.0 -0.2105683533
C  C9  1  0.48840000  0.97740000  0.58720000  1.0 0.6084009759
C  C10  1  0.06370000  0.03480000  0.55530000  1.0 -0.4322847151
C  C11  1  0.19330000  0.60690000  0.80980000  1.0 0.1071391791
C  C12  1  0.19000000  0.63820000  0.77460000  1.0 -0.2105683533
C  C13  1  0.16570000  0.73110000  0.76860000  1.0 0.1030661003
C  C14  1  0.13090000  0.78330000  0.79910000  1.0 -0.1820142963
C  C15  1  0.12960000  0.74620000  0.83300000  1.0 0.0888423739
C  C16  1  0.17470000  0.71550000  0.95210000  1.0 0.5789303831
C  C17  1  0.11260000  0.62240000  0.96700000  1.0 -0.1630101338
C  C18  1  0.38450000  0.53190000  0.94790000  1.0 -0.2105683533
C  C19  1  0.48840000  0.52260000  0.91280000  1.0 0.6084009759
C  C20  1  0.06370000  0.46520000  0.94470000  1.0 -0.4322847151
C  C21  1  0.69330000  0.89310000  0.80980000  1.0 0.1071391791
C  C22  1  0.69000000  0.86180000  0.77460000  1.0 -0.2105683533
C  C23  1  0.66570000  0.76890000  0.76860000  1.0 0.1030661003
C  C24  1  0.63090000  0.71670000  0.79910000  1.0 -0.1820142963
C  C25  1  0.62960000  0.75380000  0.83300000  1.0 0.0888423739
C  C26  1  0.67470000  0.78450000  0.95210000  1.0 0.5789303831
C  C27  1  0.61260000  0.87760000  0.96700000  1.0 -0.1630101338
C  C28  1  0.88450000  0.96810000  0.94790000  1.0 -0.2155766584
C  C29  1  0.98840000  0.97740000  0.91280000  1.0 0.6084009759
C  C30  1  0.56370000  0.03480000  0.94470000  1.0 -0.4322847151
C  C31  1  0.69330000  0.60690000  0.69020000  1.0 0.1071391791
C  C32  1  0.69000000  0.63820000  0.72540000  1.0 -0.2105683533
C  C33  1  0.66570000  0.73110000  0.73140000  1.0 0.1030661003
C  C34  1  0.63090000  0.78330000  0.70090000  1.0 -0.1820142963
C  C35  1  0.62960000  0.74620000  0.66700000  1.0 0.0888423739
C  C36  1  0.67470000  0.71550000  0.54790000  1.0 0.5789303831
C  C37  1  0.61260000  0.62240000  0.53300000  1.0 -0.1630101338
C  C38  1  0.88450000  0.53190000  0.55210000  1.0 -0.2105683533
C  C39  1  0.98840000  0.52260000  0.58720000  1.0 0.6084009759
C  C40  1  0.56370000  0.46520000  0.55530000  1.0 -0.4322847151
C  C41  1  0.30670000  0.10690000  0.19020000  1.0 0.1071391791
C  C42  1  0.31000000  0.13820000  0.22540000  1.0 -0.2105683533
C  C43  1  0.33430000  0.23110000  0.23140000  1.0 0.1030661003
C  C44  1  0.36910000  0.28330000  0.20090000  1.0 -0.1820142963
C  C45  1  0.37040000  0.24620000  0.16700000  1.0 0.0888423739
C  C46  1  0.32530000  0.21550000  0.04790000  1.0 0.5789303831
C  C47  1  0.38740000  0.12240000  0.03300000  1.0 -0.1630101338
C  C48  1  0.11550000  0.03190000  0.05210000  1.0 -0.2105683533
C  C49  1  0.01160000  0.02260000  0.08720000  1.0 0.6084009759
C  C50  1  0.43630000  0.96520000  0.05530000  1.0 -0.4322847151
C  C51  1  0.30670000  0.39310000  0.30980000  1.0 0.1071391791
C  C52  1  0.31000000  0.36180000  0.27460000  1.0 -0.2105683533
C  C53  1  0.33430000  0.26890000  0.26860000  1.0 0.1030661003
C  C54  1  0.36910000  0.21670000  0.29910000  1.0 -0.1820142963
C  C55  1  0.37040000  0.25380000  0.33300000  1.0 0.0888423739
C  C56  1  0.32530000  0.28450000  0.45210000  1.0 0.5789303831
C  C57  1  0.38740000  0.37760000  0.46700000  1.0 -0.1630101338
C  C58  1  0.11550000  0.46810000  0.44790000  1.0 -0.2105683533
C  C59  1  0.01160000  0.47740000  0.41280000  1.0 0.6084009759
C  C60  1  0.43630000  0.53480000  0.44470000  1.0 -0.4322847151
C  C61  1  0.80670000  0.10690000  0.30980000  1.0 0.1071391791
C  C62  1  0.81000000  0.13820000  0.27460000  1.0 -0.2105683533
C  C63  1  0.83430000  0.23110000  0.26860000  1.0 0.1030661003
C  C64  1  0.86910000  0.28330000  0.29910000  1.0 -0.1820142963
C  C65  1  0.87040000  0.24620000  0.33300000  1.0 0.0888423739
C  C66  1  0.82530000  0.21550000  0.45210000  1.0 0.5789303831
C  C67  1  0.88740000  0.12240000  0.46700000  1.0 -0.1630101338
C  C68  1  0.61550000  0.03190000  0.44790000  1.0 -0.2105683533
C  C69  1  0.51160000  0.02260000  0.41280000  1.0 0.6084009759
C  C70  1  0.93630000  0.96520000  0.44470000  1.0 -0.4322847151
C  C71  1  0.80670000  0.39310000  0.19020000  1.0 0.1071391791
C  C72  1  0.81000000  0.36180000  0.22540000  1.0 -0.2105683533
C  C73  1  0.83430000  0.26890000  0.23140000  1.0 0.1030661003
C  C74  1  0.86910000  0.21670000  0.20090000  1.0 -0.1820142963
C  C75  1  0.87040000  0.25380000  0.16700000  1.0 0.0888423739
C  C76  1  0.82530000  0.28450000  0.04790000  1.0 0.5789303831
C  C77  1  0.88740000  0.37760000  0.03300000  1.0 -0.1630101338
C  C78  1  0.61550000  0.46810000  0.05210000  1.0 -0.2105683533
C  C79  1  0.51160000  0.47740000  0.08720000  1.0 0.6084009759
C  C80  1  0.93630000  0.53480000  0.05530000  1.0 -0.4322847151
N  N1  1  0.15810000  0.84450000  0.66120000  1.0 -0.1820142963
N  N2  1  0.18020000  0.95020000  0.55770000  1.0 0.0888423739
N  N3  1  0.15810000  0.65550000  0.83880000  1.0 -0.1820142963
N  N4  1  0.18020000  0.54980000  0.94230000  1.0 0.0888423739
N  N5  1  0.65810000  0.84450000  0.83880000  1.0 -0.1820142963
N  N6  1  0.68020000  0.95020000  0.94230000  1.0 0.0888423739
N  N7  1  0.65810000  0.65550000  0.66120000  1.0 -0.1820142963
N  N8  1  0.68020000  0.54980000  0.55770000  1.0 0.0888423739
N  N9  1  0.34190000  0.15550000  0.16120000  1.0 -0.1820142963
N  N10  1  0.31980000  0.04980000  0.05770000  1.0 0.0888423739
N  N11  1  0.34190000  0.34450000  0.33880000  1.0 -0.1820142963
N  N12  1  0.31980000  0.45020000  0.44230000  1.0 0.0888423739
N  N13  1  0.84190000  0.15550000  0.33880000  1.0 -0.1820142963
N  N14  1  0.81980000  0.04980000  0.44230000  1.0 0.0888423739
N  N15  1  0.84190000  0.34450000  0.16120000  1.0 -0.1820142963
N  N16  1  0.81980000  0.45020000  0.05770000  1.0 0.0888423739
O  O1  1  0.43390000  0.93250000  0.61450000  1.0 -0.5142037891
O  O2  1  0.20700000  0.77810000  0.58128000  1.0 -0.5317934812
O  O3  1  0.17940000  0.71940000  0.52530000  1.0 -0.5317934812
O  O4  1  0.63580000  0.02780000  0.58710000  1.0 -0.6069747531
O  O5  1  0.08770000  0.03080000  0.62730000  1.0 -0.7022197865
O  O6  1  0.27730000  0.15260000  0.59520000  1.0 -0.8370952331
O  O7  1  0.93410000  0.16980000  0.59792000  1.0 -0.8594475635
O  O8  1  0.43390000  0.56750000  0.88550000  1.0 -0.5142037891
O  O9  1  0.20700000  0.72190000  0.91872000  1.0 -0.5317934812
O  O10  1  0.17940000  0.78060000  0.97470000  1.0 -0.5317934812
O  O11  1  0.63580000  0.47220000  0.91290000  1.0 -0.6069747531
O  O12  1  0.08770000  0.46920000  0.87270000  1.0 -0.7022197865
O  O13  1  0.27730000  0.34740000  0.90480000  1.0 -0.8370952331
O  O14  1  0.93410000  0.33020000  0.90208000  1.0 -0.8594475635
O  O15  1  0.93390000  0.93250000  0.88550000  1.0 -0.5142037891
O  O16  1  0.70700000  0.77810000  0.91872000  1.0 -0.5317934812
O  O17  1  0.67940000  0.71940000  0.97470000  1.0 -0.5317934812
O  O18  1  0.13580000  0.02780000  0.91290000  1.0 -0.6069747531
O  O19  1  0.58770000  0.03080000  0.87270000  1.0 -0.7022197865
O  O20  1  0.77730000  0.15260000  0.90480000  1.0 -0.8370952331
O  O21  1  0.43410000  0.16980000  0.90208000  1.0 -0.8594475635
O  O22  1  0.93390000  0.56750000  0.61450000  1.0 -0.5142037891
O  O23  1  0.70700000  0.72190000  0.58128000  1.0 -0.5317934812
O  O24  1  0.67940000  0.78060000  0.52530000  1.0 -0.5317934812
O  O25  1  0.13580000  0.47220000  0.58710000  1.0 -0.6069747531
O  O26  1  0.58770000  0.46920000  0.62730000  1.0 -0.7022197865
O  O27  1  0.77730000  0.34740000  0.59520000  1.0 -0.8370952331
O  O28  1  0.43410000  0.33020000  0.59792000  1.0 -0.8594475635
O  O29  1  0.06610000  0.06750000  0.11450000  1.0 -0.5142037891
O  O30  1  0.29300000  0.22190000  0.08128000  1.0 -0.5317934812
O  O31  1  0.32060000  0.28060000  0.02530000  1.0 -0.5317934812
O  O32  1  0.86420000  0.97220000  0.08710000  1.0 -0.6069747531
O  O33  1  0.41230000  0.96920000  0.12730000  1.0 -0.7022197865
O  O34  1  0.22270000  0.84740000  0.09520000  1.0 -0.8370952331
O  O35  1  0.56590000  0.83020000  0.09792000  1.0 -0.8594475635
O  O36  1  0.06610000  0.43250000  0.38550000  1.0 -0.5142037891
O  O37  1  0.29300000  0.27810000  0.41872000  1.0 -0.5317934812
O  O38  1  0.32060000  0.21940000  0.47470000  1.0 -0.5317934812
O  O39  1  0.86420000  0.52780000  0.41290000  1.0 -0.6069747531
O  O40  1  0.41230000  0.53080000  0.37270000  1.0 -0.7022197865
O  O41  1  0.22270000  0.65260000  0.40480000  1.0 -0.8370952331
O  O42  1  0.56590000  0.66980000  0.40208000  1.0 -0.8594475635
O  O43  1  0.56610000  0.06750000  0.38550000  1.0 -0.5142037891
O  O44  1  0.79300000  0.22190000  0.41872000  1.0 -0.5317934812
O  O45  1  0.82060000  0.28060000  0.47470000  1.0 -0.5317934812
O  O46  1  0.36420000  0.97220000  0.41290000  1.0 -0.6069747531
O  O47  1  0.91230000  0.96920000  0.37270000  1.0 -0.7022197865
O  O48  1  0.72270000  0.84740000  0.40480000  1.0 -0.8370952331
O  O49  1  0.06590000  0.83020000  0.40208000  1.0 -0.8594475635
O  O50  1  0.56610000  0.43250000  0.11450000  1.0 -0.5142037891
O  O51  1  0.79300000  0.27810000  0.08128000  1.0 -0.5317934812
O  O52  1  0.82060000  0.21940000  0.02530000  1.0 -0.5317934812
O  O53  1  0.36420000  0.52780000  0.08710000  1.0 -0.6069747531
O  O54  1  0.91230000  0.53080000  0.12730000  1.0 -0.7022197865
O  O55  1  0.72270000  0.65260000  0.09520000  1.0 -0.8370952331
O  O56  1  0.06590000  0.66980000  0.09792000  1.0 -0.8594475635
