# DDEC6 charges by PACMAN v1.1 (https://github.com/mtap-research/PACMAN-charge/)
data_JOGHIY_ASR_pacman
_symmetry_space_group_name_H-M   'P 1'
_cell_length_a   11.37970000
_cell_length_b   11.37970000
_cell_length_c   8.10900000
_cell_angle_alpha   84.38850000
_cell_angle_beta   95.61150000
_cell_angle_gamma   54.81220000
_symmetry_Int_Tables_number   1
_chemical_formula_structural   CoH9C11(NO)2
_chemical_formula_sum   'Co2 H18 C22 N4 O4'
_cell_volume   838.62083556
_cell_formula_units_Z   2
loop_
 _symmetry_equiv_pos_site_id
 _symmetry_equiv_pos_as_xyz
  1  'x, y, z'
loop_
 _atom_site_type_symbol
 _atom_site_label
 _atom_site_symmetry_multiplicity
 _atom_site_fract_x
 _atom_site_fract_y
 _atom_site_fract_z
 _atom_site_occupancy
 _atom_site_charge
Co  Co1  1  0.00000000  0.50000000  0.00000000  1.0 0.4546446647
Co  Co2  1  0.50000000  0.00000000  0.50000000  1.0 0.4546446647
H  H1  1  0.89260000  0.31420000  0.92070000  1.0 0.1098317339
H  H2  1  0.31420000  0.89260000  0.57930000  1.0 0.1098317339
H  H3  1  0.10740000  0.68580000  0.07930000  1.0 0.1098317339
H  H4  1  0.68580000  0.10740000  0.42070000  1.0 0.1098317339
H  H5  1  0.69910000  0.31130000  0.91620000  1.0 0.1260497924
H  H6  1  0.31130000  0.69910000  0.58380000  1.0 0.1260497924
H  H7  1  0.30090000  0.68870000  0.08380000  1.0 0.1260497924
H  H8  1  0.68870000  0.30090000  0.41620000  1.0 0.1260497924
H  H9  1  0.48570000  0.69450000  0.07590000  1.0 0.1247477677
H  H10  1  0.69450000  0.48570000  0.42410000  1.0 0.1247477677
H  H11  1  0.51430000  0.30550000  0.92410000  1.0 0.1260497924
H  H12  1  0.30550000  0.51430000  0.57590000  1.0 0.1247477677
H  H13  1  0.67940000  0.69740000  0.06870000  1.0 0.0950613093
H  H14  1  0.69740000  0.67940000  0.43130000  1.0 0.0950613093
H  H15  1  0.32060000  0.30260000  0.93130000  1.0 0.0950613093
H  H16  1  0.30260000  0.32060000  0.56870000  1.0 0.0950613093
H  H17  1  0.72680000  0.72680000  0.75000000  1.0 0.1098317339
H  H18  1  0.27320000  0.27320000  0.25000000  1.0 0.1098317339
C  C1  1  0.80798000  0.39178000  0.94950000  1.0 0.0699721571
C  C2  1  0.39178000  0.80798000  0.55050000  1.0 0.0699721571
C  C3  1  0.19202000  0.60822000  0.05050000  1.0 0.0699721571
C  C4  1  0.60822000  0.19202000  0.44950000  1.0 0.0699721571
C  C5  1  0.69635000  0.38935000  0.94690000  1.0 -0.2023481917
C  C6  1  0.38935000  0.69635000  0.55310000  1.0 -0.2023481917
C  C7  1  0.30365000  0.61065000  0.05310000  1.0 -0.2023481917
C  C8  1  0.61065000  0.30365000  0.44690000  1.0 -0.2023481917
C  C9  1  0.56555000  0.50115000  0.99700000  1.0 0.0940779071
C  C10  1  0.50115000  0.56555000  0.50300000  1.0 0.0950613093
C  C11  1  0.43445000  0.49885000  0.00300000  1.0 0.0940779071
C  C12  1  0.49885000  0.43445000  0.49700000  1.0 0.0940779071
C  C13  1  0.56938000  0.61778000  0.04460000  1.0 -0.2023481917
C  C14  1  0.61778000  0.56938000  0.45540000  1.0 -0.2023481917
C  C15  1  0.43062000  0.38222000  0.95540000  1.0 -0.2023481917
C  C16  1  0.38222000  0.43062000  0.54460000  1.0 -0.2023481917
C  C17  1  0.68195000  0.61895000  0.04010000  1.0 0.0417723866
C  C18  1  0.61895000  0.68195000  0.45990000  1.0 0.0417723866
C  C19  1  0.31805000  0.38105000  0.95990000  1.0 0.0417723866
C  C20  1  0.38105000  0.31805000  0.54010000  1.0 0.0417723866
C  C21  1  0.77280000  0.77280000  0.75000000  1.0 0.4301936623
C  C22  1  0.22720000  0.22720000  0.25000000  1.0 0.4301936623
N  N1  1  0.80443000  0.50663000  0.99390000  1.0 -0.3080354784
N  N2  1  0.50663000  0.80443000  0.50610000  1.0 -0.3080354784
N  N3  1  0.19557000  0.49337000  0.00610000  1.0 -0.3080354784
N  N4  1  0.49337000  0.19557000  0.49390000  1.0 -0.3080354784
O  O1  1  0.88697000  0.70997000  0.84990000  1.0 -0.4466875795
O  O2  1  0.70997000  0.88697000  0.65010000  1.0 -0.4466875795
O  O3  1  0.11303000  0.29003000  0.15010000  1.0 -0.4466875795
O  O4  1  0.29003000  0.11303000  0.34990000  1.0 -0.4466875795
