# DDEC6 charges by PACMAN v1.1 (https://github.com/mtap-research/PACMAN-charge/)
data_JOGHEU_FSR_pacman
_symmetry_space_group_name_H-M   'P 1'
_cell_length_a   11.29170000
_cell_length_b   11.29170000
_cell_length_c   8.10770000
_cell_angle_alpha   84.20240000
_cell_angle_beta   95.79760000
_cell_angle_gamma   55.16120000
_symmetry_Int_Tables_number   1
_chemical_formula_structural   NiH11C13(NO3)2
_chemical_formula_sum   'Ni2 H22 C26 N4 O12'
_cell_volume   828.02485699
_cell_formula_units_Z   2
loop_
 _symmetry_equiv_pos_site_id
 _symmetry_equiv_pos_as_xyz
  1  'x, y, z'
loop_
 _atom_site_type_symbol
 _atom_site_label
 _atom_site_symmetry_multiplicity
 _atom_site_fract_x
 _atom_site_fract_y
 _atom_site_fract_z
 _atom_site_occupancy
 _atom_site_charge
Ni  Ni1  1  0.00000000  0.50000000  0.00000000  1.0 0.7640415394
Ni  Ni2  1  0.50000000  0.00000000  0.50000000  1.0 0.7640415394
H  H1  1  0.10680000  0.68680000  0.08720000  1.0 0.1388457332
H  H2  1  0.68680000  0.10680000  0.41280000  1.0 0.1388457332
H  H3  1  0.89320000  0.31320000  0.91280000  1.0 0.1388457332
H  H4  1  0.31320000  0.89320000  0.58720000  1.0 0.1388457332
H  H5  1  0.30410000  0.68750000  0.08740000  1.0 0.1388457332
H  H6  1  0.68750000  0.30410000  0.41260000  1.0 0.1388457332
H  H7  1  0.69590000  0.31250000  0.91260000  1.0 0.1388457332
H  H8  1  0.31250000  0.69590000  0.58740000  1.0 0.1388457332
H  H9  1  0.51200000  0.30420000  0.92080000  1.0 0.1388457332
H  H10  1  0.30420000  0.51200000  0.57920000  1.0 0.1388457332
H  H11  1  0.48800000  0.69580000  0.07920000  1.0 0.1388457332
H  H12  1  0.69580000  0.48800000  0.42080000  1.0 0.1388457332
H  H13  1  0.31280000  0.30640000  0.92450000  1.0 0.1102692598
H  H14  1  0.30640000  0.31280000  0.57550000  1.0 0.1102692598
H  H15  1  0.68720000  0.69360000  0.07550000  1.0 0.1102692598
H  H16  1  0.69360000  0.68720000  0.42450000  1.0 0.1102692598
H  H17  1  0.72160000  0.72160000  0.75000000  1.0 0.0983799138
H  H18  1  0.27840000  0.27840000  0.25000000  1.0 0.0983799138
H  H19  1  0.01950000  0.49470000  0.56600000  1.0 0.0484327712
H  H20  1  0.49470000  0.01950000  0.93400000  1.0 0.0484327712
H  H21  1  0.98050000  0.50530000  0.43400000  1.0 0.0484327712
H  H22  1  0.50530000  0.98050000  0.06600000  1.0 0.0484327712
C  C1  1  0.18968000  0.60968000  0.05540000  1.0 0.0912860074
C  C2  1  0.60968000  0.18968000  0.44460000  1.0 0.0912860074
C  C3  1  0.81032000  0.39032000  0.94460000  1.0 0.0912860074
C  C4  1  0.39032000  0.81032000  0.55540000  1.0 0.0912860074
C  C5  1  0.30667000  0.60987000  0.05390000  1.0 -0.1890894751
C  C6  1  0.60987000  0.30667000  0.44610000  1.0 -0.1890894751
C  C7  1  0.69333000  0.39013000  0.94610000  1.0 -0.1890894751
C  C8  1  0.39013000  0.69333000  0.55390000  1.0 -0.1890894751
C  C9  1  0.43475000  0.49815000  0.00400000  1.0 0.0912860074
C  C10  1  0.49815000  0.43475000  0.49600000  1.0 0.0912860074
C  C11  1  0.56525000  0.50185000  0.99600000  1.0 0.0912860074
C  C12  1  0.50185000  0.56525000  0.50400000  1.0 0.0912860074
C  C13  1  0.43090000  0.38150000  0.95500000  1.0 -0.1890894751
C  C14  1  0.38150000  0.43090000  0.54500000  1.0 -0.1890894751
C  C15  1  0.56910000  0.61850000  0.04500000  1.0 -0.1890894751
C  C16  1  0.61850000  0.56910000  0.45500000  1.0 -0.1890894751
C  C17  1  0.31320000  0.38260000  0.95790000  1.0 0.0484327712
C  C18  1  0.38260000  0.31320000  0.54210000  1.0 0.0484327712
C  C19  1  0.68680000  0.61740000  0.04210000  1.0 0.0484327712
C  C20  1  0.61740000  0.68680000  0.45790000  1.0 0.0484327712
C  C21  1  0.76800000  0.76800000  0.75000000  1.0 0.478661459
C  C22  1  0.23200000  0.23200000  0.25000000  1.0 0.478661459
C  C23  1  0.03740000  0.41180000  0.63210000  1.0 0.4332324826
C  C24  1  0.41180000  0.03740000  0.86790000  1.0 0.4332324826
C  C25  1  0.96260000  0.58820000  0.36790000  1.0 0.4332324826
C  C26  1  0.58820000  0.96260000  0.13210000  1.0 0.4332324826
N  N1  1  0.19128000  0.49428000  0.00950000  1.0 -0.2689060605
N  N2  1  0.49428000  0.19128000  0.49050000  1.0 -0.2689060605
N  N3  1  0.80872000  0.50572000  0.99050000  1.0 -0.2689060605
N  N4  1  0.50572000  0.80872000  0.50950000  1.0 -0.2689060605
O  O1  1  0.88480000  0.71200000  0.85340000  1.0 -0.4506455398
O  O2  1  0.71200000  0.88480000  0.64660000  1.0 -0.4506455398
O  O3  1  0.11520000  0.28800000  0.14660000  1.0 -0.4506455398
O  O4  1  0.28800000  0.11520000  0.35340000  1.0 -0.4506455398
O  O5  1  0.03990000  0.40470000  0.78440000  1.0 -0.4189290143
O  O6  1  0.40470000  0.03990000  0.71560000  1.0 -0.4189290143
O  O7  1  0.96010000  0.59530000  0.21560000  1.0 -0.4189290143
O  O8  1  0.59530000  0.96010000  0.28440000  1.0 -0.4189290143
O  O9  1  0.05850000  0.30950000  0.56680000  1.0 -0.3933583907
O  O10  1  0.30950000  0.05850000  0.93320000  1.0 -0.3933583907
O  O11  1  0.94150000  0.69050000  0.43320000  1.0 -0.3933583907
O  O12  1  0.69050000  0.94150000  0.06680000  1.0 -0.3933583907
