# DDEC6 charges by PACMAN v1.1 (https://github.com/mtap-research/PACMAN-charge/)
data_JOGHAR_FSR_pacman
_symmetry_space_group_name_H-M   'P 1'
_cell_length_a   12.37790000
_cell_length_b   13.45770000
_cell_length_c   26.91670000
_cell_angle_alpha   90.00000000
_cell_angle_beta   90.00000000
_cell_angle_gamma   90.00000000
_symmetry_Int_Tables_number   1
_chemical_formula_structural   CeH8C9(ClO3)3
_chemical_formula_sum   'Ce8 H64 C72 Cl24 O72'
_cell_volume   4483.73179761
_cell_formula_units_Z   8
loop_
 _symmetry_equiv_pos_site_id
 _symmetry_equiv_pos_as_xyz
  1  'x, y, z'
loop_
 _atom_site_type_symbol
 _atom_site_label
 _atom_site_symmetry_multiplicity
 _atom_site_fract_x
 _atom_site_fract_y
 _atom_site_fract_z
 _atom_site_occupancy
 _atom_site_charge
Ce  Ce1  1  0.25000000  0.43112000  0.72425000  1.0 1.9206223785
Ce  Ce2  1  0.25000000  0.06858000  0.44534000  1.0 1.9521578847
Ce  Ce3  1  0.25000000  0.56888000  0.22425000  1.0 1.9206223785
Ce  Ce4  1  0.25000000  0.93142000  0.94534000  1.0 1.9521578847
Ce  Ce5  1  0.75000000  0.56888000  0.27575000  1.0 1.9206223785
Ce  Ce6  1  0.75000000  0.93142000  0.55466000  1.0 1.9592567979
Ce  Ce7  1  0.75000000  0.43112000  0.77575000  1.0 1.9206223785
Ce  Ce8  1  0.75000000  0.06858000  0.05466000  1.0 1.9521578847
H  H1  1  0.47861000  0.37298000  0.70918000  1.0 0.3638140558
H  H2  1  0.48032000  0.47820000  0.70684000  1.0 0.3638140558
H  H3  1  0.00821000  0.07977000  0.44686000  1.0 0.3805537074
H  H4  1  0.03960000  0.12511000  0.49322000  1.0 0.3805537074
H  H5  1  0.21923000  0.60679000  0.66069000  1.0 0.2191472518
H  H6  1  0.21925000  0.89727000  0.51444000  1.0 0.1982065885
H  H7  1  0.20346000  0.85485000  0.46684000  1.0 0.1790562941
H  H8  1  0.21649000  0.64688000  0.71310000  1.0 0.2191472518
H  H9  1  0.02139000  0.62702000  0.20918000  1.0 0.3638140558
H  H10  1  0.01968000  0.52180000  0.20684000  1.0 0.3638140558
H  H11  1  0.49179000  0.92023000  0.94686000  1.0 0.3805537074
H  H12  1  0.46040000  0.87489000  0.99322000  1.0 0.3805537074
H  H13  1  0.28077000  0.39321000  0.16069000  1.0 0.2191472518
H  H14  1  0.28075000  0.10273000  0.01444000  1.0 0.1982065885
H  H15  1  0.29654000  0.14515000  0.96684000  1.0 0.1790562941
H  H16  1  0.28351000  0.35312000  0.21310000  1.0 0.2191472518
H  H17  1  0.02139000  0.37298000  0.70918000  1.0 0.3638140558
H  H18  1  0.01968000  0.47820000  0.70684000  1.0 0.3638140558
H  H19  1  0.49179000  0.07977000  0.44686000  1.0 0.3805537074
H  H20  1  0.46040000  0.12511000  0.49322000  1.0 0.3805537074
H  H21  1  0.28077000  0.60679000  0.66069000  1.0 0.2191472518
H  H22  1  0.28075000  0.89727000  0.51444000  1.0 0.1982065885
H  H23  1  0.29654000  0.85485000  0.46684000  1.0 0.1790562941
H  H24  1  0.28351000  0.64688000  0.71310000  1.0 0.2191472518
H  H25  1  0.47861000  0.62702000  0.20918000  1.0 0.3638140558
H  H26  1  0.48032000  0.52180000  0.20684000  1.0 0.3638140558
H  H27  1  0.00821000  0.92023000  0.94686000  1.0 0.3805537074
H  H28  1  0.03960000  0.87489000  0.99322000  1.0 0.3805537074
H  H29  1  0.21923000  0.39321000  0.16069000  1.0 0.2191472518
H  H30  1  0.21925000  0.10273000  0.01444000  1.0 0.1982065885
H  H31  1  0.20346000  0.14515000  0.96684000  1.0 0.1790562941
H  H32  1  0.21649000  0.35312000  0.21310000  1.0 0.2191472518
H  H33  1  0.97861000  0.62702000  0.29082000  1.0 0.3638140558
H  H34  1  0.98032000  0.52180000  0.29316000  1.0 0.3638140558
H  H35  1  0.50821000  0.92023000  0.55314000  1.0 0.3805537074
H  H36  1  0.53960000  0.87489000  0.50678000  1.0 0.3805537074
H  H37  1  0.71923000  0.39321000  0.33931000  1.0 0.2191472518
H  H38  1  0.71925000  0.10273000  0.48556000  1.0 0.1982065885
H  H39  1  0.70346000  0.14515000  0.53316000  1.0 0.1790562941
H  H40  1  0.71649000  0.35312000  0.28690000  1.0 0.2191472518
H  H41  1  0.52139000  0.37298000  0.79082000  1.0 0.3638140558
H  H42  1  0.51968000  0.47820000  0.79316000  1.0 0.3638140558
H  H43  1  0.99179000  0.07977000  0.05314000  1.0 0.3805537074
H  H44  1  0.96040000  0.12511000  0.00678000  1.0 0.3805537074
H  H45  1  0.78077000  0.60679000  0.83931000  1.0 0.2191472518
H  H46  1  0.78075000  0.89727000  0.98556000  1.0 0.1982065885
H  H47  1  0.79654000  0.85485000  0.03316000  1.0 0.1790562941
H  H48  1  0.78351000  0.64688000  0.78690000  1.0 0.2191472518
H  H49  1  0.52139000  0.62702000  0.29082000  1.0 0.3638140558
H  H50  1  0.51968000  0.52180000  0.29316000  1.0 0.3638140558
H  H51  1  0.99179000  0.92023000  0.55314000  1.0 0.3805537074
H  H52  1  0.96040000  0.87489000  0.50678000  1.0 0.3805537074
H  H53  1  0.78077000  0.39321000  0.33931000  1.0 0.2191472518
H  H54  1  0.78075000  0.10273000  0.48556000  1.0 0.1982065885
H  H55  1  0.79654000  0.14515000  0.53316000  1.0 0.1790562941
H  H56  1  0.78351000  0.35312000  0.28690000  1.0 0.2191472518
H  H57  1  0.97861000  0.37298000  0.79082000  1.0 0.3638140558
H  H58  1  0.98032000  0.47820000  0.79316000  1.0 0.3638140558
H  H59  1  0.50821000  0.07977000  0.05314000  1.0 0.3805537074
H  H60  1  0.53960000  0.12511000  0.00678000  1.0 0.3805537074
H  H61  1  0.71923000  0.60679000  0.83931000  1.0 0.2191472518
H  H62  1  0.71925000  0.89727000  0.98556000  1.0 0.1982065885
H  H63  1  0.70346000  0.85485000  0.03316000  1.0 0.1790562941
H  H64  1  0.71649000  0.64688000  0.78690000  1.0 0.2191472518
C  C1  1  0.31210000  0.75400000  0.30375000  1.0 0.2572612335
C  C2  1  0.31200000  0.89870000  0.35801000  1.0 0.2389605778
C  C3  1  0.13310000  0.66980000  0.84112000  1.0 -0.1187298609
C  C4  1  0.18780000  0.59800000  0.81372000  1.0 0.2337535619
C  C5  1  0.36650000  0.82920000  0.32938000  1.0 -0.1385225469
C  C6  1  0.18810000  0.74490000  0.86603000  1.0 0.2572612335
C  C7  1  0.18790000  0.24600000  0.80375000  1.0 0.2572612335
C  C8  1  0.18800000  0.10130000  0.85801000  1.0 0.2389605778
C  C9  1  0.36690000  0.33020000  0.34112000  1.0 -0.1187298609
C  C10  1  0.31220000  0.40200000  0.31372000  1.0 0.2337535619
C  C11  1  0.13350000  0.17080000  0.82938000  1.0 -0.1385225469
C  C12  1  0.31190000  0.25510000  0.36603000  1.0 0.2492705615
C  C13  1  0.18790000  0.75400000  0.30375000  1.0 0.2572612335
C  C14  1  0.18800000  0.89870000  0.35801000  1.0 0.2389605778
C  C15  1  0.36690000  0.66980000  0.84112000  1.0 -0.1187298609
C  C16  1  0.31220000  0.59800000  0.81372000  1.0 0.2337535619
C  C17  1  0.13350000  0.82920000  0.32938000  1.0 -0.1385225469
C  C18  1  0.31190000  0.74490000  0.86603000  1.0 0.2572612335
C  C19  1  0.31210000  0.24600000  0.80375000  1.0 0.2572612335
C  C20  1  0.31200000  0.10130000  0.85801000  1.0 0.2389605778
C  C21  1  0.13310000  0.33020000  0.34112000  1.0 -0.1187298609
C  C22  1  0.18780000  0.40200000  0.31372000  1.0 0.2337535619
C  C23  1  0.36650000  0.17080000  0.82938000  1.0 -0.1385225469
C  C24  1  0.18810000  0.25510000  0.36603000  1.0 0.2492705615
C  C25  1  0.25000000  0.35290000  0.60523000  1.0 0.2687538861
C  C26  1  0.25000000  0.25700000  0.63629000  1.0 0.2389605778
C  C27  1  0.25000000  0.34340000  0.55322000  1.0 -0.1331784316
C  C28  1  0.25000000  0.16440000  0.61287000  1.0 -0.1187298609
C  C29  1  0.25000000  0.25190000  0.52950000  1.0 0.2492705615
C  C30  1  0.25000000  0.15670000  0.56097000  1.0 0.2389605778
C  C31  1  0.25000000  0.64710000  0.10523000  1.0 0.2687538861
C  C32  1  0.25000000  0.74300000  0.13629000  1.0 0.2389605778
C  C33  1  0.25000000  0.65660000  0.05322000  1.0 -0.1331784316
C  C34  1  0.25000000  0.83560000  0.11287000  1.0 -0.1187298609
C  C35  1  0.25000000  0.74810000  0.02950000  1.0 0.2492705615
C  C36  1  0.25000000  0.84330000  0.06097000  1.0 0.2492705615
C  C37  1  0.81210000  0.24600000  0.69625000  1.0 0.2572612335
C  C38  1  0.81200000  0.10130000  0.64199000  1.0 0.2389605778
C  C39  1  0.63310000  0.33020000  0.15888000  1.0 -0.1187298609
C  C40  1  0.68780000  0.40200000  0.18628000  1.0 0.2337535619
C  C41  1  0.86650000  0.17080000  0.67062000  1.0 -0.1385225469
C  C42  1  0.68810000  0.25510000  0.13397000  1.0 0.2572612335
C  C43  1  0.68790000  0.75400000  0.19625000  1.0 0.2572612335
C  C44  1  0.68800000  0.89870000  0.14199000  1.0 0.2389605778
C  C45  1  0.86690000  0.66980000  0.65888000  1.0 -0.1187298609
C  C46  1  0.81220000  0.59800000  0.68628000  1.0 0.2337535619
C  C47  1  0.63350000  0.82920000  0.17062000  1.0 -0.1385225469
C  C48  1  0.81190000  0.74490000  0.63397000  1.0 0.2572612335
C  C49  1  0.68790000  0.24600000  0.69625000  1.0 0.2572612335
C  C50  1  0.68800000  0.10130000  0.64199000  1.0 0.2389605778
C  C51  1  0.86690000  0.33020000  0.15888000  1.0 -0.1187298609
C  C52  1  0.81220000  0.40200000  0.18628000  1.0 0.2337535619
C  C53  1  0.63350000  0.17080000  0.67062000  1.0 -0.1385225469
C  C54  1  0.81190000  0.25510000  0.13397000  1.0 0.2572612335
C  C55  1  0.81210000  0.75400000  0.19625000  1.0 0.2572612335
C  C56  1  0.81200000  0.89870000  0.14199000  1.0 0.2389605778
C  C57  1  0.63310000  0.66980000  0.65888000  1.0 -0.1187298609
C  C58  1  0.68780000  0.59800000  0.68628000  1.0 0.2337535619
C  C59  1  0.86650000  0.82920000  0.17062000  1.0 -0.1385225469
C  C60  1  0.68810000  0.74490000  0.63397000  1.0 0.2572612335
C  C61  1  0.75000000  0.64710000  0.39477000  1.0 0.2687538861
C  C62  1  0.75000000  0.74300000  0.36371000  1.0 0.2389605778
C  C63  1  0.75000000  0.65660000  0.44678000  1.0 -0.1331784316
C  C64  1  0.75000000  0.83560000  0.38713000  1.0 -0.1187298609
C  C65  1  0.75000000  0.74810000  0.47050000  1.0 0.2492705615
C  C66  1  0.75000000  0.84330000  0.43903000  1.0 0.2492705615
C  C67  1  0.75000000  0.35290000  0.89477000  1.0 0.2687538861
C  C68  1  0.75000000  0.25700000  0.86371000  1.0 0.2389605778
C  C69  1  0.75000000  0.34340000  0.94678000  1.0 -0.1331784316
C  C70  1  0.75000000  0.16440000  0.88713000  1.0 -0.1187298609
C  C71  1  0.75000000  0.25190000  0.97050000  1.0 0.2492705615
C  C72  1  0.75000000  0.15670000  0.93903000  1.0 0.2492705615
Cl  Cl1  1  0.99365000  0.66941000  0.84082000  1.0 -0.0908822437
Cl  Cl2  1  0.50602000  0.83234000  0.32688000  1.0 -0.0433669659
Cl  Cl3  1  0.50635000  0.33059000  0.34082000  1.0 -0.0908822437
Cl  Cl4  1  0.99398000  0.16766000  0.82688000  1.0 -0.0433669659
Cl  Cl5  1  0.50635000  0.66941000  0.84082000  1.0 -0.0908822437
Cl  Cl6  1  0.99398000  0.83234000  0.32688000  1.0 -0.0433669659
Cl  Cl7  1  0.99365000  0.33059000  0.34082000  1.0 -0.0908822437
Cl  Cl8  1  0.50602000  0.16766000  0.82688000  1.0 -0.0433669659
Cl  Cl9  1  0.25000000  0.05907000  0.64909000  1.0 -0.0908822437
Cl  Cl10  1  0.25000000  0.45087000  0.51703000  1.0 -0.0503113271
Cl  Cl11  1  0.25000000  0.94093000  0.14909000  1.0 -0.0908822437
Cl  Cl12  1  0.25000000  0.54913000  0.01703000  1.0 -0.0503113271
Cl  Cl13  1  0.49365000  0.33059000  0.15918000  1.0 -0.0908822437
Cl  Cl14  1  0.00602000  0.16766000  0.67312000  1.0 -0.0433669659
Cl  Cl15  1  0.00635000  0.66941000  0.65918000  1.0 -0.0908822437
Cl  Cl16  1  0.49398000  0.83234000  0.17312000  1.0 -0.0433669659
Cl  Cl17  1  0.00635000  0.33059000  0.15918000  1.0 -0.0908822437
Cl  Cl18  1  0.49398000  0.16766000  0.67312000  1.0 -0.0433669659
Cl  Cl19  1  0.49365000  0.66941000  0.65918000  1.0 -0.0908822437
Cl  Cl20  1  0.00602000  0.83234000  0.17312000  1.0 -0.0433669659
Cl  Cl21  1  0.75000000  0.94093000  0.35091000  1.0 -0.0908822437
Cl  Cl22  1  0.75000000  0.54913000  0.48297000  1.0 -0.0503113271
Cl  Cl23  1  0.75000000  0.05907000  0.85091000  1.0 -0.0908822437
Cl  Cl24  1  0.75000000  0.45087000  0.98297000  1.0 -0.0503113271
O  O1  1  0.14417000  0.53137000  0.78816000  1.0 -0.5101642178
O  O2  1  0.35609000  0.68482000  0.28009000  1.0 -0.4838457332
O  O3  1  0.35553000  0.96513000  0.38388000  1.0 -0.5025161134
O  O4  1  0.44602000  0.42498000  0.69681000  1.0 -0.7725767792
O  O5  1  0.14437000  0.81671000  0.88825000  1.0 -0.5101642178
O  O6  1  0.05250000  0.07355000  0.47299000  1.0 -0.760077946
O  O7  1  0.35583000  0.46863000  0.28816000  1.0 -0.5101642178
O  O8  1  0.14391000  0.31518000  0.78009000  1.0 -0.4838457332
O  O9  1  0.14447000  0.03487000  0.88388000  1.0 -0.5025161134
O  O10  1  0.05398000  0.57502000  0.19681000  1.0 -0.7725767792
O  O11  1  0.35563000  0.18329000  0.38825000  1.0 -0.5101642178
O  O12  1  0.44750000  0.92645000  0.97299000  1.0 -0.760077946
O  O13  1  0.35583000  0.53137000  0.78816000  1.0 -0.5101642178
O  O14  1  0.14391000  0.68482000  0.28009000  1.0 -0.4838457332
O  O15  1  0.14447000  0.96513000  0.38388000  1.0 -0.5025161134
O  O16  1  0.05398000  0.42498000  0.69681000  1.0 -0.7725767792
O  O17  1  0.35563000  0.81671000  0.88825000  1.0 -0.5101642178
O  O18  1  0.44750000  0.07355000  0.47299000  1.0 -0.760077946
O  O19  1  0.14417000  0.46863000  0.28816000  1.0 -0.5101642178
O  O20  1  0.35609000  0.31518000  0.78009000  1.0 -0.4838457332
O  O21  1  0.35553000  0.03487000  0.88388000  1.0 -0.5025161134
O  O22  1  0.44602000  0.57502000  0.19681000  1.0 -0.7725767792
O  O23  1  0.14437000  0.18329000  0.38825000  1.0 -0.5101642178
O  O24  1  0.05250000  0.92645000  0.97299000  1.0 -0.760077946
O  O25  1  0.25000000  0.43250000  0.62888000  1.0 -0.4888892026
O  O26  1  0.25000000  0.26930000  0.68295000  1.0 -0.5101642178
O  O27  1  0.25000000  0.07660000  0.53768000  1.0 -0.5178691895
O  O28  1  0.25000000  0.23840000  0.48342000  1.0 -0.5178691895
O  O29  1  0.25000000  0.60170000  0.69206000  1.0 -0.6014497431
O  O30  1  0.25000000  0.89920000  0.48300000  1.0 -0.5662601293
O  O31  1  0.25000000  0.56750000  0.12888000  1.0 -0.4888892026
O  O32  1  0.25000000  0.73070000  0.18295000  1.0 -0.5101642178
O  O33  1  0.25000000  0.92340000  0.03768000  1.0 -0.5178691895
O  O34  1  0.25000000  0.76160000  0.98342000  1.0 -0.5178691895
O  O35  1  0.25000000  0.39830000  0.19206000  1.0 -0.6014497431
O  O36  1  0.25000000  0.10080000  0.98300000  1.0 -0.5662601293
O  O37  1  0.64417000  0.46863000  0.21184000  1.0 -0.5101642178
O  O38  1  0.85609000  0.31518000  0.71991000  1.0 -0.4838457332
O  O39  1  0.85553000  0.03487000  0.61612000  1.0 -0.5025161134
O  O40  1  0.94602000  0.57502000  0.30319000  1.0 -0.7725767792
O  O41  1  0.64437000  0.18329000  0.11175000  1.0 -0.5101642178
O  O42  1  0.55250000  0.92645000  0.52701000  1.0 -0.760077946
O  O43  1  0.85583000  0.53137000  0.71184000  1.0 -0.5101642178
O  O44  1  0.64391000  0.68482000  0.21991000  1.0 -0.4838457332
O  O45  1  0.64447000  0.96513000  0.11612000  1.0 -0.5025161134
O  O46  1  0.55398000  0.42498000  0.80319000  1.0 -0.7725767792
O  O47  1  0.85563000  0.81671000  0.61175000  1.0 -0.5101642178
O  O48  1  0.94750000  0.07355000  0.02701000  1.0 -0.760077946
O  O49  1  0.85583000  0.46863000  0.21184000  1.0 -0.5101642178
O  O50  1  0.64391000  0.31518000  0.71991000  1.0 -0.4838457332
O  O51  1  0.64447000  0.03487000  0.61612000  1.0 -0.5025161134
O  O52  1  0.55398000  0.57502000  0.30319000  1.0 -0.7725767792
O  O53  1  0.85563000  0.18329000  0.11175000  1.0 -0.5101642178
O  O54  1  0.94750000  0.92645000  0.52701000  1.0 -0.760077946
O  O55  1  0.64417000  0.53137000  0.71184000  1.0 -0.5101642178
O  O56  1  0.85609000  0.68482000  0.21991000  1.0 -0.4838457332
O  O57  1  0.85553000  0.96513000  0.11612000  1.0 -0.5025161134
O  O58  1  0.94602000  0.42498000  0.80319000  1.0 -0.7725767792
O  O59  1  0.64437000  0.81671000  0.61175000  1.0 -0.5101642178
O  O60  1  0.55250000  0.07355000  0.02701000  1.0 -0.760077946
O  O61  1  0.75000000  0.56750000  0.37112000  1.0 -0.4888892026
O  O62  1  0.75000000  0.73070000  0.31705000  1.0 -0.5101642178
O  O63  1  0.75000000  0.92340000  0.46232000  1.0 -0.5178691895
O  O64  1  0.75000000  0.76160000  0.51658000  1.0 -0.5178691895
O  O65  1  0.75000000  0.39830000  0.30794000  1.0 -0.6014497431
O  O66  1  0.75000000  0.10080000  0.51700000  1.0 -0.5662601293
O  O67  1  0.75000000  0.43250000  0.87112000  1.0 -0.4888892026
O  O68  1  0.75000000  0.26930000  0.81705000  1.0 -0.5101642178
O  O69  1  0.75000000  0.07660000  0.96232000  1.0 -0.5178691895
O  O70  1  0.75000000  0.23840000  0.01658000  1.0 -0.5178691895
O  O71  1  0.75000000  0.60170000  0.80794000  1.0 -0.6014497431
O  O72  1  0.75000000  0.89920000  0.01700000  1.0 -0.5662601293
