# DDEC6 charges by PACMAN v1.1 (https://github.com/mtap-research/PACMAN-charge/)
data_JOGRUT_ASR_pacman
_symmetry_space_group_name_H-M   'P 1'
_cell_length_a   15.18320000
_cell_length_b   24.74990000
_cell_length_c   15.33080000
_cell_angle_alpha   90.00000000
_cell_angle_beta   111.33800000
_cell_angle_gamma   90.00000000
_symmetry_Int_Tables_number   1
_chemical_formula_structural   CoPH14W9C16N3O26
_chemical_formula_sum   'Co4 P4 H56 W36 C64 N12 O104'
_cell_volume   5366.12982495
_cell_formula_units_Z   4
loop_
 _symmetry_equiv_pos_site_id
 _symmetry_equiv_pos_as_xyz
  1  'x, y, z'
loop_
 _atom_site_type_symbol
 _atom_site_label
 _atom_site_symmetry_multiplicity
 _atom_site_fract_x
 _atom_site_fract_y
 _atom_site_fract_z
 _atom_site_occupancy
 _atom_site_charge
Co  Co1  1  0.39763000  0.47944000  0.60971000  1.0 0.6761968136
Co  Co2  1  0.60237000  0.97944000  0.39029000  1.0 0.6761968136
Co  Co3  1  0.60237000  0.52056000  0.39029000  1.0 0.6761968136
Co  Co4  1  0.39763000  0.02056000  0.60971000  1.0 0.6761968136
P  P1  1  0.72700000  0.25000000  0.13320000  1.0 1.316868782
P  P2  1  0.00430000  0.25000000  0.19770000  1.0 1.2868674397
P  P3  1  0.27300000  0.75000000  0.86680000  1.0 1.3099336624
P  P4  1  0.99570000  0.75000000  0.80230000  1.0 1.2868674397
H  H1  1  0.26420000  0.38260000  0.57050000  1.0 0.0674090404
H  H2  1  0.73580000  0.88260000  0.42950000  1.0 0.0674090404
H  H3  1  0.73580000  0.61740000  0.42950000  1.0 0.0674090404
H  H4  1  0.26420000  0.11740000  0.57050000  1.0 0.0674090404
H  H5  1  0.26160000  0.29000000  0.55640000  1.0 0.1130122716
H  H6  1  0.73840000  0.79000000  0.44360000  1.0 0.1130122716
H  H7  1  0.73840000  0.71000000  0.44360000  1.0 0.1130122716
H  H8  1  0.26160000  0.21000000  0.55640000  1.0 0.1130122716
H  H9  1  0.53950000  0.29350000  0.67980000  1.0 0.0986588373
H  H10  1  0.46050000  0.79350000  0.32020000  1.0 0.0986588373
H  H11  1  0.46050000  0.70650000  0.32020000  1.0 0.0986588373
H  H12  1  0.53950000  0.20650000  0.67980000  1.0 0.0986588373
H  H13  1  0.53200000  0.38560000  0.66560000  1.0 0.0786354243
H  H14  1  0.46800000  0.88560000  0.33440000  1.0 0.0786354243
H  H15  1  0.46800000  0.61440000  0.33440000  1.0 0.0786354243
H  H16  1  0.53200000  0.11440000  0.66560000  1.0 0.0786354243
H  H17  1  0.37420000  0.41580000  0.78040000  1.0 0.0786354243
H  H18  1  0.62580000  0.91580000  0.21960000  1.0 0.0786354243
H  H19  1  0.62580000  0.58420000  0.21960000  1.0 0.0786354243
H  H20  1  0.37420000  0.08420000  0.78040000  1.0 0.0786354243
H  H21  1  0.41140000  0.42710000  0.93460000  1.0 0.1130122716
H  H22  1  0.58860000  0.92710000  0.06540000  1.0 0.1130122716
H  H23  1  0.58860000  0.57290000  0.06540000  1.0 0.1130122716
H  H24  1  0.41140000  0.07290000  0.93460000  1.0 0.1130122716
H  H25  1  0.56340000  0.55570000  0.92510000  1.0 0.0986588373
H  H26  1  0.43660000  0.05570000  0.07490000  1.0 0.0986588373
H  H27  1  0.43660000  0.44430000  0.07490000  1.0 0.0986588373
H  H28  1  0.56340000  0.94430000  0.92510000  1.0 0.0986588373
H  H29  1  0.52480000  0.54230000  0.76910000  1.0 0.0786354243
H  H30  1  0.47520000  0.04230000  0.23090000  1.0 0.0786354243
H  H31  1  0.47520000  0.45770000  0.23090000  1.0 0.0786354243
H  H32  1  0.52480000  0.95770000  0.76910000  1.0 0.0786354243
H  H33  1  0.21670000  0.46000000  0.44390000  1.0 0.0918908268
H  H34  1  0.78330000  0.96000000  0.55610000  1.0 0.0918908268
H  H35  1  0.78330000  0.54000000  0.55610000  1.0 0.0918908268
H  H36  1  0.21670000  0.04000000  0.44390000  1.0 0.0918908268
H  H37  1  0.05590000  0.46630000  0.39580000  1.0 0.0986588373
H  H38  1  0.94410000  0.96630000  0.60420000  1.0 0.0986588373
H  H39  1  0.94410000  0.53370000  0.60420000  1.0 0.0986588373
H  H40  1  0.05590000  0.03370000  0.39580000  1.0 0.0986588373
H  H41  1  0.08650000  0.52830000  0.64540000  1.0 0.1130122716
H  H42  1  0.91350000  0.02830000  0.35460000  1.0 0.1130122716
H  H43  1  0.91350000  0.47170000  0.35460000  1.0 0.1130122716
H  H44  1  0.08650000  0.97170000  0.64540000  1.0 0.1130122716
H  H45  1  0.24860000  0.51450000  0.68940000  1.0 0.0595221556
H  H46  1  0.75140000  0.01450000  0.31060000  1.0 0.0595221556
H  H47  1  0.75140000  0.48550000  0.31060000  1.0 0.0595221556
H  H48  1  0.24860000  0.98550000  0.68940000  1.0 0.0595221556
H  H49  1  0.43410000  0.59070000  0.61850000  1.0 0.3373266756
H  H50  1  0.56590000  0.09070000  0.38150000  1.0 0.3373266756
H  H51  1  0.56590000  0.40930000  0.38150000  1.0 0.3373266756
H  H52  1  0.43410000  0.90930000  0.61850000  1.0 0.3373266756
H  H53  1  0.34760000  0.57430000  0.62570000  1.0 0.3317267894
H  H54  1  0.65240000  0.07430000  0.37430000  1.0 0.3317267894
H  H55  1  0.65240000  0.42570000  0.37430000  1.0 0.3317267894
H  H56  1  0.34760000  0.92570000  0.62570000  1.0 0.3317267894
W  W1  1  0.50200000  0.25000000  0.95066000  1.0 2.3598054647
W  W2  1  0.52979000  0.18183000  0.15088000  1.0 2.3509206772
W  W3  1  0.52979000  0.31817000  0.15088000  1.0 2.3509206772
W  W4  1  0.70504000  0.17555000  0.92947000  1.0 2.422581315
W  W5  1  0.70504000  0.32445000  0.92947000  1.0 2.422581315
W  W6  1  0.73203000  0.10766000  0.12714000  1.0 2.2908948659
W  W7  1  0.73203000  0.39234000  0.12714000  1.0 2.2908948659
W  W8  1  0.76401000  0.18205000  0.34372000  1.0 2.4018095732
W  W9  1  0.76401000  0.31795000  0.34372000  1.0 2.4018095732
W  W10  1  0.96894000  0.17566000  0.99155000  1.0 2.4831362366
W  W11  1  0.96894000  0.32434000  0.99155000  1.0 2.4831362366
W  W12  1  0.99521000  0.10753000  0.18850000  1.0 2.4432333707
W  W13  1  0.99521000  0.39247000  0.18850000  1.0 2.4432333707
W  W14  1  0.02653000  0.18215000  0.40577000  1.0 2.3509206772
W  W15  1  0.02653000  0.31785000  0.40577000  1.0 2.3509206772
W  W16  1  0.19248000  0.25000000  0.11186000  1.0 2.422581315
W  W17  1  0.21808000  0.18166000  0.31026000  1.0 2.3894242048
W  W18  1  0.21808000  0.31834000  0.31026000  1.0 2.3894242048
W  W19  1  0.49800000  0.75000000  0.04934000  1.0 2.3716486692
W  W20  1  0.47021000  0.68183000  0.84912000  1.0 2.3509206772
W  W21  1  0.47021000  0.81817000  0.84912000  1.0 2.3509206772
W  W22  1  0.29496000  0.67555000  0.07053000  1.0 2.422581315
W  W23  1  0.29496000  0.82445000  0.07053000  1.0 2.422581315
W  W24  1  0.26797000  0.60766000  0.87286000  1.0 2.2908948659
W  W25  1  0.26797000  0.89234000  0.87286000  1.0 2.2908948659
W  W26  1  0.23599000  0.68205000  0.65628000  1.0 2.4018095732
W  W27  1  0.23599000  0.81795000  0.65628000  1.0 2.4018095732
W  W28  1  0.03106000  0.67566000  0.00845000  1.0 2.4831362366
W  W29  1  0.03106000  0.82434000  0.00845000  1.0 2.4831362366
W  W30  1  0.00479000  0.60753000  0.81150000  1.0 2.4432333707
W  W31  1  0.00479000  0.89247000  0.81150000  1.0 2.4432333707
W  W32  1  0.97347000  0.68215000  0.59423000  1.0 2.3509206772
W  W33  1  0.97347000  0.81785000  0.59423000  1.0 2.3509206772
W  W34  1  0.80752000  0.75000000  0.88814000  1.0 2.422581315
W  W35  1  0.78192000  0.68166000  0.68974000  1.0 2.3894242048
W  W36  1  0.78192000  0.81834000  0.68974000  1.0 2.3894242048
C  C1  1  0.32160000  0.36440000  0.58700000  1.0 0.0595221556
C  C2  1  0.67840000  0.86440000  0.41300000  1.0 0.0595221556
C  C3  1  0.67840000  0.63560000  0.41300000  1.0 0.0595221556
C  C4  1  0.32160000  0.13560000  0.58700000  1.0 0.0595221556
C  C5  1  0.31880000  0.30800000  0.58350000  1.0 -0.2350335717
C  C6  1  0.68120000  0.80800000  0.41650000  1.0 -0.2308696985
C  C7  1  0.68120000  0.69200000  0.41650000  1.0 -0.2308696985
C  C8  1  0.31880000  0.19200000  0.58350000  1.0 -0.2350335717
C  C9  1  0.40140000  0.27990000  0.62060000  1.0 0.0786354243
C  C10  1  0.59860000  0.77990000  0.37940000  1.0 0.0786354243
C  C11  1  0.59860000  0.72010000  0.37940000  1.0 0.0786354243
C  C12  1  0.40140000  0.22010000  0.62060000  1.0 0.0786354243
C  C13  1  0.48100000  0.31020000  0.65260000  1.0 -0.2308696985
C  C14  1  0.51900000  0.81020000  0.34740000  1.0 -0.2308696985
C  C15  1  0.51900000  0.68980000  0.34740000  1.0 -0.2308696985
C  C16  1  0.48100000  0.18980000  0.65260000  1.0 -0.2308696985
C  C17  1  0.47570000  0.36620000  0.64510000  1.0 0.0595221556
C  C18  1  0.52430000  0.86620000  0.35490000  1.0 0.0595221556
C  C19  1  0.52430000  0.63380000  0.35490000  1.0 0.0595221556
C  C20  1  0.47570000  0.13380000  0.64510000  1.0 0.0595221556
C  C21  1  0.41230000  0.44490000  0.80950000  1.0 0.0334619041
C  C22  1  0.58770000  0.94490000  0.19050000  1.0 0.0334619041
C  C23  1  0.58770000  0.55510000  0.19050000  1.0 0.0334619041
C  C24  1  0.41230000  0.05510000  0.80950000  1.0 0.0334619041
C  C25  1  0.43460000  0.45160000  0.90230000  1.0 -0.2175055531
C  C26  1  0.56540000  0.95160000  0.09770000  1.0 -0.2175055531
C  C27  1  0.56540000  0.54840000  0.09770000  1.0 -0.2175055531
C  C28  1  0.43460000  0.04840000  0.90230000  1.0 -0.2175055531
C  C29  1  0.49110000  0.49400000  0.95130000  1.0 0.0674090404
C  C30  1  0.50890000  0.99400000  0.04870000  1.0 0.0674090404
C  C31  1  0.50890000  0.50600000  0.04870000  1.0 0.0674090404
C  C32  1  0.49110000  0.00600000  0.95130000  1.0 0.0674090404
C  C33  1  0.52380000  0.52700000  0.89660000  1.0 -0.2175055531
C  C34  1  0.47620000  0.02700000  0.10340000  1.0 -0.2175055531
C  C35  1  0.47620000  0.47300000  0.10340000  1.0 -0.2175055531
C  C36  1  0.52380000  0.97300000  0.89660000  1.0 -0.2175055531
C  C37  1  0.50030000  0.51910000  0.80230000  1.0 0.0405330211
C  C38  1  0.49970000  0.01910000  0.19770000  1.0 0.0405330211
C  C39  1  0.49970000  0.48090000  0.19770000  1.0 0.0405330211
C  C40  1  0.50030000  0.98090000  0.80230000  1.0 0.0405330211
C  C41  1  0.19040000  0.47270000  0.48610000  1.0 0.0595221556
C  C42  1  0.80960000  0.97270000  0.51390000  1.0 0.0595221556
C  C43  1  0.80960000  0.52730000  0.51390000  1.0 0.0595221556
C  C44  1  0.19040000  0.02730000  0.48610000  1.0 0.0595221556
C  C45  1  0.09330000  0.47720000  0.45600000  1.0 -0.2308696985
C  C46  1  0.90670000  0.97720000  0.54400000  1.0 -0.2308696985
C  C47  1  0.90670000  0.52280000  0.54400000  1.0 -0.2308696985
C  C48  1  0.09330000  0.02280000  0.45600000  1.0 -0.2308696985
C  C49  1  0.05220000  0.49760000  0.51500000  1.0 0.0786354243
C  C50  1  0.94780000  0.99760000  0.48500000  1.0 0.0786354243
C  C51  1  0.94780000  0.50240000  0.48500000  1.0 0.0786354243
C  C52  1  0.05220000  0.00240000  0.51500000  1.0 0.0786354243
C  C53  1  0.11100000  0.51310000  0.60360000  1.0 -0.2175055531
C  C54  1  0.88900000  0.01310000  0.39640000  1.0 -0.2175055531
C  C55  1  0.88900000  0.48690000  0.39640000  1.0 -0.2175055531
C  C56  1  0.11100000  0.98690000  0.60360000  1.0 -0.2175055531
C  C57  1  0.20920000  0.50530000  0.62900000  1.0 0.0595221556
C  C58  1  0.79080000  0.00530000  0.37100000  1.0 0.0595221556
C  C59  1  0.79080000  0.49470000  0.37100000  1.0 0.0595221556
C  C60  1  0.20920000  0.99470000  0.62900000  1.0 0.0595221556
C  C61  1  0.45330000  0.49820000  0.45550000  1.0 0.429832071
C  C62  1  0.54670000  0.99820000  0.54450000  1.0 0.429832071
C  C63  1  0.54670000  0.50180000  0.54450000  1.0 0.429832071
C  C64  1  0.45330000  0.00180000  0.45550000  1.0 0.429832071
N  N1  1  0.39660000  0.39310000  0.61100000  1.0 -0.2716651336
N  N2  1  0.60340000  0.89310000  0.38900000  1.0 -0.2716651336
N  N3  1  0.60340000  0.60690000  0.38900000  1.0 -0.2716651336
N  N4  1  0.39660000  0.10690000  0.61100000  1.0 -0.2716651336
N  N5  1  0.44270000  0.47850000  0.75630000  1.0 -0.2970281244
N  N6  1  0.55730000  0.97850000  0.24370000  1.0 -0.2970281244
N  N7  1  0.55730000  0.52150000  0.24370000  1.0 -0.2970281244
N  N8  1  0.44270000  0.02150000  0.75630000  1.0 -0.2970281244
N  N9  1  0.24800000  0.48560000  0.57150000  1.0 -0.281043455
N  N10  1  0.75200000  0.98560000  0.42850000  1.0 -0.281043455
N  N11  1  0.75200000  0.51440000  0.42850000  1.0 -0.281043455
N  N12  1  0.24800000  0.01440000  0.57150000  1.0 -0.281043455
O  O1  1  0.46130000  0.51130000  0.37950000  1.0 -0.5413377881
O  O2  1  0.53870000  0.01130000  0.62050000  1.0 -0.5413377881
O  O3  1  0.53870000  0.48870000  0.62050000  1.0 -0.5413377881
O  O4  1  0.46130000  0.98870000  0.37950000  1.0 -0.5413377881
O  O5  1  0.38010000  0.48380000  0.46730000  1.0 -0.5264286027
O  O6  1  0.61990000  0.98380000  0.53270000  1.0 -0.5264286027
O  O7  1  0.61990000  0.51620000  0.53270000  1.0 -0.5264286027
O  O8  1  0.38010000  0.01620000  0.46730000  1.0 -0.5264286027
O  O9  1  0.39340000  0.56570000  0.60920000  1.0 -0.6776777358
O  O10  1  0.60660000  0.06570000  0.39080000  1.0 -0.6776777358
O  O11  1  0.60660000  0.43430000  0.39080000  1.0 -0.6776777358
O  O12  1  0.39340000  0.93430000  0.60920000  1.0 -0.6776777358
O  O13  1  0.46420000  0.19620000  0.02220000  1.0 -1.000308017
O  O14  1  0.46420000  0.30380000  0.02220000  1.0 -1.000308017
O  O15  1  0.48660000  0.25000000  0.17910000  1.0 -0.9566076994
O  O16  1  0.58230000  0.19770000  0.92890000  1.0 -0.9912501249
O  O17  1  0.58230000  0.30230000  0.92890000  1.0 -0.9912501249
O  O18  1  0.61610000  0.25000000  0.10560000  1.0 -1.0704156757
O  O19  1  0.60990000  0.13350000  0.11760000  1.0 -0.97231986
O  O20  1  0.60990000  0.36650000  0.11760000  1.0 -0.97231986
O  O21  1  0.63190000  0.18610000  0.26790000  1.0 -0.9912501249
O  O22  1  0.63190000  0.31390000  0.26790000  1.0 -0.9912501249
O  O23  1  0.72590000  0.25000000  0.91180000  1.0 -0.9822835028
O  O24  1  0.69750000  0.11130000  0.99590000  1.0 -0.9383961473
O  O25  1  0.69750000  0.38870000  0.99590000  1.0 -0.9383961473
O  O26  1  0.75090000  0.19890000  0.08980000  1.0 -0.926958859
O  O27  1  0.75090000  0.30110000  0.08980000  1.0 -0.926958859
O  O28  1  0.77450000  0.13390000  0.25230000  1.0 -0.9383961473
O  O29  1  0.77450000  0.36610000  0.25230000  1.0 -0.9383961473
O  O30  1  0.77200000  0.25000000  0.23810000  1.0 -0.8990083635
O  O31  1  0.75590000  0.13920000  0.42780000  1.0 -0.7162330151
O  O32  1  0.75590000  0.36080000  0.42780000  1.0 -0.7162330151
O  O33  1  0.75500000  0.25000000  0.40000000  1.0 -0.97231986
O  O34  1  0.83780000  0.16430000  0.96540000  1.0 -1.0217266679
O  O35  1  0.83780000  0.33570000  0.96540000  1.0 -1.0217266679
O  O36  1  0.86260000  0.10350000  0.13900000  1.0 -0.97231986
O  O37  1  0.86260000  0.39650000  0.13900000  1.0 -0.97231986
O  O38  1  0.89780000  0.18960000  0.39030000  1.0 -0.9383961473
O  O39  1  0.89780000  0.31040000  0.39030000  1.0 -0.9383961473
O  O40  1  0.94060000  0.25000000  0.96530000  1.0 -1.000308017
O  O41  1  0.99650000  0.11130000  0.06540000  1.0 -1.0290248593
O  O42  1  0.99650000  0.38870000  0.06540000  1.0 -1.0290248593
O  O43  1  0.96560000  0.19870000  0.13980000  1.0 -0.9172729254
O  O44  1  0.96560000  0.30130000  0.13980000  1.0 -0.9172729254
O  O45  1  0.98980000  0.13300000  0.30400000  1.0 -0.97231986
O  O46  1  0.98980000  0.36700000  0.30400000  1.0 -0.97231986
O  O47  1  0.98750000  0.25000000  0.29070000  1.0 -0.9383961473
O  O48  1  0.05460000  0.25000000  0.47130000  1.0 -0.9912501249
O  O49  1  0.09790000  0.19810000  0.05030000  1.0 -1.060921073
O  O50  1  0.09790000  0.30190000  0.05030000  1.0 -1.060921073
O  O51  1  0.11430000  0.25000000  0.22140000  1.0 -1.060921073
O  O52  1  0.12470000  0.13460000  0.23440000  1.0 -0.9912501249
O  O53  1  0.12470000  0.36540000  0.23440000  1.0 -0.9912501249
O  O54  1  0.14600000  0.18610000  0.38710000  1.0 -0.9912501249
O  O55  1  0.14600000  0.31390000  0.38710000  1.0 -0.9912501249
O  O56  1  0.25430000  0.19590000  0.20520000  1.0 -0.9912501249
O  O57  1  0.25430000  0.30410000  0.20520000  1.0 -0.9912501249
O  O58  1  0.27640000  0.25000000  0.36130000  1.0 -0.97231986
O  O59  1  0.53580000  0.69620000  0.97780000  1.0 -1.000308017
O  O60  1  0.53580000  0.80380000  0.97780000  1.0 -1.000308017
O  O61  1  0.51340000  0.75000000  0.82090000  1.0 -0.9566076994
O  O62  1  0.41770000  0.69770000  0.07110000  1.0 -0.9912501249
O  O63  1  0.41770000  0.80230000  0.07110000  1.0 -0.9912501249
O  O64  1  0.38390000  0.75000000  0.89440000  1.0 -1.0704156757
O  O65  1  0.39010000  0.63350000  0.88240000  1.0 -0.97231986
O  O66  1  0.39010000  0.86650000  0.88240000  1.0 -0.97231986
O  O67  1  0.36810000  0.68610000  0.73210000  1.0 -0.9912501249
O  O68  1  0.36810000  0.81390000  0.73210000  1.0 -0.9912501249
O  O69  1  0.27410000  0.75000000  0.08820000  1.0 -0.9822835028
O  O70  1  0.30250000  0.61130000  0.00410000  1.0 -0.9383961473
O  O71  1  0.30250000  0.88870000  0.00410000  1.0 -0.9383961473
O  O72  1  0.24910000  0.69890000  0.91020000  1.0 -0.926958859
O  O73  1  0.24910000  0.80110000  0.91020000  1.0 -0.926958859
O  O74  1  0.22550000  0.63390000  0.74770000  1.0 -0.9383961473
O  O75  1  0.22550000  0.86610000  0.74770000  1.0 -0.9383961473
O  O76  1  0.22800000  0.75000000  0.76190000  1.0 -0.8990083635
O  O77  1  0.24410000  0.63920000  0.57220000  1.0 -0.7162330151
O  O78  1  0.24410000  0.86080000  0.57220000  1.0 -0.7162330151
O  O79  1  0.24500000  0.75000000  0.60000000  1.0 -0.97231986
O  O80  1  0.16220000  0.66430000  0.03460000  1.0 -1.0290248593
O  O81  1  0.16220000  0.83570000  0.03460000  1.0 -1.0290248593
O  O82  1  0.13740000  0.60350000  0.86100000  1.0 -0.97231986
O  O83  1  0.13740000  0.89650000  0.86100000  1.0 -0.97231986
O  O84  1  0.10220000  0.68960000  0.60970000  1.0 -0.9383961473
O  O85  1  0.10220000  0.81040000  0.60970000  1.0 -0.9383961473
O  O86  1  0.05940000  0.75000000  0.03470000  1.0 -1.000308017
O  O87  1  0.00350000  0.61130000  0.93460000  1.0 -1.0290248593
O  O88  1  0.00350000  0.88870000  0.93460000  1.0 -1.0290248593
O  O89  1  0.03440000  0.69870000  0.86020000  1.0 -0.9172729254
O  O90  1  0.03440000  0.80130000  0.86020000  1.0 -0.9172729254
O  O91  1  0.01020000  0.63300000  0.69600000  1.0 -0.97231986
O  O92  1  0.01020000  0.86700000  0.69600000  1.0 -0.97231986
O  O93  1  0.01250000  0.75000000  0.70930000  1.0 -0.9383961473
O  O94  1  0.94540000  0.75000000  0.52870000  1.0 -0.9912501249
O  O95  1  0.90210000  0.69810000  0.94970000  1.0 -1.060921073
O  O96  1  0.90210000  0.80190000  0.94970000  1.0 -1.060921073
O  O97  1  0.88570000  0.75000000  0.77860000  1.0 -1.060921073
O  O98  1  0.87530000  0.63460000  0.76560000  1.0 -0.9912501249
O  O99  1  0.87530000  0.86540000  0.76560000  1.0 -0.9912501249
O  O100  1  0.85400000  0.68610000  0.61290000  1.0 -0.9912501249
O  O101  1  0.85400000  0.81390000  0.61290000  1.0 -0.9912501249
O  O102  1  0.74570000  0.69590000  0.79480000  1.0 -0.9912501249
O  O103  1  0.74570000  0.80410000  0.79480000  1.0 -0.9912501249
O  O104  1  0.72360000  0.75000000  0.63870000  1.0 -0.97231986
