# DDEC6 charges by PACMAN v1.1 (https://github.com/mtap-research/PACMAN-charge/)
data_JOHSIJ_ion_pacman
_symmetry_space_group_name_H-M   'P 1'
_cell_length_a   9.01500000
_cell_length_b   9.47390000
_cell_length_c   19.73730000
_cell_angle_alpha   88.96400000
_cell_angle_beta   78.93800000
_cell_angle_gamma   85.48900000
_symmetry_Int_Tables_number   1
_chemical_formula_structural   Al6P7H12C6(NO14)2
_chemical_formula_sum   'Al12 P14 H24 C12 N4 O56'
_cell_volume   1649.25489643
_cell_formula_units_Z   2
loop_
 _symmetry_equiv_pos_site_id
 _symmetry_equiv_pos_as_xyz
  1  'x, y, z'
loop_
 _atom_site_type_symbol
 _atom_site_label
 _atom_site_symmetry_multiplicity
 _atom_site_fract_x
 _atom_site_fract_y
 _atom_site_fract_z
 _atom_site_occupancy
 _atom_site_charge
Al  Al1  1  0.15988000  0.63639000  0.02591000  1.0 1.7378020923
Al  Al2  1  0.84012000  0.36361000  0.97409000  1.0 1.7378020923
Al  Al3  1  0.72449000  0.88045000  0.10985000  1.0 1.7378020923
Al  Al4  1  0.27551000  0.11955000  0.89015000  1.0 1.7378020923
Al  Al5  1  0.14973000  0.84515000  0.29312000  1.0 1.7378020923
Al  Al6  1  0.85027000  0.15485000  0.70688000  1.0 1.7378020923
Al  Al7  1  0.26612000  0.89300000  0.49047000  1.0 1.8080819588
Al  Al8  1  0.73388000  0.10700000  0.50953000  1.0 1.8080819588
Al  Al9  1  0.14981000  0.32512000  0.45137000  1.0 1.7378020923
Al  Al10  1  0.85019000  0.67488000  0.54863000  1.0 1.7378020923
Al  Al11  1  0.29180000  0.05933000  0.09872000  1.0 1.7806861143
Al  Al12  1  0.70820000  0.94067000  0.90128000  1.0 1.7806861143
P  P1  1  0.44837000  0.15512000  0.43532000  1.0 1.6116893928
P  P2  1  0.55163000  0.84488000  0.56468000  1.0 1.6116893928
P  P3  1  0.44140000  0.94901000  0.21998000  1.0 1.5882534127
P  P4  1  0.55860000  0.05099000  0.78002000  1.0 1.5882534127
P  P5  1  0.13438000  0.64856000  0.42451000  1.0 1.6116893928
P  P6  1  0.86562000  0.35144000  0.57549000  1.0 1.6116893928
P  P7  1  0.03316000  0.06567000  0.39997000  1.0 1.603502069
P  P8  1  0.96684000  0.93433000  0.60003000  1.0 1.603502069
P  P9  1  0.37925000  0.85852000  0.96883000  1.0 1.6243381243
P  P10  1  0.62075000  0.14148000  0.03117000  1.0 1.6297019065
P  P11  1  0.04227000  0.83409000  0.15265000  1.0 1.6429073553
P  P12  1  0.95773000  0.16591000  0.84735000  1.0 1.6429073553
P  P13  1  0.84205000  0.68875000  0.97960000  1.0 1.6297019065
P  P14  1  0.15795000  0.31125000  0.02040000  1.0 1.6297019065
H  H1  1  0.52800000  0.10800000  0.34100000  1.0 0.3994591873
H  H2  1  0.47200000  0.89200000  0.65900000  1.0 0.3994591873
H  H3  1  0.55630000  0.23160000  0.21070000  1.0 0.1589362185
H  H4  1  0.96700000  0.23540000  0.20230000  1.0 0.1589362185
H  H5  1  0.83710000  0.17690000  0.25750000  1.0 0.1589362185
H  H6  1  0.86390000  0.12510000  0.18080000  1.0 0.1589362185
H  H7  1  0.88520000  0.49740000  0.17180000  1.0 0.1790747236
H  H8  1  0.38340000  0.56280000  0.15600000  1.0 0.1197870451
H  H9  1  0.38320000  0.40810000  0.12840000  1.0 0.1298888441
H  H10  1  0.61560000  0.61930000  0.15570000  1.0 0.1589362185
H  H11  1  0.18610000  0.44020000  0.21770000  1.0 0.1506511809
H  H12  1  0.30730000  0.33430000  0.24260000  1.0 0.1506511809
H  H13  1  0.29120000  0.49360000  0.26500000  1.0 0.1506511809
H  H14  1  0.44370000  0.76840000  0.78930000  1.0 0.1589362185
H  H15  1  0.03300000  0.76460000  0.79770000  1.0 0.1589362185
H  H16  1  0.16290000  0.82310000  0.74250000  1.0 0.1589362185
H  H17  1  0.13610000  0.87490000  0.81920000  1.0 0.1589362185
H  H18  1  0.11480000  0.50260000  0.82820000  1.0 0.1790747236
H  H19  1  0.61660000  0.43720000  0.84400000  1.0 0.1197870451
H  H20  1  0.61680000  0.59190000  0.87160000  1.0 0.1298888441
H  H21  1  0.38440000  0.38070000  0.84430000  1.0 0.1589362185
H  H22  1  0.81390000  0.55980000  0.78230000  1.0 0.1506511809
H  H23  1  0.69270000  0.66570000  0.75740000  1.0 0.1506511809
H  H24  1  0.70880000  0.50640000  0.73500000  1.0 0.1506511809
C  C1  1  0.60580000  0.31310000  0.19760000  1.0 0.1197870451
C  C2  1  0.86630000  0.20440000  0.21010000  1.0 -0.3041860421
C  C3  1  0.79300000  0.45700000  0.17680000  1.0 -0.0004546187
C  C4  1  0.39700000  0.46300000  0.16740000  1.0 -0.0153563411
C  C5  1  0.63600000  0.52560000  0.16810000  1.0 0.0326560087
C  C6  1  0.28600000  0.43000000  0.22840000  1.0 -0.4053257365
C  C7  1  0.39420000  0.68690000  0.80240000  1.0 0.1197870451
C  C8  1  0.13370000  0.79560000  0.78990000  1.0 -0.3051932115
C  C9  1  0.20700000  0.54300000  0.82320000  1.0 -0.0004546187
C  C10  1  0.60300000  0.53700000  0.83260000  1.0 -0.0153563411
C  C11  1  0.36400000  0.47440000  0.83190000  1.0 0.0326560087
C  C12  1  0.71400000  0.57000000  0.77160000  1.0 -0.4043692012
N  N1  1  0.75820000  0.32310000  0.19370000  1.0 0.103643943
N  N2  1  0.53900000  0.43230000  0.18070000  1.0 0.0074925477
N  N3  1  0.24180000  0.67690000  0.80630000  1.0 0.103643943
N  N4  1  0.46100000  0.56770000  0.81930000  1.0 0.0074925477
O  O1  1  0.46710000  0.19700000  0.35883000  1.0 -0.6529647369
O  O2  1  0.53290000  0.80300000  0.64117000  1.0 -0.6529647369
O  O3  1  0.55500000  0.85710000  0.16661000  1.0 -0.8707953154
O  O4  1  0.44500000  0.14290000  0.83339000  1.0 -0.8707953154
O  O5  1  0.52760000  0.03530000  0.25997000  1.0 -0.7233492393
O  O6  1  0.47240000  0.96470000  0.74003000  1.0 -0.7233492393
O  O7  1  0.11530000  0.96550000  0.12468000  1.0 -0.8408946593
O  O8  1  0.88470000  0.03450000  0.87532000  1.0 -0.8408946593
O  O9  1  0.37230000  0.92320000  0.03888000  1.0 -0.8707953154
O  O10  1  0.62770000  0.07680000  0.96112000  1.0 -0.8707953154
O  O11  1  0.33380000  0.03890000  0.18345000  1.0 -0.8528794606
O  O12  1  0.66620000  0.96110000  0.81655000  1.0 -0.8528794606
O  O13  1  0.31730000  0.25370000  0.47329000  1.0 -0.8191452681
O  O14  1  0.68270000  0.74630000  0.52671000  1.0 -0.8191452681
O  O15  1  0.75080000  0.74780000  0.04766000  1.0 -0.8898267258
O  O16  1  0.24920000  0.25220000  0.95234000  1.0 -0.8898267258
O  O17  1  0.27980000  0.95400000  0.92812000  1.0 -0.8797104989
O  O18  1  0.72020000  0.04600000  0.07188000  1.0 -0.8797104989
O  O19  1  0.01020000  0.66690000  0.98331000  1.0 -0.8797104989
O  O20  1  0.98980000  0.33310000  0.01669000  1.0 -0.8797104989
O  O21  1  0.06380000  0.79840000  0.22631000  1.0 -0.8408946593
O  O22  1  0.93620000  0.20160000  0.77369000  1.0 -0.8408946593
O  O23  1  0.18270000  0.48980000  0.41535000  1.0 -0.8315872956
O  O24  1  0.81730000  0.51020000  0.58465000  1.0 -0.8315872956
O  O25  1  0.87150000  0.85410000  0.15539000  1.0 -0.8707953154
O  O26  1  0.12850000  0.14590000  0.84461000  1.0 -0.8707953154
O  O27  1  0.34500000  0.84560000  0.26769000  1.0 -0.8528794606
O  O28  1  0.65500000  0.15440000  0.73231000  1.0 -0.8528794606
O  O29  1  0.25140000  0.71970000  0.45547000  1.0 -0.8315872956
O  O30  1  0.74860000  0.28030000  0.54453000  1.0 -0.8315872956
O  O31  1  0.97900000  0.66270000  0.47151000  1.0 -0.8797104989
O  O32  1  0.02100000  0.33730000  0.52849000  1.0 -0.8797104989
O  O33  1  0.12450000  0.97470000  0.44213000  1.0 -0.8797104989
O  O34  1  0.87550000  0.02530000  0.55787000  1.0 -0.8797104989
O  O35  1  0.08450000  0.21740000  0.39460000  1.0 -0.8408946593
O  O36  1  0.91550000  0.78260000  0.60540000  1.0 -0.8408946593
O  O37  1  0.05970000  0.00610000  0.32650000  1.0 -0.8408946593
O  O38  1  0.94030000  0.99390000  0.67350000  1.0 -0.8408946593
O  O39  1  0.10670000  0.70260000  0.10929000  1.0 -0.8898267258
O  O40  1  0.89330000  0.29740000  0.89071000  1.0 -0.8898267258
O  O41  1  0.82440000  0.78780000  0.92038000  1.0 -0.8191452681
O  O42  1  0.17560000  0.21220000  0.07962000  1.0 -0.8148838539
O  O43  1  0.40880000  0.00260000  0.44482000  1.0 -0.8315872956
O  O44  1  0.59120000  0.99740000  0.55518000  1.0 -0.8315872956
O  O45  1  0.31250000  0.71430000  0.97752000  1.0 -0.8408946593
O  O46  1  0.68750000  0.28570000  0.02248000  1.0 -0.8408946593
O  O47  1  0.78760000  0.54400000  0.96796000  1.0 -0.8594288189
O  O48  1  0.21240000  0.45600000  0.03204000  1.0 -0.8594288189
O  O49  1  0.86270000  0.07290000  0.42909000  1.0 -0.8315872956
O  O50  1  0.13730000  0.92710000  0.57091000  1.0 -0.8315872956
O  O51  1  0.58910000  0.18560000  0.46128000  1.0 -0.7852759023
O  O52  1  0.41090000  0.81440000  0.53872000  1.0 -0.7852759023
O  O53  1  0.12000000  0.70910000  0.35397000  1.0 -0.8315872956
O  O54  1  0.88000000  0.29090000  0.64603000  1.0 -0.8315872956
O  O55  1  0.53870000  0.83590000  0.92819000  1.0 -0.8315872956
O  O56  1  0.46130000  0.16410000  0.07181000  1.0 -0.8315872956
