# DDEC6 charges by PACMAN v1.1 (https://github.com/mtap-research/PACMAN-charge/)
data_JOKQIM_FSR_pacman
_symmetry_space_group_name_H-M   'P 1'
_cell_length_a   7.43430000
_cell_length_b   10.46070000
_cell_length_c   17.91810000
_cell_angle_alpha   90.83880000
_cell_angle_beta   96.95220000
_cell_angle_gamma   90.56940000
_symmetry_Int_Tables_number   1
_chemical_formula_structural   BaH18C24S2N7O
_chemical_formula_sum   'Ba2 H36 C48 S4 N14 O2'
_cell_volume   1382.96459397
_cell_formula_units_Z   2
loop_
 _symmetry_equiv_pos_site_id
 _symmetry_equiv_pos_as_xyz
  1  'x, y, z'
loop_
 _atom_site_type_symbol
 _atom_site_label
 _atom_site_symmetry_multiplicity
 _atom_site_fract_x
 _atom_site_fract_y
 _atom_site_fract_z
 _atom_site_occupancy
 _atom_site_charge
Ba  Ba1  1  0.24076000  0.37851000  0.46781000  1.0 1.364111186
Ba  Ba2  1  0.75924000  0.62149000  0.53219000  1.0 1.364111186
H  H1  1  0.03700000  0.39100000  0.29200000  1.0 0.3296571383
H  H2  1  0.20600000  0.45300000  0.29400000  1.0 0.3192005018
H  H3  1  0.91400000  0.00000000  0.92800000  1.0 0.2540598819
H  H4  1  0.82279000  0.02484000  0.71498000  1.0 0.1301931674
H  H5  1  0.57634000  0.27204000  0.97592000  1.0 0.1301931674
H  H6  1  0.25724000  0.06461000  0.59433000  1.0 0.0989937493
H  H7  1  0.42895000  0.24640000  0.84378000  1.0 0.1210347274
H  H8  1  0.58167000  0.88960000  0.75671000  1.0 0.1301931674
H  H9  1  0.11759000  0.41074000  0.64968000  1.0 0.0989937493
H  H10  1  0.07402000  0.34634000  0.76908000  1.0 0.1301931674
H  H11  1  0.21397000  0.98734000  0.71050000  1.0 0.1301931674
H  H12  1  0.64352000  0.46203000  0.24521000  1.0 0.0989937493
H  H13  1  0.98090000  0.23252000  0.16261000  1.0 0.0989937493
H  H14  1  0.39806000  0.36301000  0.17662000  1.0 0.1301931674
H  H15  1  0.74657000  0.12601000  0.08838000  1.0 0.136543707
H  H16  1  0.30443000  0.86554000  0.37929000  1.0 0.1707316746
H  H17  1  0.16820000  0.82215000  0.43705000  1.0 0.1863091895
H  H18  1  0.36954000  0.86892000  0.46777000  1.0 0.1760379681
H  H19  1  0.96300000  0.60900000  0.70800000  1.0 0.3296571383
H  H20  1  0.79400000  0.54700000  0.70600000  1.0 0.3192005018
H  H21  1  0.08600000  0.00000000  0.07200000  1.0 0.2540598819
H  H22  1  0.17721000  0.97516000  0.28502000  1.0 0.1301931674
H  H23  1  0.42366000  0.72796000  0.02408000  1.0 0.1301931674
H  H24  1  0.74276000  0.93539000  0.40567000  1.0 0.0989937493
H  H25  1  0.57105000  0.75360000  0.15622000  1.0 0.1210347274
H  H26  1  0.41833000  0.11040000  0.24329000  1.0 0.1301931674
H  H27  1  0.88241000  0.58926000  0.35032000  1.0 0.0989937493
H  H28  1  0.92598000  0.65366000  0.23092000  1.0 0.1301931674
H  H29  1  0.78603000  0.01266000  0.28950000  1.0 0.1301931674
H  H30  1  0.35648000  0.53797000  0.75479000  1.0 0.0989937493
H  H31  1  0.01910000  0.76748000  0.83739000  1.0 0.0989937493
H  H32  1  0.60194000  0.63699000  0.82338000  1.0 0.1301931674
H  H33  1  0.25343000  0.87399000  0.91162000  1.0 0.136543707
H  H34  1  0.69557000  0.13446000  0.62071000  1.0 0.1707316746
H  H35  1  0.83180000  0.17785000  0.56295000  1.0 0.1863091895
H  H36  1  0.63046000  0.13108000  0.53223000  1.0 0.1760379681
C  C1  1  0.81320000  0.00050000  0.76520000  1.0 -0.1909140444
C  C2  1  0.46540000  0.22830000  0.95990000  1.0 -0.1909140444
C  C3  1  0.21750000  0.12220000  0.63020000  1.0 0.0876395227
C  C4  1  0.38460000  0.21530000  0.88770000  1.0 -0.1909140444
C  C5  1  0.68200000  0.92620000  0.78790000  1.0 -0.196989446
C  C6  1  0.35110000  0.16330000  0.00770000  1.0 0.1972531983
C  C7  1  0.13700000  0.32370000  0.66240000  1.0 0.0706031853
C  C8  1  0.93690000  0.03670000  0.83070000  1.0 0.1610980043
C  C9  1  0.21760000  0.14450000  0.89140000  1.0 0.1707316746
C  C10  1  0.10900000  0.28580000  0.73370000  1.0 -0.1909140444
C  C11  1  0.19180000  0.07480000  0.69960000  1.0 -0.1909140444
C  C12  1  0.72170000  0.91220000  0.86850000  1.0 0.1707316746
C  C13  1  0.38480000  0.15580000  0.08630000  1.0 -0.0844273744
C  C14  1  0.13280000  0.15700000  0.75360000  1.0 0.1301931674
C  C15  1  0.09380000  0.11000000  0.82880000  1.0 -0.0885333708
C  C16  1  0.66450000  0.39090000  0.21390000  1.0 0.0876395227
C  C17  1  0.85980000  0.25830000  0.16580000  1.0 0.0761149088
C  C18  1  0.51670000  0.33250000  0.17300000  1.0 -0.1829815386
C  C19  1  0.72070000  0.19330000  0.12140000  1.0 -0.1829815386
C  C20  1  0.54220000  0.22920000  0.12650000  1.0 0.1301931674
C  C21  1  0.26660000  0.88160000  0.42910000  1.0 -0.4933904996
C  C22  1  0.20400000  0.01140000  0.43370000  1.0 0.3977057943
C  C23  1  0.57420000  0.38380000  0.64160000  1.0 0.2819903577
C  C24  1  0.73950000  0.32840000  0.42420000  1.0 0.2819903577
C  C25  1  0.18680000  0.99950000  0.23480000  1.0 -0.1909140444
C  C26  1  0.53460000  0.77170000  0.04010000  1.0 -0.1909140444
C  C27  1  0.78250000  0.87780000  0.36980000  1.0 0.0876395227
C  C28  1  0.61540000  0.78470000  0.11230000  1.0 -0.1909140444
C  C29  1  0.31800000  0.07380000  0.21210000  1.0 -0.196989446
C  C30  1  0.64890000  0.83670000  0.99230000  1.0 0.1972531983
C  C31  1  0.86300000  0.67630000  0.33760000  1.0 0.0706031853
C  C32  1  0.06310000  0.96330000  0.16930000  1.0 0.1610980043
C  C33  1  0.78240000  0.85550000  0.10860000  1.0 0.1707316746
C  C34  1  0.89100000  0.71420000  0.26630000  1.0 -0.1909140444
C  C35  1  0.80820000  0.92520000  0.30040000  1.0 -0.1909140444
C  C36  1  0.27830000  0.08780000  0.13150000  1.0 0.1707316746
C  C37  1  0.61520000  0.84420000  0.91370000  1.0 -0.0844273744
C  C38  1  0.86720000  0.84300000  0.24640000  1.0 0.1301931674
C  C39  1  0.90620000  0.89000000  0.17120000  1.0 -0.0885333708
C  C40  1  0.33550000  0.60910000  0.78610000  1.0 0.0876395227
C  C41  1  0.14020000  0.74170000  0.83420000  1.0 0.0761149088
C  C42  1  0.48330000  0.66750000  0.82700000  1.0 -0.1829815386
C  C43  1  0.27930000  0.80670000  0.87860000  1.0 -0.1829815386
C  C44  1  0.45780000  0.77080000  0.87350000  1.0 0.1301931674
C  C45  1  0.73340000  0.11840000  0.57090000  1.0 -0.4933904996
C  C46  1  0.79600000  0.98860000  0.56630000  1.0 0.3977057943
C  C47  1  0.42580000  0.61620000  0.35840000  1.0 0.2819903577
C  C48  1  0.26050000  0.67160000  0.57580000  1.0 0.2819903577
S  S1  1  0.57330000  0.23550000  0.38667000  1.0 -0.354058086
S  S2  1  0.62600000  0.33860000  0.72836000  1.0 -0.3370133331
S  S3  1  0.42670000  0.76450000  0.61333000  1.0 -0.354058086
S  S4  1  0.37400000  0.66140000  0.27164000  1.0 -0.3370133331
N  N1  1  0.19030000  0.24370000  0.61000000  1.0 -0.292479544
N  N2  1  0.20330000  0.11150000  0.96450000  1.0 -0.4391827574
N  N3  1  0.87450000  0.98150000  0.89230000  1.0 -0.2361111036
N  N4  1  0.83280000  0.35440000  0.21250000  1.0 -0.2311716667
N  N5  1  0.15670000  0.11390000  0.43740000  1.0 -0.4933904996
N  N6  1  0.54110000  0.41720000  0.57970000  1.0 -0.5957007995
N  N7  1  0.85590000  0.39460000  0.45270000  1.0 -0.5895811608
N  N8  1  0.80970000  0.75630000  0.39000000  1.0 -0.292479544
N  N9  1  0.79670000  0.88850000  0.03550000  1.0 -0.4391827574
N  N10  1  0.12550000  0.01850000  0.10770000  1.0 -0.2361111036
N  N11  1  0.16720000  0.64560000  0.78750000  1.0 -0.2311716667
N  N12  1  0.84330000  0.88610000  0.56260000  1.0 -0.4933904996
N  N13  1  0.45890000  0.58280000  0.42030000  1.0 -0.5957007995
N  N14  1  0.14410000  0.60540000  0.54730000  1.0 -0.5895811608
O  O1  1  0.13320000  0.40680000  0.31830000  1.0 -0.7261415711
O  O2  1  0.86680000  0.59320000  0.68170000  1.0 -0.7261415711
