# DDEC6 charges by PACMAN v1.1 (https://github.com/mtap-research/PACMAN-charge/)
data_JOKXAI10_FSR_pacman
_symmetry_space_group_name_H-M   'P 1'
_cell_length_a   14.03880000
_cell_length_b   14.03880000
_cell_length_c   14.07500000
_cell_angle_alpha   89.82670000
_cell_angle_beta   90.17330000
_cell_angle_gamma   148.54000000
_symmetry_Int_Tables_number   1
_chemical_formula_structural   CdNiC7N6
_chemical_formula_sum   'Cd4 Ni4 C28 N24'
_cell_volume   1447.75868317
_cell_formula_units_Z   4
loop_
 _symmetry_equiv_pos_site_id
 _symmetry_equiv_pos_as_xyz
  1  'x, y, z'
loop_
 _atom_site_type_symbol
 _atom_site_label
 _atom_site_symmetry_multiplicity
 _atom_site_fract_x
 _atom_site_fract_y
 _atom_site_fract_z
 _atom_site_occupancy
 _atom_site_charge
Cd  Cd1  1  0.73925000  0.00849000  0.28403000  1.0 1.0187826298
Cd  Cd2  1  0.00849000  0.73925000  0.21597000  1.0 1.0187826298
Cd  Cd3  1  0.26075000  0.99151000  0.71597000  1.0 1.0187826298
Cd  Cd4  1  0.99151000  0.26075000  0.78403000  1.0 1.0187826298
Ni  Ni1  1  0.36530000  0.36530000  0.25000000  1.0 0.0668370064
Ni  Ni2  1  0.63470000  0.63470000  0.75000000  1.0 0.0668370064
Ni  Ni3  1  0.00000000  0.50000000  0.50000000  1.0 0.0769803069
Ni  Ni4  1  0.50000000  0.00000000  0.00000000  1.0 0.0769803069
C  C1  1  0.14380000  0.24120000  0.25630000  1.0 0.1879672698
C  C2  1  0.24120000  0.14380000  0.24370000  1.0 0.1879672698
C  C3  1  0.85620000  0.75880000  0.74370000  1.0 0.1879672698
C  C4  1  0.75880000  0.85620000  0.75630000  1.0 0.1794050264
C  C5  1  0.48980000  0.58700000  0.25550000  1.0 0.1512217663
C  C6  1  0.58700000  0.48980000  0.24450000  1.0 0.1512217663
C  C7  1  0.51020000  0.41300000  0.74450000  1.0 0.155984684
C  C8  1  0.41300000  0.51020000  0.75550000  1.0 0.1512217663
C  C9  1  0.93470000  0.36950000  0.39550000  1.0 0.128955274
C  C10  1  0.36950000  0.93470000  0.10450000  1.0 0.128955274
C  C11  1  0.06530000  0.63050000  0.60450000  1.0 0.128955274
C  C12  1  0.63050000  0.06530000  0.89550000  1.0 0.128955274
C  C13  1  0.62390000  0.02290000  0.08120000  1.0 0.1729323334
C  C14  1  0.02290000  0.62390000  0.41880000  1.0 0.1794050264
C  C15  1  0.37610000  0.97710000  0.91880000  1.0 0.1794050264
C  C16  1  0.97710000  0.37610000  0.58120000  1.0 0.1729323334
C  C17  1  0.43700000  0.82100000  0.42620000  1.0 0.1512217663
C  C18  1  0.82100000  0.43700000  0.07380000  1.0 0.1512217663
C  C19  1  0.56300000  0.17900000  0.57380000  1.0 0.1512217663
C  C20  1  0.17900000  0.56300000  0.92620000  1.0 0.1512217663
C  C21  1  0.53740000  0.85460000  0.48290000  1.0 0.1794050264
C  C22  1  0.85460000  0.53740000  0.01710000  1.0 0.1794050264
C  C23  1  0.46260000  0.14540000  0.51710000  1.0 0.1794050264
C  C24  1  0.14540000  0.46260000  0.98290000  1.0 0.1794050264
C  C25  1  0.50210000  0.82010000  0.58880000  1.0 0.0977642553
C  C26  1  0.82010000  0.50210000  0.91120000  1.0 0.0939276136
C  C27  1  0.49790000  0.17990000  0.41120000  1.0 0.0977642553
C  C28  1  0.17990000  0.49790000  0.08880000  1.0 0.0977642553
N  N1  1  0.00820000  0.16540000  0.26140000  1.0 -0.4062835731
N  N2  1  0.16540000  0.00820000  0.23860000  1.0 -0.4062835731
N  N3  1  0.99180000  0.83460000  0.73860000  1.0 -0.4062835731
N  N4  1  0.83460000  0.99180000  0.76140000  1.0 -0.3979860105
N  N5  1  0.56610000  0.72330000  0.25920000  1.0 -0.3812025247
N  N6  1  0.72330000  0.56610000  0.24080000  1.0 -0.3812025247
N  N7  1  0.43390000  0.27670000  0.74080000  1.0 -0.3878768542
N  N8  1  0.27670000  0.43390000  0.75920000  1.0 -0.3812025247
N  N9  1  0.89100000  0.28580000  0.33250000  1.0 -0.3679829024
N  N10  1  0.28580000  0.89100000  0.16750000  1.0 -0.3679829024
N  N11  1  0.10900000  0.71420000  0.66750000  1.0 -0.3679829024
N  N12  1  0.71420000  0.10900000  0.83250000  1.0 -0.3679829024
N  N13  1  0.69780000  0.03620000  0.13270000  1.0 -0.4177131735
N  N14  1  0.03620000  0.69780000  0.36730000  1.0 -0.4177131735
N  N15  1  0.30220000  0.96380000  0.86730000  1.0 -0.4177131735
N  N16  1  0.96380000  0.30220000  0.63270000  1.0 -0.4177131735
N  N17  1  0.45840000  0.84480000  0.32420000  1.0 -0.2355055966
N  N18  1  0.84480000  0.45840000  0.17580000  1.0 -0.2323463567
N  N19  1  0.54160000  0.15520000  0.67580000  1.0 -0.2355055966
N  N20  1  0.15520000  0.54160000  0.82420000  1.0 -0.2323463567
N  N21  1  0.70670000  0.95610000  0.45080000  1.0 -0.3533958502
N  N22  1  0.95610000  0.70670000  0.04920000  1.0 -0.3561721303
N  N23  1  0.29330000  0.04390000  0.54920000  1.0 -0.3533958502
N  N24  1  0.04390000  0.29330000  0.95080000  1.0 -0.3561721303
