# DDEC6 charges by PACMAN v1.1 (https://github.com/mtap-research/PACMAN-charge/)
data_JOKXAI_FSR_pacman
_symmetry_space_group_name_H-M   'P 1'
_cell_length_a   14.04940000
_cell_length_b   14.04940000
_cell_length_c   14.08300000
_cell_angle_alpha   89.84600000
_cell_angle_beta   90.15400000
_cell_angle_gamma   148.54700000
_symmetry_Int_Tables_number   1
_chemical_formula_structural   CdNiC7N6
_chemical_formula_sum   'Cd4 Ni4 C28 N24'
_cell_volume   1450.48169956
_cell_formula_units_Z   4
loop_
 _symmetry_equiv_pos_site_id
 _symmetry_equiv_pos_as_xyz
  1  'x, y, z'
loop_
 _atom_site_type_symbol
 _atom_site_label
 _atom_site_symmetry_multiplicity
 _atom_site_fract_x
 _atom_site_fract_y
 _atom_site_fract_z
 _atom_site_occupancy
 _atom_site_charge
Cd  Cd1  1  0.73925000  0.00849000  0.78403000  1.0 1.0185849859
Cd  Cd2  1  0.00849000  0.73925000  0.71597000  1.0 1.0185849859
Cd  Cd3  1  0.26075000  0.99151000  0.21597000  1.0 1.0185849859
Cd  Cd4  1  0.99151000  0.26075000  0.28403000  1.0 1.0185849859
Ni  Ni1  1  0.36530000  0.36530000  0.75000000  1.0 0.0660801722
Ni  Ni2  1  0.63470000  0.63470000  0.25000000  1.0 0.0660801722
Ni  Ni3  1  0.50000000  0.00000000  0.50000000  1.0 0.0786422944
Ni  Ni4  1  0.00000000  0.50000000  0.00000000  1.0 0.0786422944
C  C1  1  0.14380000  0.24120000  0.75630000  1.0 0.1804934635
C  C2  1  0.24120000  0.14380000  0.74370000  1.0 0.1862522109
C  C3  1  0.85620000  0.75880000  0.24370000  1.0 0.1804934635
C  C4  1  0.75880000  0.85620000  0.25630000  1.0 0.1804934635
C  C5  1  0.48990000  0.58690000  0.75550000  1.0 0.1530398223
C  C6  1  0.58690000  0.48990000  0.74450000  1.0 0.1530398223
C  C7  1  0.51010000  0.41310000  0.24450000  1.0 0.1555257125
C  C8  1  0.41310000  0.51010000  0.25550000  1.0 0.1530398223
C  C9  1  0.62410000  0.02290000  0.58120000  1.0 0.1804934635
C  C10  1  0.02290000  0.62410000  0.91880000  1.0 0.1804934635
C  C11  1  0.37590000  0.97710000  0.41880000  1.0 0.1733160137
C  C12  1  0.97710000  0.37590000  0.08120000  1.0 0.1733160137
C  C13  1  0.93470000  0.36950000  0.89550000  1.0 0.1265696033
C  C14  1  0.36950000  0.93470000  0.60450000  1.0 0.1265696033
C  C15  1  0.06530000  0.63050000  0.10450000  1.0 0.1265696033
C  C16  1  0.63050000  0.06530000  0.39550000  1.0 0.1265696033
C  C17  1  0.43700000  0.82100000  0.92610000  1.0 0.1555257125
C  C18  1  0.82100000  0.43700000  0.57390000  1.0 0.1555257125
C  C19  1  0.56300000  0.17900000  0.07390000  1.0 0.1555257125
C  C20  1  0.17900000  0.56300000  0.42610000  1.0 0.1555257125
C  C21  1  0.53740000  0.85460000  0.98290000  1.0 0.1804934635
C  C22  1  0.85460000  0.53740000  0.51710000  1.0 0.1804934635
C  C23  1  0.46260000  0.14540000  0.01710000  1.0 0.1804934635
C  C24  1  0.14540000  0.46260000  0.48290000  1.0 0.1804934635
C  C25  1  0.50220000  0.82020000  0.08880000  1.0 0.1018497168
C  C26  1  0.82020000  0.50220000  0.41120000  1.0 0.1018497168
C  C27  1  0.49780000  0.17980000  0.91120000  1.0 0.1018497168
C  C28  1  0.17980000  0.49780000  0.58880000  1.0 0.1018497168
N  N1  1  0.00820000  0.16540000  0.76140000  1.0 -0.3981218444
N  N2  1  0.16540000  0.00820000  0.73860000  1.0 -0.4108093039
N  N3  1  0.99180000  0.83460000  0.23860000  1.0 -0.3981218444
N  N4  1  0.83460000  0.99180000  0.26140000  1.0 -0.3981218444
N  N5  1  0.56610000  0.72330000  0.75920000  1.0 -0.3804177449
N  N6  1  0.72330000  0.56610000  0.74080000  1.0 -0.3894544945
N  N7  1  0.43390000  0.27670000  0.24080000  1.0 -0.3894544945
N  N8  1  0.27670000  0.43390000  0.25920000  1.0 -0.3804177449
N  N9  1  0.69780000  0.03620000  0.63280000  1.0 -0.4192202395
N  N10  1  0.03620000  0.69780000  0.86720000  1.0 -0.4192202395
N  N11  1  0.30220000  0.96380000  0.36720000  1.0 -0.4192202395
N  N12  1  0.96380000  0.30220000  0.13280000  1.0 -0.4108093039
N  N13  1  0.89100000  0.28580000  0.83250000  1.0 -0.3690418707
N  N14  1  0.28580000  0.89100000  0.66750000  1.0 -0.3690418707
N  N15  1  0.10900000  0.71420000  0.16750000  1.0 -0.3690418707
N  N16  1  0.71420000  0.10900000  0.33250000  1.0 -0.3637108014
N  N17  1  0.45840000  0.84480000  0.82420000  1.0 -0.2467074947
N  N18  1  0.84480000  0.45840000  0.67580000  1.0 -0.2467074947
N  N19  1  0.54160000  0.15520000  0.17580000  1.0 -0.2399231897
N  N20  1  0.15520000  0.54160000  0.32420000  1.0 -0.2399231897
N  N21  1  0.70670000  0.95610000  0.95070000  1.0 -0.3535121188
N  N22  1  0.95610000  0.70670000  0.54930000  1.0 -0.3535121188
N  N23  1  0.29330000  0.04390000  0.04930000  1.0 -0.3535121188
N  N24  1  0.04390000  0.29330000  0.45070000  1.0 -0.3535121188
