# DDEC6 charges by PACMAN v1.1 (https://github.com/mtap-research/PACMAN-charge/)
data_JOKXOW10_ASR_pacman
_symmetry_space_group_name_H-M   'P 1'
_cell_length_a   14.00360000
_cell_length_b   14.00360000
_cell_length_c   14.01400000
_cell_angle_alpha   88.32490000
_cell_angle_beta   91.67510000
_cell_angle_gamma   148.61200000
_symmetry_Int_Tables_number   1
_chemical_formula_structural   CdNiC7N6
_chemical_formula_sum   'Cd4 Ni4 C28 N24'
_cell_volume   1430.66488222
_cell_formula_units_Z   4
loop_
 _symmetry_equiv_pos_site_id
 _symmetry_equiv_pos_as_xyz
  1  'x, y, z'
loop_
 _atom_site_type_symbol
 _atom_site_label
 _atom_site_symmetry_multiplicity
 _atom_site_fract_x
 _atom_site_fract_y
 _atom_site_fract_z
 _atom_site_occupancy
 _atom_site_charge
Cd  Cd1  1  0.98352000  0.25438000  0.72516000  1.0 1.0134508941
Cd  Cd2  1  0.25438000  0.98352000  0.77484000  1.0 1.0134508941
Cd  Cd3  1  0.01648000  0.74562000  0.27484000  1.0 1.0134508941
Cd  Cd4  1  0.74562000  0.01648000  0.22516000  1.0 1.0183327927
Ni  Ni1  1  0.62560000  0.62560000  0.75000000  1.0 0.0739742538
Ni  Ni2  1  0.37440000  0.37440000  0.25000000  1.0 0.0739742538
Ni  Ni3  1  0.50000000  0.00000000  0.50000000  1.0 0.0857111497
Ni  Ni4  1  0.00000000  0.50000000  0.00000000  1.0 0.0857111497
C  C1  1  0.74840000  0.84700000  0.74790000  1.0 0.1695149711
C  C2  1  0.84700000  0.74840000  0.75210000  1.0 0.1695149711
C  C3  1  0.25160000  0.15300000  0.25210000  1.0 0.1695149711
C  C4  1  0.15300000  0.25160000  0.24790000  1.0 0.1695149711
C  C5  1  0.40180000  0.49900000  0.75060000  1.0 0.1600113607
C  C6  1  0.49900000  0.40180000  0.74940000  1.0 0.1600113607
C  C7  1  0.59820000  0.50100000  0.24940000  1.0 0.1600113607
C  C8  1  0.50100000  0.59820000  0.25060000  1.0 0.1600113607
C  C9  1  0.62820000  0.06580000  0.60820000  1.0 0.1270021408
C  C10  1  0.06580000  0.62820000  0.89180000  1.0 0.1270021408
C  C11  1  0.37180000  0.93420000  0.39180000  1.0 0.1270021408
C  C12  1  0.93420000  0.37180000  0.10820000  1.0 0.1270021408
C  C13  1  0.97580000  0.37240000  0.92460000  1.0 0.1695149711
C  C14  1  0.37240000  0.97580000  0.57540000  1.0 0.1695149711
C  C15  1  0.02420000  0.62760000  0.07540000  1.0 0.1695149711
C  C16  1  0.62760000  0.02420000  0.42460000  1.0 0.1695149711
C  C17  1  0.18190000  0.56410000  0.58070000  1.0 0.1365136153
C  C18  1  0.56410000  0.18190000  0.91930000  1.0 0.1365136153
C  C19  1  0.81810000  0.43590000  0.41930000  1.0 0.1365136153
C  C20  1  0.43590000  0.81810000  0.08070000  1.0 0.1365136153
C  C21  1  0.14760000  0.46240000  0.52580000  1.0 0.1832182838
C  C22  1  0.46240000  0.14760000  0.97420000  1.0 0.1832182838
C  C23  1  0.85240000  0.53760000  0.47420000  1.0 0.1832182838
C  C24  1  0.53760000  0.85240000  0.02580000  1.0 0.1832182838
C  C25  1  0.18660000  0.50140000  0.42060000  1.0 0.1034226625
C  C26  1  0.50140000  0.18660000  0.07940000  1.0 0.1034226625
C  C27  1  0.81340000  0.49860000  0.57940000  1.0 0.1034226625
C  C28  1  0.49860000  0.81340000  0.92060000  1.0 0.1034226625
N  N1  1  0.82140000  0.98060000  0.74560000  1.0 -0.3901118623
N  N2  1  0.98060000  0.82140000  0.75440000  1.0 -0.3901118623
N  N3  1  0.17860000  0.01940000  0.25440000  1.0 -0.3901118623
N  N4  1  0.01940000  0.17860000  0.24560000  1.0 -0.3994575308
N  N5  1  0.26660000  0.42260000  0.75090000  1.0 -0.3815119432
N  N6  1  0.42260000  0.26660000  0.74910000  1.0 -0.3901118623
N  N7  1  0.73340000  0.57740000  0.24910000  1.0 -0.3901118623
N  N8  1  0.57740000  0.73340000  0.25090000  1.0 -0.3815119432
N  N9  1  0.71020000  0.11000000  0.67410000  1.0 -0.370102422
N  N10  1  0.11000000  0.71020000  0.82590000  1.0 -0.370102422
N  N11  1  0.28980000  0.89000000  0.32590000  1.0 -0.370102422
N  N12  1  0.89000000  0.28980000  0.17410000  1.0 -0.370102422
N  N13  1  0.96060000  0.29660000  0.87670000  1.0 -0.4163448579
N  N14  1  0.29660000  0.96060000  0.62330000  1.0 -0.4163448579
N  N15  1  0.03940000  0.70340000  0.12330000  1.0 -0.4163448579
N  N16  1  0.70340000  0.03940000  0.37670000  1.0 -0.4142427312
N  N17  1  0.15490000  0.54010000  0.68240000  1.0 -0.2283723594
N  N18  1  0.54010000  0.15490000  0.81760000  1.0 -0.2283723594
N  N19  1  0.84510000  0.45990000  0.31760000  1.0 -0.2283723594
N  N20  1  0.45990000  0.84510000  0.18240000  1.0 -0.2283723594
N  N21  1  0.03730000  0.28870000  0.55900000  1.0 -0.3491095768
N  N22  1  0.28870000  0.03730000  0.94100000  1.0 -0.357302414
N  N23  1  0.96270000  0.71130000  0.44100000  1.0 -0.3491095768
N  N24  1  0.71130000  0.96270000  0.05900000  1.0 -0.3491095768
