# DDEC6 charges by PACMAN v1.1 (https://github.com/mtap-research/PACMAN-charge/)
data_JOKYEN_ASR_pacman
_symmetry_space_group_name_H-M   'P 1'
_cell_length_a   7.61500000
_cell_length_b   14.18300000
_cell_length_c   26.98300000
_cell_angle_alpha   90.00000000
_cell_angle_beta   90.00000000
_cell_angle_gamma   90.00000000
_symmetry_Int_Tables_number   1
_chemical_formula_structural   CdNiC7N6
_chemical_formula_sum   'Cd8 Ni8 C56 N48'
_cell_volume   2914.25965473
_cell_formula_units_Z   8
loop_
 _symmetry_equiv_pos_site_id
 _symmetry_equiv_pos_as_xyz
  1  'x, y, z'
loop_
 _atom_site_type_symbol
 _atom_site_label
 _atom_site_symmetry_multiplicity
 _atom_site_fract_x
 _atom_site_fract_y
 _atom_site_fract_z
 _atom_site_occupancy
 _atom_site_charge
Cd  Cd1  1  0.12333000  0.21721000  0.11490000  1.0 1.0227720581
Cd  Cd2  1  0.62333000  0.28279000  0.88510000  1.0 1.0227720581
Cd  Cd3  1  0.37667000  0.71721000  0.38510000  1.0 1.0251710019
Cd  Cd4  1  0.87667000  0.78279000  0.61490000  1.0 1.0251710019
Cd  Cd5  1  0.87667000  0.78279000  0.88510000  1.0 1.0251710019
Cd  Cd6  1  0.37667000  0.71721000  0.11490000  1.0 1.0227720581
Cd  Cd7  1  0.62333000  0.28279000  0.61490000  1.0 1.0227720581
Cd  Cd8  1  0.12333000  0.21721000  0.38510000  1.0 1.0227720581
Ni  Ni1  1  0.61390000  0.24580000  0.25000000  1.0 0.0549216508
Ni  Ni2  1  0.11390000  0.25420000  0.75000000  1.0 0.0567559502
Ni  Ni3  1  0.88610000  0.74580000  0.25000000  1.0 0.0549216508
Ni  Ni4  1  0.38610000  0.75420000  0.75000000  1.0 0.0567559502
Ni  Ni5  1  0.50000000  0.00000000  0.00000000  1.0 0.0816397122
Ni  Ni6  1  0.00000000  0.50000000  0.00000000  1.0 0.0816397122
Ni  Ni7  1  0.00000000  0.50000000  0.50000000  1.0 0.0816397122
Ni  Ni8  1  0.50000000  0.00000000  0.50000000  1.0 0.0816397122
C  C1  1  0.78900000  0.24070000  0.20090000  1.0 0.1619595506
C  C2  1  0.28900000  0.25930000  0.79910000  1.0 0.1619595506
C  C3  1  0.71100000  0.74070000  0.29910000  1.0 0.1619595506
C  C4  1  0.21100000  0.75930000  0.70090000  1.0 0.1619595506
C  C5  1  0.21100000  0.75930000  0.79910000  1.0 0.1619595506
C  C6  1  0.71100000  0.74070000  0.20090000  1.0 0.1619595506
C  C7  1  0.28900000  0.25930000  0.70090000  1.0 0.1619595506
C  C8  1  0.78900000  0.24070000  0.29910000  1.0 0.1709983053
C  C9  1  0.44100000  0.24650000  0.20110000  1.0 0.1784818501
C  C10  1  0.94100000  0.25350000  0.79890000  1.0 0.1784818501
C  C11  1  0.05900000  0.74650000  0.29890000  1.0 0.1784818501
C  C12  1  0.55900000  0.75350000  0.70110000  1.0 0.1784818501
C  C13  1  0.55900000  0.75350000  0.79890000  1.0 0.1784818501
C  C14  1  0.05900000  0.74650000  0.20110000  1.0 0.1784818501
C  C15  1  0.94100000  0.25350000  0.70110000  1.0 0.1784818501
C  C16  1  0.44100000  0.24650000  0.29890000  1.0 0.1784818501
C  C17  1  0.40100000  0.10320000  0.03300000  1.0 0.1335774831
C  C18  1  0.90100000  0.39680000  0.96700000  1.0 0.1335774831
C  C19  1  0.09900000  0.60320000  0.46700000  1.0 0.1355558835
C  C20  1  0.59900000  0.89680000  0.53300000  1.0 0.1335774831
C  C21  1  0.59900000  0.89680000  0.96700000  1.0 0.1335774831
C  C22  1  0.09900000  0.60320000  0.03300000  1.0 0.1355558835
C  C23  1  0.90100000  0.39680000  0.53300000  1.0 0.1355558835
C  C24  1  0.40100000  0.10320000  0.46700000  1.0 0.1335774831
C  C25  1  0.07400000  0.41830000  0.05000000  1.0 0.1784818501
C  C26  1  0.57400000  0.08170000  0.95000000  1.0 0.1784818501
C  C27  1  0.42600000  0.91830000  0.45000000  1.0 0.1709983053
C  C28  1  0.92600000  0.58170000  0.55000000  1.0 0.1784818501
C  C29  1  0.92600000  0.58170000  0.95000000  1.0 0.1784818501
C  C30  1  0.42600000  0.91830000  0.05000000  1.0 0.1709983053
C  C31  1  0.57400000  0.08170000  0.55000000  1.0 0.1784818501
C  C32  1  0.07400000  0.41830000  0.45000000  1.0 0.1784818501
C  C33  1  0.87600000  0.07500000  0.05780000  1.0 0.1527451999
C  C34  1  0.37600000  0.42500000  0.94220000  1.0 0.1527451999
C  C35  1  0.62400000  0.57500000  0.44220000  1.0 0.1619595506
C  C36  1  0.12400000  0.92500000  0.55780000  1.0 0.1527451999
C  C37  1  0.12400000  0.92500000  0.94220000  1.0 0.1527451999
C  C38  1  0.62400000  0.57500000  0.05780000  1.0 0.1619595506
C  C39  1  0.37600000  0.42500000  0.55780000  1.0 0.1527451999
C  C40  1  0.87600000  0.07500000  0.44220000  1.0 0.1527451999
C  C41  1  0.93800000  0.02200000  0.09420000  1.0 0.185930112
C  C42  1  0.43800000  0.47800000  0.90580000  1.0 0.185930112
C  C43  1  0.56200000  0.52200000  0.40580000  1.0 0.185930112
C  C44  1  0.06200000  0.97800000  0.59420000  1.0 0.185930112
C  C45  1  0.06200000  0.97800000  0.90580000  1.0 0.185930112
C  C46  1  0.56200000  0.52200000  0.09420000  1.0 0.185930112
C  C47  1  0.43800000  0.47800000  0.59420000  1.0 0.185930112
C  C48  1  0.93800000  0.02200000  0.40580000  1.0 0.185930112
C  C49  1  0.90600000  0.91510000  0.09290000  1.0 0.1001486998
C  C50  1  0.40600000  0.58490000  0.90710000  1.0 0.1001486998
C  C51  1  0.59400000  0.41510000  0.40710000  1.0 0.1001486998
C  C52  1  0.09400000  0.08490000  0.59290000  1.0 0.1001486998
C  C53  1  0.09400000  0.08490000  0.90710000  1.0 0.1001486998
C  C54  1  0.59400000  0.41510000  0.09290000  1.0 0.1001486998
C  C55  1  0.40600000  0.58490000  0.59290000  1.0 0.1001486998
C  C56  1  0.90600000  0.91510000  0.40710000  1.0 0.1001486998
N  N1  1  0.89400000  0.24000000  0.17110000  1.0 -0.3897375637
N  N2  1  0.39400000  0.26000000  0.82890000  1.0 -0.3897375637
N  N3  1  0.60600000  0.74000000  0.32890000  1.0 -0.3897375637
N  N4  1  0.10600000  0.76000000  0.67110000  1.0 -0.3784243301
N  N5  1  0.10600000  0.76000000  0.82890000  1.0 -0.3784243301
N  N6  1  0.60600000  0.74000000  0.17110000  1.0 -0.3897375637
N  N7  1  0.39400000  0.26000000  0.67110000  1.0 -0.3897375637
N  N8  1  0.89400000  0.24000000  0.32890000  1.0 -0.3897375637
N  N9  1  0.33500000  0.24370000  0.17120000  1.0 -0.3979625303
N  N10  1  0.83500000  0.25630000  0.82880000  1.0 -0.3979625303
N  N11  1  0.16500000  0.74370000  0.32880000  1.0 -0.3979625303
N  N12  1  0.66500000  0.75630000  0.67120000  1.0 -0.3897375637
N  N13  1  0.66500000  0.75630000  0.82880000  1.0 -0.3897375637
N  N14  1  0.16500000  0.74370000  0.17120000  1.0 -0.3979625303
N  N15  1  0.83500000  0.25630000  0.67120000  1.0 -0.3979625303
N  N16  1  0.33500000  0.24370000  0.32880000  1.0 -0.3979625303
N  N17  1  0.33900000  0.16550000  0.05310000  1.0 -0.3701657035
N  N18  1  0.83900000  0.33450000  0.94690000  1.0 -0.3701657035
N  N19  1  0.16100000  0.66550000  0.44690000  1.0 -0.3784243301
N  N20  1  0.66100000  0.83450000  0.55310000  1.0 -0.3701657035
N  N21  1  0.66100000  0.83450000  0.94690000  1.0 -0.3701657035
N  N22  1  0.16100000  0.66550000  0.05310000  1.0 -0.3701657035
N  N23  1  0.83900000  0.33450000  0.55310000  1.0 -0.3701657035
N  N24  1  0.33900000  0.16550000  0.44690000  1.0 -0.3701657035
N  N25  1  0.11700000  0.36680000  0.07960000  1.0 -0.4058892229
N  N26  1  0.61700000  0.13320000  0.92040000  1.0 -0.4058892229
N  N27  1  0.38300000  0.86680000  0.42040000  1.0 -0.4058892229
N  N28  1  0.88300000  0.63320000  0.57960000  1.0 -0.4058892229
N  N29  1  0.88300000  0.63320000  0.92040000  1.0 -0.4058892229
N  N30  1  0.38300000  0.86680000  0.07960000  1.0 -0.4058892229
N  N31  1  0.61700000  0.13320000  0.57960000  1.0 -0.4058892229
N  N32  1  0.11700000  0.36680000  0.42040000  1.0 -0.4058892229
N  N33  1  0.90300000  0.17530000  0.05620000  1.0 -0.2501950489
N  N34  1  0.40300000  0.32470000  0.94380000  1.0 -0.2551143863
N  N35  1  0.59700000  0.67530000  0.44380000  1.0 -0.2501950489
N  N36  1  0.09700000  0.82470000  0.55620000  1.0 -0.2501950489
N  N37  1  0.09700000  0.82470000  0.94380000  1.0 -0.2501950489
N  N38  1  0.59700000  0.67530000  0.05620000  1.0 -0.2501950489
N  N39  1  0.40300000  0.32470000  0.55620000  1.0 -0.2501950489
N  N40  1  0.90300000  0.17530000  0.44380000  1.0 -0.2501950489
N  N41  1  0.07900000  0.05260000  0.12650000  1.0 -0.3701657035
N  N42  1  0.57900000  0.44740000  0.87350000  1.0 -0.3784243301
N  N43  1  0.42100000  0.55260000  0.37350000  1.0 -0.3784243301
N  N44  1  0.92100000  0.94740000  0.62650000  1.0 -0.3784243301
N  N45  1  0.92100000  0.94740000  0.87350000  1.0 -0.3784243301
N  N46  1  0.42100000  0.55260000  0.12650000  1.0 -0.3701657035
N  N47  1  0.57900000  0.44740000  0.62650000  1.0 -0.3784243301
N  N48  1  0.07900000  0.05260000  0.37350000  1.0 -0.3701657035
