# DDEC6 charges by PACMAN v1.1 (https://github.com/mtap-research/PACMAN-charge/)
data_JOKYAJ10_ion_pacman
_symmetry_space_group_name_H-M   'P 1'
_cell_length_a   7.59000000
_cell_length_b   14.06100000
_cell_length_c   27.19200000
_cell_angle_alpha   90.00000000
_cell_angle_beta   90.00000000
_cell_angle_gamma   90.00000000
_symmetry_Int_Tables_number   1
_chemical_formula_structural   Cd2Ni2C15(N4Cl)3
_chemical_formula_sum   'Cd8 Ni8 C60 N48 Cl12'
_cell_volume   2902.01154408
_cell_formula_units_Z   4
loop_
 _symmetry_equiv_pos_site_id
 _symmetry_equiv_pos_as_xyz
  1  'x, y, z'
loop_
 _atom_site_type_symbol
 _atom_site_label
 _atom_site_symmetry_multiplicity
 _atom_site_fract_x
 _atom_site_fract_y
 _atom_site_fract_z
 _atom_site_occupancy
 _atom_site_charge
Cd  Cd1  1  0.12140000  0.21473000  0.11592000  1.0 1.0422210117
Cd  Cd2  1  0.62140000  0.28527000  0.61592000  1.0 1.0470846911
Cd  Cd3  1  0.12140000  0.21473000  0.38408000  1.0 1.0422210117
Cd  Cd4  1  0.62140000  0.28527000  0.88408000  1.0 1.0470846911
Cd  Cd5  1  0.87860000  0.78527000  0.88408000  1.0 1.0422210117
Cd  Cd6  1  0.37860000  0.71473000  0.38408000  1.0 1.0470846911
Cd  Cd7  1  0.87860000  0.78527000  0.61592000  1.0 1.0422210117
Cd  Cd8  1  0.37860000  0.71473000  0.11592000  1.0 1.0470846911
Ni  Ni1  1  0.61040000  0.25010000  0.25000000  1.0 -0.090565931
Ni  Ni2  1  0.11040000  0.24990000  0.75000000  1.0 -0.090565931
Ni  Ni3  1  0.38960000  0.74990000  0.75000000  1.0 -0.090565931
Ni  Ni4  1  0.88960000  0.75010000  0.25000000  1.0 -0.090565931
Ni  Ni5  1  0.50000000  0.00000000  0.00000000  1.0 0.0355780591
Ni  Ni6  1  0.00000000  0.50000000  0.50000000  1.0 0.0349191298
Ni  Ni7  1  0.50000000  0.00000000  0.50000000  1.0 0.0349191298
Ni  Ni8  1  0.00000000  0.50000000  0.00000000  1.0 0.0355780591
C  C1  1  0.78600000  0.24300000  0.20180000  1.0 0.1990116437
C  C2  1  0.28600000  0.25700000  0.70180000  1.0 0.1990116437
C  C3  1  0.78600000  0.24300000  0.29820000  1.0 0.1990116437
C  C4  1  0.28600000  0.25700000  0.79820000  1.0 0.1990116437
C  C5  1  0.21400000  0.75700000  0.79820000  1.0 0.1990116437
C  C6  1  0.71400000  0.74300000  0.29820000  1.0 0.1990116437
C  C7  1  0.21400000  0.75700000  0.70180000  1.0 0.1990116437
C  C8  1  0.71400000  0.74300000  0.20180000  1.0 0.1990116437
C  C9  1  0.43500000  0.25200000  0.20130000  1.0 0.1923073986
C  C10  1  0.93500000  0.24800000  0.70130000  1.0 0.1923073986
C  C11  1  0.43500000  0.25200000  0.29870000  1.0 0.1923073986
C  C12  1  0.93500000  0.24800000  0.79870000  1.0 0.1923073986
C  C13  1  0.56500000  0.74800000  0.79870000  1.0 0.1923073986
C  C14  1  0.06500000  0.75200000  0.29870000  1.0 0.1923073986
C  C15  1  0.56500000  0.74800000  0.70130000  1.0 0.1923073986
C  C16  1  0.06500000  0.75200000  0.20130000  1.0 0.1923073986
C  C17  1  0.40300000  0.10100000  0.03560000  1.0 0.157716591
C  C18  1  0.90300000  0.39900000  0.53560000  1.0 0.157716591
C  C19  1  0.40300000  0.10100000  0.46440000  1.0 0.157716591
C  C20  1  0.90300000  0.39900000  0.96440000  1.0 0.157716591
C  C21  1  0.59700000  0.89900000  0.96440000  1.0 0.157716591
C  C22  1  0.09700000  0.60100000  0.46440000  1.0 0.157716591
C  C23  1  0.59700000  0.89900000  0.53560000  1.0 0.157716591
C  C24  1  0.09700000  0.60100000  0.03560000  1.0 0.157716591
C  C25  1  0.07200000  0.41400000  0.04860000  1.0 0.1923073986
C  C26  1  0.57200000  0.08600000  0.54860000  1.0 0.1923073986
C  C27  1  0.07200000  0.41400000  0.45140000  1.0 0.1923073986
C  C28  1  0.57200000  0.08600000  0.95140000  1.0 0.1923073986
C  C29  1  0.92800000  0.58600000  0.95140000  1.0 0.1923073986
C  C30  1  0.42800000  0.91400000  0.45140000  1.0 0.1990116437
C  C31  1  0.92800000  0.58600000  0.54860000  1.0 0.1923073986
C  C32  1  0.42800000  0.91400000  0.04860000  1.0 0.1990116437
C  C33  1  0.87800000  0.07300000  0.05800000  1.0 0.1320946639
C  C34  1  0.37800000  0.42700000  0.55800000  1.0 0.1355344524
C  C35  1  0.87800000  0.07300000  0.44200000  1.0 0.1320946639
C  C36  1  0.37800000  0.42700000  0.94200000  1.0 0.1355344524
C  C37  1  0.12200000  0.92700000  0.94200000  1.0 0.1355344524
C  C38  1  0.62200000  0.57300000  0.44200000  1.0 0.1355344524
C  C39  1  0.12200000  0.92700000  0.55800000  1.0 0.1355344524
C  C40  1  0.62200000  0.57300000  0.05800000  1.0 0.1355344524
C  C41  1  0.93900000  0.01600000  0.09200000  1.0 0.15005528
C  C42  1  0.43900000  0.48400000  0.59200000  1.0 0.15005528
C  C43  1  0.93900000  0.01600000  0.40800000  1.0 0.15005528
C  C44  1  0.43900000  0.48400000  0.90800000  1.0 0.15005528
C  C45  1  0.06100000  0.98400000  0.90800000  1.0 0.15005528
C  C46  1  0.56100000  0.51600000  0.40800000  1.0 0.15005528
C  C47  1  0.06100000  0.98400000  0.59200000  1.0 0.15005528
C  C48  1  0.56100000  0.51600000  0.09200000  1.0 0.15005528
C  C49  1  0.90900000  0.91000000  0.09260000  1.0 0.1320946639
C  C50  1  0.40900000  0.59000000  0.59260000  1.0 0.1320946639
C  C51  1  0.90900000  0.91000000  0.40740000  1.0 0.1320946639
C  C52  1  0.40900000  0.59000000  0.90740000  1.0 0.1320946639
C  C53  1  0.09100000  0.09000000  0.90740000  1.0 0.1320946639
C  C54  1  0.59100000  0.41000000  0.40740000  1.0 0.1320946639
C  C55  1  0.09100000  0.09000000  0.59260000  1.0 0.1320946639
C  C56  1  0.59100000  0.41000000  0.09260000  1.0 0.1320946639
C  C57  1  0.56000000  0.13000000  0.25000000  1.0 0.6504201611
C  C58  1  0.06000000  0.37000000  0.75000000  1.0 0.6504201611
C  C59  1  0.44000000  0.87000000  0.75000000  1.0 0.6504201611
C  C60  1  0.94000000  0.63000000  0.25000000  1.0 0.6504201611
N  N1  1  0.89300000  0.24000000  0.17200000  1.0 -0.443822665
N  N2  1  0.39300000  0.26000000  0.67200000  1.0 -0.443822665
N  N3  1  0.89300000  0.24000000  0.32800000  1.0 -0.443822665
N  N4  1  0.39300000  0.26000000  0.82800000  1.0 -0.443822665
N  N5  1  0.10700000  0.76000000  0.82800000  1.0 -0.443822665
N  N6  1  0.60700000  0.74000000  0.32800000  1.0 -0.443822665
N  N7  1  0.10700000  0.76000000  0.67200000  1.0 -0.443822665
N  N8  1  0.60700000  0.74000000  0.17200000  1.0 -0.443822665
N  N9  1  0.32800000  0.24700000  0.17250000  1.0 -0.4777340273
N  N10  1  0.82800000  0.25300000  0.67250000  1.0 -0.4777340273
N  N11  1  0.32800000  0.24700000  0.32750000  1.0 -0.4777340273
N  N12  1  0.82800000  0.25300000  0.82750000  1.0 -0.4777340273
N  N13  1  0.67200000  0.75300000  0.82750000  1.0 -0.4777340273
N  N14  1  0.17200000  0.74700000  0.32750000  1.0 -0.4777340273
N  N15  1  0.67200000  0.75300000  0.67250000  1.0 -0.4777340273
N  N16  1  0.17200000  0.74700000  0.17250000  1.0 -0.4777340273
N  N17  1  0.33800000  0.16000000  0.05670000  1.0 -0.4206794555
N  N18  1  0.83800000  0.34000000  0.55670000  1.0 -0.4206794555
N  N19  1  0.33800000  0.16000000  0.44330000  1.0 -0.4206794555
N  N20  1  0.83800000  0.34000000  0.94330000  1.0 -0.4206794555
N  N21  1  0.66200000  0.84000000  0.94330000  1.0 -0.4206794555
N  N22  1  0.16200000  0.66000000  0.44330000  1.0 -0.4206794555
N  N23  1  0.66200000  0.84000000  0.55670000  1.0 -0.4206794555
N  N24  1  0.16200000  0.66000000  0.05670000  1.0 -0.4206794555
N  N25  1  0.11700000  0.36100000  0.07700000  1.0 -0.4652838985
N  N26  1  0.61700000  0.13900000  0.57700000  1.0 -0.4652838985
N  N27  1  0.11700000  0.36100000  0.42300000  1.0 -0.4652838985
N  N28  1  0.61700000  0.13900000  0.92300000  1.0 -0.4652838985
N  N29  1  0.88300000  0.63900000  0.92300000  1.0 -0.4594818334
N  N30  1  0.38300000  0.86100000  0.42300000  1.0 -0.4652838985
N  N31  1  0.88300000  0.63900000  0.57700000  1.0 -0.4594818334
N  N32  1  0.38300000  0.86100000  0.07700000  1.0 -0.4652838985
N  N33  1  0.89900000  0.17200000  0.05700000  1.0 -0.2981001864
N  N34  1  0.39900000  0.32800000  0.55700000  1.0 -0.2981001864
N  N35  1  0.89900000  0.17200000  0.44300000  1.0 -0.2981001864
N  N36  1  0.39900000  0.32800000  0.94300000  1.0 -0.2981001864
N  N37  1  0.10100000  0.82800000  0.94300000  1.0 -0.2981001864
N  N38  1  0.60100000  0.67200000  0.44300000  1.0 -0.2981001864
N  N39  1  0.10100000  0.82800000  0.55700000  1.0 -0.2981001864
N  N40  1  0.60100000  0.67200000  0.05700000  1.0 -0.2981001864
N  N41  1  0.07500000  0.05100000  0.12720000  1.0 -0.2217745184
N  N42  1  0.57500000  0.44900000  0.62720000  1.0 -0.2217745184
N  N43  1  0.07500000  0.05100000  0.37280000  1.0 -0.2217745184
N  N44  1  0.57500000  0.44900000  0.87280000  1.0 -0.2217745184
N  N45  1  0.92500000  0.94900000  0.87280000  1.0 -0.2217745184
N  N46  1  0.42500000  0.55100000  0.37280000  1.0 -0.2217745184
N  N47  1  0.92500000  0.94900000  0.62720000  1.0 -0.2217745184
N  N48  1  0.42500000  0.55100000  0.12720000  1.0 -0.2217745184
Cl  Cl1  1  0.00330000  0.48520000  0.17130000  1.0 -0.1308206058
Cl  Cl2  1  0.50330000  0.01480000  0.67130000  1.0 -0.1308206058
Cl  Cl3  1  0.00330000  0.48520000  0.32870000  1.0 -0.1308206058
Cl  Cl4  1  0.50330000  0.01480000  0.82870000  1.0 -0.1308206058
Cl  Cl5  1  0.99670000  0.51480000  0.82870000  1.0 -0.1308206058
Cl  Cl6  1  0.49670000  0.98520000  0.32870000  1.0 -0.1308206058
Cl  Cl7  1  0.99670000  0.51480000  0.67130000  1.0 -0.1308206058
Cl  Cl8  1  0.49670000  0.98520000  0.17130000  1.0 -0.1308206058
Cl  Cl9  1  0.72000000  0.48080000  0.25000000  1.0 -0.090565931
Cl  Cl10  1  0.22000000  0.01920000  0.75000000  1.0 -0.090565931
Cl  Cl11  1  0.28000000  0.51920000  0.75000000  1.0 -0.090565931
Cl  Cl12  1  0.78000000  0.98080000  0.25000000  1.0 -0.090565931
