# DDEC6 charges by PACMAN v1.1 (https://github.com/mtap-research/PACMAN-charge/)
data_JOKYIR10_ASR_pacman
_symmetry_space_group_name_H-M   'P 1'
_cell_length_a   7.65700000
_cell_length_b   14.10400000
_cell_length_c   26.79900000
_cell_angle_alpha   90.00000000
_cell_angle_beta   90.00000000
_cell_angle_gamma   90.00000000
_symmetry_Int_Tables_number   1
_chemical_formula_structural   CdNiC7N6
_chemical_formula_sum   'Cd8 Ni8 C56 N48'
_cell_volume   2894.13999607
_cell_formula_units_Z   8
loop_
 _symmetry_equiv_pos_site_id
 _symmetry_equiv_pos_as_xyz
  1  'x, y, z'
loop_
 _atom_site_type_symbol
 _atom_site_label
 _atom_site_symmetry_multiplicity
 _atom_site_fract_x
 _atom_site_fract_y
 _atom_site_fract_z
 _atom_site_occupancy
 _atom_site_charge
Cd  Cd1  1  0.12340000  0.21640000  0.11507000  1.0 1.013895141
Cd  Cd2  1  0.62340000  0.28360000  0.61507000  1.0 1.013895141
Cd  Cd3  1  0.12340000  0.21640000  0.38493000  1.0 1.013895141
Cd  Cd4  1  0.62340000  0.28360000  0.88493000  1.0 1.013895141
Cd  Cd5  1  0.87660000  0.78360000  0.88493000  1.0 1.013895141
Cd  Cd6  1  0.37660000  0.71640000  0.38493000  1.0 1.013895141
Cd  Cd7  1  0.87660000  0.78360000  0.61507000  1.0 1.013895141
Cd  Cd8  1  0.37660000  0.71640000  0.11507000  1.0 1.013895141
Ni  Ni1  1  0.61450000  0.24640000  0.25000000  1.0 0.0819618437
Ni  Ni2  1  0.11450000  0.25360000  0.75000000  1.0 0.0819618437
Ni  Ni3  1  0.38550000  0.75360000  0.75000000  1.0 0.0819618437
Ni  Ni4  1  0.88550000  0.74640000  0.25000000  1.0 0.0819618437
Ni  Ni5  1  0.50000000  0.00000000  0.00000000  1.0 0.0865183293
Ni  Ni6  1  0.00000000  0.50000000  0.50000000  1.0 0.0865183293
Ni  Ni7  1  0.50000000  0.00000000  0.50000000  1.0 0.0819618437
Ni  Ni8  1  0.00000000  0.50000000  0.00000000  1.0 0.0865183293
C  C1  1  0.78700000  0.24350000  0.20090000  1.0 0.1427272521
C  C2  1  0.28700000  0.25650000  0.70090000  1.0 0.1427272521
C  C3  1  0.78700000  0.24350000  0.29910000  1.0 0.1427272521
C  C4  1  0.28700000  0.25650000  0.79910000  1.0 0.1427272521
C  C5  1  0.21300000  0.75650000  0.79910000  1.0 0.1427272521
C  C6  1  0.71300000  0.74350000  0.29910000  1.0 0.1427272521
C  C7  1  0.21300000  0.75650000  0.70090000  1.0 0.1427272521
C  C8  1  0.71300000  0.74350000  0.20090000  1.0 0.1427272521
C  C9  1  0.44200000  0.24540000  0.20130000  1.0 0.164143594
C  C10  1  0.94200000  0.25460000  0.70130000  1.0 0.164143594
C  C11  1  0.44200000  0.24540000  0.29870000  1.0 0.164143594
C  C12  1  0.94200000  0.25460000  0.79870000  1.0 0.164143594
C  C13  1  0.55800000  0.75460000  0.79870000  1.0 0.164143594
C  C14  1  0.05800000  0.74540000  0.29870000  1.0 0.164143594
C  C15  1  0.55800000  0.75460000  0.70130000  1.0 0.164143594
C  C16  1  0.05800000  0.74540000  0.20130000  1.0 0.164143594
C  C17  1  0.40100000  0.10410000  0.03280000  1.0 0.1335199084
C  C18  1  0.90100000  0.39590000  0.53280000  1.0 0.1335199084
C  C19  1  0.40100000  0.10410000  0.46720000  1.0 0.1335199084
C  C20  1  0.90100000  0.39590000  0.96720000  1.0 0.1335199084
C  C21  1  0.59900000  0.89590000  0.96720000  1.0 0.1335199084
C  C22  1  0.09900000  0.60410000  0.46720000  1.0 0.1335199084
C  C23  1  0.59900000  0.89590000  0.53280000  1.0 0.1335199084
C  C24  1  0.09900000  0.60410000  0.03280000  1.0 0.1335199084
C  C25  1  0.07500000  0.41830000  0.05020000  1.0 0.1671322416
C  C26  1  0.57500000  0.08170000  0.55020000  1.0 0.1671322416
C  C27  1  0.07500000  0.41830000  0.44980000  1.0 0.1671322416
C  C28  1  0.57500000  0.08170000  0.94980000  1.0 0.1671322416
C  C29  1  0.92500000  0.58170000  0.94980000  1.0 0.1671322416
C  C30  1  0.42500000  0.91830000  0.44980000  1.0 0.1671322416
C  C31  1  0.92500000  0.58170000  0.55020000  1.0 0.1671322416
C  C32  1  0.42500000  0.91830000  0.05020000  1.0 0.1671322416
C  C33  1  0.87400000  0.07400000  0.05970000  1.0 0.1427272521
C  C34  1  0.37400000  0.42600000  0.55970000  1.0 0.1427272521
C  C35  1  0.87400000  0.07400000  0.44030000  1.0 0.1427272521
C  C36  1  0.37400000  0.42600000  0.94030000  1.0 0.1427272521
C  C37  1  0.12600000  0.92600000  0.94030000  1.0 0.1427272521
C  C38  1  0.62600000  0.57400000  0.44030000  1.0 0.1427272521
C  C39  1  0.12600000  0.92600000  0.55970000  1.0 0.1427272521
C  C40  1  0.62600000  0.57400000  0.05970000  1.0 0.1427272521
C  C41  1  0.93900000  0.02000000  0.09400000  1.0 0.1814844329
C  C42  1  0.43900000  0.48000000  0.59400000  1.0 0.1814844329
C  C43  1  0.93900000  0.02000000  0.40600000  1.0 0.1814844329
C  C44  1  0.43900000  0.48000000  0.90600000  1.0 0.1814844329
C  C45  1  0.06100000  0.98000000  0.90600000  1.0 0.1814844329
C  C46  1  0.56100000  0.52000000  0.40600000  1.0 0.1814844329
C  C47  1  0.06100000  0.98000000  0.59400000  1.0 0.1814844329
C  C48  1  0.56100000  0.52000000  0.09400000  1.0 0.1814844329
C  C49  1  0.90800000  0.91310000  0.09430000  1.0 0.1068297911
C  C50  1  0.40800000  0.58690000  0.59430000  1.0 0.1068297911
C  C51  1  0.90800000  0.91310000  0.40570000  1.0 0.1068297911
C  C52  1  0.40800000  0.58690000  0.90570000  1.0 0.1040515496
C  C53  1  0.09200000  0.08690000  0.90570000  1.0 0.1040515496
C  C54  1  0.59200000  0.41310000  0.40570000  1.0 0.1068297911
C  C55  1  0.09200000  0.08690000  0.59430000  1.0 0.1040515496
C  C56  1  0.59200000  0.41310000  0.09430000  1.0 0.1068297911
N  N1  1  0.89700000  0.24100000  0.17160000  1.0 -0.3768523578
N  N2  1  0.39700000  0.25900000  0.67160000  1.0 -0.3768523578
N  N3  1  0.89700000  0.24100000  0.32840000  1.0 -0.3768523578
N  N4  1  0.39700000  0.25900000  0.82840000  1.0 -0.3768523578
N  N5  1  0.10300000  0.75900000  0.82840000  1.0 -0.3768523578
N  N6  1  0.60300000  0.74100000  0.32840000  1.0 -0.3768523578
N  N7  1  0.10300000  0.75900000  0.67160000  1.0 -0.3768523578
N  N8  1  0.60300000  0.74100000  0.17160000  1.0 -0.3768523578
N  N9  1  0.33500000  0.24140000  0.17110000  1.0 -0.3872531485
N  N10  1  0.83500000  0.25860000  0.67110000  1.0 -0.3872531485
N  N11  1  0.33500000  0.24140000  0.32890000  1.0 -0.3872531485
N  N12  1  0.83500000  0.25860000  0.82890000  1.0 -0.3872531485
N  N13  1  0.66500000  0.75860000  0.82890000  1.0 -0.3872531485
N  N14  1  0.16500000  0.74140000  0.32890000  1.0 -0.3872531485
N  N15  1  0.66500000  0.75860000  0.67110000  1.0 -0.3872531485
N  N16  1  0.16500000  0.74140000  0.17110000  1.0 -0.3872531485
N  N17  1  0.33600000  0.16540000  0.05270000  1.0 -0.3668491487
N  N18  1  0.83600000  0.33460000  0.55270000  1.0 -0.3637070898
N  N19  1  0.33600000  0.16540000  0.44730000  1.0 -0.3668491487
N  N20  1  0.83600000  0.33460000  0.94730000  1.0 -0.3637070898
N  N21  1  0.66400000  0.83460000  0.94730000  1.0 -0.3668491487
N  N22  1  0.16400000  0.66540000  0.44730000  1.0 -0.3637070898
N  N23  1  0.66400000  0.83460000  0.55270000  1.0 -0.3668491487
N  N24  1  0.16400000  0.66540000  0.05270000  1.0 -0.3637070898
N  N25  1  0.11900000  0.36860000  0.08070000  1.0 -0.4040324222
N  N26  1  0.61900000  0.13140000  0.58070000  1.0 -0.4079458744
N  N27  1  0.11900000  0.36860000  0.41930000  1.0 -0.4040324222
N  N28  1  0.61900000  0.13140000  0.91930000  1.0 -0.4079458744
N  N29  1  0.88100000  0.63140000  0.91930000  1.0 -0.4079458744
N  N30  1  0.38100000  0.86860000  0.41930000  1.0 -0.4079458744
N  N31  1  0.88100000  0.63140000  0.58070000  1.0 -0.4079458744
N  N32  1  0.38100000  0.86860000  0.08070000  1.0 -0.4079458744
N  N33  1  0.90300000  0.17560000  0.05600000  1.0 -0.2331197307
N  N34  1  0.40300000  0.32440000  0.55600000  1.0 -0.2331197307
N  N35  1  0.90300000  0.17560000  0.44400000  1.0 -0.2331197307
N  N36  1  0.40300000  0.32440000  0.94400000  1.0 -0.2331197307
N  N37  1  0.09700000  0.82440000  0.94400000  1.0 -0.2358342241
N  N38  1  0.59700000  0.67560000  0.44400000  1.0 -0.2331197307
N  N39  1  0.09700000  0.82440000  0.55600000  1.0 -0.2331197307
N  N40  1  0.59700000  0.67560000  0.05600000  1.0 -0.2331197307
N  N41  1  0.07800000  0.05210000  0.12750000  1.0 -0.3637070898
N  N42  1  0.57800000  0.44790000  0.62750000  1.0 -0.3668491487
N  N43  1  0.07800000  0.05210000  0.37250000  1.0 -0.3637070898
N  N44  1  0.57800000  0.44790000  0.87250000  1.0 -0.3668491487
N  N45  1  0.92200000  0.94790000  0.87250000  1.0 -0.3668491487
N  N46  1  0.42200000  0.55210000  0.37250000  1.0 -0.3637070898
N  N47  1  0.92200000  0.94790000  0.62750000  1.0 -0.3668491487
N  N48  1  0.42200000  0.55210000  0.12750000  1.0 -0.3637070898
