# DDEC6 charges by PACMAN v1.1 (https://github.com/mtap-research/PACMAN-charge/)
data_JOKYOX10_ASR_pacman
_symmetry_space_group_name_H-M   'P 1'
_cell_length_a   7.58600000
_cell_length_b   14.15700000
_cell_length_c   26.69900000
_cell_angle_alpha   90.00000000
_cell_angle_beta   90.00000000
_cell_angle_gamma   90.00000000
_symmetry_Int_Tables_number   1
_chemical_formula_structural   CdNiC7N6
_chemical_formula_sum   'Cd8 Ni8 C56 N48'
_cell_volume   2867.33915840
_cell_formula_units_Z   8
loop_
 _symmetry_equiv_pos_site_id
 _symmetry_equiv_pos_as_xyz
  1  'x, y, z'
loop_
 _atom_site_type_symbol
 _atom_site_label
 _atom_site_symmetry_multiplicity
 _atom_site_fract_x
 _atom_site_fract_y
 _atom_site_fract_z
 _atom_site_occupancy
 _atom_site_charge
Cd  Cd1  1  0.13075000  0.21894000  0.11414000  1.0 1.0124047394
Cd  Cd2  1  0.63075000  0.28106000  0.61414000  1.0 1.0124047394
Cd  Cd3  1  0.13075000  0.21894000  0.38586000  1.0 1.0124047394
Cd  Cd4  1  0.63075000  0.28106000  0.88586000  1.0 1.0124047394
Cd  Cd5  1  0.86925000  0.78106000  0.88586000  1.0 1.0124047394
Cd  Cd6  1  0.36925000  0.71894000  0.38586000  1.0 1.0124047394
Cd  Cd7  1  0.86925000  0.78106000  0.61414000  1.0 1.0124047394
Cd  Cd8  1  0.36925000  0.71894000  0.11414000  1.0 1.0124047394
Ni  Ni1  1  0.62410000  0.24890000  0.25000000  1.0 0.0891534542
Ni  Ni2  1  0.12410000  0.25110000  0.75000000  1.0 0.0891534542
Ni  Ni3  1  0.37590000  0.75110000  0.75000000  1.0 0.0891534542
Ni  Ni4  1  0.87590000  0.74890000  0.25000000  1.0 0.0891534542
Ni  Ni5  1  0.50000000  0.00000000  0.00000000  1.0 0.0891534542
Ni  Ni6  1  0.00000000  0.50000000  0.50000000  1.0 0.0842849422
Ni  Ni7  1  0.50000000  0.00000000  0.50000000  1.0 0.0891534542
Ni  Ni8  1  0.00000000  0.50000000  0.00000000  1.0 0.0842849422
C  C1  1  0.79800000  0.24900000  0.20140000  1.0 0.1467937376
C  C2  1  0.29800000  0.25100000  0.70140000  1.0 0.1467937376
C  C3  1  0.79800000  0.24900000  0.29860000  1.0 0.1467937376
C  C4  1  0.29800000  0.25100000  0.79860000  1.0 0.1467937376
C  C5  1  0.20200000  0.75100000  0.79860000  1.0 0.1467937376
C  C6  1  0.70200000  0.74900000  0.29860000  1.0 0.1467937376
C  C7  1  0.20200000  0.75100000  0.70140000  1.0 0.1467937376
C  C8  1  0.70200000  0.74900000  0.20140000  1.0 0.1467937376
C  C9  1  0.45130000  0.24650000  0.20080000  1.0 0.1732499416
C  C10  1  0.95130000  0.25350000  0.70080000  1.0 0.1763090884
C  C11  1  0.45130000  0.24650000  0.29920000  1.0 0.1732499416
C  C12  1  0.95130000  0.25350000  0.79920000  1.0 0.1763090884
C  C13  1  0.54870000  0.75350000  0.79920000  1.0 0.1763090884
C  C14  1  0.04870000  0.74650000  0.29920000  1.0 0.1732499416
C  C15  1  0.54870000  0.75350000  0.70080000  1.0 0.1763090884
C  C16  1  0.04870000  0.74650000  0.20080000  1.0 0.1732499416
C  C17  1  0.40100000  0.10430000  0.03160000  1.0 0.1331211436
C  C18  1  0.90100000  0.39570000  0.53160000  1.0 0.1371443988
C  C19  1  0.40100000  0.10430000  0.46840000  1.0 0.1331211436
C  C20  1  0.90100000  0.39570000  0.96840000  1.0 0.1371443988
C  C21  1  0.59900000  0.89570000  0.96840000  1.0 0.1331211436
C  C22  1  0.09900000  0.60430000  0.46840000  1.0 0.1371443988
C  C23  1  0.59900000  0.89570000  0.53160000  1.0 0.1331211436
C  C24  1  0.09900000  0.60430000  0.03160000  1.0 0.1371443988
C  C25  1  0.08070000  0.42010000  0.05020000  1.0 0.1732499416
C  C26  1  0.58070000  0.07990000  0.55020000  1.0 0.1763090884
C  C27  1  0.08070000  0.42010000  0.44980000  1.0 0.1732499416
C  C28  1  0.58070000  0.07990000  0.94980000  1.0 0.1763090884
C  C29  1  0.91930000  0.57990000  0.94980000  1.0 0.1732499416
C  C30  1  0.41930000  0.92010000  0.44980000  1.0 0.1732499416
C  C31  1  0.91930000  0.57990000  0.55020000  1.0 0.1732499416
C  C32  1  0.41930000  0.92010000  0.05020000  1.0 0.1732499416
C  C33  1  0.87700000  0.07530000  0.06040000  1.0 0.1371443988
C  C34  1  0.37700000  0.42470000  0.56040000  1.0 0.1371443988
C  C35  1  0.87700000  0.07530000  0.43960000  1.0 0.1371443988
C  C36  1  0.37700000  0.42470000  0.93960000  1.0 0.1371443988
C  C37  1  0.12300000  0.92470000  0.93960000  1.0 0.1371443988
C  C38  1  0.62300000  0.57530000  0.43960000  1.0 0.1371443988
C  C39  1  0.12300000  0.92470000  0.56040000  1.0 0.1371443988
C  C40  1  0.62300000  0.57530000  0.06040000  1.0 0.1371443988
C  C41  1  0.93600000  0.02550000  0.09860000  1.0 0.1886251341
C  C42  1  0.43600000  0.47450000  0.59860000  1.0 0.1886251341
C  C43  1  0.93600000  0.02550000  0.40140000  1.0 0.1886251341
C  C44  1  0.43600000  0.47450000  0.90140000  1.0 0.1886251341
C  C45  1  0.06400000  0.97450000  0.90140000  1.0 0.1886251341
C  C46  1  0.56400000  0.52550000  0.40140000  1.0 0.1886251341
C  C47  1  0.06400000  0.97450000  0.59860000  1.0 0.1886251341
C  C48  1  0.56400000  0.52550000  0.09860000  1.0 0.1886251341
C  C49  1  0.89600000  0.92040000  0.10050000  1.0 0.0966968867
C  C50  1  0.39600000  0.57960000  0.60050000  1.0 0.0966968867
C  C51  1  0.89600000  0.92040000  0.39950000  1.0 0.0966968867
C  C52  1  0.39600000  0.57960000  0.89950000  1.0 0.0966968867
C  C53  1  0.10400000  0.07960000  0.89950000  1.0 0.0966968867
C  C54  1  0.60400000  0.42040000  0.39950000  1.0 0.0891534542
C  C55  1  0.10400000  0.07960000  0.60050000  1.0 0.0966968867
C  C56  1  0.60400000  0.42040000  0.10050000  1.0 0.0891534542
N  N1  1  0.90500000  0.24900000  0.17140000  1.0 -0.3778039899
N  N2  1  0.40500000  0.25100000  0.67140000  1.0 -0.3778039899
N  N3  1  0.90500000  0.24900000  0.32860000  1.0 -0.3778039899
N  N4  1  0.40500000  0.25100000  0.82860000  1.0 -0.3778039899
N  N5  1  0.09500000  0.75100000  0.82860000  1.0 -0.3712554416
N  N6  1  0.59500000  0.74900000  0.32860000  1.0 -0.3778039899
N  N7  1  0.09500000  0.75100000  0.67140000  1.0 -0.3712554416
N  N8  1  0.59500000  0.74900000  0.17140000  1.0 -0.3778039899
N  N9  1  0.34520000  0.24210000  0.17070000  1.0 -0.3905095661
N  N10  1  0.84520000  0.25790000  0.67070000  1.0 -0.3905095661
N  N11  1  0.34520000  0.24210000  0.32930000  1.0 -0.3905095661
N  N12  1  0.84520000  0.25790000  0.82930000  1.0 -0.3905095661
N  N13  1  0.65480000  0.75790000  0.82930000  1.0 -0.3951502149
N  N14  1  0.15480000  0.74210000  0.32930000  1.0 -0.3905095661
N  N15  1  0.65480000  0.75790000  0.67070000  1.0 -0.3951502149
N  N16  1  0.15480000  0.74210000  0.17070000  1.0 -0.3905095661
N  N17  1  0.33800000  0.16700000  0.05150000  1.0 -0.3647180204
N  N18  1  0.83800000  0.33300000  0.55150000  1.0 -0.3712554416
N  N19  1  0.33800000  0.16700000  0.44850000  1.0 -0.3647180204
N  N20  1  0.83800000  0.33300000  0.94850000  1.0 -0.3712554416
N  N21  1  0.66200000  0.83300000  0.94850000  1.0 -0.3712554416
N  N22  1  0.16200000  0.66700000  0.44850000  1.0 -0.3778039899
N  N23  1  0.66200000  0.83300000  0.55150000  1.0 -0.3712554416
N  N24  1  0.16200000  0.66700000  0.05150000  1.0 -0.3778039899
N  N25  1  0.12600000  0.36960000  0.08030000  1.0 -0.4118189741
N  N26  1  0.62600000  0.13040000  0.58030000  1.0 -0.4118189741
N  N27  1  0.12600000  0.36960000  0.41970000  1.0 -0.4118189741
N  N28  1  0.62600000  0.13040000  0.91970000  1.0 -0.4118189741
N  N29  1  0.87400000  0.63040000  0.91970000  1.0 -0.4118189741
N  N30  1  0.37400000  0.86960000  0.41970000  1.0 -0.4118189741
N  N31  1  0.87400000  0.63040000  0.58030000  1.0 -0.4118189741
N  N32  1  0.37400000  0.86960000  0.08030000  1.0 -0.4118189741
N  N33  1  0.90100000  0.17650000  0.05700000  1.0 -0.2215656269
N  N34  1  0.40100000  0.32350000  0.55700000  1.0 -0.2288347288
N  N35  1  0.90100000  0.17650000  0.44300000  1.0 -0.2215656269
N  N36  1  0.40100000  0.32350000  0.94300000  1.0 -0.2288347288
N  N37  1  0.09900000  0.82350000  0.94300000  1.0 -0.2288347288
N  N38  1  0.59900000  0.67650000  0.44300000  1.0 -0.2288347288
N  N39  1  0.09900000  0.82350000  0.55700000  1.0 -0.2288347288
N  N40  1  0.59900000  0.67650000  0.05700000  1.0 -0.2288347288
N  N41  1  0.08000000  0.05630000  0.12950000  1.0 -0.3712554416
N  N42  1  0.58000000  0.44370000  0.62950000  1.0 -0.3712554416
N  N43  1  0.08000000  0.05630000  0.37050000  1.0 -0.3712554416
N  N44  1  0.58000000  0.44370000  0.87050000  1.0 -0.3712554416
N  N45  1  0.92000000  0.94370000  0.87050000  1.0 -0.3778039899
N  N46  1  0.42000000  0.55630000  0.37050000  1.0 -0.3778039899
N  N47  1  0.92000000  0.94370000  0.62950000  1.0 -0.3778039899
N  N48  1  0.42000000  0.55630000  0.12950000  1.0 -0.3712554416
