# DDEC6 charges by PACMAN v1.1 (https://github.com/mtap-research/PACMAN-charge/)
data_JOMYOC_FSR_pacman
_symmetry_space_group_name_H-M   'P 1'
_cell_length_a   8.42492000
_cell_length_b   8.42492000
_cell_length_c   16.55400000
_cell_angle_alpha   87.58910000
_cell_angle_beta   92.41090000
_cell_angle_gamma   121.24400000
_symmetry_Int_Tables_number   1
_chemical_formula_structural   CuHC5(NF3)2
_chemical_formula_sum   'Cu4 H4 C20 N8 F24'
_cell_volume   1003.40635248
_cell_formula_units_Z   4
loop_
 _symmetry_equiv_pos_site_id
 _symmetry_equiv_pos_as_xyz
  1  'x, y, z'
loop_
 _atom_site_type_symbol
 _atom_site_label
 _atom_site_symmetry_multiplicity
 _atom_site_fract_x
 _atom_site_fract_y
 _atom_site_fract_z
 _atom_site_occupancy
 _atom_site_charge
Cu  Cu1  1  0.00000000  0.50000000  0.50000000  1.0 0.3397198745
Cu  Cu2  1  0.50000000  0.00000000  0.00000000  1.0 0.3397198745
Cu  Cu3  1  0.40574000  0.40574000  0.25000000  1.0 0.3521483966
Cu  Cu4  1  0.59426000  0.59426000  0.75000000  1.0 0.3521483966
H  H1  1  0.66700000  0.45940000  0.39740000  1.0 0.0807561704
H  H2  1  0.45940000  0.66700000  0.10260000  1.0 0.0807561704
H  H3  1  0.33300000  0.54060000  0.60260000  1.0 0.0807561704
H  H4  1  0.54060000  0.33300000  0.89740000  1.0 0.0807561704
C  C1  1  0.06190000  0.46090000  0.30670000  1.0 0.3690378495
C  C2  1  0.19930000  0.47130000  0.36760000  1.0 -0.0322570592
C  C3  1  0.33970000  0.50090000  0.48250000  1.0 0.0897131913
C  C4  1  0.43800000  0.47660000  0.42070000  1.0 0.0897131913
C  C5  1  0.60240000  0.47520000  0.43740000  1.0 -0.2867184055
C  C6  1  0.46090000  0.06190000  0.19330000  1.0 0.3690378495
C  C7  1  0.47130000  0.19930000  0.13240000  1.0 -0.0322570592
C  C8  1  0.50090000  0.33970000  0.01750000  1.0 0.0897131913
C  C9  1  0.47660000  0.43800000  0.07930000  1.0 0.0897131913
C  C10  1  0.47520000  0.60240000  0.06260000  1.0 -0.2867184055
C  C11  1  0.93810000  0.53910000  0.69330000  1.0 0.3648486563
C  C12  1  0.80070000  0.52870000  0.63240000  1.0 -0.0322570592
C  C13  1  0.66030000  0.49910000  0.51750000  1.0 0.0897131913
C  C14  1  0.56200000  0.52340000  0.57930000  1.0 0.0897131913
C  C15  1  0.39760000  0.52480000  0.56260000  1.0 -0.2845552436
C  C16  1  0.53910000  0.93810000  0.80670000  1.0 0.3690378495
C  C17  1  0.52870000  0.80070000  0.86760000  1.0 -0.0322570592
C  C18  1  0.49910000  0.66030000  0.98250000  1.0 0.0897131913
C  C19  1  0.52340000  0.56200000  0.92070000  1.0 0.0897131913
C  C20  1  0.52480000  0.39760000  0.93740000  1.0 -0.2867184055
N  N1  1  0.18720000  0.49580000  0.44520000  1.0 -0.3737261019
N  N2  1  0.34450000  0.45930000  0.34800000  1.0 -0.3939373366
N  N3  1  0.49580000  0.18720000  0.05480000  1.0 -0.3737261019
N  N4  1  0.45930000  0.34450000  0.15200000  1.0 -0.3939373366
N  N5  1  0.81280000  0.50420000  0.55480000  1.0 -0.3737261019
N  N6  1  0.65550000  0.54070000  0.65200000  1.0 -0.3939373366
N  N7  1  0.50420000  0.81280000  0.94520000  1.0 -0.3737261019
N  N8  1  0.54070000  0.65550000  0.84800000  1.0 -0.3939373366
F  F1  1  0.91460000  0.30260000  0.30320000  1.0 0.029435333
F  F2  1  0.00060000  0.57340000  0.31690000  1.0 0.0477335084
F  F3  1  0.12700000  0.51100000  0.23420000  1.0 0.00067141
F  F4  1  0.89430000  0.37110000  0.33270000  1.0 0.0111694193
F  F5  1  0.08710000  0.62630000  0.29060000  1.0 0.029435333
F  F6  1  0.05180000  0.37820000  0.24050000  1.0 -0.0023279807
F  F7  1  0.30260000  0.91460000  0.19680000  1.0 0.029435333
F  F8  1  0.57340000  0.00060000  0.18310000  1.0 0.0477335084
F  F9  1  0.51100000  0.12700000  0.26580000  1.0 0.00067141
F  F10  1  0.37110000  0.89430000  0.16730000  1.0 0.0111694193
F  F11  1  0.62630000  0.08710000  0.20940000  1.0 0.029435333
F  F12  1  0.37820000  0.05180000  0.25950000  1.0 -0.0023279807
F  F13  1  0.08540000  0.69740000  0.69680000  1.0 0.029435333
F  F14  1  0.99940000  0.42660000  0.68310000  1.0 0.0436526292
F  F15  1  0.87300000  0.48900000  0.76580000  1.0 -0.0023279807
F  F16  1  0.10570000  0.62890000  0.66730000  1.0 0.0111694193
F  F17  1  0.91290000  0.37370000  0.70940000  1.0 0.029435333
F  F18  1  0.94820000  0.62180000  0.75950000  1.0 -0.0070401461
F  F19  1  0.69740000  0.08540000  0.80320000  1.0 0.029435333
F  F20  1  0.42660000  0.99940000  0.81690000  1.0 0.0477335084
F  F21  1  0.48900000  0.87300000  0.73420000  1.0 0.00067141
F  F22  1  0.62890000  0.10570000  0.83270000  1.0 0.0111694193
F  F23  1  0.37370000  0.91290000  0.79060000  1.0 0.029435333
F  F24  1  0.62180000  0.94820000  0.74050000  1.0 -0.0070401461
