# DDEC6 charges by PACMAN v1.1 (https://github.com/mtap-research/PACMAN-charge/)
data_JOPCID_ASR_pacman
_symmetry_space_group_name_H-M   'P 1'
_cell_length_a   16.84770000
_cell_length_b   16.40560000
_cell_length_c   24.73210000
_cell_angle_alpha   90.00000000
_cell_angle_beta   94.16890000
_cell_angle_gamma   90.00000000
_symmetry_Int_Tables_number   1
_chemical_formula_structural   Zn2H71PdC79N7O8
_chemical_formula_sum   'Zn4 H142 Pd2 C158 N14 O16'
_cell_volume   6817.78188505
_cell_formula_units_Z   2
loop_
 _symmetry_equiv_pos_site_id
 _symmetry_equiv_pos_as_xyz
  1  'x, y, z'
loop_
 _atom_site_type_symbol
 _atom_site_label
 _atom_site_symmetry_multiplicity
 _atom_site_fract_x
 _atom_site_fract_y
 _atom_site_fract_z
 _atom_site_occupancy
 _atom_site_charge
Zn  Zn1  1  0.73597000  0.50000000  0.10567000  1.0 0.8399236352
Zn  Zn2  1  0.74868000  0.50000000  0.22609000  1.0 0.8399236352
Zn  Zn3  1  0.26403000  0.50000000  0.89433000  1.0 0.8399236352
Zn  Zn4  1  0.25132000  0.50000000  0.77391000  1.0 0.8399236352
H  H1  1  0.53570000  0.92580000  0.15990000  1.0 0.1293405225
H  H2  1  0.31630000  0.69800000  0.17070000  1.0 0.1387876415
H  H3  1  0.17000000  0.69830000  0.17000000  1.0 0.1387876415
H  H4  1  0.94690000  0.92610000  0.16460000  1.0 0.1293405225
H  H5  1  0.47670000  0.78390000  0.24300000  1.0 0.1293405225
H  H6  1  0.44750000  0.77120000  0.08520000  1.0 0.1293405225
H  H7  1  0.03520000  0.77800000  0.24650000  1.0 0.1293405225
H  H8  1  0.01550000  0.78060000  0.08830000  1.0 0.1293405225
H  H9  1  0.57530000  0.68800000  0.24390000  1.0 0.1387876415
H  H10  1  0.54290000  0.67200000  0.08480000  1.0 0.1293405225
H  H11  1  0.93640000  0.68150000  0.24630000  1.0 0.1293405225
H  H12  1  0.92250000  0.67690000  0.08790000  1.0 0.1387876415
H  H13  1  0.75140000  0.62120000  0.92340000  1.0 0.1293405225
H  H14  1  0.67320000  0.65690000  0.03530000  1.0 0.1387876415
H  H15  1  0.72150000  0.69510000  0.98980000  1.0 0.1387876415
H  H16  1  0.76530000  0.66950000  0.04520000  1.0 0.1512365651
H  H17  1  0.75260000  0.38050000  0.40970000  1.0 0.1718726879
H  H18  1  0.70780000  0.33300000  0.29620000  1.0 0.1387876415
H  H19  1  0.77130000  0.30980000  0.34320000  1.0 0.1387876415
H  H20  1  0.79860000  0.34620000  0.28900000  1.0 0.1387876415
H  H21  1  0.60020000  0.55260000  0.85030000  1.0 0.0945689977
H  H22  1  0.57460000  0.48820000  0.80550000  1.0 0.0798772105
H  H23  1  0.60770000  0.45930000  0.86330000  1.0 0.0945689977
H  H24  1  0.90210000  0.46800000  0.90360000  1.0 0.0621238855
H  H25  1  0.95540000  0.47710000  0.85460000  1.0 0.0510241353
H  H26  1  0.92430000  0.55490000  0.88310000  1.0 0.0510241353
H  H27  1  0.55110000  0.52140000  0.48610000  1.0 0.0019680523
H  H28  1  0.59830000  0.53330000  0.43430000  1.0 0.0398687487
H  H29  1  0.57980000  0.44530000  0.45460000  1.0 0.0171056708
H  H30  1  0.93020000  0.53430000  0.51310000  1.0 0.0171056708
H  H31  1  0.91420000  0.44540000  0.49170000  1.0 0.0171056708
H  H32  1  0.88720000  0.52030000  0.45550000  1.0 0.0301007536
H  H33  1  0.81560000  0.54740000  0.67560000  1.0 0.1073709876
H  H34  1  0.53570000  0.07420000  0.15990000  1.0 0.1293405225
H  H35  1  0.31630000  0.30200000  0.17070000  1.0 0.1387876415
H  H36  1  0.17000000  0.30170000  0.17000000  1.0 0.1387876415
H  H37  1  0.94690000  0.07390000  0.16460000  1.0 0.1293405225
H  H38  1  0.47670000  0.21610000  0.24300000  1.0 0.1293405225
H  H39  1  0.44750000  0.22880000  0.08520000  1.0 0.1293405225
H  H40  1  0.03520000  0.22200000  0.24650000  1.0 0.1293405225
H  H41  1  0.01550000  0.21940000  0.08830000  1.0 0.1293405225
H  H42  1  0.57530000  0.31200000  0.24390000  1.0 0.1387876415
H  H43  1  0.54290000  0.32800000  0.08480000  1.0 0.1293405225
H  H44  1  0.93640000  0.31850000  0.24630000  1.0 0.1293405225
H  H45  1  0.92250000  0.32310000  0.08790000  1.0 0.1387876415
H  H46  1  0.75140000  0.37880000  0.92340000  1.0 0.1293405225
H  H47  1  0.67320000  0.34310000  0.03530000  1.0 0.1387876415
H  H48  1  0.72150000  0.30490000  0.98980000  1.0 0.1387876415
H  H49  1  0.76530000  0.33050000  0.04520000  1.0 0.1512365651
H  H50  1  0.75260000  0.61950000  0.40970000  1.0 0.1718726879
H  H51  1  0.70780000  0.66700000  0.29620000  1.0 0.1387876415
H  H52  1  0.77130000  0.69020000  0.34320000  1.0 0.1387876415
H  H53  1  0.79860000  0.65380000  0.28900000  1.0 0.1387876415
H  H54  1  0.60020000  0.44740000  0.85030000  1.0 0.0945689977
H  H55  1  0.57460000  0.51180000  0.80550000  1.0 0.0798772105
H  H56  1  0.60770000  0.54070000  0.86330000  1.0 0.0945689977
H  H57  1  0.90210000  0.53200000  0.90360000  1.0 0.0621238855
H  H58  1  0.95540000  0.52290000  0.85460000  1.0 0.0510241353
H  H59  1  0.92430000  0.44510000  0.88310000  1.0 0.0510241353
H  H60  1  0.55110000  0.47860000  0.48610000  1.0 0.0019680523
H  H61  1  0.59830000  0.46670000  0.43430000  1.0 0.0398687487
H  H62  1  0.57980000  0.55470000  0.45460000  1.0 0.0171056708
H  H63  1  0.93020000  0.46570000  0.51310000  1.0 0.0171056708
H  H64  1  0.91420000  0.55460000  0.49170000  1.0 0.0171056708
H  H65  1  0.88720000  0.47970000  0.45550000  1.0 0.0301007536
H  H66  1  0.81560000  0.45260000  0.67560000  1.0 0.1073709876
H  H67  1  0.89220000  0.50000000  0.76230000  1.0 0.1293405225
H  H68  1  0.65700000  0.50000000  0.73920000  1.0 0.124430731
H  H69  1  0.86350000  0.50000000  0.59180000  1.0 0.1718726879
H  H70  1  0.63120000  0.50000000  0.57620000  1.0 0.1512365651
H  H71  1  0.67560000  0.50000000  0.65790000  1.0 0.2790235058
H  H72  1  0.46430000  0.92580000  0.84010000  1.0 0.1293405225
H  H73  1  0.68370000  0.69800000  0.82930000  1.0 0.1387876415
H  H74  1  0.83000000  0.69830000  0.83000000  1.0 0.1387876415
H  H75  1  0.05310000  0.92610000  0.83540000  1.0 0.1293405225
H  H76  1  0.52330000  0.78390000  0.75700000  1.0 0.1293405225
H  H77  1  0.55250000  0.77120000  0.91480000  1.0 0.1293405225
H  H78  1  0.96480000  0.77800000  0.75350000  1.0 0.1293405225
H  H79  1  0.98450000  0.78060000  0.91170000  1.0 0.1293405225
H  H80  1  0.42470000  0.68800000  0.75610000  1.0 0.1387876415
H  H81  1  0.45710000  0.67200000  0.91520000  1.0 0.1293405225
H  H82  1  0.06360000  0.68150000  0.75370000  1.0 0.1293405225
H  H83  1  0.07750000  0.67690000  0.91210000  1.0 0.1387876415
H  H84  1  0.24860000  0.62120000  0.07660000  1.0 0.1293405225
H  H85  1  0.32680000  0.65690000  0.96470000  1.0 0.1387876415
H  H86  1  0.27850000  0.69510000  0.01020000  1.0 0.1387876415
H  H87  1  0.23470000  0.66950000  0.95480000  1.0 0.1512365651
H  H88  1  0.24740000  0.38050000  0.59030000  1.0 0.1718726879
H  H89  1  0.29220000  0.33300000  0.70380000  1.0 0.1387876415
H  H90  1  0.22870000  0.30980000  0.65680000  1.0 0.1387876415
H  H91  1  0.20140000  0.34620000  0.71100000  1.0 0.1387876415
H  H92  1  0.39980000  0.55260000  0.14970000  1.0 0.0945689977
H  H93  1  0.42540000  0.48820000  0.19450000  1.0 0.0798772105
H  H94  1  0.39230000  0.45930000  0.13670000  1.0 0.0945689977
H  H95  1  0.09790000  0.46800000  0.09640000  1.0 0.0621238855
H  H96  1  0.04460000  0.47710000  0.14540000  1.0 0.0510241353
H  H97  1  0.07570000  0.55490000  0.11690000  1.0 0.0510241353
H  H98  1  0.44890000  0.52140000  0.51390000  1.0 0.0019680523
H  H99  1  0.40170000  0.53330000  0.56570000  1.0 0.0398687487
H  H100  1  0.42020000  0.44530000  0.54540000  1.0 0.0171056708
H  H101  1  0.06980000  0.53430000  0.48690000  1.0 0.0171056708
H  H102  1  0.08580000  0.44540000  0.50830000  1.0 0.0171056708
H  H103  1  0.11280000  0.52030000  0.54450000  1.0 0.0301007536
H  H104  1  0.18440000  0.54740000  0.32440000  1.0 0.1073709876
H  H105  1  0.46430000  0.07420000  0.84010000  1.0 0.1293405225
H  H106  1  0.68370000  0.30200000  0.82930000  1.0 0.1387876415
H  H107  1  0.83000000  0.30170000  0.83000000  1.0 0.1387876415
H  H108  1  0.05310000  0.07390000  0.83540000  1.0 0.1293405225
H  H109  1  0.52330000  0.21610000  0.75700000  1.0 0.1293405225
H  H110  1  0.55250000  0.22880000  0.91480000  1.0 0.1293405225
H  H111  1  0.96480000  0.22200000  0.75350000  1.0 0.1293405225
H  H112  1  0.98450000  0.21940000  0.91170000  1.0 0.1293405225
H  H113  1  0.42470000  0.31200000  0.75610000  1.0 0.1387876415
H  H114  1  0.45710000  0.32800000  0.91520000  1.0 0.1293405225
H  H115  1  0.06360000  0.31850000  0.75370000  1.0 0.1293405225
H  H116  1  0.07750000  0.32310000  0.91210000  1.0 0.1387876415
H  H117  1  0.24860000  0.37880000  0.07660000  1.0 0.1293405225
H  H118  1  0.32680000  0.34310000  0.96470000  1.0 0.1387876415
H  H119  1  0.27850000  0.30490000  0.01020000  1.0 0.1387876415
H  H120  1  0.23470000  0.33050000  0.95480000  1.0 0.1512365651
H  H121  1  0.24740000  0.61950000  0.59030000  1.0 0.1718726879
H  H122  1  0.29220000  0.66700000  0.70380000  1.0 0.1387876415
H  H123  1  0.22870000  0.69020000  0.65680000  1.0 0.1387876415
H  H124  1  0.20140000  0.65380000  0.71100000  1.0 0.1387876415
H  H125  1  0.39980000  0.44740000  0.14970000  1.0 0.0945689977
H  H126  1  0.42540000  0.51180000  0.19450000  1.0 0.0798772105
H  H127  1  0.39230000  0.54070000  0.13670000  1.0 0.0945689977
H  H128  1  0.09790000  0.53200000  0.09640000  1.0 0.0621238855
H  H129  1  0.04460000  0.52290000  0.14540000  1.0 0.0510241353
H  H130  1  0.07570000  0.44510000  0.11690000  1.0 0.0510241353
H  H131  1  0.44890000  0.47860000  0.51390000  1.0 0.0019680523
H  H132  1  0.40170000  0.46670000  0.56570000  1.0 0.0398687487
H  H133  1  0.42020000  0.55470000  0.54540000  1.0 0.0171056708
H  H134  1  0.06980000  0.46570000  0.48690000  1.0 0.0171056708
H  H135  1  0.08580000  0.55460000  0.50830000  1.0 0.0171056708
H  H136  1  0.11280000  0.47970000  0.54450000  1.0 0.0301007536
H  H137  1  0.18440000  0.45260000  0.32440000  1.0 0.1073709876
H  H138  1  0.10780000  0.50000000  0.23770000  1.0 0.1293405225
H  H139  1  0.34300000  0.50000000  0.26080000  1.0 0.124430731
H  H140  1  0.13650000  0.50000000  0.40820000  1.0 0.1718726879
H  H141  1  0.36880000  0.50000000  0.42380000  1.0 0.1512365651
H  H142  1  0.32440000  0.50000000  0.34210000  1.0 0.2790235058
Pd  Pd1  1  0.24278000  0.00000000  0.16506000  1.0 0.2790235058
Pd  Pd2  1  0.75722000  0.00000000  0.83494000  1.0 0.2790235058
C  C1  1  0.41060000  0.93460000  0.16280000  1.0 0.1512365651
C  C2  1  0.30750000  0.82730000  0.16600000  1.0 0.156095028
C  C3  1  0.17760000  0.82700000  0.16660000  1.0 0.1512365651
C  C4  1  0.07330000  0.93370000  0.16480000  1.0 0.1387876415
C  C5  1  0.49160000  0.95970000  0.16090000  1.0 -0.1889663151
C  C6  1  0.38730000  0.85320000  0.16490000  1.0 -0.0588852725
C  C7  1  0.28320000  0.74350000  0.16900000  1.0 -0.1889663151
C  C8  1  0.20280000  0.74380000  0.16880000  1.0 -0.1793349682
C  C9  1  0.09930000  0.85100000  0.16540000  1.0 -0.051573702
C  C10  1  0.99140000  0.95970000  0.16470000  1.0 -0.1793349682
C  C11  1  0.45030000  0.78850000  0.16380000  1.0 0.0798772105
C  C12  1  0.03590000  0.78760000  0.16620000  1.0 0.0621238855
C  C13  1  0.49020000  0.76200000  0.21030000  1.0 -0.1561825126
C  C14  1  0.47260000  0.75430000  0.11810000  1.0 -0.1561825126
C  C15  1  0.01180000  0.75880000  0.21370000  1.0 -0.1375322974
C  C16  1  0.00120000  0.75960000  0.12110000  1.0 -0.1375322974
C  C17  1  0.54960000  0.70440000  0.21120000  1.0 -0.0997751627
C  C18  1  0.53070000  0.69560000  0.11730000  1.0 -0.0997751627
C  C19  1  0.95220000  0.70050000  0.21330000  1.0 -0.1151142231
C  C20  1  0.94300000  0.69840000  0.12080000  1.0 -0.0997751627
C  C21  1  0.56980000  0.67250000  0.16450000  1.0 -0.0314150992
C  C22  1  0.91620000  0.67040000  0.16720000  1.0 -0.0208868323
C  C23  1  0.63400000  0.60860000  0.16480000  1.0 0.5667264214
C  C24  1  0.85050000  0.60800000  0.16810000  1.0 0.564294532
C  C25  1  0.73730000  0.56910000  0.99580000  1.0 0.3287512809
C  C26  1  0.75180000  0.43080000  0.33690000  1.0 0.2697680742
C  C27  1  0.74460000  0.57130000  0.94030000  1.0 -0.3072991966
C  C28  1  0.72290000  0.65600000  0.01870000  1.0 -0.4932129084
C  C29  1  0.74900000  0.42990000  0.39130000  1.0 -0.2488110859
C  C30  1  0.75670000  0.34770000  0.31420000  1.0 -0.4709336608
C  C31  1  0.41060000  0.06540000  0.16280000  1.0 0.1512365651
C  C32  1  0.30750000  0.17270000  0.16600000  1.0 0.156095028
C  C33  1  0.17760000  0.17300000  0.16660000  1.0 0.1512365651
C  C34  1  0.07330000  0.06630000  0.16480000  1.0 0.1387876415
C  C35  1  0.49160000  0.04030000  0.16090000  1.0 -0.1889663151
C  C36  1  0.38730000  0.14680000  0.16490000  1.0 -0.0588852725
C  C37  1  0.28320000  0.25650000  0.16900000  1.0 -0.1889663151
C  C38  1  0.20280000  0.25620000  0.16880000  1.0 -0.1793349682
C  C39  1  0.09930000  0.14900000  0.16540000  1.0 -0.051573702
C  C40  1  0.99140000  0.04030000  0.16470000  1.0 -0.1793349682
C  C41  1  0.45030000  0.21150000  0.16380000  1.0 0.0798772105
C  C42  1  0.03590000  0.21240000  0.16620000  1.0 0.0621238855
C  C43  1  0.49020000  0.23800000  0.21030000  1.0 -0.1561825126
C  C44  1  0.47260000  0.24570000  0.11810000  1.0 -0.1561825126
C  C45  1  0.01180000  0.24120000  0.21370000  1.0 -0.1375322974
C  C46  1  0.00120000  0.24040000  0.12110000  1.0 -0.1375322974
C  C47  1  0.54960000  0.29560000  0.21120000  1.0 -0.0997751627
C  C48  1  0.53070000  0.30440000  0.11730000  1.0 -0.0997751627
C  C49  1  0.95220000  0.29950000  0.21330000  1.0 -0.1151142231
C  C50  1  0.94300000  0.30160000  0.12080000  1.0 -0.0997751627
C  C51  1  0.56980000  0.32750000  0.16450000  1.0 -0.0314150992
C  C52  1  0.91620000  0.32960000  0.16720000  1.0 -0.0208868323
C  C53  1  0.63400000  0.39140000  0.16480000  1.0 0.5667264214
C  C54  1  0.85050000  0.39200000  0.16810000  1.0 0.564294532
C  C55  1  0.73730000  0.43090000  0.99580000  1.0 0.3287512809
C  C56  1  0.75180000  0.56920000  0.33690000  1.0 0.2697680742
C  C57  1  0.74460000  0.42870000  0.94030000  1.0 -0.3072991966
C  C58  1  0.72290000  0.34400000  0.01870000  1.0 -0.4932129084
C  C59  1  0.74900000  0.57010000  0.39130000  1.0 -0.2488110859
C  C60  1  0.75670000  0.65230000  0.31420000  1.0 -0.4709336608
C  C61  1  0.74200000  0.50000000  0.90920000  1.0 0.1002902091
C  C62  1  0.74100000  0.50000000  0.41970000  1.0 0.1293405225
C  C63  1  0.75790000  0.50000000  0.85220000  1.0 -0.094306007
C  C64  1  0.74330000  0.50000000  0.48140000  1.0 -0.1055737807
C  C65  1  0.83660000  0.50000000  0.83270000  1.0 0.0398687487
C  C66  1  0.69460000  0.50000000  0.81730000  1.0 0.0398687487
C  C67  1  0.80920000  0.50000000  0.51450000  1.0 0.0398687487
C  C68  1  0.67250000  0.50000000  0.50170000  1.0 0.0510241353
C  C69  1  0.84240000  0.50000000  0.77620000  1.0 -0.2694948762
C  C70  1  0.91170000  0.50000000  0.87220000  1.0 -0.2488110859
C  C71  1  0.70280000  0.50000000  0.76270000  1.0 -0.2411044719
C  C72  1  0.61190000  0.50000000  0.83580000  1.0 -0.3712579011
C  C73  1  0.81510000  0.50000000  0.57120000  1.0 -0.1979735195
C  C74  1  0.89370000  0.50000000  0.49200000  1.0 -0.2148686199
C  C75  1  0.67960000  0.50000000  0.56040000  1.0 -0.2411044719
C  C76  1  0.59280000  0.50000000  0.46580000  1.0 -0.2164232482
C  C77  1  0.77440000  0.50000000  0.74130000  1.0 0.0301007536
C  C78  1  0.74100000  0.50000000  0.59430000  1.0 0.0798772105
C  C79  1  0.78390000  0.50000000  0.68310000  1.0 -0.0678267627
C  C80  1  0.58940000  0.93460000  0.83720000  1.0 0.1512365651
C  C81  1  0.69250000  0.82730000  0.83400000  1.0 0.156095028
C  C82  1  0.82240000  0.82700000  0.83340000  1.0 0.1512365651
C  C83  1  0.92670000  0.93370000  0.83520000  1.0 0.1387876415
C  C84  1  0.50840000  0.95970000  0.83910000  1.0 -0.1889663151
C  C85  1  0.61270000  0.85320000  0.83510000  1.0 -0.0588852725
C  C86  1  0.71680000  0.74350000  0.83100000  1.0 -0.1889663151
C  C87  1  0.79720000  0.74380000  0.83120000  1.0 -0.1793349682
C  C88  1  0.90070000  0.85100000  0.83460000  1.0 -0.051573702
C  C89  1  0.00860000  0.95970000  0.83530000  1.0 -0.1793349682
C  C90  1  0.54970000  0.78850000  0.83620000  1.0 0.0798772105
C  C91  1  0.96410000  0.78760000  0.83380000  1.0 0.0621238855
C  C92  1  0.50980000  0.76200000  0.78970000  1.0 -0.1561825126
C  C93  1  0.52740000  0.75430000  0.88190000  1.0 -0.1561825126
C  C94  1  0.98820000  0.75880000  0.78630000  1.0 -0.1375322974
C  C95  1  0.99880000  0.75960000  0.87890000  1.0 -0.1375322974
C  C96  1  0.45040000  0.70440000  0.78880000  1.0 -0.0997751627
C  C97  1  0.46930000  0.69560000  0.88270000  1.0 -0.0997751627
C  C98  1  0.04780000  0.70050000  0.78670000  1.0 -0.1151142231
C  C99  1  0.05700000  0.69840000  0.87920000  1.0 -0.0997751627
C  C100  1  0.43020000  0.67250000  0.83550000  1.0 -0.0314150992
C  C101  1  0.08380000  0.67040000  0.83280000  1.0 -0.0208868323
C  C102  1  0.36600000  0.60860000  0.83520000  1.0 0.5667264214
C  C103  1  0.14950000  0.60800000  0.83190000  1.0 0.5667264214
C  C104  1  0.26270000  0.56910000  0.00420000  1.0 0.3287512809
C  C105  1  0.24820000  0.43080000  0.66310000  1.0 0.2697680742
C  C106  1  0.25540000  0.57130000  0.05970000  1.0 -0.3072991966
C  C107  1  0.27710000  0.65600000  0.98130000  1.0 -0.4932129084
C  C108  1  0.25100000  0.42990000  0.60870000  1.0 -0.2488110859
C  C109  1  0.24330000  0.34770000  0.68580000  1.0 -0.4709336608
C  C110  1  0.58940000  0.06540000  0.83720000  1.0 0.1512365651
C  C111  1  0.69250000  0.17270000  0.83400000  1.0 0.156095028
C  C112  1  0.82240000  0.17300000  0.83340000  1.0 0.1512365651
C  C113  1  0.92670000  0.06630000  0.83520000  1.0 0.1387876415
C  C114  1  0.50840000  0.04030000  0.83910000  1.0 -0.1889663151
C  C115  1  0.61270000  0.14680000  0.83510000  1.0 -0.0588852725
C  C116  1  0.71680000  0.25650000  0.83100000  1.0 -0.1889663151
C  C117  1  0.79720000  0.25620000  0.83120000  1.0 -0.1793349682
C  C118  1  0.90070000  0.14900000  0.83460000  1.0 -0.051573702
C  C119  1  0.00860000  0.04030000  0.83530000  1.0 -0.1793349682
C  C120  1  0.54970000  0.21150000  0.83620000  1.0 0.0798772105
C  C121  1  0.96410000  0.21240000  0.83380000  1.0 0.0621238855
C  C122  1  0.50980000  0.23800000  0.78970000  1.0 -0.1561825126
C  C123  1  0.52740000  0.24570000  0.88190000  1.0 -0.1561825126
C  C124  1  0.98820000  0.24120000  0.78630000  1.0 -0.1375322974
C  C125  1  0.99880000  0.24040000  0.87890000  1.0 -0.1375322974
C  C126  1  0.45040000  0.29560000  0.78880000  1.0 -0.0997751627
C  C127  1  0.46930000  0.30440000  0.88270000  1.0 -0.0997751627
C  C128  1  0.04780000  0.29950000  0.78670000  1.0 -0.1151142231
C  C129  1  0.05700000  0.30160000  0.87920000  1.0 -0.0997751627
C  C130  1  0.43020000  0.32750000  0.83550000  1.0 -0.0314150992
C  C131  1  0.08380000  0.32960000  0.83280000  1.0 -0.0208868323
C  C132  1  0.36600000  0.39140000  0.83520000  1.0 0.5667264214
C  C133  1  0.14950000  0.39200000  0.83190000  1.0 0.5667264214
C  C134  1  0.26270000  0.43090000  0.00420000  1.0 0.3287512809
C  C135  1  0.24820000  0.56920000  0.66310000  1.0 0.2697680742
C  C136  1  0.25540000  0.42870000  0.05970000  1.0 -0.3072991966
C  C137  1  0.27710000  0.34400000  0.98130000  1.0 -0.4932129084
C  C138  1  0.25100000  0.57010000  0.60870000  1.0 -0.2488110859
C  C139  1  0.24330000  0.65230000  0.68580000  1.0 -0.4709336608
C  C140  1  0.25800000  0.50000000  0.09080000  1.0 0.1002902091
C  C141  1  0.25900000  0.50000000  0.58030000  1.0 0.1293405225
C  C142  1  0.24210000  0.50000000  0.14780000  1.0 -0.094306007
C  C143  1  0.25670000  0.50000000  0.51860000  1.0 -0.1055737807
C  C144  1  0.16340000  0.50000000  0.16730000  1.0 0.0398687487
C  C145  1  0.30540000  0.50000000  0.18270000  1.0 0.0398687487
C  C146  1  0.19080000  0.50000000  0.48550000  1.0 0.0398687487
C  C147  1  0.32750000  0.50000000  0.49830000  1.0 0.0510241353
C  C148  1  0.15760000  0.50000000  0.22380000  1.0 -0.2694948762
C  C149  1  0.08830000  0.50000000  0.12780000  1.0 -0.2411044719
C  C150  1  0.29720000  0.50000000  0.23730000  1.0 -0.2411044719
C  C151  1  0.38810000  0.50000000  0.16420000  1.0 -0.3712579011
C  C152  1  0.18490000  0.50000000  0.42880000  1.0 -0.1979735195
C  C153  1  0.10630000  0.50000000  0.50800000  1.0 -0.2164232482
C  C154  1  0.32040000  0.50000000  0.43960000  1.0 -0.2411044719
C  C155  1  0.40720000  0.50000000  0.53420000  1.0 -0.2164232482
C  C156  1  0.22560000  0.50000000  0.25870000  1.0 0.0301007536
C  C157  1  0.25900000  0.50000000  0.40570000  1.0 0.0798772105
C  C158  1  0.21610000  0.50000000  0.31690000  1.0 -0.0678267627
N  N1  1  0.24250000  0.87600000  0.16590000  1.0 -0.2488110859
N  N2  1  0.24250000  0.12400000  0.16590000  1.0 -0.2488110859
N  N3  1  0.73500000  0.50000000  0.02330000  1.0 -0.3362741768
N  N4  1  0.75170000  0.50000000  0.30770000  1.0 -0.3342491239
N  N5  1  0.72370000  0.50000000  0.64830000  1.0 -0.2411044719
N  N6  1  0.36270000  0.00000000  0.16330000  1.0 -0.2558019011
N  N7  1  0.12460000  0.00000000  0.16350000  1.0 -0.2411044719
N  N8  1  0.75750000  0.87600000  0.83410000  1.0 -0.2488110859
N  N9  1  0.75750000  0.12400000  0.83410000  1.0 -0.2488110859
N  N10  1  0.26500000  0.50000000  0.97670000  1.0 -0.3362741768
N  N11  1  0.24830000  0.50000000  0.69230000  1.0 -0.3342491239
N  N12  1  0.27630000  0.50000000  0.35170000  1.0 -0.2411044719
N  N13  1  0.63730000  0.00000000  0.83670000  1.0 -0.2558019011
N  N14  1  0.87540000  0.00000000  0.83650000  1.0 -0.2411044719
O  O1  1  0.65390000  0.58410000  0.12010000  1.0 -0.5112278775
O  O2  1  0.66400000  0.58430000  0.20890000  1.0 -0.5112278775
O  O3  1  0.82240000  0.58470000  0.12350000  1.0 -0.5112278775
O  O4  1  0.83090000  0.58530000  0.21240000  1.0 -0.5000176067
O  O5  1  0.65390000  0.41590000  0.12010000  1.0 -0.5112278775
O  O6  1  0.66400000  0.41570000  0.20890000  1.0 -0.5000176067
O  O7  1  0.82240000  0.41530000  0.12350000  1.0 -0.5112278775
O  O8  1  0.83090000  0.41470000  0.21240000  1.0 -0.5000176067
O  O9  1  0.34610000  0.58410000  0.87990000  1.0 -0.5112278775
O  O10  1  0.33600000  0.58430000  0.79110000  1.0 -0.5000176067
O  O11  1  0.17760000  0.58470000  0.87650000  1.0 -0.5112278775
O  O12  1  0.16910000  0.58530000  0.78760000  1.0 -0.5000176067
O  O13  1  0.34610000  0.41590000  0.87990000  1.0 -0.5112278775
O  O14  1  0.33600000  0.41570000  0.79110000  1.0 -0.5000176067
O  O15  1  0.17760000  0.41530000  0.87650000  1.0 -0.5112278775
O  O16  1  0.16910000  0.41470000  0.78760000  1.0 -0.5000176067
