# DDEC6 charges by PACMAN v1.1 (https://github.com/mtap-research/PACMAN-charge/)
data_JOPCEZ_ASR_pacman
_symmetry_space_group_name_H-M   'P 1'
_cell_length_a   17.05100000
_cell_length_b   16.25400000
_cell_length_c   24.72500000
_cell_angle_alpha   90.00000000
_cell_angle_beta   90.86700000
_cell_angle_gamma   90.00000000
_symmetry_Int_Tables_number   1
_chemical_formula_structural   Zn2H70PdC92N9O8
_chemical_formula_sum   'Zn4 H140 Pd2 C184 N18 O16'
_cell_volume   6851.67392300
_cell_formula_units_Z   2
loop_
 _symmetry_equiv_pos_site_id
 _symmetry_equiv_pos_as_xyz
  1  'x, y, z'
loop_
 _atom_site_type_symbol
 _atom_site_label
 _atom_site_symmetry_multiplicity
 _atom_site_fract_x
 _atom_site_fract_y
 _atom_site_fract_z
 _atom_site_occupancy
 _atom_site_charge
Zn  Zn1  1  0.75385000  0.50000000  0.39047000  1.0 0.7626771602
Zn  Zn2  1  0.75125000  0.50000000  0.27081000  1.0 0.7697723779
Zn  Zn3  1  0.24615000  0.50000000  0.60953000  1.0 0.7626771602
Zn  Zn4  1  0.24875000  0.50000000  0.72919000  1.0 0.7697723779
H  H1  1  0.96000000  0.07450000  0.34400000  1.0 0.1284594095
H  H2  1  0.18340000  0.30910000  0.31990000  1.0 0.1712588753
H  H3  1  0.32380000  0.30600000  0.32750000  1.0 0.1284594095
H  H4  1  0.53840000  0.07770000  0.33970000  1.0 0.1284594095
H  H5  1  0.02330000  0.21370000  0.24620000  1.0 0.1221683223
H  H6  1  0.05070000  0.23150000  0.40890000  1.0 0.1221683223
H  H7  1  0.46310000  0.22930000  0.41070000  1.0 0.1284594095
H  H8  1  0.46920000  0.21710000  0.24710000  1.0 0.1284594095
H  H9  1  0.92220000  0.31090000  0.24870000  1.0 0.1284594095
H  H10  1  0.94970000  0.32870000  0.41140000  1.0 0.1221683223
H  H11  1  0.56580000  0.32470000  0.41050000  1.0 0.1221683223
H  H12  1  0.57200000  0.31250000  0.24690000  1.0 0.1284594095
H  H13  1  0.75810000  0.38500000  0.47930000  1.0 0.1115687876
H  H14  1  0.74240000  0.37780000  0.57050000  1.0 0.1221683223
H  H15  1  0.94190000  0.50980000  0.67280000  1.0 0.1284594095
H  H16  1  0.91570000  0.43510000  0.63450000  1.0 0.098889067
H  H17  1  0.89940000  0.52800000  0.61590000  1.0 0.1115687876
H  H18  1  0.87530000  0.46780000  0.74890000  1.0 0.0621168338
H  H19  1  0.63780000  0.45780000  0.74800000  1.0 0.0806860695
H  H20  1  0.61370000  0.51260000  0.60750000  1.0 0.1115687876
H  H21  1  0.59380000  0.42360000  0.63140000  1.0 0.0806860695
H  H22  1  0.56840000  0.50460000  0.66350000  1.0 0.1284594095
H  H23  1  0.75200000  0.40050000  0.83140000  1.0 0.0895265444
H  H24  1  0.82230000  0.45880000  0.84180000  1.0 0.0806860695
H  H25  1  0.73310000  0.43580000  0.83220000  1.0 0.1115687876
H  H26  1  0.87640000  0.48400000  0.91700000  1.0 0.0700132168
H  H27  1  0.64060000  0.45340000  0.91090000  1.0 0.0895265444
H  H28  1  0.89870000  0.53040000  0.05900000  1.0 0.0895265444
H  H29  1  0.89890000  0.55250000  0.02400000  1.0 0.0700132168
H  H30  1  0.94630000  0.52640000  0.00370000  1.0 0.0806860695
H  H31  1  0.59970000  0.49180000  0.03620000  1.0 0.098889067
H  H32  1  0.61980000  0.41350000  0.04760000  1.0 0.0806860695
H  H33  1  0.56810000  0.43850000  0.99560000  1.0 0.0806860695
H  H34  1  0.72900000  0.61040000  0.08770000  1.0 0.1221683223
H  H35  1  0.74130000  0.60510000  0.17670000  1.0 0.098889067
H  H36  1  0.96000000  0.92550000  0.34400000  1.0 0.1284594095
H  H37  1  0.18340000  0.69090000  0.31990000  1.0 0.1712588753
H  H38  1  0.32380000  0.69400000  0.32750000  1.0 0.1284594095
H  H39  1  0.53840000  0.92230000  0.33970000  1.0 0.1284594095
H  H40  1  0.02330000  0.78630000  0.24620000  1.0 0.1221683223
H  H41  1  0.05070000  0.76850000  0.40890000  1.0 0.1221683223
H  H42  1  0.46310000  0.77070000  0.41070000  1.0 0.1284594095
H  H43  1  0.46920000  0.78290000  0.24710000  1.0 0.1284594095
H  H44  1  0.92220000  0.68910000  0.24870000  1.0 0.1284594095
H  H45  1  0.94970000  0.67130000  0.41140000  1.0 0.1221683223
H  H46  1  0.56580000  0.67530000  0.41050000  1.0 0.1221683223
H  H47  1  0.57200000  0.68750000  0.24690000  1.0 0.1284594095
H  H48  1  0.75810000  0.61500000  0.47930000  1.0 0.1115687876
H  H49  1  0.74240000  0.62220000  0.57050000  1.0 0.1221683223
H  H50  1  0.94190000  0.49020000  0.67280000  1.0 0.1284594095
H  H51  1  0.91570000  0.56490000  0.63450000  1.0 0.098889067
H  H52  1  0.89940000  0.47200000  0.61590000  1.0 0.1115687876
H  H53  1  0.87530000  0.53220000  0.74890000  1.0 0.0621168338
H  H54  1  0.63780000  0.54220000  0.74800000  1.0 0.0806860695
H  H55  1  0.61370000  0.48740000  0.60750000  1.0 0.1115687876
H  H56  1  0.59380000  0.57640000  0.63140000  1.0 0.0806860695
H  H57  1  0.56840000  0.49540000  0.66350000  1.0 0.1284594095
H  H58  1  0.75200000  0.59950000  0.83140000  1.0 0.0895265444
H  H59  1  0.82230000  0.54120000  0.84180000  1.0 0.0806860695
H  H60  1  0.73310000  0.56420000  0.83220000  1.0 0.1115687876
H  H61  1  0.87640000  0.51600000  0.91700000  1.0 0.0700132168
H  H62  1  0.64060000  0.54660000  0.91090000  1.0 0.0895265444
H  H63  1  0.89870000  0.46960000  0.05900000  1.0 0.0895265444
H  H64  1  0.89890000  0.44750000  0.02400000  1.0 0.0700132168
H  H65  1  0.94630000  0.47360000  0.00370000  1.0 0.0806860695
H  H66  1  0.59970000  0.50820000  0.03620000  1.0 0.098889067
H  H67  1  0.61980000  0.58650000  0.04760000  1.0 0.0806860695
H  H68  1  0.56810000  0.56150000  0.99560000  1.0 0.0806860695
H  H69  1  0.72900000  0.38960000  0.08770000  1.0 0.1221683223
H  H70  1  0.74130000  0.39490000  0.17670000  1.0 0.098889067
H  H71  1  0.04000000  0.07450000  0.65600000  1.0 0.1284594095
H  H72  1  0.81660000  0.30910000  0.68010000  1.0 0.1712588753
H  H73  1  0.67620000  0.30600000  0.67250000  1.0 0.1284594095
H  H74  1  0.46160000  0.07770000  0.66030000  1.0 0.1284594095
H  H75  1  0.97670000  0.21370000  0.75380000  1.0 0.1221683223
H  H76  1  0.94930000  0.23150000  0.59110000  1.0 0.1221683223
H  H77  1  0.53690000  0.22930000  0.58930000  1.0 0.1284594095
H  H78  1  0.53080000  0.21710000  0.75290000  1.0 0.1284594095
H  H79  1  0.07780000  0.31090000  0.75130000  1.0 0.1284594095
H  H80  1  0.05030000  0.32870000  0.58860000  1.0 0.1221683223
H  H81  1  0.43420000  0.32470000  0.58950000  1.0 0.1221683223
H  H82  1  0.42800000  0.31250000  0.75310000  1.0 0.1284594095
H  H83  1  0.24190000  0.38500000  0.52070000  1.0 0.1115687876
H  H84  1  0.25760000  0.37780000  0.42950000  1.0 0.1221683223
H  H85  1  0.05810000  0.50980000  0.32720000  1.0 0.1284594095
H  H86  1  0.08430000  0.43510000  0.36550000  1.0 0.098889067
H  H87  1  0.10060000  0.52800000  0.38410000  1.0 0.1115687876
H  H88  1  0.12470000  0.46780000  0.25110000  1.0 0.0621168338
H  H89  1  0.36220000  0.45780000  0.25200000  1.0 0.0806860695
H  H90  1  0.38630000  0.51260000  0.39250000  1.0 0.1115687876
H  H91  1  0.40620000  0.42360000  0.36860000  1.0 0.0806860695
H  H92  1  0.43160000  0.50460000  0.33650000  1.0 0.1284594095
H  H93  1  0.24800000  0.40050000  0.16860000  1.0 0.0895265444
H  H94  1  0.17770000  0.45880000  0.15820000  1.0 0.0806860695
H  H95  1  0.26690000  0.43580000  0.16780000  1.0 0.1115687876
H  H96  1  0.12360000  0.48400000  0.08300000  1.0 0.0700132168
H  H97  1  0.35940000  0.45340000  0.08910000  1.0 0.0895265444
H  H98  1  0.10130000  0.53040000  0.94100000  1.0 0.0895265444
H  H99  1  0.10110000  0.55250000  0.97600000  1.0 0.0700132168
H  H100  1  0.05370000  0.52640000  0.99630000  1.0 0.0806860695
H  H101  1  0.40030000  0.49180000  0.96380000  1.0 0.098889067
H  H102  1  0.38020000  0.41350000  0.95240000  1.0 0.0806860695
H  H103  1  0.43190000  0.43850000  0.00440000  1.0 0.0806860695
H  H104  1  0.27100000  0.61040000  0.91230000  1.0 0.1221683223
H  H105  1  0.25870000  0.60510000  0.82330000  1.0 0.098889067
H  H106  1  0.04000000  0.92550000  0.65600000  1.0 0.1284594095
H  H107  1  0.81660000  0.69090000  0.68010000  1.0 0.1712588753
H  H108  1  0.67620000  0.69400000  0.67250000  1.0 0.1284594095
H  H109  1  0.46160000  0.92230000  0.66030000  1.0 0.1284594095
H  H110  1  0.97670000  0.78630000  0.75380000  1.0 0.1221683223
H  H111  1  0.94930000  0.76850000  0.59110000  1.0 0.1221683223
H  H112  1  0.53690000  0.77070000  0.58930000  1.0 0.1284594095
H  H113  1  0.53080000  0.78290000  0.75290000  1.0 0.1284594095
H  H114  1  0.07780000  0.68910000  0.75130000  1.0 0.1284594095
H  H115  1  0.05030000  0.67130000  0.58860000  1.0 0.1221683223
H  H116  1  0.43420000  0.67530000  0.58950000  1.0 0.1221683223
H  H117  1  0.42800000  0.68750000  0.75310000  1.0 0.1284594095
H  H118  1  0.24190000  0.61500000  0.52070000  1.0 0.1115687876
H  H119  1  0.25760000  0.62220000  0.42950000  1.0 0.1221683223
H  H120  1  0.05810000  0.49020000  0.32720000  1.0 0.1284594095
H  H121  1  0.08430000  0.56490000  0.36550000  1.0 0.098889067
H  H122  1  0.10060000  0.47200000  0.38410000  1.0 0.1115687876
H  H123  1  0.12470000  0.53220000  0.25110000  1.0 0.0621168338
H  H124  1  0.36220000  0.54220000  0.25200000  1.0 0.0806860695
H  H125  1  0.38630000  0.48740000  0.39250000  1.0 0.1115687876
H  H126  1  0.40620000  0.57640000  0.36860000  1.0 0.0806860695
H  H127  1  0.43160000  0.49540000  0.33650000  1.0 0.1284594095
H  H128  1  0.24800000  0.59950000  0.16860000  1.0 0.0895265444
H  H129  1  0.17770000  0.54120000  0.15820000  1.0 0.0806860695
H  H130  1  0.26690000  0.56420000  0.16780000  1.0 0.1115687876
H  H131  1  0.12360000  0.51600000  0.08300000  1.0 0.0700132168
H  H132  1  0.35940000  0.54660000  0.08910000  1.0 0.0895265444
H  H133  1  0.10130000  0.46960000  0.94100000  1.0 0.0895265444
H  H134  1  0.10110000  0.44750000  0.97600000  1.0 0.0700132168
H  H135  1  0.05370000  0.47360000  0.99630000  1.0 0.0806860695
H  H136  1  0.40030000  0.50820000  0.96380000  1.0 0.098889067
H  H137  1  0.38020000  0.58650000  0.95240000  1.0 0.0806860695
H  H138  1  0.43190000  0.56150000  0.00440000  1.0 0.0806860695
H  H139  1  0.27100000  0.38960000  0.91230000  1.0 0.1221683223
H  H140  1  0.25870000  0.39490000  0.82330000  1.0 0.098889067
Pd  Pd1  1  0.25157000  0.00000000  0.32934000  1.0 0.3165253374
Pd  Pd2  1  0.74843000  0.00000000  0.67066000  1.0 0.3165253374
C  C1  1  0.08240000  0.06820000  0.33060000  1.0 0.1508418369
C  C2  1  0.18630000  0.17410000  0.32880000  1.0 0.1819813075
C  C3  1  0.31530000  0.17670000  0.32920000  1.0 0.1508418369
C  C4  1  0.41650000  0.06990000  0.32980000  1.0 0.1508418369
C  C5  1  0.00460000  0.04040000  0.33910000  1.0 -0.1885195699
C  C6  1  0.10800000  0.15040000  0.33100000  1.0 -0.0810536456
C  C7  1  0.21510000  0.26130000  0.32410000  1.0 -0.1972155207
C  C8  1  0.29030000  0.25930000  0.32700000  1.0 -0.1972155207
C  C9  1  0.39270000  0.14810000  0.32740000  1.0 -0.0739930533
C  C10  1  0.49350000  0.04340000  0.33610000  1.0 -0.2124873501
C  C11  1  0.04650000  0.21340000  0.32730000  1.0 0.0895265444
C  C12  1  0.45650000  0.21420000  0.32890000  1.0 0.098889067
C  C13  1  0.00830000  0.23700000  0.27970000  1.0 -0.1606530872
C  C14  1  0.02460000  0.24760000  0.37640000  1.0 -0.1534944054
C  C15  1  0.48520000  0.24620000  0.37750000  1.0 -0.1606530872
C  C16  1  0.48880000  0.23890000  0.28030000  1.0 -0.1606530872
C  C17  1  0.94830000  0.29480000  0.28120000  1.0 -0.1084102195
C  C18  1  0.96460000  0.30530000  0.37780000  1.0 -0.1084102195
C  C19  1  0.54620000  0.30280000  0.37740000  1.0 -0.1164394321
C  C20  1  0.54990000  0.29560000  0.28020000  1.0 -0.1084102195
C  C21  1  0.92640000  0.32900000  0.33020000  1.0 -0.0257860244
C  C22  1  0.57860000  0.32750000  0.32870000  1.0 -0.0204957042
C  C23  1  0.85810000  0.39170000  0.33000000  1.0 0.5591724985
C  C24  1  0.64550000  0.39290000  0.33260000  1.0 0.5591724985
C  C25  1  0.75540000  0.43430000  0.49980000  1.0 0.1412659559
C  C26  1  0.75010000  0.42970000  0.55380000  1.0 -0.3601922121
C  C27  1  0.75420000  0.51320000  0.64610000  1.0 -0.0397120992
C  C28  1  0.82540000  0.48320000  0.67420000  1.0 0.0895265444
C  C29  1  0.68430000  0.52270000  0.67370000  1.0 0.0700132168
C  C30  1  0.90200000  0.49000000  0.64690000  1.0 -0.3601922121
C  C31  1  0.82670000  0.47020000  0.72970000  1.0 -0.0947709483
C  C32  1  0.68560000  0.46430000  0.72920000  1.0 -0.1164394321
C  C33  1  0.60870000  0.48020000  0.64070000  1.0 -0.1885195699
C  C34  1  0.75680000  0.46070000  0.75730000  1.0 -0.0397120992
C  C35  1  0.76820000  0.47740000  0.84900000  1.0 0.0417809571
C  C36  1  0.75880000  0.46820000  0.90500000  1.0 -0.0001286607
C  C37  1  0.82780000  0.47880000  0.93490000  1.0 -0.0739930533
C  C38  1  0.68770000  0.46060000  0.93130000  1.0 -0.1164394321
C  C39  1  0.82560000  0.48190000  0.99110000  1.0 0.0539444905
C  C40  1  0.68550000  0.46380000  0.98740000  1.0 0.0285711523
C  C41  1  0.89910000  0.50800000  0.02220000  1.0 -0.3396415737
C  C42  1  0.75440000  0.47440000  0.01730000  1.0 0.006316688
C  C43  1  0.61180000  0.45500000  0.01940000  1.0 -0.2558990744
C  C44  1  0.74990000  0.56180000  0.10370000  1.0 -0.2390404053
C  C45  1  0.75020000  0.55220000  0.16160000  1.0 0.0539444905
C  C46  1  0.08240000  0.93180000  0.33060000  1.0 0.1508418369
C  C47  1  0.18630000  0.82590000  0.32880000  1.0 0.1819813075
C  C48  1  0.31530000  0.82330000  0.32920000  1.0 0.1508418369
C  C49  1  0.41650000  0.93010000  0.32980000  1.0 0.1508418369
C  C50  1  0.00460000  0.95960000  0.33910000  1.0 -0.1885195699
C  C51  1  0.10800000  0.84960000  0.33100000  1.0 -0.0810536456
C  C52  1  0.21510000  0.73870000  0.32410000  1.0 -0.1972155207
C  C53  1  0.29030000  0.74070000  0.32700000  1.0 -0.1972155207
C  C54  1  0.39270000  0.85190000  0.32740000  1.0 -0.0810536456
C  C55  1  0.49350000  0.95660000  0.33610000  1.0 -0.2124873501
C  C56  1  0.04650000  0.78660000  0.32730000  1.0 0.0895265444
C  C57  1  0.45650000  0.78580000  0.32890000  1.0 0.098889067
C  C58  1  0.00830000  0.76300000  0.27970000  1.0 -0.1606530872
C  C59  1  0.02460000  0.75240000  0.37640000  1.0 -0.1534944054
C  C60  1  0.48520000  0.75380000  0.37750000  1.0 -0.1606530872
C  C61  1  0.48880000  0.76110000  0.28030000  1.0 -0.1606530872
C  C62  1  0.94830000  0.70520000  0.28120000  1.0 -0.1084102195
C  C63  1  0.96460000  0.69470000  0.37780000  1.0 -0.1084102195
C  C64  1  0.54620000  0.69720000  0.37740000  1.0 -0.1164394321
C  C65  1  0.54990000  0.70440000  0.28020000  1.0 -0.1048538861
C  C66  1  0.92640000  0.67100000  0.33020000  1.0 -0.0257860244
C  C67  1  0.57860000  0.67250000  0.32870000  1.0 -0.0204957042
C  C68  1  0.85810000  0.60830000  0.33000000  1.0 0.5650005016
C  C69  1  0.64550000  0.60710000  0.33260000  1.0 0.5591724985
C  C70  1  0.75540000  0.56570000  0.49980000  1.0 0.1412659559
C  C71  1  0.75010000  0.57030000  0.55380000  1.0 -0.3601922121
C  C72  1  0.75420000  0.48680000  0.64610000  1.0 -0.0397120992
C  C73  1  0.82540000  0.51680000  0.67420000  1.0 0.0895265444
C  C74  1  0.68430000  0.47730000  0.67370000  1.0 0.0700132168
C  C75  1  0.90200000  0.51000000  0.64690000  1.0 -0.3601922121
C  C76  1  0.82670000  0.52980000  0.72970000  1.0 -0.0947709483
C  C77  1  0.68560000  0.53570000  0.72920000  1.0 -0.1164394321
C  C78  1  0.60870000  0.51980000  0.64070000  1.0 -0.1885195699
C  C79  1  0.75680000  0.53930000  0.75730000  1.0 -0.0397120992
C  C80  1  0.76820000  0.52260000  0.84900000  1.0 0.0417809571
C  C81  1  0.75880000  0.53180000  0.90500000  1.0 -0.0001286607
C  C82  1  0.82780000  0.52120000  0.93490000  1.0 -0.0739930533
C  C83  1  0.68770000  0.53940000  0.93130000  1.0 -0.1164394321
C  C84  1  0.82560000  0.51810000  0.99110000  1.0 0.0539444905
C  C85  1  0.68550000  0.53620000  0.98740000  1.0 0.0285711523
C  C86  1  0.89910000  0.49200000  0.02220000  1.0 -0.3396415737
C  C87  1  0.75440000  0.52560000  0.01730000  1.0 0.006316688
C  C88  1  0.61180000  0.54500000  0.01940000  1.0 -0.2558990744
C  C89  1  0.74990000  0.43820000  0.10370000  1.0 -0.2390404053
C  C90  1  0.75020000  0.44780000  0.16160000  1.0 0.0539444905
C  C91  1  0.75570000  0.50000000  0.58580000  1.0 0.1115687876
C  C92  1  0.78000000  0.50000000  0.07120000  1.0 0.0621168338
C  C93  1  0.91760000  0.06820000  0.66940000  1.0 0.1508418369
C  C94  1  0.81370000  0.17410000  0.67120000  1.0 0.1819813075
C  C95  1  0.68470000  0.17670000  0.67080000  1.0 0.1508418369
C  C96  1  0.58350000  0.06990000  0.67020000  1.0 0.1508418369
C  C97  1  0.99540000  0.04040000  0.66090000  1.0 -0.1885195699
C  C98  1  0.89200000  0.15040000  0.66900000  1.0 -0.0810536456
C  C99  1  0.78490000  0.26130000  0.67590000  1.0 -0.1972155207
C  C100  1  0.70970000  0.25930000  0.67300000  1.0 -0.1972155207
C  C101  1  0.60730000  0.14810000  0.67260000  1.0 -0.0739930533
C  C102  1  0.50650000  0.04340000  0.66390000  1.0 -0.2124873501
C  C103  1  0.95350000  0.21340000  0.67270000  1.0 0.0895265444
C  C104  1  0.54350000  0.21420000  0.67110000  1.0 0.098889067
C  C105  1  0.99170000  0.23700000  0.72030000  1.0 -0.1606530872
C  C106  1  0.97540000  0.24760000  0.62360000  1.0 -0.1534944054
C  C107  1  0.51480000  0.24620000  0.62250000  1.0 -0.1606530872
C  C108  1  0.51120000  0.23890000  0.71970000  1.0 -0.1606530872
C  C109  1  0.05170000  0.29480000  0.71880000  1.0 -0.1084102195
C  C110  1  0.03540000  0.30530000  0.62220000  1.0 -0.1084102195
C  C111  1  0.45380000  0.30280000  0.62260000  1.0 -0.1164394321
C  C112  1  0.45010000  0.29560000  0.71980000  1.0 -0.1048538861
C  C113  1  0.07360000  0.32900000  0.66980000  1.0 -0.0257860244
C  C114  1  0.42140000  0.32750000  0.67130000  1.0 -0.0204957042
C  C115  1  0.14190000  0.39170000  0.67000000  1.0 0.5591724985
C  C116  1  0.35450000  0.39290000  0.66740000  1.0 0.5591724985
C  C117  1  0.24460000  0.43430000  0.50020000  1.0 0.1412659559
C  C118  1  0.24990000  0.42970000  0.44620000  1.0 -0.3601922121
C  C119  1  0.24580000  0.51320000  0.35390000  1.0 -0.0397120992
C  C120  1  0.17460000  0.48320000  0.32580000  1.0 0.0895265444
C  C121  1  0.31570000  0.52270000  0.32630000  1.0 0.0700132168
C  C122  1  0.09800000  0.49000000  0.35310000  1.0 -0.3601922121
C  C123  1  0.17330000  0.47020000  0.27030000  1.0 -0.0947709483
C  C124  1  0.31440000  0.46430000  0.27080000  1.0 -0.1164394321
C  C125  1  0.39130000  0.48020000  0.35930000  1.0 -0.1885195699
C  C126  1  0.24320000  0.46070000  0.24270000  1.0 -0.0397120992
C  C127  1  0.23180000  0.47740000  0.15100000  1.0 0.0417809571
C  C128  1  0.24120000  0.46820000  0.09500000  1.0 -0.0001286607
C  C129  1  0.17220000  0.47880000  0.06510000  1.0 -0.0739930533
C  C130  1  0.31230000  0.46060000  0.06870000  1.0 -0.1164394321
C  C131  1  0.17440000  0.48190000  0.00890000  1.0 0.0539444905
C  C132  1  0.31450000  0.46380000  0.01260000  1.0 0.0285711523
C  C133  1  0.10090000  0.50800000  0.97780000  1.0 -0.3396415737
C  C134  1  0.24560000  0.47440000  0.98270000  1.0 0.006316688
C  C135  1  0.38820000  0.45500000  0.98060000  1.0 -0.2558990744
C  C136  1  0.25010000  0.56180000  0.89630000  1.0 -0.2390404053
C  C137  1  0.24980000  0.55220000  0.83840000  1.0 0.0539444905
C  C138  1  0.91760000  0.93180000  0.66940000  1.0 0.1508418369
C  C139  1  0.81370000  0.82590000  0.67120000  1.0 0.1819813075
C  C140  1  0.68470000  0.82330000  0.67080000  1.0 0.1508418369
C  C141  1  0.58350000  0.93010000  0.67020000  1.0 0.1508418369
C  C142  1  0.99540000  0.95960000  0.66090000  1.0 -0.1885195699
C  C143  1  0.89200000  0.84960000  0.66900000  1.0 -0.0810536456
C  C144  1  0.78490000  0.73870000  0.67590000  1.0 -0.1972155207
C  C145  1  0.70970000  0.74070000  0.67300000  1.0 -0.1972155207
C  C146  1  0.60730000  0.85190000  0.67260000  1.0 -0.0739930533
C  C147  1  0.50650000  0.95660000  0.66390000  1.0 -0.2124873501
C  C148  1  0.95350000  0.78660000  0.67270000  1.0 0.0895265444
C  C149  1  0.54350000  0.78580000  0.67110000  1.0 0.098889067
C  C150  1  0.99170000  0.76300000  0.72030000  1.0 -0.1606530872
C  C151  1  0.97540000  0.75240000  0.62360000  1.0 -0.1534944054
C  C152  1  0.51480000  0.75380000  0.62250000  1.0 -0.1606530872
C  C153  1  0.51120000  0.76110000  0.71970000  1.0 -0.1606530872
C  C154  1  0.05170000  0.70520000  0.71880000  1.0 -0.1084102195
C  C155  1  0.03540000  0.69470000  0.62220000  1.0 -0.1084102195
C  C156  1  0.45380000  0.69720000  0.62260000  1.0 -0.1164394321
C  C157  1  0.45010000  0.70440000  0.71980000  1.0 -0.1048538861
C  C158  1  0.07360000  0.67100000  0.66980000  1.0 -0.0257860244
C  C159  1  0.42140000  0.67250000  0.67130000  1.0 -0.0204957042
C  C160  1  0.14190000  0.60830000  0.67000000  1.0 0.5650005016
C  C161  1  0.35450000  0.60710000  0.66740000  1.0 0.5591724985
C  C162  1  0.24460000  0.56570000  0.50020000  1.0 0.1412659559
C  C163  1  0.24990000  0.57030000  0.44620000  1.0 -0.3601922121
C  C164  1  0.24580000  0.48680000  0.35390000  1.0 -0.0397120992
C  C165  1  0.17460000  0.51680000  0.32580000  1.0 0.0895265444
C  C166  1  0.31570000  0.47730000  0.32630000  1.0 0.0700132168
C  C167  1  0.09800000  0.51000000  0.35310000  1.0 -0.3601922121
C  C168  1  0.17330000  0.52980000  0.27030000  1.0 -0.0947709483
C  C169  1  0.31440000  0.53570000  0.27080000  1.0 -0.1164394321
C  C170  1  0.39130000  0.51980000  0.35930000  1.0 -0.1885195699
C  C171  1  0.24320000  0.53930000  0.24270000  1.0 -0.0397120992
C  C172  1  0.23180000  0.52260000  0.15100000  1.0 0.0417809571
C  C173  1  0.24120000  0.53180000  0.09500000  1.0 -0.0001286607
C  C174  1  0.17220000  0.52120000  0.06510000  1.0 -0.0739930533
C  C175  1  0.31230000  0.53940000  0.06870000  1.0 -0.1164394321
C  C176  1  0.17440000  0.51810000  0.00890000  1.0 0.0539444905
C  C177  1  0.31450000  0.53620000  0.01260000  1.0 0.0285711523
C  C178  1  0.10090000  0.49200000  0.97780000  1.0 -0.3396415737
C  C179  1  0.24560000  0.52560000  0.98270000  1.0 0.006316688
C  C180  1  0.38820000  0.54500000  0.98060000  1.0 -0.2558990744
C  C181  1  0.25010000  0.43820000  0.89630000  1.0 -0.2390404053
C  C182  1  0.24980000  0.44780000  0.83840000  1.0 0.0539444905
C  C183  1  0.24430000  0.50000000  0.41420000  1.0 0.1115687876
C  C184  1  0.22000000  0.50000000  0.92880000  1.0 0.0621168338
N  N1  1  0.24980000  0.12530000  0.32820000  1.0 -0.2390404053
N  N2  1  0.75730000  0.51130000  0.47280000  1.0 -0.2326689389
N  N3  1  0.75800000  0.44940000  0.81660000  1.0 -0.1387212601
N  N4  1  0.24980000  0.87470000  0.32820000  1.0 -0.2390404053
N  N5  1  0.75730000  0.48870000  0.47280000  1.0 -0.2326689389
N  N6  1  0.75800000  0.55060000  0.81660000  1.0 -0.1387212601
N  N7  1  0.75790000  0.50000000  0.20350000  1.0 -0.2196536091
N  N8  1  0.13210000  0.00000000  0.33030000  1.0 -0.2914131311
N  N9  1  0.37070000  0.00000000  0.32970000  1.0 -0.2509681162
N  N10  1  0.75020000  0.12530000  0.67180000  1.0 -0.2390404053
N  N11  1  0.24270000  0.51130000  0.52720000  1.0 -0.2326689389
N  N12  1  0.24200000  0.44940000  0.18340000  1.0 -0.1387212601
N  N13  1  0.75020000  0.87470000  0.67180000  1.0 -0.2390404053
N  N14  1  0.24270000  0.48870000  0.52720000  1.0 -0.2326689389
N  N15  1  0.24200000  0.55060000  0.18340000  1.0 -0.1387212601
N  N16  1  0.24210000  0.50000000  0.79650000  1.0 -0.2196536091
N  N17  1  0.86790000  0.00000000  0.66970000  1.0 -0.2914131311
N  N18  1  0.62930000  0.00000000  0.67030000  1.0 -0.2509681162
O  O1  1  0.83700000  0.41540000  0.37520000  1.0 -0.5125042674
O  O2  1  0.83440000  0.41400000  0.28640000  1.0 -0.4726906743
O  O3  1  0.66850000  0.41460000  0.37390000  1.0 -0.4318061796
O  O4  1  0.67010000  0.41260000  0.28760000  1.0 -0.4929423657
O  O5  1  0.83700000  0.58460000  0.37520000  1.0 -0.5125042674
O  O6  1  0.83440000  0.58600000  0.28640000  1.0 -0.4726906743
O  O7  1  0.66850000  0.58540000  0.37390000  1.0 -0.4318061796
O  O8  1  0.67010000  0.58740000  0.28760000  1.0 -0.4929423657
O  O9  1  0.16300000  0.41540000  0.62480000  1.0 -0.5125042674
O  O10  1  0.16560000  0.41400000  0.71360000  1.0 -0.4726906743
O  O11  1  0.33150000  0.41460000  0.62610000  1.0 -0.4318061796
O  O12  1  0.32990000  0.41260000  0.71240000  1.0 -0.4929423657
O  O13  1  0.16300000  0.58460000  0.62480000  1.0 -0.5125042674
O  O14  1  0.16560000  0.58600000  0.71360000  1.0 -0.4726906743
O  O15  1  0.33150000  0.58540000  0.62610000  1.0 -0.4318061796
O  O16  1  0.32990000  0.58740000  0.71240000  1.0 -0.4929423657
