# DDEC6 charges by PACMAN v1.1 (https://github.com/mtap-research/PACMAN-charge/)
data_JOQSIT_FSR_pacman
_symmetry_space_group_name_H-M   'P 1'
_cell_length_a   16.25270000
_cell_length_b   12.35880000
_cell_length_c   17.44710000
_cell_angle_alpha   90.00000000
_cell_angle_beta   114.65700000
_cell_angle_gamma   90.00000000
_symmetry_Int_Tables_number   1
_chemical_formula_structural   Cu2H9C11N4
_chemical_formula_sum   'Cu16 H72 C88 N32'
_cell_volume   3184.95777629
_cell_formula_units_Z   8
loop_
 _symmetry_equiv_pos_site_id
 _symmetry_equiv_pos_as_xyz
  1  'x, y, z'
loop_
 _atom_site_type_symbol
 _atom_site_label
 _atom_site_symmetry_multiplicity
 _atom_site_fract_x
 _atom_site_fract_y
 _atom_site_fract_z
 _atom_site_occupancy
 _atom_site_charge
Cu  Cu1  1  0.61889000  0.60088000  0.87513000  1.0 0.2408309148
Cu  Cu2  1  0.38111000  0.10088000  0.62487000  1.0 0.2408309148
Cu  Cu3  1  0.38111000  0.39912000  0.12487000  1.0 0.2408309148
Cu  Cu4  1  0.61889000  0.89912000  0.37513000  1.0 0.2408309148
Cu  Cu5  1  0.53142000  0.66928000  0.95774000  1.0 0.2494542838
Cu  Cu6  1  0.46858000  0.16928000  0.54226000  1.0 0.2494542838
Cu  Cu7  1  0.46858000  0.33072000  0.04226000  1.0 0.2494542838
Cu  Cu8  1  0.53142000  0.83072000  0.45774000  1.0 0.2494542838
Cu  Cu9  1  0.07590000  0.61620000  0.92860000  1.0 0.1370863856
Cu  Cu10  1  0.92410000  0.11620000  0.57140000  1.0 0.1370863856
Cu  Cu11  1  0.92410000  0.38380000  0.07140000  1.0 0.1370863856
Cu  Cu12  1  0.07590000  0.88380000  0.42860000  1.0 0.1370863856
Cu  Cu13  1  0.08860000  0.63250000  0.95330000  1.0 0.1288277511
Cu  Cu14  1  0.91140000  0.13250000  0.54670000  1.0 0.1288277511
Cu  Cu15  1  0.91140000  0.36750000  0.04670000  1.0 0.1288277511
Cu  Cu16  1  0.08860000  0.86750000  0.45330000  1.0 0.1288277511
H  H1  1  0.90920000  0.50920000  0.87220000  1.0 0.087602161
H  H2  1  0.09080000  0.00920000  0.62780000  1.0 0.087602161
H  H3  1  0.09080000  0.49080000  0.12780000  1.0 0.087602161
H  H4  1  0.90920000  0.99080000  0.37220000  1.0 0.087602161
H  H5  1  0.77520000  0.51410000  0.88630000  1.0 0.1288277511
H  H6  1  0.22480000  0.01410000  0.61370000  1.0 0.1288277511
H  H7  1  0.22480000  0.48590000  0.11370000  1.0 0.1288277511
H  H8  1  0.77520000  0.98590000  0.38630000  1.0 0.1288277511
H  H9  1  0.87960000  0.74580000  0.05800000  1.0 0.1288277511
H  H10  1  0.12040000  0.24580000  0.44200000  1.0 0.1288277511
H  H11  1  0.12040000  0.25420000  0.94200000  1.0 0.1288277511
H  H12  1  0.87960000  0.75420000  0.55800000  1.0 0.1288277511
H  H13  1  0.01030000  0.73560000  0.03780000  1.0 0.0802323723
H  H14  1  0.98970000  0.23560000  0.46220000  1.0 0.0802323723
H  H15  1  0.98970000  0.26440000  0.96220000  1.0 0.0802323723
H  H16  1  0.01030000  0.76440000  0.53780000  1.0 0.0802323723
H  H17  1  0.77690000  0.69190000  0.09430000  1.0 0.087602161
H  H18  1  0.22310000  0.19190000  0.40570000  1.0 0.087602161
H  H19  1  0.22310000  0.30810000  0.90570000  1.0 0.087602161
H  H20  1  0.77690000  0.80810000  0.59430000  1.0 0.087602161
H  H21  1  0.50950000  0.85270000  0.19230000  1.0 0.087602161
H  H22  1  0.49050000  0.35270000  0.30770000  1.0 0.087602161
H  H23  1  0.49050000  0.14730000  0.80770000  1.0 0.087602161
H  H24  1  0.50950000  0.64730000  0.69230000  1.0 0.087602161
H  H25  1  0.51640000  0.78740000  0.07270000  1.0 0.1288277511
H  H26  1  0.48360000  0.28740000  0.42730000  1.0 0.1288277511
H  H27  1  0.48360000  0.21260000  0.92730000  1.0 0.1288277511
H  H28  1  0.51640000  0.71260000  0.57270000  1.0 0.1288277511
H  H29  1  0.76710000  0.67990000  0.21640000  1.0 0.1288277511
H  H30  1  0.23290000  0.17990000  0.28360000  1.0 0.1288277511
H  H31  1  0.23290000  0.32010000  0.78360000  1.0 0.1288277511
H  H32  1  0.76710000  0.82010000  0.71640000  1.0 0.1288277511
H  H33  1  0.75150000  0.74950000  0.33080000  1.0 0.09687027
H  H34  1  0.24850000  0.24950000  0.16920000  1.0 0.09687027
H  H35  1  0.24850000  0.25050000  0.66920000  1.0 0.09687027
H  H36  1  0.75150000  0.75050000  0.83080000  1.0 0.09687027
H  H37  1  0.62040000  0.27510000  0.69760000  1.0 0.09687027
H  H38  1  0.37960000  0.77510000  0.80240000  1.0 0.09687027
H  H39  1  0.37960000  0.72490000  0.30240000  1.0 0.09687027
H  H40  1  0.62040000  0.22490000  0.19760000  1.0 0.09687027
H  H41  1  0.63120000  0.38570000  0.80590000  1.0 0.1288277511
H  H42  1  0.36880000  0.88570000  0.69410000  1.0 0.1288277511
H  H43  1  0.36880000  0.61430000  0.19410000  1.0 0.1288277511
H  H44  1  0.63120000  0.11430000  0.30590000  1.0 0.1288277511
H  H45  1  0.37610000  0.48310000  0.66540000  1.0 0.1288277511
H  H46  1  0.62390000  0.98310000  0.83460000  1.0 0.1288277511
H  H47  1  0.62390000  0.51690000  0.33460000  1.0 0.1288277511
H  H48  1  0.37610000  0.01690000  0.16540000  1.0 0.1288277511
H  H49  1  0.37450000  0.36980000  0.56150000  1.0 0.09687027
H  H50  1  0.62550000  0.86980000  0.93850000  1.0 0.09687027
H  H51  1  0.62550000  0.63020000  0.43850000  1.0 0.09687027
H  H52  1  0.37450000  0.13020000  0.06150000  1.0 0.09687027
H  H53  1  0.38560000  0.47810000  0.79640000  1.0 0.087602161
H  H54  1  0.61440000  0.97810000  0.70360000  1.0 0.087602161
H  H55  1  0.61440000  0.52190000  0.20360000  1.0 0.087602161
H  H56  1  0.38560000  0.02190000  0.29640000  1.0 0.087602161
H  H57  1  0.27050000  0.65280000  0.03440000  1.0 0.0802323723
H  H58  1  0.72950000  0.15280000  0.46560000  1.0 0.0802323723
H  H59  1  0.72950000  0.34720000  0.96560000  1.0 0.0802323723
H  H60  1  0.27050000  0.84720000  0.53440000  1.0 0.0802323723
H  H61  1  0.40320000  0.63120000  0.01960000  1.0 0.1288277511
H  H62  1  0.59680000  0.13120000  0.48040000  1.0 0.1288277511
H  H63  1  0.59680000  0.36880000  0.98040000  1.0 0.1288277511
H  H64  1  0.40320000  0.86880000  0.51960000  1.0 0.1288277511
H  H65  1  0.25940000  0.54570000  0.77940000  1.0 0.1288277511
H  H66  1  0.74060000  0.04570000  0.72060000  1.0 0.1288277511
H  H67  1  0.74060000  0.45430000  0.22060000  1.0 0.1288277511
H  H68  1  0.25940000  0.95430000  0.27940000  1.0 0.1288277511
H  H69  1  0.13090000  0.56200000  0.80070000  1.0 0.087602161
H  H70  1  0.86910000  0.06200000  0.69930000  1.0 0.087602161
H  H71  1  0.86910000  0.43800000  0.19930000  1.0 0.087602161
H  H72  1  0.13090000  0.93800000  0.30070000  1.0 0.087602161
C  C1  1  0.90260000  0.55920000  0.90910000  1.0 0.0174720262
C  C2  1  0.09740000  0.05920000  0.59090000  1.0 0.0174720262
C  C3  1  0.09740000  0.44080000  0.09090000  1.0 0.0174720262
C  C4  1  0.90260000  0.94080000  0.40910000  1.0 0.0174720262
C  C5  1  0.82200000  0.56080000  0.91800000  1.0 -0.2556072643
C  C6  1  0.17800000  0.06080000  0.58200000  1.0 -0.2556072643
C  C7  1  0.17800000  0.43920000  0.08200000  1.0 -0.2556072643
C  C8  1  0.82200000  0.93920000  0.41800000  1.0 -0.2556072643
C  C9  1  0.81090000  0.63320000  0.97520000  1.0 0.2100894542
C  C10  1  0.18910000  0.13320000  0.52480000  1.0 0.2100894542
C  C11  1  0.18910000  0.36680000  0.02480000  1.0 0.2100894542
C  C12  1  0.81090000  0.86680000  0.47520000  1.0 0.2100894542
C  C13  1  0.88280000  0.69710000  0.01880000  1.0 -0.2387704219
C  C14  1  0.11720000  0.19710000  0.48120000  1.0 -0.2387704219
C  C15  1  0.11720000  0.30290000  0.98120000  1.0 -0.2387704219
C  C16  1  0.88280000  0.80290000  0.51880000  1.0 -0.2387704219
C  C17  1  0.96190000  0.69120000  0.00590000  1.0 0.050409002
C  C18  1  0.03810000  0.19120000  0.49410000  1.0 0.050409002
C  C19  1  0.03810000  0.30880000  0.99410000  1.0 0.050409002
C  C20  1  0.96190000  0.80880000  0.50590000  1.0 0.050409002
C  C21  1  0.72310000  0.67590000  0.04820000  1.0 0.1891733573
C  C22  1  0.27690000  0.17590000  0.45180000  1.0 0.1891733573
C  C23  1  0.27690000  0.32410000  0.95180000  1.0 0.1891733573
C  C24  1  0.72310000  0.82410000  0.54820000  1.0 0.1891733573
C  C25  1  0.56260000  0.81910000  0.19700000  1.0 0.0673493387
C  C26  1  0.43740000  0.31910000  0.30300000  1.0 0.0673493387
C  C27  1  0.43740000  0.18090000  0.80300000  1.0 0.0673493387
C  C28  1  0.56260000  0.68090000  0.69700000  1.0 0.0673493387
C  C29  1  0.56640000  0.78070000  0.12420000  1.0 -0.2677806152
C  C30  1  0.43360000  0.28070000  0.37580000  1.0 -0.2677806152
C  C31  1  0.43360000  0.21930000  0.87580000  1.0 -0.2677806152
C  C32  1  0.56640000  0.71930000  0.62420000  1.0 -0.2677806152
C  C33  1  0.64560000  0.73170000  0.12830000  1.0 0.2408309148
C  C34  1  0.35440000  0.23170000  0.37170000  1.0 0.2408309148
C  C35  1  0.35440000  0.26830000  0.87170000  1.0 0.2408309148
C  C36  1  0.64560000  0.76830000  0.62830000  1.0 0.2408309148
C  C37  1  0.71460000  0.71720000  0.20910000  1.0 -0.2768206431
C  C38  1  0.28540000  0.21720000  0.29090000  1.0 -0.2768206431
C  C39  1  0.28540000  0.28280000  0.79090000  1.0 -0.2768206431
C  C40  1  0.71460000  0.78280000  0.70910000  1.0 -0.2768206431
C  C41  1  0.70410000  0.75860000  0.27790000  1.0 0.050409002
C  C42  1  0.29590000  0.25860000  0.22210000  1.0 0.050409002
C  C43  1  0.29590000  0.24140000  0.72210000  1.0 0.050409002
C  C44  1  0.70410000  0.74140000  0.77790000  1.0 0.050409002
C  C45  1  0.57030000  0.31640000  0.69170000  1.0 0.0609517561
C  C46  1  0.42970000  0.81640000  0.80830000  1.0 0.0609517561
C  C47  1  0.42970000  0.68360000  0.30830000  1.0 0.0609517561
C  C48  1  0.57030000  0.18360000  0.19170000  1.0 0.0609517561
C  C49  1  0.57750000  0.38290000  0.75720000  1.0 -0.2677806152
C  C50  1  0.42250000  0.88290000  0.74280000  1.0 -0.2677806152
C  C51  1  0.42250000  0.61710000  0.24280000  1.0 -0.2677806152
C  C52  1  0.57750000  0.11710000  0.25720000  1.0 -0.2677806152
C  C53  1  0.50340000  0.44650000  0.74990000  1.0 0.2322869205
C  C54  1  0.49660000  0.94650000  0.75010000  1.0 0.2322869205
C  C55  1  0.49660000  0.55350000  0.25010000  1.0 0.2322869205
C  C56  1  0.50340000  0.05350000  0.24990000  1.0 0.2322869205
C  C57  1  0.42650000  0.44080000  0.67400000  1.0 -0.252536027
C  C58  1  0.57350000  0.94080000  0.82600000  1.0 -0.252536027
C  C59  1  0.57350000  0.55920000  0.32600000  1.0 -0.252536027
C  C60  1  0.42650000  0.05920000  0.17400000  1.0 -0.252536027
C  C61  1  0.42610000  0.37190000  0.61200000  1.0 0.0609517561
C  C62  1  0.57390000  0.87190000  0.88800000  1.0 0.0609517561
C  C63  1  0.57390000  0.62810000  0.38800000  1.0 0.0609517561
C  C64  1  0.42610000  0.12810000  0.11200000  1.0 0.0609517561
C  C65  1  0.43600000  0.51790000  0.83110000  1.0 0.181378396
C  C66  1  0.56400000  0.01790000  0.66890000  1.0 0.181378396
C  C67  1  0.56400000  0.48210000  0.16890000  1.0 0.181378396
C  C68  1  0.43600000  0.98210000  0.33110000  1.0 0.181378396
C  C69  1  0.26820000  0.62930000  0.98290000  1.0 0.0282551244
C  C70  1  0.73180000  0.12930000  0.51710000  1.0 0.0282551244
C  C71  1  0.73180000  0.37070000  0.01710000  1.0 0.0282551244
C  C72  1  0.26820000  0.87070000  0.48290000  1.0 0.0282551244
C  C73  1  0.34840000  0.61680000  0.97410000  1.0 -0.2260656847
C  C74  1  0.65160000  0.11680000  0.52590000  1.0 -0.2260656847
C  C75  1  0.65160000  0.38320000  0.02590000  1.0 -0.2260656847
C  C76  1  0.34840000  0.88320000  0.47410000  1.0 -0.2260656847
C  C77  1  0.34750000  0.58310000  0.89830000  1.0 0.2242690937
C  C78  1  0.65250000  0.08310000  0.60170000  1.0 0.2242690937
C  C79  1  0.65250000  0.41690000  0.10170000  1.0 0.2242690937
C  C80  1  0.34750000  0.91690000  0.39830000  1.0 0.2242690937
C  C81  1  0.26340000  0.56530000  0.83230000  1.0 -0.2387704219
C  C82  1  0.73660000  0.06530000  0.66770000  1.0 -0.2387704219
C  C83  1  0.73660000  0.43470000  0.16770000  1.0 -0.2387704219
C  C84  1  0.26340000  0.93470000  0.33230000  1.0 -0.2387704219
C  C85  1  0.18630000  0.57680000  0.84530000  1.0 0.0282551244
C  C86  1  0.81370000  0.07680000  0.65470000  1.0 0.0282551244
C  C87  1  0.81370000  0.42320000  0.15470000  1.0 0.0282551244
C  C88  1  0.18630000  0.92320000  0.34530000  1.0 0.0282551244
N  N1  1  0.97110000  0.62540000  0.95050000  1.0 -0.2031299179
N  N2  1  0.02890000  0.12540000  0.54950000  1.0 -0.2031299179
N  N3  1  0.02890000  0.37460000  0.04950000  1.0 -0.2031299179
N  N4  1  0.97110000  0.87460000  0.45050000  1.0 -0.2031299179
N  N5  1  0.72590000  0.63640000  0.97820000  1.0 -0.3616694842
N  N6  1  0.27410000  0.13640000  0.52180000  1.0 -0.3616694842
N  N7  1  0.27410000  0.36360000  0.02180000  1.0 -0.3616694842
N  N8  1  0.72590000  0.86360000  0.47820000  1.0 -0.3616694842
N  N9  1  0.64550000  0.69270000  0.05310000  1.0 -0.3616694842
N  N10  1  0.35450000  0.19270000  0.44690000  1.0 -0.3616694842
N  N11  1  0.35450000  0.30730000  0.94690000  1.0 -0.3616694842
N  N12  1  0.64550000  0.80730000  0.55310000  1.0 -0.3616694842
N  N13  1  0.63010000  0.81100000  0.27350000  1.0 -0.2244046612
N  N14  1  0.36990000  0.31100000  0.22650000  1.0 -0.2244046612
N  N15  1  0.36990000  0.18900000  0.72650000  1.0 -0.2260656847
N  N16  1  0.63010000  0.68900000  0.77350000  1.0 -0.2260656847
N  N17  1  0.49580000  0.30720000  0.61990000  1.0 -0.2260656847
N  N18  1  0.50420000  0.80720000  0.88010000  1.0 -0.2260656847
N  N19  1  0.50420000  0.69280000  0.38010000  1.0 -0.2260656847
N  N20  1  0.49580000  0.19280000  0.11990000  1.0 -0.2260656847
N  N21  1  0.50990000  0.51230000  0.81750000  1.0 -0.3616694842
N  N22  1  0.49010000  0.01230000  0.68250000  1.0 -0.3616694842
N  N23  1  0.49010000  0.48770000  0.18250000  1.0 -0.3616694842
N  N24  1  0.50990000  0.98770000  0.31750000  1.0 -0.3616694842
N  N25  1  0.43040000  0.57750000  0.89180000  1.0 -0.3507504
N  N26  1  0.56960000  0.07750000  0.60820000  1.0 -0.3507504
N  N27  1  0.56960000  0.42250000  0.10820000  1.0 -0.3507504
N  N28  1  0.43040000  0.92250000  0.39180000  1.0 -0.3507504
N  N29  1  0.18650000  0.60840000  0.91940000  1.0 -0.2031299179
N  N30  1  0.81350000  0.10840000  0.58060000  1.0 -0.2031299179
N  N31  1  0.81350000  0.39160000  0.08060000  1.0 -0.2031299179
N  N32  1  0.18650000  0.89160000  0.41940000  1.0 -0.2052808388
