# DDEC6 charges by PACMAN v1.1 (https://github.com/mtap-research/PACMAN-charge/)
data_JOQZUM_ASR_pacman
_symmetry_space_group_name_H-M   'P 1'
_cell_length_a   13.89640000
_cell_length_b   13.89640000
_cell_length_c   13.06990000
_cell_angle_alpha   68.11730000
_cell_angle_beta   111.88300000
_cell_angle_gamma   75.46100000
_symmetry_Int_Tables_number   1
_chemical_formula_structural   Mn2MoH2C8N8O
_chemical_formula_sum   'Mn8 Mo4 H8 C32 N32 O4'
_cell_volume   1937.69406750
_cell_formula_units_Z   4
loop_
 _symmetry_equiv_pos_site_id
 _symmetry_equiv_pos_as_xyz
  1  'x, y, z'
loop_
 _atom_site_type_symbol
 _atom_site_label
 _atom_site_symmetry_multiplicity
 _atom_site_fract_x
 _atom_site_fract_y
 _atom_site_fract_z
 _atom_site_occupancy
 _atom_site_charge
Mn  Mn1  1  0.44833000  0.19687000  0.57084000  1.0 0.9097479065
Mn  Mn2  1  0.19687000  0.44833000  0.92916000  1.0 0.9097479065
Mn  Mn3  1  0.55167000  0.80313000  0.42916000  1.0 0.9097479065
Mn  Mn4  1  0.80313000  0.55167000  0.07084000  1.0 0.9097479065
Mn  Mn5  1  0.86153000  0.26971000  0.74362000  1.0 0.8485125829
Mn  Mn6  1  0.26971000  0.86153000  0.75638000  1.0 0.8485125829
Mn  Mn7  1  0.13847000  0.73029000  0.25638000  1.0 0.8485125829
Mn  Mn8  1  0.73029000  0.13847000  0.24362000  1.0 0.8485125829
Mo  Mo1  1  0.51917000  0.51917000  0.25000000  1.0 0.5618644138
Mo  Mo2  1  0.48083000  0.48083000  0.75000000  1.0 0.5618644138
Mo  Mo3  1  0.87071000  0.87071000  0.75000000  1.0 0.5309664686
Mo  Mo4  1  0.12929000  0.12929000  0.25000000  1.0 0.5309664686
H  H1  1  0.35100000  0.14600000  0.67490000  1.0 0.3972081025
H  H2  1  0.14600000  0.35100000  0.82510000  1.0 0.3972081025
H  H3  1  0.64900000  0.85400000  0.32510000  1.0 0.3972081025
H  H4  1  0.85400000  0.64900000  0.17490000  1.0 0.3972081025
H  H5  1  0.42630000  0.03830000  0.69820000  1.0 0.3898438071
H  H6  1  0.03830000  0.42630000  0.80180000  1.0 0.3898438071
H  H7  1  0.57370000  0.96170000  0.30180000  1.0 0.3898438071
H  H8  1  0.96170000  0.57370000  0.19820000  1.0 0.3898438071
C  C1  1  0.02490000  0.17510000  0.05420000  1.0 0.028708081
C  C2  1  0.17510000  0.02490000  0.44580000  1.0 0.028708081
C  C3  1  0.97510000  0.82490000  0.94580000  1.0 0.0389618353
C  C4  1  0.82490000  0.97510000  0.55420000  1.0 0.0389618353
C  C5  1  0.63010000  0.39030000  0.74970000  1.0 0.0484268483
C  C6  1  0.39030000  0.63010000  0.75030000  1.0 0.0484268483
C  C7  1  0.36990000  0.60970000  0.25030000  1.0 0.0484268483
C  C8  1  0.60970000  0.36990000  0.24970000  1.0 0.0484268483
C  C9  1  0.82445000  0.75865000  0.86850000  1.0 0.0675443676
C  C10  1  0.75865000  0.82445000  0.63150000  1.0 0.0675443676
C  C11  1  0.17555000  0.24135000  0.13150000  1.0 0.0675443676
C  C12  1  0.24135000  0.17555000  0.36850000  1.0 0.0675443676
C  C13  1  0.55030000  0.63790000  0.30990000  1.0 0.0633361791
C  C14  1  0.63790000  0.55030000  0.19010000  1.0 0.0633361791
C  C15  1  0.44970000  0.36210000  0.69010000  1.0 0.0633361791
C  C16  1  0.36210000  0.44970000  0.80990000  1.0 0.0633361791
C  C17  1  0.67820000  0.42380000  0.43470000  1.0 0.0389618353
C  C18  1  0.42380000  0.67820000  0.06530000  1.0 0.0389618353
C  C19  1  0.32180000  0.57620000  0.56530000  1.0 0.0389618353
C  C20  1  0.57620000  0.32180000  0.93470000  1.0 0.0389618353
C  C21  1  0.49510000  0.38910000  0.37780000  1.0 0.0389618353
C  C22  1  0.38910000  0.49510000  0.12220000  1.0 0.0389618353
C  C23  1  0.50490000  0.61090000  0.62220000  1.0 0.0389618353
C  C24  1  0.61090000  0.50490000  0.87780000  1.0 0.0389618353
C  C25  1  0.87033000  0.02813000  0.74420000  1.0 0.0675443676
C  C26  1  0.02813000  0.87033000  0.75580000  1.0 0.0675443676
C  C27  1  0.12967000  0.97187000  0.25580000  1.0 0.0675443676
C  C28  1  0.97187000  0.12967000  0.24420000  1.0 0.0675443676
C  C29  1  0.69930000  0.98670000  0.68860000  1.0 0.028708081
C  C30  1  0.98670000  0.69930000  0.81140000  1.0 0.028708081
C  C31  1  0.30070000  0.01330000  0.31140000  1.0 0.0247365278
C  C32  1  0.01330000  0.30070000  0.18860000  1.0 0.028708081
N  N1  1  0.56560000  0.69940000  0.34470000  1.0 -0.3704978782
N  N2  1  0.69940000  0.56560000  0.15530000  1.0 -0.3704978782
N  N3  1  0.43440000  0.30060000  0.65530000  1.0 -0.3704978782
N  N4  1  0.30060000  0.43440000  0.84470000  1.0 -0.3704978782
N  N5  1  0.80462000  0.69462000  0.93270000  1.0 -0.4141763667
N  N6  1  0.69462000  0.80462000  0.56730000  1.0 -0.4141763667
N  N7  1  0.19538000  0.30538000  0.06730000  1.0 -0.4141763667
N  N8  1  0.30538000  0.19538000  0.43270000  1.0 -0.4141763667
N  N9  1  0.86947000  0.10993000  0.74582000  1.0 -0.3389015959
N  N10  1  0.10993000  0.86947000  0.75418000  1.0 -0.3389015959
N  N11  1  0.13053000  0.89007000  0.25418000  1.0 -0.3389015959
N  N12  1  0.89007000  0.13053000  0.24582000  1.0 -0.3346913378
N  N13  1  0.47750000  0.32016000  0.44118000  1.0 -0.3346913378
N  N14  1  0.32016000  0.47750000  0.05882000  1.0 -0.3346913378
N  N15  1  0.52250000  0.67984000  0.55882000  1.0 -0.3346913378
N  N16  1  0.67984000  0.52250000  0.94118000  1.0 -0.3346913378
N  N17  1  0.60693000  0.05237000  0.65141000  1.0 -0.3704978782
N  N18  1  0.05237000  0.60693000  0.84859000  1.0 -0.3704978782
N  N19  1  0.39307000  0.94763000  0.34859000  1.0 -0.3704978782
N  N20  1  0.94763000  0.39307000  0.15141000  1.0 -0.3704978782
N  N21  1  0.76231000  0.37265000  0.53324000  1.0 -0.3389015959
N  N22  1  0.37265000  0.76231000  0.96676000  1.0 -0.3389015959
N  N23  1  0.23769000  0.62735000  0.46676000  1.0 -0.3389015959
N  N24  1  0.62735000  0.23769000  0.03324000  1.0 -0.3389015959
N  N25  1  0.97288000  0.19750000  0.95036000  1.0 -0.3543774705
N  N26  1  0.19750000  0.97288000  0.54964000  1.0 -0.3554920177
N  N27  1  0.02712000  0.80250000  0.04964000  1.0 -0.3554920177
N  N28  1  0.80250000  0.02712000  0.45036000  1.0 -0.3543774705
N  N29  1  0.70935000  0.33705000  0.75143000  1.0 -0.3389015959
N  N30  1  0.33705000  0.70935000  0.74857000  1.0 -0.3389015959
N  N31  1  0.29065000  0.66295000  0.24857000  1.0 -0.3389015959
N  N32  1  0.66295000  0.29065000  0.25143000  1.0 -0.3389015959
O  O1  1  0.42051000  0.08455000  0.72252000  1.0 -0.6176029961
O  O2  1  0.08455000  0.42051000  0.77748000  1.0 -0.6176029961
O  O3  1  0.57949000  0.91545000  0.27748000  1.0 -0.6176029961
O  O4  1  0.91545000  0.57949000  0.22252000  1.0 -0.6176029961
