# DDEC6 charges by PACMAN v1.1 (https://github.com/mtap-research/PACMAN-charge/)
data_JORBAV_FSR_pacman
_symmetry_space_group_name_H-M   'P 1'
_cell_length_a   13.85920000
_cell_length_b   13.85920000
_cell_length_c   13.13000000
_cell_angle_alpha   67.68820000
_cell_angle_beta   112.31200000
_cell_angle_gamma   76.32470000
_symmetry_Int_Tables_number   1
_chemical_formula_structural   Mn2H8WC9N8O3
_chemical_formula_sum   'Mn8 H32 W4 C36 N32 O12'
_cell_volume   1933.36881142
_cell_formula_units_Z   4
loop_
 _symmetry_equiv_pos_site_id
 _symmetry_equiv_pos_as_xyz
  1  'x, y, z'
loop_
 _atom_site_type_symbol
 _atom_site_label
 _atom_site_symmetry_multiplicity
 _atom_site_fract_x
 _atom_site_fract_y
 _atom_site_fract_z
 _atom_site_occupancy
 _atom_site_charge
Mn  Mn1  1  0.19526000  0.45020000  0.42816000  1.0 0.9333917291
Mn  Mn2  1  0.45020000  0.19526000  0.07184000  1.0 0.9333917291
Mn  Mn3  1  0.80474000  0.54980000  0.57184000  1.0 0.9333917291
Mn  Mn4  1  0.54980000  0.80474000  0.92816000  1.0 0.9333917291
Mn  Mn5  1  0.85927000  0.27027000  0.24435000  1.0 0.9072842689
Mn  Mn6  1  0.27027000  0.85927000  0.25565000  1.0 0.9072842689
Mn  Mn7  1  0.14073000  0.72973000  0.75565000  1.0 0.9072842689
Mn  Mn8  1  0.72973000  0.14073000  0.74435000  1.0 0.9072842689
H  H1  1  0.89280000  0.45020000  0.16270000  1.0 0.3298729153
H  H2  1  0.45020000  0.89280000  0.33730000  1.0 0.3298729153
H  H3  1  0.10720000  0.54980000  0.83730000  1.0 0.3298729153
H  H4  1  0.54980000  0.10720000  0.66270000  1.0 0.3298729153
H  H5  1  0.04400000  0.29560000  0.25550000  1.0 0.3707520754
H  H6  1  0.29560000  0.04400000  0.24450000  1.0 0.3707520754
H  H7  1  0.95600000  0.70440000  0.74450000  1.0 0.3707520754
H  H8  1  0.70440000  0.95600000  0.75550000  1.0 0.3707520754
H  H9  1  0.02170000  0.17950000  0.23360000  1.0 0.3857678861
H  H10  1  0.17950000  0.02170000  0.26640000  1.0 0.3857678861
H  H11  1  0.97830000  0.82050000  0.76640000  1.0 0.3857678861
H  H12  1  0.82050000  0.97830000  0.73360000  1.0 0.3857678861
H  H13  1  0.08810000  0.37870000  0.28100000  1.0 0.3475677759
H  H14  1  0.37870000  0.08810000  0.21900000  1.0 0.3475677759
H  H15  1  0.91190000  0.62130000  0.71900000  1.0 0.3475677759
H  H16  1  0.62130000  0.91190000  0.78100000  1.0 0.3475677759
H  H17  1  0.99840000  0.44940000  0.28700000  1.0 0.3189139009
H  H18  1  0.44940000  0.99840000  0.21300000  1.0 0.3189139009
H  H19  1  0.00160000  0.55060000  0.71300000  1.0 0.3189139009
H  H20  1  0.55060000  0.00160000  0.78700000  1.0 0.3189139009
H  H21  1  0.83960000  0.56820000  0.27670000  1.0 0.1301293687
H  H22  1  0.56820000  0.83960000  0.22330000  1.0 0.1301293687
H  H23  1  0.16040000  0.43180000  0.72330000  1.0 0.1301293687
H  H24  1  0.43180000  0.16040000  0.77670000  1.0 0.1301293687
H  H25  1  0.77460000  0.49300000  0.30690000  1.0 0.1416483314
H  H26  1  0.49300000  0.77460000  0.19310000  1.0 0.1416483314
H  H27  1  0.22540000  0.50700000  0.69310000  1.0 0.1416483314
H  H28  1  0.50700000  0.22540000  0.80690000  1.0 0.1416483314
H  H29  1  0.91100000  0.43680000  0.38760000  1.0 0.1209981979
H  H30  1  0.43680000  0.91100000  0.11240000  1.0 0.1209981979
H  H31  1  0.08900000  0.56320000  0.61240000  1.0 0.1209981979
H  H32  1  0.56320000  0.08900000  0.88760000  1.0 0.1209981979
W  W1  1  0.52104000  0.52104000  0.75000000  1.0 0.5279134901
W  W2  1  0.47896000  0.47896000  0.25000000  1.0 0.5279134901
W  W3  1  0.87093000  0.87093000  0.25000000  1.0 0.504203418
W  W4  1  0.12907000  0.12907000  0.75000000  1.0 0.504203418
C  C1  1  0.82274000  0.75868000  0.36886000  1.0 0.0395471956
C  C2  1  0.75868000  0.82274000  0.13114000  1.0 0.0395471956
C  C3  1  0.17726000  0.24132000  0.63114000  1.0 0.0395471956
C  C4  1  0.24132000  0.17726000  0.86886000  1.0 0.0395471956
C  C5  1  0.87052000  0.02892000  0.24394000  1.0 0.0580842167
C  C6  1  0.02892000  0.87052000  0.25606000  1.0 0.0580842167
C  C7  1  0.12948000  0.97108000  0.75606000  1.0 0.0580842167
C  C8  1  0.97108000  0.12948000  0.74394000  1.0 0.0580842167
C  C9  1  0.98711000  0.69933000  0.31358000  1.0 0.0395471956
C  C10  1  0.69933000  0.98711000  0.18642000  1.0 0.0395471956
C  C11  1  0.01289000  0.30067000  0.68642000  1.0 0.0395471956
C  C12  1  0.30067000  0.01289000  0.81358000  1.0 0.0395471956
C  C13  1  0.02336000  0.17564000  0.55352000  1.0 0.0395471956
C  C14  1  0.17564000  0.02336000  0.94648000  1.0 0.0395471956
C  C15  1  0.97664000  0.82436000  0.44648000  1.0 0.0395471956
C  C16  1  0.82436000  0.97664000  0.05352000  1.0 0.0395471956
C  C17  1  0.39038000  0.49634000  0.62102000  1.0 0.0321480294
C  C18  1  0.49634000  0.39038000  0.87898000  1.0 0.0321480294
C  C19  1  0.60962000  0.50366000  0.37898000  1.0 0.0321480294
C  C20  1  0.50366000  0.60962000  0.12102000  1.0 0.0321480294
C  C21  1  0.64047000  0.55229000  0.69030000  1.0 0.0519884603
C  C22  1  0.55229000  0.64047000  0.80970000  1.0 0.0519884603
C  C23  1  0.35953000  0.44771000  0.30970000  1.0 0.0519884603
C  C24  1  0.44771000  0.35953000  0.19030000  1.0 0.0519884603
C  C25  1  0.68023000  0.42643000  0.93570000  1.0 0.0395471956
C  C26  1  0.42643000  0.68023000  0.56430000  1.0 0.0395471956
C  C27  1  0.31977000  0.57357000  0.06430000  1.0 0.0395471956
C  C28  1  0.57357000  0.31977000  0.43570000  1.0 0.0395471956
C  C29  1  0.62795000  0.38747000  0.25037000  1.0 0.0519884603
C  C30  1  0.38747000  0.62795000  0.24963000  1.0 0.0519884603
C  C31  1  0.37205000  0.61253000  0.74963000  1.0 0.0519884603
C  C32  1  0.61253000  0.37205000  0.75037000  1.0 0.0519884603
C  C33  1  0.84286000  0.49214000  0.30360000  1.0 -0.1785235017
C  C34  1  0.49214000  0.84286000  0.19640000  1.0 -0.1785235017
C  C35  1  0.15714000  0.50786000  0.69640000  1.0 -0.1785235017
C  C36  1  0.50786000  0.15714000  0.80360000  1.0 -0.1785235017
N  N1  1  0.80173000  0.69599000  0.43245000  1.0 -0.4115053623
N  N2  1  0.69599000  0.80173000  0.06755000  1.0 -0.4115053623
N  N3  1  0.19827000  0.30401000  0.56755000  1.0 -0.4115053623
N  N4  1  0.30401000  0.19827000  0.93245000  1.0 -0.4115053623
N  N5  1  0.87064000  0.11154000  0.24447000  1.0 -0.3780945658
N  N6  1  0.11154000  0.87064000  0.25553000  1.0 -0.3780945658
N  N7  1  0.12936000  0.88846000  0.75553000  1.0 -0.3780945658
N  N8  1  0.88846000  0.12936000  0.74447000  1.0 -0.3780945658
N  N9  1  0.05328000  0.60854000  0.35074000  1.0 -0.3988436072
N  N10  1  0.60854000  0.05328000  0.14926000  1.0 -0.3988436072
N  N11  1  0.94672000  0.39146000  0.64926000  1.0 -0.3988436072
N  N12  1  0.39146000  0.94672000  0.85074000  1.0 -0.3988436072
N  N13  1  0.96762000  0.20100000  0.44923000  1.0 -0.3682769347
N  N14  1  0.20100000  0.96762000  0.05077000  1.0 -0.3682769347
N  N15  1  0.03238000  0.79900000  0.55077000  1.0 -0.3682769347
N  N16  1  0.79900000  0.03238000  0.94923000  1.0 -0.3682769347
N  N17  1  0.32129000  0.47895000  0.55736000  1.0 -0.3682769347
N  N18  1  0.47895000  0.32129000  0.94264000  1.0 -0.3682769347
N  N19  1  0.67871000  0.52105000  0.44264000  1.0 -0.3682769347
N  N20  1  0.52105000  0.67871000  0.05736000  1.0 -0.3682769347
N  N21  1  0.70362000  0.56640000  0.65605000  1.0 -0.3682769347
N  N22  1  0.56640000  0.70362000  0.84395000  1.0 -0.3682769347
N  N23  1  0.29638000  0.43360000  0.34395000  1.0 -0.3682769347
N  N24  1  0.43360000  0.29638000  0.15605000  1.0 -0.3682769347
N  N25  1  0.76371000  0.37593000  0.03418000  1.0 -0.3780945658
N  N26  1  0.37593000  0.76371000  0.46582000  1.0 -0.3780945658
N  N27  1  0.23629000  0.62407000  0.96582000  1.0 -0.3780945658
N  N28  1  0.62407000  0.23629000  0.53418000  1.0 -0.3780945658
N  N29  1  0.70641000  0.33641000  0.25012000  1.0 -0.3501723616
N  N30  1  0.33641000  0.70641000  0.24988000  1.0 -0.3501723616
N  N31  1  0.29359000  0.66359000  0.74988000  1.0 -0.3501723616
N  N32  1  0.66359000  0.29359000  0.75012000  1.0 -0.3501723616
O  O1  1  0.84753000  0.46053000  0.21500000  1.0 -0.3856739609
O  O2  1  0.46053000  0.84753000  0.28500000  1.0 -0.3856739609
O  O3  1  0.15247000  0.53947000  0.78500000  1.0 -0.3780945658
O  O4  1  0.53947000  0.15247000  0.71500000  1.0 -0.3780945658
O  O5  1  0.02575000  0.24555000  0.24760000  1.0 -0.7153212636
O  O6  1  0.24555000  0.02575000  0.25240000  1.0 -0.7153212636
O  O7  1  0.97425000  0.75445000  0.75240000  1.0 -0.7153212636
O  O8  1  0.75445000  0.97425000  0.74760000  1.0 -0.7153212636
O  O9  1  0.07614000  0.42852000  0.27586000  1.0 -0.5575125574
O  O10  1  0.42852000  0.07614000  0.22414000  1.0 -0.5575125574
O  O11  1  0.92386000  0.57148000  0.72414000  1.0 -0.5575125574
O  O12  1  0.57148000  0.92386000  0.77586000  1.0 -0.5575125574
