# DDEC6 charges by PACMAN v1.1 (https://github.com/mtap-research/PACMAN-charge/)
data_JOSGAC_ion_pacman
_symmetry_space_group_name_H-M   'P 1'
_cell_length_a   9.65800000
_cell_length_b   13.24200000
_cell_length_c   16.16600000
_cell_angle_alpha   108.84300000
_cell_angle_beta   98.48200000
_cell_angle_gamma   95.80500000
_symmetry_Int_Tables_number   1
_chemical_formula_structural   U2H21C18N8ClO10
_chemical_formula_sum   'U4 H42 C36 N16 Cl2 O20'
_cell_volume   1910.68273668
_cell_formula_units_Z   2
loop_
 _symmetry_equiv_pos_site_id
 _symmetry_equiv_pos_as_xyz
  1  'x, y, z'
loop_
 _atom_site_type_symbol
 _atom_site_label
 _atom_site_symmetry_multiplicity
 _atom_site_fract_x
 _atom_site_fract_y
 _atom_site_fract_z
 _atom_site_occupancy
 _atom_site_charge
U  U1  1  0.41989000  0.04622000  0.41057000  1.0 2.5102179118
U  U2  1  0.25174000  0.11418000  0.62446000  1.0 2.4498386452
U  U3  1  0.58011000  0.95378000  0.58943000  1.0 2.5102179118
U  U4  1  0.74826000  0.88582000  0.37554000  1.0 2.4498386452
H  H1  1  0.17627000  0.91011000  0.05122000  1.0 0.1001407982
H  H2  1  0.99120000  0.17507000  0.08709000  1.0 0.1001407982
H  H3  1  0.50398000  0.86983000  0.86454000  1.0 0.11949519
H  H4  1  0.50467000  0.17724000  0.01232000  1.0 0.11949519
H  H5  1  0.79221000  0.36848000  0.45787000  1.0 0.1280570396
H  H6  1  0.77543000  0.54048000  0.44860000  1.0 0.11949519
H  H7  1  0.95258000  0.67967000  0.71332000  1.0 0.113993577
H  H8  1  0.97982000  0.49976000  0.71497000  1.0 0.113993577
H  H9  1  0.32116000  0.23632000  0.23986000  1.0 0.3463485607
H  H10  1  0.23697000  0.24476000  0.15678000  1.0 0.31688369
H  H11  1  0.37137000  0.94133000  0.77118000  1.0 0.2546312877
H  H12  1  0.56625000  0.16455000  0.79973000  1.0 0.332383416
H  H13  1  0.62473000  0.19579000  0.89785000  1.0 0.3075628945
H  H14  1  0.10277000  0.35867000  0.65867000  1.0 0.2662933537
H  H15  1  0.85678000  0.16117000  0.52673000  1.0 0.3373319038
H  H16  1  0.75175000  0.22953000  0.50420000  1.0 0.332383416
H  H17  1  0.69495000  0.70070000  0.49123000  1.0 0.2662933537
H  H18  1  0.97267000  0.87943000  0.62422000  1.0 0.3373319038
H  H19  1  0.03684000  0.80124000  0.66255000  1.0 0.3075628945
H  H20  1  0.95652000  0.97510000  0.12598000  1.0 0.11949519
H  H21  1  0.23207000  0.09001000  0.00318000  1.0 0.090364314
H  H22  1  0.82373000  0.08989000  0.94878000  1.0 0.1001407982
H  H23  1  0.00880000  0.82493000  0.91291000  1.0 0.1001407982
H  H24  1  0.49602000  0.13017000  0.13546000  1.0 0.11949519
H  H25  1  0.49533000  0.82276000  0.98768000  1.0 0.11949519
H  H26  1  0.20779000  0.63152000  0.54213000  1.0 0.1280570396
H  H27  1  0.22457000  0.45952000  0.55140000  1.0 0.11949519
H  H28  1  0.04742000  0.32033000  0.28668000  1.0 0.113993577
H  H29  1  0.02018000  0.50024000  0.28503000  1.0 0.11949519
H  H30  1  0.67884000  0.76368000  0.76014000  1.0 0.3463485607
H  H31  1  0.76303000  0.75524000  0.84322000  1.0 0.31688369
H  H32  1  0.62863000  0.05867000  0.22882000  1.0 0.2546312877
H  H33  1  0.43375000  0.83545000  0.20027000  1.0 0.332383416
H  H34  1  0.37527000  0.80421000  0.10215000  1.0 0.3075628945
H  H35  1  0.89723000  0.64133000  0.34133000  1.0 0.2662933537
H  H36  1  0.14322000  0.83883000  0.47327000  1.0 0.3373319038
H  H37  1  0.24825000  0.77047000  0.49580000  1.0 0.332383416
H  H38  1  0.30505000  0.29930000  0.50877000  1.0 0.2662933537
H  H39  1  0.02733000  0.12057000  0.37578000  1.0 0.3373319038
H  H40  1  0.96316000  0.19876000  0.33745000  1.0 0.3075628945
H  H41  1  0.04348000  0.02490000  0.87402000  1.0 0.11949519
H  H42  1  0.76793000  0.90999000  0.99682000  1.0 0.090364314
C  C1  1  0.19500000  0.10800000  0.16900000  1.0 0.31688369
C  C2  1  0.09400000  0.05000000  0.08130000  1.0 0.0059638399
C  C3  1  0.10700000  0.94700000  0.03200000  1.0 -0.0414191863
C  C4  1  0.99500000  0.10400000  0.05200000  1.0 -0.0614725209
C  C5  1  0.50300000  0.06600000  0.84980000  1.0 0.3373319038
C  C6  1  0.49700000  0.03000000  0.92480000  1.0 -0.0258582111
C  C7  1  0.50100000  0.92300000  0.91910000  1.0 -0.102684722
C  C8  1  0.50100000  0.10400000  0.00690000  1.0 -0.1304220899
C  C9  1  0.91700000  0.31090000  0.58620000  1.0 0.3373319038
C  C10  1  0.89300000  0.41970000  0.58750000  1.0 -0.0414191863
C  C11  1  0.82800000  0.43060000  0.50810000  1.0 -0.0904021158
C  C12  1  0.81500000  0.53300000  0.50260000  1.0 -0.1485711342
C  C13  1  0.86400000  0.62490000  0.58010000  1.0 -0.011848008
C  C14  1  0.92400000  0.61820000  0.66170000  1.0 -0.1304220899
C  C15  1  0.93800000  0.50850000  0.66190000  1.0 -0.1147634841
C  C16  1  0.86600000  0.73840000  0.57840000  1.0 0.3373319038
C  C17  1  0.97200000  0.98900000  0.07400000  1.0 -0.0414191863
C  C18  1  0.14100000  0.05800000  0.00400000  1.0 -0.0754737488
C  C19  1  0.80500000  0.89200000  0.83100000  1.0 0.31688369
C  C20  1  0.90600000  0.95000000  0.91870000  1.0 0.0059638399
C  C21  1  0.89300000  0.05300000  0.96800000  1.0 -0.0414191863
C  C22  1  0.00500000  0.89600000  0.94800000  1.0 -0.0614725209
C  C23  1  0.49700000  0.93400000  0.15020000  1.0 0.3373319038
C  C24  1  0.50300000  0.97000000  0.07520000  1.0 -0.0258582111
C  C25  1  0.49900000  0.07700000  0.08090000  1.0 -0.102684722
C  C26  1  0.49900000  0.89600000  0.99310000  1.0 -0.1304220899
C  C27  1  0.08300000  0.68910000  0.41380000  1.0 0.3373319038
C  C28  1  0.10700000  0.58030000  0.41250000  1.0 -0.0414191863
C  C29  1  0.17200000  0.56940000  0.49190000  1.0 -0.0904021158
C  C30  1  0.18500000  0.46700000  0.49740000  1.0 -0.1485711342
C  C31  1  0.13600000  0.37510000  0.41990000  1.0 -0.011848008
C  C32  1  0.07600000  0.38180000  0.33830000  1.0 -0.1304220899
C  C33  1  0.06200000  0.49150000  0.33810000  1.0 -0.1156351051
C  C34  1  0.13400000  0.26160000  0.42160000  1.0 0.3373319038
C  C35  1  0.02800000  0.01100000  0.92600000  1.0 -0.0414191863
C  C36  1  0.85900000  0.94200000  0.99600000  1.0 -0.0754737488
N  N1  1  0.25800000  0.20700000  0.19100000  1.0 -0.4997443936
N  N2  1  0.22400000  0.04860000  0.21880000  1.0 -0.1726273081
N  N3  1  0.42300000  0.99970000  0.77230000  1.0 -0.1634525291
N  N4  1  0.57200000  0.15100000  0.84910000  1.0 -0.4458021156
N  N5  1  0.03830000  0.30240000  0.62970000  1.0 -0.1485711342
N  N6  1  0.83300000  0.22440000  0.53320000  1.0 -0.5204321078
N  N7  1  0.76250000  0.75330000  0.52360000  1.0 -0.1485711342
N  N8  1  0.97010000  0.81480000  0.62710000  1.0 -0.5295038155
N  N9  1  0.74200000  0.79300000  0.80900000  1.0 -0.4997443936
N  N10  1  0.77600000  0.95140000  0.78120000  1.0 -0.1726273081
N  N11  1  0.57700000  0.00030000  0.22770000  1.0 -0.1634525291
N  N12  1  0.42800000  0.84900000  0.15090000  1.0 -0.4458021156
N  N13  1  0.96170000  0.69760000  0.37030000  1.0 -0.1485711342
N  N14  1  0.16700000  0.77560000  0.46680000  1.0 -0.5204321078
N  N15  1  0.23750000  0.24670000  0.47640000  1.0 -0.1485711342
N  N16  1  0.02990000  0.18520000  0.37290000  1.0 -0.5295038155
Cl  Cl1  1  0.73840000  0.23520000  0.27860000  1.0 -0.6768950752
Cl  Cl2  1  0.26160000  0.76480000  0.72140000  1.0 -0.6768950752
O  O1  1  0.29920000  0.91840000  0.35830000  1.0 -0.6916966817
O  O2  1  0.53100000  0.17540000  0.45450000  1.0 -0.6916966817
O  O3  1  0.12270000  0.99410000  0.58200000  1.0 -0.6686423949
O  O4  1  0.37150000  0.23540000  0.67060000  1.0 -0.6514631442
O  O5  1  0.32160000  0.10030000  0.29650000  1.0 -0.4997443936
O  O6  1  0.40270000  0.03540000  0.54400000  1.0 -1.1318250827
O  O7  1  0.42030000  0.02200000  0.69350000  1.0 -0.5622478357
O  O8  1  0.20200000  0.13900000  0.77760000  1.0 -0.6095736257
O  O9  1  0.05900000  0.20080000  0.62740000  1.0 -0.4167245856
O  O10  1  0.76480000  0.85690000  0.51920000  1.0 -0.5786791972
O  O11  1  0.70080000  0.08160000  0.64170000  1.0 -0.6916966817
O  O12  1  0.46900000  0.82460000  0.54550000  1.0 -0.6916966817
O  O13  1  0.87730000  0.00590000  0.41800000  1.0 -0.6686423949
O  O14  1  0.62850000  0.76460000  0.32940000  1.0 -0.6514631442
O  O15  1  0.67840000  0.89970000  0.70350000  1.0 -0.4997443936
O  O16  1  0.59730000  0.96460000  0.45600000  1.0 -1.1374719075
O  O17  1  0.57970000  0.97800000  0.30650000  1.0 -0.5622478357
O  O18  1  0.79800000  0.86100000  0.22240000  1.0 -0.6095736257
O  O19  1  0.94100000  0.79920000  0.37260000  1.0 -0.4167245856
O  O20  1  0.23520000  0.14310000  0.48080000  1.0 -0.5786791972
