# DDEC6 charges by PACMAN v1.1 (https://github.com/mtap-research/PACMAN-charge/)
data_JOVROD_FSR_pacman
_symmetry_space_group_name_H-M   'P 1'
_cell_length_a   9.25710000
_cell_length_b   11.82300000
_cell_length_c   16.86100000
_cell_angle_alpha   90.00000000
_cell_angle_beta   90.00000000
_cell_angle_gamma   90.00000000
_symmetry_Int_Tables_number   1
_chemical_formula_structural   LiCoH2C6N6O
_chemical_formula_sum   'Li4 Co4 H8 C24 N24 O4'
_cell_volume   1845.38069573
_cell_formula_units_Z   4
loop_
 _symmetry_equiv_pos_site_id
 _symmetry_equiv_pos_as_xyz
  1  'x, y, z'
loop_
 _atom_site_type_symbol
 _atom_site_label
 _atom_site_symmetry_multiplicity
 _atom_site_fract_x
 _atom_site_fract_y
 _atom_site_fract_z
 _atom_site_occupancy
 _atom_site_charge
Li  Li1  1  0.47660000  0.54900000  0.88460000  1.0 0.9113615772
Li  Li2  1  0.02340000  0.45100000  0.38460000  1.0 0.9162844143
Li  Li3  1  0.52340000  0.04900000  0.61540000  1.0 0.927804204
Li  Li4  1  0.97660000  0.95100000  0.11540000  1.0 0.9113615772
Co  Co1  1  0.83368000  0.54162000  0.11346000  1.0 0.2126740139
Co  Co2  1  0.66632000  0.45838000  0.61346000  1.0 0.2244390121
Co  Co3  1  0.16632000  0.04162000  0.38654000  1.0 0.2126740139
Co  Co4  1  0.33368000  0.95838000  0.88654000  1.0 0.2126740139
H  H1  1  0.28600000  0.45200000  0.95900000  1.0 0.3596190384
H  H2  1  0.21400000  0.54800000  0.45900000  1.0 0.3596190384
H  H3  1  0.71400000  0.95200000  0.54100000  1.0 0.3596190384
H  H4  1  0.78600000  0.04800000  0.04100000  1.0 0.3596190384
H  H5  1  0.33400000  0.38000000  0.91330000  1.0 0.3442482274
H  H6  1  0.16600000  0.62000000  0.41330000  1.0 0.3442482274
H  H7  1  0.66600000  0.88000000  0.58670000  1.0 0.3466742954
H  H8  1  0.83400000  0.12000000  0.08670000  1.0 0.3442482274
C  C1  1  0.81150000  0.38280000  0.11190000  1.0 0.0901575407
C  C2  1  0.68850000  0.61720000  0.61190000  1.0 0.0901575407
C  C3  1  0.18850000  0.88280000  0.38810000  1.0 0.0901575407
C  C4  1  0.31150000  0.11720000  0.88810000  1.0 0.0901575407
C  C5  1  0.86080000  0.70130000  0.11429000  1.0 0.1855241677
C  C6  1  0.63920000  0.29870000  0.61429000  1.0 0.1855241677
C  C7  1  0.13920000  0.20130000  0.38571000  1.0 0.184834244
C  C8  1  0.36080000  0.79870000  0.88571000  1.0 0.184834244
C  C9  1  0.66140000  0.55970000  0.17292000  1.0 0.0168026688
C  C10  1  0.83860000  0.44030000  0.67292000  1.0 0.0136590174
C  C11  1  0.33860000  0.05970000  0.32708000  1.0 0.0168026688
C  C12  1  0.16140000  0.94030000  0.82708000  1.0 0.0168026688
C  C13  1  0.01070000  0.52660000  0.05774000  1.0 0.058886939
C  C14  1  0.48930000  0.47340000  0.55774000  1.0 0.058886939
C  C15  1  0.98930000  0.02660000  0.44226000  1.0 0.058886939
C  C16  1  0.51070000  0.97340000  0.94226000  1.0 0.058886939
C  C17  1  0.72290000  0.54790000  0.01789000  1.0 0.1705411284
C  C18  1  0.77710000  0.45210000  0.51789000  1.0 0.1705411284
C  C19  1  0.27710000  0.04790000  0.48211000  1.0 0.1705411284
C  C20  1  0.22290000  0.95210000  0.98211000  1.0 0.1705411284
C  C21  1  0.93090000  0.52490000  0.21232000  1.0 0.2308347358
C  C22  1  0.56910000  0.47510000  0.71232000  1.0 0.2308347358
C  C23  1  0.06910000  0.02490000  0.28768000  1.0 0.2308347358
C  C24  1  0.43090000  0.97510000  0.78768000  1.0 0.2308347358
N  N1  1  0.64980000  0.54610000  0.96267000  1.0 -0.3904168406
N  N2  1  0.85020000  0.45390000  0.46267000  1.0 -0.3904168406
N  N3  1  0.35020000  0.04610000  0.53733000  1.0 -0.3904168406
N  N4  1  0.14980000  0.95390000  0.03733000  1.0 -0.3904168406
N  N5  1  0.88340000  0.79640000  0.11489000  1.0 -0.3904168406
N  N6  1  0.61660000  0.20360000  0.61489000  1.0 -0.3904168406
N  N7  1  0.11660000  0.29640000  0.38511000  1.0 -0.3970184305
N  N8  1  0.38340000  0.70360000  0.88511000  1.0 -0.3904168406
N  N9  1  0.80540000  0.28600000  0.11100000  1.0 -0.3290351906
N  N10  1  0.69460000  0.71400000  0.61100000  1.0 -0.3214007535
N  N11  1  0.19460000  0.78600000  0.38900000  1.0 -0.3290351906
N  N12  1  0.30540000  0.21400000  0.88900000  1.0 -0.3290351906
N  N13  1  0.97930000  0.50920000  0.27326000  1.0 -0.3904168406
N  N14  1  0.52070000  0.49080000  0.77326000  1.0 -0.3904168406
N  N15  1  0.02070000  0.00920000  0.22674000  1.0 -0.3904168406
N  N16  1  0.47930000  0.99080000  0.72674000  1.0 -0.3841906467
N  N17  1  0.55910000  0.57060000  0.21013000  1.0 -0.2472196312
N  N18  1  0.94090000  0.42940000  0.71013000  1.0 -0.2472196312
N  N19  1  0.44090000  0.07060000  0.28987000  1.0 -0.2472196312
N  N20  1  0.05910000  0.92940000  0.78987000  1.0 -0.2472196312
N  N21  1  0.11990000  0.51930000  0.02574000  1.0 -0.3214007535
N  N22  1  0.38010000  0.48070000  0.52574000  1.0 -0.3214007535
N  N23  1  0.88010000  0.01930000  0.47426000  1.0 -0.3214007535
N  N24  1  0.61990000  0.98070000  0.97426000  1.0 -0.3214007535
O  O1  1  0.33420000  0.44170000  0.92122000  1.0 -0.5213169583
O  O2  1  0.16580000  0.55830000  0.42122000  1.0 -0.5213169583
O  O3  1  0.66580000  0.94170000  0.57878000  1.0 -0.5213169583
O  O4  1  0.83420000  0.05830000  0.07878000  1.0 -0.5213169583
