# DDEC6 charges by PACMAN v1.1 (https://github.com/mtap-research/PACMAN-charge/)
data_JOVXEZ_ion_pacman
_symmetry_space_group_name_H-M   'P 1'
_cell_length_a   11.06670000
_cell_length_b   11.06670000
_cell_length_c   15.60400000
_cell_angle_alpha   65.44500000
_cell_angle_beta   114.55500000
_cell_angle_gamma   111.53500000
_symmetry_Int_Tables_number   1
_chemical_formula_structural   CuH8C11N2ClO7
_chemical_formula_sum   'Cu4 H32 C44 N8 Cl4 O28'
_cell_volume   1536.76452890
_cell_formula_units_Z   4
loop_
 _symmetry_equiv_pos_site_id
 _symmetry_equiv_pos_as_xyz
  1  'x, y, z'
loop_
 _atom_site_type_symbol
 _atom_site_label
 _atom_site_symmetry_multiplicity
 _atom_site_fract_x
 _atom_site_fract_y
 _atom_site_fract_z
 _atom_site_occupancy
 _atom_site_charge
Cu  Cu1  1  0.51140000  0.03552000  0.82825000  1.0 0.6971005165
Cu  Cu2  1  0.03552000  0.51140000  0.67175000  1.0 0.6971005165
Cu  Cu3  1  0.48860000  0.96448000  0.17175000  1.0 0.6971005165
Cu  Cu4  1  0.96448000  0.48860000  0.32825000  1.0 0.6971005165
H  H1  1  0.56160000  0.81760000  0.62850000  1.0 0.1407458944
H  H2  1  0.81760000  0.56160000  0.87150000  1.0 0.1407458944
H  H3  1  0.43840000  0.18240000  0.37150000  1.0 0.1407458944
H  H4  1  0.18240000  0.43840000  0.12850000  1.0 0.1407458944
H  H5  1  0.34210000  0.43330000  0.57610000  1.0 0.1407458944
H  H6  1  0.43330000  0.34210000  0.92390000  1.0 0.1407458944
H  H7  1  0.65790000  0.56670000  0.42390000  1.0 0.1407458944
H  H8  1  0.56670000  0.65790000  0.07610000  1.0 0.1407458944
H  H9  1  0.65280000  0.19080000  0.67430000  1.0 0.1097375043
H  H10  1  0.19080000  0.65280000  0.82570000  1.0 0.1097375043
H  H11  1  0.34720000  0.80920000  0.32570000  1.0 0.1097375043
H  H12  1  0.80920000  0.34720000  0.17430000  1.0 0.1097375043
H  H13  1  0.82560000  0.76440000  0.90030000  1.0 0.1407458944
H  H14  1  0.76440000  0.82560000  0.59970000  1.0 0.1407458944
H  H15  1  0.17440000  0.23560000  0.09970000  1.0 0.1407458944
H  H16  1  0.23560000  0.17440000  0.40030000  1.0 0.1407458944
H  H17  1  0.46190000  0.93110000  0.66340000  1.0 0.1022587574
H  H18  1  0.93110000  0.46190000  0.83660000  1.0 0.1022587574
H  H19  1  0.53810000  0.06890000  0.33660000  1.0 0.1022587574
H  H20  1  0.06890000  0.53810000  0.16340000  1.0 0.1022587574
H  H21  1  0.35390000  0.24310000  0.70930000  1.0 0.1097375043
H  H22  1  0.24310000  0.35390000  0.79070000  1.0 0.1097375043
H  H23  1  0.64610000  0.75690000  0.29070000  1.0 0.1097375043
H  H24  1  0.75690000  0.64610000  0.20930000  1.0 0.1097375043
H  H25  1  0.73630000  0.89930000  0.92360000  1.0 0.1097375043
H  H26  1  0.89930000  0.73630000  0.57640000  1.0 0.1097375043
H  H27  1  0.26370000  0.10070000  0.07640000  1.0 0.1097375043
H  H28  1  0.10070000  0.26370000  0.42360000  1.0 0.1097375043
H  H29  1  0.66360000  0.39160000  0.54780000  1.0 0.1319367551
H  H30  1  0.39160000  0.66360000  0.95220000  1.0 0.1319367551
H  H31  1  0.33640000  0.60840000  0.45220000  1.0 0.1319367551
H  H32  1  0.60840000  0.33640000  0.04780000  1.0 0.1319367551
C  C1  1  0.50170000  0.43650000  0.54280000  1.0 0.1022587574
C  C2  1  0.43650000  0.50170000  0.95720000  1.0 0.1022587574
C  C3  1  0.49830000  0.56350000  0.45720000  1.0 0.1022587574
C  C4  1  0.56350000  0.49830000  0.04280000  1.0 0.1022587574
C  C5  1  0.70650000  0.77590000  0.76030000  1.0 0.1022587574
C  C6  1  0.77590000  0.70650000  0.73970000  1.0 0.1022587574
C  C7  1  0.29350000  0.22410000  0.23970000  1.0 0.1022587574
C  C8  1  0.22410000  0.29350000  0.26030000  1.0 0.1022587574
C  C9  1  0.59710000  0.83010000  0.69050000  1.0 -0.1788509575
C  C10  1  0.83010000  0.59710000  0.80950000  1.0 -0.1788509575
C  C11  1  0.40290000  0.16990000  0.30950000  1.0 -0.1788509575
C  C12  1  0.16990000  0.40290000  0.19050000  1.0 -0.1788509575
C  C13  1  0.40910000  0.38710000  0.59540000  1.0 -0.1865561194
C  C14  1  0.38710000  0.40910000  0.90460000  1.0 -0.1865561194
C  C15  1  0.59090000  0.61290000  0.40460000  1.0 -0.1865561194
C  C16  1  0.61290000  0.59090000  0.09540000  1.0 -0.1865561194
C  C17  1  0.59120000  0.24260000  0.65600000  1.0 0.0790244323
C  C18  1  0.24260000  0.59120000  0.84400000  1.0 0.0790244323
C  C19  1  0.40880000  0.75740000  0.34400000  1.0 0.0790244323
C  C20  1  0.75740000  0.40880000  0.15600000  1.0 0.0790244323
C  C21  1  0.75450000  0.80130000  0.84930000  1.0 -0.1788509575
C  C22  1  0.80130000  0.75450000  0.65070000  1.0 -0.1788509575
C  C23  1  0.24550000  0.19870000  0.15070000  1.0 -0.1788509575
C  C24  1  0.19870000  0.24550000  0.34930000  1.0 -0.1788509575
C  C25  1  0.53960000  0.90200000  0.71050000  1.0 0.0640339572
C  C26  1  0.90200000  0.53960000  0.78950000  1.0 0.0640339572
C  C27  1  0.46040000  0.09800000  0.28950000  1.0 0.0640339572
C  C28  1  0.09800000  0.46040000  0.21050000  1.0 0.0640339572
C  C29  1  0.41600000  0.27180000  0.67490000  1.0 0.0790244323
C  C30  1  0.27180000  0.41600000  0.82510000  1.0 0.0790244323
C  C31  1  0.58400000  0.72820000  0.32510000  1.0 0.0790244323
C  C32  1  0.72820000  0.58400000  0.17490000  1.0 0.0790244323
C  C33  1  0.69830000  0.88050000  0.86370000  1.0 0.0946074371
C  C34  1  0.88050000  0.69830000  0.63630000  1.0 0.0946074371
C  C35  1  0.30170000  0.11950000  0.13630000  1.0 0.0946074371
C  C36  1  0.11950000  0.30170000  0.36370000  1.0 0.0946074371
C  C37  1  0.59580000  0.36200000  0.57730000  1.0 -0.1788509575
C  C38  1  0.36200000  0.59580000  0.92270000  1.0 -0.1788509575
C  C39  1  0.40420000  0.63800000  0.42270000  1.0 -0.1788509575
C  C40  1  0.63800000  0.40420000  0.07730000  1.0 -0.1788509575
C  C41  1  0.52400000  0.93260000  0.02230000  1.0 0.4411491864
C  C42  1  0.93260000  0.52400000  0.47770000  1.0 0.4411491864
C  C43  1  0.47600000  0.06740000  0.97770000  1.0 0.4411491864
C  C44  1  0.06740000  0.47600000  0.52230000  1.0 0.4411491864
N  N1  1  0.59240000  0.93180000  0.79630000  1.0 -0.2492778189
N  N2  1  0.93180000  0.59240000  0.70370000  1.0 -0.2492778189
N  N3  1  0.40760000  0.06820000  0.20370000  1.0 -0.2492778189
N  N4  1  0.06820000  0.40760000  0.29630000  1.0 -0.2492778189
N  N5  1  0.50580000  0.19820000  0.70610000  1.0 -0.2357015795
N  N6  1  0.19820000  0.50580000  0.79390000  1.0 -0.2357015795
N  N7  1  0.49420000  0.80180000  0.29390000  1.0 -0.2357015795
N  N8  1  0.80180000  0.49420000  0.20610000  1.0 -0.2357015795
Cl  Cl1  1  0.80361000  0.15099000  0.49470000  1.0 1.1745548262
Cl  Cl2  1  0.15099000  0.80361000  0.00530000  1.0 1.1745548262
Cl  Cl3  1  0.19639000  0.84901000  0.50530000  1.0 1.1760003977
Cl  Cl4  1  0.84901000  0.19639000  0.99470000  1.0 1.1745548262
O  O1  1  0.54090000  0.87130000  0.11170000  1.0 -0.4460111148
O  O2  1  0.87130000  0.54090000  0.38830000  1.0 -0.4460111148
O  O3  1  0.45910000  0.12870000  0.88830000  1.0 -0.4460111148
O  O4  1  0.12870000  0.45910000  0.61170000  1.0 -0.4460111148
O  O5  1  0.53750000  0.89690000  0.96210000  1.0 -0.4583604596
O  O6  1  0.89690000  0.53750000  0.53790000  1.0 -0.4583604596
O  O7  1  0.46250000  0.10310000  0.03790000  1.0 -0.4583604596
O  O8  1  0.10310000  0.46250000  0.46210000  1.0 -0.4583604596
O  O9  1  0.28630000  0.93390000  0.76670000  1.0 -0.0911551378
O  O10  1  0.93390000  0.28630000  0.73330000  1.0 -0.0911551378
O  O11  1  0.71370000  0.06610000  0.23330000  1.0 -0.0911551378
O  O12  1  0.06610000  0.71370000  0.26670000  1.0 -0.0911551378
O  O13  1  0.81350000  0.23330000  0.39800000  1.0 -0.4854226
O  O14  1  0.71710000  0.03390000  0.48310000  1.0 -0.3994417525
O  O15  1  0.92280000  0.12480000  0.55630000  1.0 -0.3745081908
O  O16  1  0.75900000  0.21740000  0.52000000  1.0 -0.3570317588
O  O17  1  0.23330000  0.81350000  0.10200000  1.0 -0.4854226
O  O18  1  0.03390000  0.71710000  0.01690000  1.0 -0.3994417525
O  O19  1  0.12480000  0.92280000  0.94370000  1.0 -0.3745081908
O  O20  1  0.21740000  0.75900000  0.98000000  1.0 -0.3570317588
O  O21  1  0.18650000  0.76670000  0.60200000  1.0 -0.4854226
O  O22  1  0.28290000  0.96610000  0.51690000  1.0 -0.3994417525
O  O23  1  0.07720000  0.87520000  0.44370000  1.0 -0.3745081908
O  O24  1  0.24100000  0.78260000  0.48000000  1.0 -0.3570317588
O  O25  1  0.76670000  0.18650000  0.89800000  1.0 -0.4854226
O  O26  1  0.96610000  0.28290000  0.98310000  1.0 -0.3994417525
O  O27  1  0.87520000  0.07720000  0.05630000  1.0 -0.3745081908
O  O28  1  0.78260000  0.24100000  0.02000000  1.0 -0.3570317588
