# DDEC6 charges by PACMAN v1.1 (https://github.com/mtap-research/PACMAN-charge/)
data_JOXWOL_ASR_pacman
_symmetry_space_group_name_H-M   'P 1'
_cell_length_a   11.42530000
_cell_length_b   11.42530000
_cell_length_c   24.98320000
_cell_angle_alpha   90.00000000
_cell_angle_beta   90.00000000
_cell_angle_gamma   130.63800000
_symmetry_Int_Tables_number   1
_chemical_formula_structural   ZnH16C30(NO2)4
_chemical_formula_sum   'Zn4 H64 C120 N16 O32'
_cell_volume   2474.76084524
_cell_formula_units_Z   4
loop_
 _symmetry_equiv_pos_site_id
 _symmetry_equiv_pos_as_xyz
  1  'x, y, z'
loop_
 _atom_site_type_symbol
 _atom_site_label
 _atom_site_symmetry_multiplicity
 _atom_site_fract_x
 _atom_site_fract_y
 _atom_site_fract_z
 _atom_site_occupancy
 _atom_site_charge
Zn  Zn1  1  0.87439000  0.87439000  0.48252000  1.0 0.5800086401
Zn  Zn2  1  0.62561000  0.62561000  0.98252000  1.0 0.5800086401
Zn  Zn3  1  0.37439000  0.37439000  0.01748000  1.0 0.5800086401
Zn  Zn4  1  0.12561000  0.12561000  0.51748000  1.0 0.5800086401
H  H1  1  0.90080000  0.20080000  0.63810000  1.0 0.0599553875
H  H2  1  0.55630000  0.76130000  0.59520000  1.0 0.0824462885
H  H3  1  0.39170000  0.73950000  0.66110000  1.0 0.0824462885
H  H4  1  0.81810000  0.27650000  0.73000000  1.0 0.0824462885
H  H5  1  0.89420000  0.28120000  0.71610000  1.0 0.0680879275
H  H6  1  0.00180000  0.24800000  0.64440000  1.0 0.0680879275
H  H7  1  0.57370000  0.87490000  0.59550000  1.0 0.0870523806
H  H8  1  0.46610000  0.90810000  0.66730000  1.0 0.0824462885
H  H9  1  0.59920000  0.29920000  0.13810000  1.0 0.0599553875
H  H10  1  0.94370000  0.73870000  0.09520000  1.0 0.0824462885
H  H11  1  0.10830000  0.76050000  0.16110000  1.0 0.0824462885
H  H12  1  0.68190000  0.22350000  0.23000000  1.0 0.0824462885
H  H13  1  0.60580000  0.21880000  0.21610000  1.0 0.0680879275
H  H14  1  0.49820000  0.25200000  0.14440000  1.0 0.0680879275
H  H15  1  0.92630000  0.62510000  0.09550000  1.0 0.0870523806
H  H16  1  0.03390000  0.59190000  0.16730000  1.0 0.0824462885
H  H17  1  0.70080000  0.40080000  0.86190000  1.0 0.0599553875
H  H18  1  0.26130000  0.05630000  0.90480000  1.0 0.0824462885
H  H19  1  0.23950000  0.89170000  0.83890000  1.0 0.0870523806
H  H20  1  0.77650000  0.31810000  0.77000000  1.0 0.0824462885
H  H21  1  0.78120000  0.39420000  0.78390000  1.0 0.0680879275
H  H22  1  0.74800000  0.50180000  0.85560000  1.0 0.0680879275
H  H23  1  0.37490000  0.07370000  0.90450000  1.0 0.0870523806
H  H24  1  0.40810000  0.96610000  0.83270000  1.0 0.0824462885
H  H25  1  0.79920000  0.09920000  0.36190000  1.0 0.0599553875
H  H26  1  0.23870000  0.44370000  0.40480000  1.0 0.0824462885
H  H27  1  0.26050000  0.60830000  0.33890000  1.0 0.0824462885
H  H28  1  0.72350000  0.18190000  0.27000000  1.0 0.0824462885
H  H29  1  0.71880000  0.10580000  0.28390000  1.0 0.0680879275
H  H30  1  0.75200000  0.99820000  0.35560000  1.0 0.0680879275
H  H31  1  0.12510000  0.42630000  0.40450000  1.0 0.0870523806
H  H32  1  0.09190000  0.53390000  0.33270000  1.0 0.0824462885
H  H33  1  0.09920000  0.79920000  0.36190000  1.0 0.0599553875
H  H34  1  0.44370000  0.23870000  0.40480000  1.0 0.0824462885
H  H35  1  0.60830000  0.26050000  0.33890000  1.0 0.0870523806
H  H36  1  0.18190000  0.72350000  0.27000000  1.0 0.0824462885
H  H37  1  0.10580000  0.71880000  0.28390000  1.0 0.0680879275
H  H38  1  0.99820000  0.75200000  0.35560000  1.0 0.0680879275
H  H39  1  0.42630000  0.12510000  0.40450000  1.0 0.0870523806
H  H40  1  0.53390000  0.09190000  0.33270000  1.0 0.0824462885
H  H41  1  0.40080000  0.70080000  0.86190000  1.0 0.0599553875
H  H42  1  0.05630000  0.26130000  0.90480000  1.0 0.0824462885
H  H43  1  0.89170000  0.23950000  0.83890000  1.0 0.0870523806
H  H44  1  0.31810000  0.77650000  0.77000000  1.0 0.0824462885
H  H45  1  0.39420000  0.78120000  0.78390000  1.0 0.0680879275
H  H46  1  0.50180000  0.74800000  0.85560000  1.0 0.0680879275
H  H47  1  0.07370000  0.37490000  0.90450000  1.0 0.0870523806
H  H48  1  0.96610000  0.40810000  0.83270000  1.0 0.0824462885
H  H49  1  0.29920000  0.59920000  0.13810000  1.0 0.0599553875
H  H50  1  0.73870000  0.94370000  0.09520000  1.0 0.0824462885
H  H51  1  0.76050000  0.10830000  0.16110000  1.0 0.0870523806
H  H52  1  0.22350000  0.68190000  0.23000000  1.0 0.0824462885
H  H53  1  0.21880000  0.60580000  0.21610000  1.0 0.0680879275
H  H54  1  0.25200000  0.49820000  0.14440000  1.0 0.0680879275
H  H55  1  0.62510000  0.92630000  0.09550000  1.0 0.0870523806
H  H56  1  0.59190000  0.03390000  0.16730000  1.0 0.0824462885
H  H57  1  0.20080000  0.90080000  0.63810000  1.0 0.0599553875
H  H58  1  0.76130000  0.55630000  0.59520000  1.0 0.0824462885
H  H59  1  0.73950000  0.39170000  0.66110000  1.0 0.0870523806
H  H60  1  0.27650000  0.81810000  0.73000000  1.0 0.0824462885
H  H61  1  0.28120000  0.89420000  0.71610000  1.0 0.0680879275
H  H62  1  0.24800000  0.00180000  0.64440000  1.0 0.0680879275
H  H63  1  0.87490000  0.57370000  0.59550000  1.0 0.0870523806
H  H64  1  0.90810000  0.46610000  0.66730000  1.0 0.0824462885
C  C1  1  0.82830000  0.99430000  0.56700000  1.0 0.3034609548
C  C2  1  0.80040000  0.10480000  0.64420000  1.0 -0.0144757667
C  C3  1  0.73800000  0.98060000  0.61070000  1.0 0.0063341636
C  C4  1  0.59390000  0.84610000  0.61790000  1.0 -0.1410280288
C  C5  1  0.49770000  0.82850000  0.65830000  1.0 -0.1519168101
C  C6  1  0.71070000  0.08430000  0.68710000  1.0 0.0302495617
C  C7  1  0.56900000  0.94960000  0.69330000  1.0 -0.0493616358
C  C8  1  0.60540000  0.10480000  0.75520000  1.0 -0.0172620383
C  C9  1  0.82910000  0.19870000  0.69170000  1.0 -0.0773537707
C  C10  1  0.89300000  0.17900000  0.64900000  1.0 -0.1694371633
C  C11  1  0.79790000  0.05830000  0.61320000  1.0 0.0302495617
C  C12  1  0.63870000  0.95730000  0.62000000  1.0 0.0302495617
C  C13  1  0.57490000  0.97710000  0.66260000  1.0 -0.0902103968
C  C14  1  0.67000000  0.09780000  0.69850000  1.0 0.0680879275
C  C15  1  0.87770000  0.03910000  0.56800000  1.0 0.3109932422
C  C16  1  0.67170000  0.50570000  0.06700000  1.0 0.3034609548
C  C17  1  0.69960000  0.39520000  0.14420000  1.0 -0.0144757667
C  C18  1  0.76200000  0.51940000  0.11070000  1.0 0.0063341636
C  C19  1  0.90610000  0.65390000  0.11790000  1.0 -0.1410280288
C  C20  1  0.00230000  0.67150000  0.15830000  1.0 -0.1519168101
C  C21  1  0.78930000  0.41570000  0.18710000  1.0 0.0302495617
C  C22  1  0.93100000  0.55040000  0.19330000  1.0 -0.0493616358
C  C23  1  0.89460000  0.39520000  0.25520000  1.0 -0.0172620383
C  C24  1  0.67090000  0.30130000  0.19170000  1.0 -0.0773537707
C  C25  1  0.60700000  0.32100000  0.14900000  1.0 -0.1694371633
C  C26  1  0.70210000  0.44170000  0.11320000  1.0 0.0302495617
C  C27  1  0.86130000  0.54270000  0.12000000  1.0 0.0302495617
C  C28  1  0.92510000  0.52290000  0.16260000  1.0 -0.0902103968
C  C29  1  0.83000000  0.40220000  0.19850000  1.0 0.0680879275
C  C30  1  0.62230000  0.46090000  0.06800000  1.0 0.3109932422
C  C31  1  0.49430000  0.32830000  0.93300000  1.0 0.3034609548
C  C32  1  0.60480000  0.30040000  0.85580000  1.0 -0.0144757667
C  C33  1  0.48060000  0.23800000  0.88930000  1.0 0.0063341636
C  C34  1  0.34610000  0.09390000  0.88210000  1.0 -0.1410280288
C  C35  1  0.32850000  0.99770000  0.84170000  1.0 -0.1519168101
C  C36  1  0.58430000  0.21070000  0.81290000  1.0 0.0302495617
C  C37  1  0.44960000  0.06900000  0.80670000  1.0 -0.0493616358
C  C38  1  0.60480000  0.10540000  0.74480000  1.0 -0.0172620383
C  C39  1  0.69870000  0.32910000  0.80830000  1.0 -0.0773537707
C  C40  1  0.67900000  0.39300000  0.85100000  1.0 -0.1694371633
C  C41  1  0.55830000  0.29790000  0.88680000  1.0 0.0302495617
C  C42  1  0.45730000  0.13870000  0.88000000  1.0 0.0302495617
C  C43  1  0.47710000  0.07490000  0.83740000  1.0 -0.0902103968
C  C44  1  0.59780000  0.17000000  0.80150000  1.0 0.0680879275
C  C45  1  0.53910000  0.37770000  0.93200000  1.0 0.3109932422
C  C46  1  0.00570000  0.17170000  0.43300000  1.0 0.3034609548
C  C47  1  0.89520000  0.19960000  0.35580000  1.0 -0.0144757667
C  C48  1  0.01940000  0.26200000  0.38930000  1.0 0.0063341636
C  C49  1  0.15390000  0.40610000  0.38210000  1.0 -0.1410280288
C  C50  1  0.17150000  0.50230000  0.34170000  1.0 -0.1519168101
C  C51  1  0.91570000  0.28930000  0.31290000  1.0 0.0302495617
C  C52  1  0.05040000  0.43100000  0.30670000  1.0 -0.0493616358
C  C53  1  0.89520000  0.39460000  0.24480000  1.0 -0.0172620383
C  C54  1  0.80130000  0.17090000  0.30830000  1.0 -0.0773537707
C  C55  1  0.82100000  0.10700000  0.35100000  1.0 -0.1694371633
C  C56  1  0.94170000  0.20210000  0.38680000  1.0 0.0302495617
C  C57  1  0.04270000  0.36130000  0.38000000  1.0 0.0302495617
C  C58  1  0.02290000  0.42510000  0.33740000  1.0 -0.0902103968
C  C59  1  0.90220000  0.33000000  0.30150000  1.0 0.0680879275
C  C60  1  0.96090000  0.12230000  0.43200000  1.0 0.3109932422
C  C61  1  0.17170000  0.00570000  0.43300000  1.0 0.3034609548
C  C62  1  0.19960000  0.89520000  0.35580000  1.0 -0.0144757667
C  C63  1  0.26200000  0.01940000  0.38930000  1.0 0.0063341636
C  C64  1  0.40610000  0.15390000  0.38210000  1.0 -0.1410280288
C  C65  1  0.50230000  0.17150000  0.34170000  1.0 -0.1519168101
C  C66  1  0.28930000  0.91570000  0.31290000  1.0 0.0302495617
C  C67  1  0.43100000  0.05040000  0.30670000  1.0 -0.0493616358
C  C68  1  0.39460000  0.89520000  0.24480000  1.0 -0.0172620383
C  C69  1  0.17090000  0.80130000  0.30830000  1.0 -0.0773537707
C  C70  1  0.10700000  0.82100000  0.35100000  1.0 -0.1694371633
C  C71  1  0.20210000  0.94170000  0.38680000  1.0 0.0302495617
C  C72  1  0.36130000  0.04270000  0.38000000  1.0 0.0302495617
C  C73  1  0.42510000  0.02290000  0.33740000  1.0 -0.0902103968
C  C74  1  0.33000000  0.90220000  0.30150000  1.0 0.0680879275
C  C75  1  0.12230000  0.96090000  0.43200000  1.0 0.3109932422
C  C76  1  0.32830000  0.49430000  0.93300000  1.0 0.3034609548
C  C77  1  0.30040000  0.60480000  0.85580000  1.0 -0.0144757667
C  C78  1  0.23800000  0.48060000  0.88930000  1.0 0.0063341636
C  C79  1  0.09390000  0.34610000  0.88210000  1.0 -0.1410280288
C  C80  1  0.99770000  0.32850000  0.84170000  1.0 -0.1519168101
C  C81  1  0.21070000  0.58430000  0.81290000  1.0 0.0302495617
C  C82  1  0.06900000  0.44960000  0.80670000  1.0 -0.0493616358
C  C83  1  0.10540000  0.60480000  0.74480000  1.0 -0.0172620383
C  C84  1  0.32910000  0.69870000  0.80830000  1.0 -0.0773537707
C  C85  1  0.39300000  0.67900000  0.85100000  1.0 -0.1694371633
C  C86  1  0.29790000  0.55830000  0.88680000  1.0 0.0302495617
C  C87  1  0.13870000  0.45730000  0.88000000  1.0 0.0302495617
C  C88  1  0.07490000  0.47710000  0.83740000  1.0 -0.0902103968
C  C89  1  0.17000000  0.59780000  0.80150000  1.0 0.0680879275
C  C90  1  0.37770000  0.53910000  0.93200000  1.0 0.3109932422
C  C91  1  0.50570000  0.67170000  0.06700000  1.0 0.3034609548
C  C92  1  0.39520000  0.69960000  0.14420000  1.0 -0.0144757667
C  C93  1  0.51940000  0.76200000  0.11070000  1.0 0.0063341636
C  C94  1  0.65390000  0.90610000  0.11790000  1.0 -0.1410280288
C  C95  1  0.67150000  0.00230000  0.15830000  1.0 -0.1519168101
C  C96  1  0.41570000  0.78930000  0.18710000  1.0 0.0302495617
C  C97  1  0.55040000  0.93100000  0.19330000  1.0 -0.0493616358
C  C98  1  0.39520000  0.89460000  0.25520000  1.0 -0.0172620383
C  C99  1  0.30130000  0.67090000  0.19170000  1.0 -0.0773537707
C  C100  1  0.32100000  0.60700000  0.14900000  1.0 -0.1694371633
C  C101  1  0.44170000  0.70210000  0.11320000  1.0 0.0302495617
C  C102  1  0.54270000  0.86130000  0.12000000  1.0 0.0302495617
C  C103  1  0.52290000  0.92510000  0.16260000  1.0 -0.0902103968
C  C104  1  0.40220000  0.83000000  0.19850000  1.0 0.0680879275
C  C105  1  0.46090000  0.62230000  0.06800000  1.0 0.3109932422
C  C106  1  0.99430000  0.82830000  0.56700000  1.0 0.3034609548
C  C107  1  0.10480000  0.80040000  0.64420000  1.0 -0.0144757667
C  C108  1  0.98060000  0.73800000  0.61070000  1.0 0.0063341636
C  C109  1  0.84610000  0.59390000  0.61790000  1.0 -0.1410280288
C  C110  1  0.82850000  0.49770000  0.65830000  1.0 -0.1519168101
C  C111  1  0.08430000  0.71070000  0.68710000  1.0 0.0302495617
C  C112  1  0.94960000  0.56900000  0.69330000  1.0 -0.0493616358
C  C113  1  0.10480000  0.60540000  0.75520000  1.0 -0.0172620383
C  C114  1  0.19870000  0.82910000  0.69170000  1.0 -0.0773537707
C  C115  1  0.17900000  0.89300000  0.64900000  1.0 -0.1694371633
C  C116  1  0.05830000  0.79790000  0.61320000  1.0 0.0302495617
C  C117  1  0.95730000  0.63870000  0.62000000  1.0 0.0302495617
C  C118  1  0.97710000  0.57490000  0.66260000  1.0 -0.0902103968
C  C119  1  0.09780000  0.67000000  0.69850000  1.0 0.0680879275
C  C120  1  0.03910000  0.87770000  0.56800000  1.0 0.3109932422
N  N1  1  0.73330000  0.18010000  0.72540000  1.0 -0.0559334608
N  N2  1  0.50390000  0.96230000  0.73540000  1.0 -0.1064482875
N  N3  1  0.76670000  0.31990000  0.22540000  1.0 -0.0559334608
N  N4  1  0.99610000  0.53770000  0.23540000  1.0 -0.0983993394
N  N5  1  0.68010000  0.23330000  0.77460000  1.0 -0.0559334608
N  N6  1  0.46230000  0.00390000  0.76460000  1.0 -0.1064482875
N  N7  1  0.81990000  0.26670000  0.27460000  1.0 -0.0559334608
N  N8  1  0.03770000  0.49610000  0.26460000  1.0 -0.1064482875
N  N9  1  0.26670000  0.81990000  0.27460000  1.0 -0.0559334608
N  N10  1  0.49610000  0.03770000  0.26460000  1.0 -0.0983993394
N  N11  1  0.23330000  0.68010000  0.77460000  1.0 -0.0559334608
N  N12  1  0.00390000  0.46230000  0.76460000  1.0 -0.1064482875
N  N13  1  0.31990000  0.76670000  0.22540000  1.0 -0.0493616358
N  N14  1  0.53770000  0.99610000  0.23540000  1.0 -0.1064482875
N  N15  1  0.18010000  0.73330000  0.72540000  1.0 -0.0559334608
N  N16  1  0.96230000  0.50390000  0.73540000  1.0 -0.0983993394
O  O1  1  0.96900000  0.10840000  0.56470000  1.0 -0.0983993394
O  O2  1  0.76450000  0.88410000  0.53550000  1.0 -0.29377262
O  O3  1  0.02000000  0.14000000  0.56860000  1.0 -0.2367881284
O  O4  1  0.78830000  0.92930000  0.53730000  1.0 -0.1889765009
O  O5  1  0.53100000  0.39160000  0.06470000  1.0 -0.0902103968
O  O6  1  0.73550000  0.61590000  0.03550000  1.0 -0.29377262
O  O7  1  0.48000000  0.36000000  0.06860000  1.0 -0.2367881284
O  O8  1  0.71170000  0.57070000  0.03730000  1.0 -0.1889765009
O  O9  1  0.60840000  0.46900000  0.93530000  1.0 -0.0902103968
O  O10  1  0.38410000  0.26450000  0.96450000  1.0 -0.29377262
O  O11  1  0.64000000  0.52000000  0.93140000  1.0 -0.2367881284
O  O12  1  0.42930000  0.28830000  0.96270000  1.0 -0.1889765009
O  O13  1  0.89160000  0.03100000  0.43530000  1.0 -0.0983993394
O  O14  1  0.11590000  0.23550000  0.46450000  1.0 -0.29377262
O  O15  1  0.86000000  0.98000000  0.43140000  1.0 -0.2367881284
O  O16  1  0.07070000  0.21170000  0.46270000  1.0 -0.1889765009
O  O17  1  0.03100000  0.89160000  0.43530000  1.0 -0.0983993394
O  O18  1  0.23550000  0.11590000  0.46450000  1.0 -0.29377262
O  O19  1  0.98000000  0.86000000  0.43140000  1.0 -0.2367881284
O  O20  1  0.21170000  0.07070000  0.46270000  1.0 -0.1889765009
O  O21  1  0.46900000  0.60840000  0.93530000  1.0 -0.0983993394
O  O22  1  0.26450000  0.38410000  0.96450000  1.0 -0.29377262
O  O23  1  0.52000000  0.64000000  0.93140000  1.0 -0.2367881284
O  O24  1  0.28830000  0.42930000  0.96270000  1.0 -0.1889765009
O  O25  1  0.39160000  0.53100000  0.06470000  1.0 -0.0983993394
O  O26  1  0.61590000  0.73550000  0.03550000  1.0 -0.29377262
O  O27  1  0.36000000  0.48000000  0.06860000  1.0 -0.2367881284
O  O28  1  0.57070000  0.71170000  0.03730000  1.0 -0.1889765009
O  O29  1  0.10840000  0.96900000  0.56470000  1.0 -0.0983993394
O  O30  1  0.88410000  0.76450000  0.53550000  1.0 -0.29377262
O  O31  1  0.14000000  0.02000000  0.56860000  1.0 -0.2367881284
O  O32  1  0.92930000  0.78830000  0.53730000  1.0 -0.1889765009
