# DDEC6 charges by PACMAN v1.1 (https://github.com/mtap-research/PACMAN-charge/)
data_JUBXEM_FSR_pacman
_symmetry_space_group_name_H-M   'P 1'
_cell_length_a   11.76800000
_cell_length_b   11.76800000
_cell_length_c   19.81200000
_cell_angle_alpha   90.00000000
_cell_angle_beta   90.00000000
_cell_angle_gamma   90.00000000
_symmetry_Int_Tables_number   1
_chemical_formula_structural   ZnH20C27N3O4
_chemical_formula_sum   'Zn4 H80 C108 N12 O16'
_cell_volume   2743.68114509
_cell_formula_units_Z   4
loop_
 _symmetry_equiv_pos_site_id
 _symmetry_equiv_pos_as_xyz
  1  'x, y, z'
loop_
 _atom_site_type_symbol
 _atom_site_label
 _atom_site_symmetry_multiplicity
 _atom_site_fract_x
 _atom_site_fract_y
 _atom_site_fract_z
 _atom_site_occupancy
 _atom_site_charge
Zn  Zn1  1  0.21505000  0.80379000  0.63980000  1.0 0.7480439791
Zn  Zn2  1  0.78495000  0.19621000  0.13980000  1.0 0.7480439791
Zn  Zn3  1  0.19621000  0.21505000  0.88980000  1.0 0.7480439791
Zn  Zn4  1  0.80379000  0.78495000  0.38980000  1.0 0.7480439791
H  H1  1  0.28347000  0.91178000  0.77192000  1.0 0.1190684001
H  H2  1  0.43367000  0.01544000  0.81717000  1.0 0.1496861824
H  H3  1  0.61792000  0.93638000  0.65020000  1.0 0.1391548215
H  H4  1  0.46086000  0.83980000  0.60913000  1.0 0.1190684001
H  H5  1  0.62696000  0.09079000  0.80790000  1.0 0.1190684001
H  H6  1  0.76151000  0.99106000  0.70893000  1.0 0.1190684001
H  H7  1  0.93673000  0.23627000  0.90669000  1.0 0.1021610857
H  H8  1  0.77191000  0.16600000  0.86021000  1.0 0.1391548215
H  H9  1  0.96311000  0.02632000  0.71065000  1.0 0.1391548215
H  H10  1  0.12309000  0.09613000  0.76499000  1.0 0.1109534808
H  H11  1  0.35534000  0.41220000  0.61058000  1.0 0.1109534808
H  H12  1  0.40521000  0.26277000  0.54038000  1.0 0.1190684001
H  H13  1  0.30942000  0.44896000  0.37770000  1.0 0.1109534808
H  H14  1  0.26214000  0.59799000  0.44856000  1.0 0.1190684001
H  H15  1  0.42470000  0.18042000  0.42863000  1.0 0.1109534808
H  H16  1  0.19125000  0.20613000  0.38233000  1.0 0.1190684001
H  H17  1  0.02173000  0.18973000  0.32324000  1.0 0.1190684001
H  H18  1  0.17654000  0.29536000  0.15186000  1.0 0.1109534808
H  H19  1  0.34712000  0.31282000  0.21034000  1.0 0.1190684001
H  H20  1  0.46100000  0.29900000  0.32600000  1.0 0.2760923602
H  H21  1  0.71653000  0.08822000  0.27192000  1.0 0.1190684001
H  H22  1  0.56633000  0.98456000  0.31717000  1.0 0.1496861824
H  H23  1  0.38208000  0.06362000  0.15020000  1.0 0.1391548215
H  H24  1  0.53914000  0.16020000  0.10913000  1.0 0.1190684001
H  H25  1  0.37304000  0.90921000  0.30790000  1.0 0.1190684001
H  H26  1  0.23849000  0.00894000  0.20893000  1.0 0.1190684001
H  H27  1  0.06327000  0.76373000  0.40669000  1.0 0.1021610857
H  H28  1  0.22809000  0.83400000  0.36021000  1.0 0.1391548215
H  H29  1  0.03689000  0.97368000  0.21065000  1.0 0.1391548215
H  H30  1  0.87691000  0.90387000  0.26499000  1.0 0.1109534808
H  H31  1  0.64466000  0.58780000  0.11058000  1.0 0.1109534808
H  H32  1  0.59479000  0.73723000  0.04038000  1.0 0.1190684001
H  H33  1  0.69058000  0.55104000  0.87770000  1.0 0.1109534808
H  H34  1  0.73786000  0.40201000  0.94856000  1.0 0.1190684001
H  H35  1  0.57530000  0.81958000  0.92863000  1.0 0.1109534808
H  H36  1  0.80875000  0.79387000  0.88233000  1.0 0.1190684001
H  H37  1  0.97827000  0.81027000  0.82324000  1.0 0.1190684001
H  H38  1  0.82346000  0.70464000  0.65186000  1.0 0.1109534808
H  H39  1  0.65288000  0.68718000  0.71034000  1.0 0.1190684001
H  H40  1  0.53900000  0.70100000  0.82600000  1.0 0.2760923602
H  H41  1  0.08822000  0.28347000  0.02192000  1.0 0.1190684001
H  H42  1  0.98456000  0.43367000  0.06717000  1.0 0.1496861824
H  H43  1  0.06362000  0.61792000  0.90020000  1.0 0.1391548215
H  H44  1  0.16020000  0.46086000  0.85913000  1.0 0.1190684001
H  H45  1  0.90921000  0.62696000  0.05790000  1.0 0.1190684001
H  H46  1  0.00894000  0.76151000  0.95893000  1.0 0.1190684001
H  H47  1  0.76373000  0.93673000  0.15669000  1.0 0.1021610857
H  H48  1  0.83400000  0.77191000  0.11021000  1.0 0.1391548215
H  H49  1  0.97368000  0.96311000  0.96065000  1.0 0.1391548215
H  H50  1  0.90387000  0.12309000  0.01499000  1.0 0.1109534808
H  H51  1  0.58780000  0.35534000  0.86058000  1.0 0.1109534808
H  H52  1  0.73723000  0.40521000  0.79038000  1.0 0.1190684001
H  H53  1  0.55104000  0.30942000  0.62770000  1.0 0.1109534808
H  H54  1  0.40201000  0.26214000  0.69856000  1.0 0.1190684001
H  H55  1  0.81958000  0.42470000  0.67863000  1.0 0.1109534808
H  H56  1  0.79387000  0.19125000  0.63233000  1.0 0.1190684001
H  H57  1  0.81027000  0.02173000  0.57324000  1.0 0.1190684001
H  H58  1  0.70464000  0.17654000  0.40186000  1.0 0.1109534808
H  H59  1  0.68718000  0.34712000  0.46034000  1.0 0.1190684001
H  H60  1  0.70100000  0.46100000  0.57600000  1.0 0.2760923602
H  H61  1  0.91178000  0.71653000  0.52192000  1.0 0.1190684001
H  H62  1  0.01544000  0.56633000  0.56717000  1.0 0.1496861824
H  H63  1  0.93638000  0.38208000  0.40020000  1.0 0.1391548215
H  H64  1  0.83980000  0.53914000  0.35913000  1.0 0.1190684001
H  H65  1  0.09079000  0.37304000  0.55790000  1.0 0.1190684001
H  H66  1  0.99106000  0.23849000  0.45893000  1.0 0.1190684001
H  H67  1  0.23627000  0.06327000  0.65669000  1.0 0.1021610857
H  H68  1  0.16600000  0.22809000  0.61021000  1.0 0.1391548215
H  H69  1  0.02632000  0.03689000  0.46065000  1.0 0.1391548215
H  H70  1  0.09613000  0.87691000  0.51499000  1.0 0.1109534808
H  H71  1  0.41220000  0.64466000  0.36058000  1.0 0.1109534808
H  H72  1  0.26277000  0.59479000  0.29038000  1.0 0.1190684001
H  H73  1  0.44896000  0.69058000  0.12770000  1.0 0.1109534808
H  H74  1  0.59799000  0.73786000  0.19856000  1.0 0.1190684001
H  H75  1  0.18042000  0.57530000  0.17863000  1.0 0.1109534808
H  H76  1  0.20613000  0.80875000  0.13233000  1.0 0.1190684001
H  H77  1  0.18973000  0.97827000  0.07324000  1.0 0.1190684001
H  H78  1  0.29536000  0.82346000  0.90186000  1.0 0.1109534808
H  H79  1  0.31282000  0.65288000  0.96034000  1.0 0.1190684001
H  H80  1  0.29900000  0.53900000  0.07600000  1.0 0.2760923602
C  C1  1  0.35200000  0.91830000  0.74690000  1.0 0.0686579246
C  C2  1  0.44180000  0.97900000  0.77470000  1.0 -0.1914773337
C  C3  1  0.54450000  0.98560000  0.73910000  1.0 0.1637406708
C  C4  1  0.55020000  0.93300000  0.67620000  1.0 -0.1914773337
C  C5  1  0.45580000  0.87560000  0.65200000  1.0 0.0791744061
C  C6  1  0.64140000  0.04360000  0.77000000  1.0 -0.1351989112
C  C7  1  0.74900000  0.03480000  0.74850000  1.0 -0.1471342217
C  C8  1  0.94160000  0.19160000  0.86690000  1.0 0.0686579246
C  C9  1  0.84290000  0.15060000  0.83930000  1.0 -0.1954224105
C  C10  1  0.84790000  0.08520000  0.77960000  1.0 0.1675593988
C  C11  1  0.95520000  0.06760000  0.75160000  1.0 -0.1954224105
C  C12  1  0.05050000  0.11080000  0.78400000  1.0 0.1021610857
C  C13  1  0.27920000  0.61900000  0.58200000  1.0 0.5506604262
C  C14  1  0.30710000  0.52260000  0.53660000  1.0 -0.0236025914
C  C15  1  0.34780000  0.42050000  0.56310000  1.0 -0.1086380533
C  C16  1  0.37710000  0.33140000  0.52140000  1.0 -0.1656251117
C  C17  1  0.36580000  0.34120000  0.45120000  1.0 0.0791744061
C  C18  1  0.32070000  0.44160000  0.42500000  1.0 -0.1471342217
C  C19  1  0.29240000  0.53010000  0.46730000  1.0 -0.0985008865
C  C20  1  0.39980000  0.25000000  0.40930000  1.0 -0.0676211654
C  C21  1  0.28750000  0.25850000  0.30230000  1.0 0.2335637756
C  C22  1  0.18900000  0.22360000  0.33550000  1.0 -0.2161872885
C  C23  1  0.08810000  0.21450000  0.30030000  1.0 -0.0985008865
C  C24  1  0.08150000  0.24060000  0.23220000  1.0 -0.0572100668
C  C25  1  0.17970000  0.27720000  0.19850000  1.0 -0.0985008865
C  C26  1  0.28110000  0.28690000  0.23320000  1.0 -0.226821437
C  C27  1  0.97340000  0.22930000  0.19430000  1.0 0.5506604262
C  C28  1  0.64800000  0.08170000  0.24690000  1.0 0.0791744061
C  C29  1  0.55820000  0.02100000  0.27470000  1.0 -0.1914773337
C  C30  1  0.45550000  0.01440000  0.23910000  1.0 0.1637406708
C  C31  1  0.44980000  0.06700000  0.17620000  1.0 -0.1954224105
C  C32  1  0.54420000  0.12440000  0.15200000  1.0 0.0791744061
C  C33  1  0.35860000  0.95640000  0.27000000  1.0 -0.1351989112
C  C34  1  0.25100000  0.96520000  0.24850000  1.0 -0.1471342217
C  C35  1  0.05840000  0.80840000  0.36690000  1.0 0.0686579246
C  C36  1  0.15710000  0.84940000  0.33930000  1.0 -0.1914773337
C  C37  1  0.15210000  0.91480000  0.27960000  1.0 0.1675593988
C  C38  1  0.04480000  0.93240000  0.25160000  1.0 -0.1954224105
C  C39  1  0.94950000  0.88920000  0.28400000  1.0 0.1021610857
C  C40  1  0.72080000  0.38100000  0.08200000  1.0 0.5506604262
C  C41  1  0.69290000  0.47740000  0.03660000  1.0 -0.0236025914
C  C42  1  0.65220000  0.57950000  0.06310000  1.0 -0.1086380533
C  C43  1  0.62290000  0.66860000  0.02140000  1.0 -0.1656251117
C  C44  1  0.63420000  0.65880000  0.95120000  1.0 0.0791744061
C  C45  1  0.67930000  0.55840000  0.92500000  1.0 -0.1471342217
C  C46  1  0.70760000  0.46990000  0.96730000  1.0 -0.0985008865
C  C47  1  0.60020000  0.75000000  0.90930000  1.0 -0.0676211654
C  C48  1  0.71250000  0.74150000  0.80230000  1.0 0.2335637756
C  C49  1  0.81100000  0.77640000  0.83550000  1.0 -0.2161872885
C  C50  1  0.91190000  0.78550000  0.80030000  1.0 -0.0985008865
C  C51  1  0.91850000  0.75940000  0.73220000  1.0 -0.0572100668
C  C52  1  0.82030000  0.72280000  0.69850000  1.0 -0.0985008865
C  C53  1  0.71890000  0.71310000  0.73320000  1.0 -0.226821437
C  C54  1  0.02660000  0.77070000  0.69430000  1.0 0.5506604262
C  C55  1  0.08170000  0.35200000  0.99690000  1.0 0.0686579246
C  C56  1  0.02100000  0.44180000  0.02470000  1.0 -0.1914773337
C  C57  1  0.01440000  0.54450000  0.98910000  1.0 0.1637406708
C  C58  1  0.06700000  0.55020000  0.92620000  1.0 -0.1954224105
C  C59  1  0.12440000  0.45580000  0.90200000  1.0 0.0791744061
C  C60  1  0.95640000  0.64140000  0.02000000  1.0 -0.1345914952
C  C61  1  0.96520000  0.74900000  0.99850000  1.0 -0.1471342217
C  C62  1  0.80840000  0.94160000  0.11690000  1.0 0.0686579246
C  C63  1  0.84940000  0.84290000  0.08930000  1.0 -0.1954224105
C  C64  1  0.91480000  0.84790000  0.02960000  1.0 0.1675593988
C  C65  1  0.93240000  0.95520000  0.00160000  1.0 -0.1954224105
C  C66  1  0.88920000  0.05050000  0.03400000  1.0 0.1021610857
C  C67  1  0.38100000  0.27920000  0.83200000  1.0 0.5506604262
C  C68  1  0.47740000  0.30710000  0.78660000  1.0 -0.0236025914
C  C69  1  0.57950000  0.34780000  0.81310000  1.0 -0.1086380533
C  C70  1  0.66860000  0.37710000  0.77140000  1.0 -0.1656251117
C  C71  1  0.65880000  0.36580000  0.70120000  1.0 0.0791744061
C  C72  1  0.55840000  0.32070000  0.67500000  1.0 -0.1471342217
C  C73  1  0.46990000  0.29240000  0.71730000  1.0 -0.0985008865
C  C74  1  0.75000000  0.39980000  0.65930000  1.0 -0.0676211654
C  C75  1  0.74150000  0.28750000  0.55230000  1.0 0.2335637756
C  C76  1  0.77640000  0.18900000  0.58550000  1.0 -0.2161872885
C  C77  1  0.78550000  0.08810000  0.55030000  1.0 -0.0985008865
C  C78  1  0.75940000  0.08150000  0.48220000  1.0 -0.0572100668
C  C79  1  0.72280000  0.17970000  0.44850000  1.0 -0.0985008865
C  C80  1  0.71310000  0.28110000  0.48320000  1.0 -0.226821437
C  C81  1  0.77070000  0.97340000  0.44430000  1.0 0.5506604262
C  C82  1  0.91830000  0.64800000  0.49690000  1.0 0.0791744061
C  C83  1  0.97900000  0.55820000  0.52470000  1.0 -0.1914773337
C  C84  1  0.98560000  0.45550000  0.48910000  1.0 0.1637406708
C  C85  1  0.93300000  0.44980000  0.42620000  1.0 -0.1914773337
C  C86  1  0.87560000  0.54420000  0.40200000  1.0 0.0791744061
C  C87  1  0.04360000  0.35860000  0.52000000  1.0 -0.1351989112
C  C88  1  0.03480000  0.25100000  0.49850000  1.0 -0.1471342217
C  C89  1  0.19160000  0.05840000  0.61690000  1.0 0.0686579246
C  C90  1  0.15060000  0.15710000  0.58930000  1.0 -0.1914773337
C  C91  1  0.08520000  0.15210000  0.52960000  1.0 0.1675593988
C  C92  1  0.06760000  0.04480000  0.50160000  1.0 -0.1954224105
C  C93  1  0.11080000  0.94950000  0.53400000  1.0 0.1021610857
C  C94  1  0.61900000  0.72080000  0.33200000  1.0 0.5506604262
C  C95  1  0.52260000  0.69290000  0.28660000  1.0 -0.0236025914
C  C96  1  0.42050000  0.65220000  0.31310000  1.0 -0.1086380533
C  C97  1  0.33140000  0.62290000  0.27140000  1.0 -0.1656251117
C  C98  1  0.34120000  0.63420000  0.20120000  1.0 0.0791744061
C  C99  1  0.44160000  0.67930000  0.17500000  1.0 -0.1471342217
C  C100  1  0.53010000  0.70760000  0.21730000  1.0 -0.0985008865
C  C101  1  0.25000000  0.60020000  0.15930000  1.0 -0.0676211654
C  C102  1  0.25850000  0.71250000  0.05230000  1.0 0.2335637756
C  C103  1  0.22360000  0.81100000  0.08550000  1.0 -0.2161872885
C  C104  1  0.21450000  0.91190000  0.05030000  1.0 -0.0985008865
C  C105  1  0.24060000  0.91850000  0.98220000  1.0 -0.0572100668
C  C106  1  0.27720000  0.82030000  0.94850000  1.0 -0.0985008865
C  C107  1  0.28690000  0.71890000  0.98320000  1.0 -0.226821437
C  C108  1  0.22930000  0.02660000  0.94430000  1.0 0.5506604262
N  N1  1  0.35830000  0.86820000  0.68590000  1.0 -0.2411952517
N  N2  1  0.04510000  0.17170000  0.84040000  1.0 -0.226821437
N  N3  1  0.39620000  0.26350000  0.33560000  1.0 -0.3554467312
N  N4  1  0.64170000  0.13180000  0.18590000  1.0 -0.2411952517
N  N5  1  0.95490000  0.82830000  0.34040000  1.0 -0.226821437
N  N6  1  0.60380000  0.73650000  0.83560000  1.0 -0.3544279388
N  N7  1  0.13180000  0.35830000  0.93590000  1.0 -0.2411952517
N  N8  1  0.82830000  0.04510000  0.09040000  1.0 -0.226821437
N  N9  1  0.73650000  0.39620000  0.58560000  1.0 -0.3544279388
N  N10  1  0.86820000  0.64170000  0.43590000  1.0 -0.2411952517
N  N11  1  0.17170000  0.95490000  0.59040000  1.0 -0.226821437
N  N12  1  0.26350000  0.60380000  0.08560000  1.0 -0.3554467312
O  O1  1  0.26700000  0.71780000  0.55604000  1.0 -0.5587910614
O  O2  1  0.26780000  0.60400000  0.64440000  1.0 -0.5439975909
O  O3  1  0.96840000  0.25120000  0.13220000  1.0 -0.5495168618
O  O4  1  0.88430000  0.19430000  0.22541000  1.0 -0.5495168618
O  O5  1  0.73300000  0.28220000  0.05604000  1.0 -0.5587910614
O  O6  1  0.73220000  0.39600000  0.14440000  1.0 -0.5439975909
O  O7  1  0.03160000  0.74880000  0.63220000  1.0 -0.5495168618
O  O8  1  0.11570000  0.80570000  0.72541000  1.0 -0.5495168618
O  O9  1  0.28220000  0.26700000  0.80604000  1.0 -0.5587910614
O  O10  1  0.39600000  0.26780000  0.89440000  1.0 -0.5439975909
O  O11  1  0.74880000  0.96840000  0.38220000  1.0 -0.5495168618
O  O12  1  0.80570000  0.88430000  0.47541000  1.0 -0.5495168618
O  O13  1  0.71780000  0.73300000  0.30604000  1.0 -0.5587910614
O  O14  1  0.60400000  0.73220000  0.39440000  1.0 -0.5439975909
O  O15  1  0.25120000  0.03160000  0.88220000  1.0 -0.5495168618
O  O16  1  0.19430000  0.11570000  0.97541000  1.0 -0.5495168618
