# DDEC6 charges by PACMAN v1.1 (https://github.com/mtap-research/PACMAN-charge/)
data_JUCXEK_ASR_pacman
_symmetry_space_group_name_H-M   'P 1'
_cell_length_a   11.38200000
_cell_length_b   11.38200000
_cell_length_c   11.73400000
_cell_angle_alpha   90.00000000
_cell_angle_beta   90.00000000
_cell_angle_gamma   90.00000000
_symmetry_Int_Tables_number   1
_chemical_formula_structural   Np3(C2O5)2
_chemical_formula_sum   'Np6 C8 O20'
_cell_volume   1520.13880822
_cell_formula_units_Z   2
loop_
 _symmetry_equiv_pos_site_id
 _symmetry_equiv_pos_as_xyz
  1  'x, y, z'
loop_
 _atom_site_type_symbol
 _atom_site_label
 _atom_site_symmetry_multiplicity
 _atom_site_fract_x
 _atom_site_fract_y
 _atom_site_fract_z
 _atom_site_occupancy
 _atom_site_charge
Np  Np1  1  0.38904000  0.49256000  0.25000000  1.0 1.5228390212
Np  Np2  1  0.10352000  0.61096000  0.25000000  1.0 0.9600047583
Np  Np3  1  0.50744000  0.89648000  0.25000000  1.0 1.2935140843
Np  Np4  1  0.61096000  0.50744000  0.75000000  1.0 1.5228390212
Np  Np5  1  0.89648000  0.38904000  0.75000000  1.0 0.9600047583
Np  Np6  1  0.49256000  0.10352000  0.75000000  1.0 1.300771665
C  C1  1  0.43760000  0.50070000  0.52440000  1.0 0.5170379246
C  C2  1  0.49930000  0.93690000  0.52440000  1.0 0.5378508384
C  C3  1  0.56240000  0.49930000  0.02440000  1.0 0.5170379246
C  C4  1  0.50070000  0.06310000  0.02440000  1.0 0.5378508384
C  C5  1  0.56240000  0.49930000  0.47560000  1.0 0.5170379246
C  C6  1  0.50070000  0.06310000  0.47560000  1.0 0.5378508384
C  C7  1  0.43760000  0.50070000  0.97560000  1.0 0.5170379246
C  C8  1  0.49930000  0.93690000  0.97560000  1.0 0.5378508384
O  O1  1  0.49630000  0.68340000  0.25000000  1.0 -0.3193030839
O  O2  1  0.18710000  0.50370000  0.25000000  1.0 -1.0529972797
O  O3  1  0.50370000  0.31660000  0.75000000  1.0 -0.3193030839
O  O4  1  0.81290000  0.49630000  0.75000000  1.0 -1.0529972797
O  O5  1  0.35170000  0.49570000  0.45580000  1.0 -0.5792281911
O  O6  1  0.50430000  0.85600000  0.45580000  1.0 -0.5945705658
O  O7  1  0.64830000  0.50430000  0.95580000  1.0 -0.5792281911
O  O8  1  0.49570000  0.14400000  0.95580000  1.0 -0.5965195781
O  O9  1  0.64830000  0.50430000  0.54420000  1.0 -0.5792281911
O  O10  1  0.49570000  0.14400000  0.54420000  1.0 -0.5965195781
O  O11  1  0.35170000  0.49570000  0.04420000  1.0 -0.5792281911
O  O12  1  0.50430000  0.85600000  0.04420000  1.0 -0.5945705658
O  O13  1  0.56590000  0.48990000  0.36840000  1.0 -0.5070833674
O  O14  1  0.51010000  0.07600000  0.36840000  1.0 -0.5745223647
O  O15  1  0.43410000  0.51010000  0.86840000  1.0 -0.5070833674
O  O16  1  0.48990000  0.92400000  0.86840000  1.0 -0.5792281911
O  O17  1  0.43410000  0.51010000  0.63160000  1.0 -0.5070833674
O  O18  1  0.48990000  0.92400000  0.63160000  1.0 -0.5792281911
O  O19  1  0.56590000  0.48990000  0.13160000  1.0 -0.5070833674
O  O20  1  0.51010000  0.07600000  0.13160000  1.0 -0.5745223647
