# DDEC6 charges by PACMAN v1.1 (https://github.com/mtap-research/PACMAN-charge/)
data_JUFKED_ASR_pacman
_symmetry_space_group_name_H-M   'P 1'
_cell_length_a   9.07700000
_cell_length_b   10.09800000
_cell_length_c   17.17900000
_cell_angle_alpha   94.96400000
_cell_angle_beta   103.99800000
_cell_angle_gamma   108.72700000
_symmetry_Int_Tables_number   1
_chemical_formula_structural   NiH21C27(NO)4
_chemical_formula_sum   'Ni2 H42 C54 N8 O8'
_cell_volume   1423.68910857
_cell_formula_units_Z   2
loop_
 _symmetry_equiv_pos_site_id
 _symmetry_equiv_pos_as_xyz
  1  'x, y, z'
loop_
 _atom_site_type_symbol
 _atom_site_label
 _atom_site_symmetry_multiplicity
 _atom_site_fract_x
 _atom_site_fract_y
 _atom_site_fract_z
 _atom_site_occupancy
 _atom_site_charge
Ni  Ni1  1  0.44477000  0.88697000  0.62030000  1.0 0.7363167754
Ni  Ni2  1  0.55523000  0.11303000  0.37970000  1.0 0.7363167754
H  H1  1  0.42880000  0.33720000  0.60680000  1.0 0.1317000143
H  H2  1  0.48850000  0.62160000  0.80040000  1.0 0.1101635806
H  H3  1  0.46010000  0.22440000  0.82690000  1.0 0.1101635806
H  H4  1  0.37140000  0.26760000  0.93350000  1.0 0.1101635806
H  H5  1  0.62080000  0.67360000  0.93320000  1.0 0.1101635806
H  H6  1  0.19290000  0.66666667  0.69110000  1.0 0.1101635806
H  H7  1  0.83520000  0.63910000  0.50040000  1.0 0.1382057867
H  H8  1  0.08560000  0.81780000  0.49270000  1.0 0.1198173254
H  H9  1  0.84700000  0.40950000  0.60340000  1.0 0.1198173254
H  H10  1  0.75850000  0.51300000  0.62310000  1.0 0.1382057867
H  H11  1  0.05730000  0.35620000  0.64840000  1.0 0.1198173254
H  H12  1  0.15380000  0.31210000  0.72420000  1.0 0.1198173254
H  H13  1  0.72190000  0.19650000  0.68330000  1.0 0.1101635806
H  H14  1  0.78310000  0.85200000  0.60310000  1.0 0.1317000143
H  H15  1  0.04660000  0.04280000  0.64010000  1.0 0.1317000143
H  H16  1  0.10920000  0.35360000  0.85420000  1.0 0.1101635806
H  H17  1  0.05930000  0.50290000  0.94380000  1.0 0.100313763
H  H18  1  0.92450000  0.65200000  0.89850000  1.0 0.1101635806
H  H19  1  0.83720000  0.64860000  0.75840000  1.0 0.1317000143
H  H20  1  0.58240000  0.32090000  0.95620000  1.0 0.1101635806
H  H21  1  0.40010000  0.62380000  0.90810000  1.0 0.1101635806
H  H22  1  0.57120000  0.66280000  0.39320000  1.0 0.1317000143
H  H23  1  0.51150000  0.37840000  0.19960000  1.0 0.1101635806
H  H24  1  0.53990000  0.77560000  0.17310000  1.0 0.1101635806
H  H25  1  0.62860000  0.73240000  0.06650000  1.0 0.1101635806
H  H26  1  0.37920000  0.32640000  0.06680000  1.0 0.1101635806
H  H27  1  0.80710000  0.33333333  0.30890000  1.0 0.1101635806
H  H28  1  0.16480000  0.36090000  0.49960000  1.0 0.1382057867
H  H29  1  0.91440000  0.18220000  0.50730000  1.0 0.1198173254
H  H30  1  0.15300000  0.59050000  0.39660000  1.0 0.1198173254
H  H31  1  0.24150000  0.48700000  0.37690000  1.0 0.1382057867
H  H32  1  0.94270000  0.64380000  0.35160000  1.0 0.1198173254
H  H33  1  0.84620000  0.68790000  0.27580000  1.0 0.1198173254
H  H34  1  0.27810000  0.80350000  0.31670000  1.0 0.1101635806
H  H35  1  0.21690000  0.14800000  0.39690000  1.0 0.1317000143
H  H36  1  0.95340000  0.95720000  0.35990000  1.0 0.1317000143
H  H37  1  0.89080000  0.64640000  0.14580000  1.0 0.1101635806
H  H38  1  0.94070000  0.49710000  0.05620000  1.0 0.100313763
H  H39  1  0.07550000  0.34800000  0.10150000  1.0 0.1101635806
H  H40  1  0.16280000  0.35140000  0.24160000  1.0 0.1317000143
H  H41  1  0.41760000  0.67910000  0.04380000  1.0 0.1101635806
H  H42  1  0.59990000  0.37620000  0.09190000  1.0 0.1101635806
C  C1  1  0.42450000  0.11165000  0.67585000  1.0 0.5138042025
C  C2  1  0.43980000  0.25772000  0.71133000  1.0 -0.0092188632
C  C3  1  0.44150000  0.36027000  0.66217000  1.0 -0.1487853177
C  C4  1  0.46210000  0.49728000  0.69595000  1.0 -0.0218445039
C  C5  1  0.46740000  0.60920000  0.64239000  1.0 0.5341602615
C  C6  1  0.47720000  0.53020000  0.77846000  1.0 -0.19293703
C  C7  1  0.47600000  0.42890000  0.82907000  1.0 0.0260677654
C  C8  1  0.45880000  0.29290000  0.79414000  1.0 -0.19293703
C  C9  1  0.49020000  0.46560000  0.91707000  1.0 0.0260677654
C  C10  1  0.42230000  0.36180000  0.95980000  1.0 -0.0680424483
C  C11  1  0.57060000  0.60320000  0.95952000  1.0 -0.0797251411
C  C12  1  0.13580000  0.68270000  0.64226000  1.0 0.100313763
C  C13  1  0.93720000  0.66600000  0.53780000  1.0 -0.1022600182
C  C14  1  0.07660000  0.76470000  0.53405000  1.0 -0.0526891728
C  C15  1  0.86280000  0.50060000  0.63421000  1.0 -0.1669198521
C  C16  1  0.92340000  0.49990000  0.72373000  1.0 0.0384099262
C  C17  1  0.00570000  0.41170000  0.75294000  1.0 0.0384099262
C  C18  1  0.04870000  0.31620000  0.69712000  1.0 -0.1799654015
C  C19  1  0.76960000  0.13310000  0.66847000  1.0 0.100313763
C  C20  1  0.80350000  0.94590000  0.62465000  1.0 -0.0218445039
C  C21  1  0.94970000  0.05070000  0.64485000  1.0 -0.1144835748
C  C22  1  0.05490000  0.41340000  0.83480000  1.0 -0.1487853177
C  C23  1  0.02460000  0.50260000  0.88820000  1.0 -0.1250249915
C  C24  1  0.94420000  0.59160000  0.86160000  1.0 -0.1022600182
C  C25  1  0.89250000  0.58950000  0.77770000  1.0 -0.1487853177
C  C26  1  0.54880000  0.39360000  0.97310000  1.0 -0.0797251411
C  C27  1  0.44090000  0.57310000  0.94500000  1.0 -0.0680424483
C  C28  1  0.57550000  0.88835000  0.32415000  1.0 0.5138042025
C  C29  1  0.56020000  0.74228000  0.28867000  1.0 -0.0092188632
C  C30  1  0.55850000  0.63973000  0.33783000  1.0 -0.1487853177
C  C31  1  0.53790000  0.50272000  0.30405000  1.0 -0.0218445039
C  C32  1  0.53260000  0.39080000  0.35761000  1.0 0.5341602615
C  C33  1  0.52280000  0.46980000  0.22154000  1.0 -0.19293703
C  C34  1  0.52400000  0.57110000  0.17093000  1.0 0.0260677654
C  C35  1  0.54120000  0.70710000  0.20586000  1.0 -0.19293703
C  C36  1  0.50980000  0.53440000  0.08293000  1.0 0.0260677654
C  C37  1  0.57770000  0.63820000  0.04020000  1.0 -0.0680424483
C  C38  1  0.42940000  0.39680000  0.04048000  1.0 -0.0797251411
C  C39  1  0.86420000  0.31730000  0.35774000  1.0 0.100313763
C  C40  1  0.06280000  0.33400000  0.46220000  1.0 -0.1022600182
C  C41  1  0.92340000  0.23530000  0.46595000  1.0 -0.0526891728
C  C42  1  0.13720000  0.49940000  0.36579000  1.0 -0.1669198521
C  C43  1  0.07660000  0.50010000  0.27627000  1.0 0.0384099262
C  C44  1  0.99430000  0.58830000  0.24706000  1.0 0.0384099262
C  C45  1  0.95130000  0.68380000  0.30288000  1.0 -0.1799654015
C  C46  1  0.23040000  0.86690000  0.33153000  1.0 0.100313763
C  C47  1  0.19650000  0.05410000  0.37535000  1.0 -0.0218445039
C  C48  1  0.05030000  0.94930000  0.35515000  1.0 -0.1144835748
C  C49  1  0.94510000  0.58660000  0.16520000  1.0 -0.1487853177
C  C50  1  0.97540000  0.49740000  0.11180000  1.0 -0.1250249915
C  C51  1  0.05580000  0.40840000  0.13840000  1.0 -0.1022600182
C  C52  1  0.10750000  0.41050000  0.22230000  1.0 -0.1487853177
C  C53  1  0.45120000  0.60640000  0.02690000  1.0 -0.0797251411
C  C54  1  0.55910000  0.42690000  0.05500000  1.0 -0.0680424483
N  N1  1  0.20190000  0.77462000  0.59990000  1.0 -0.275939817
N  N2  1  0.97640000  0.61450000  0.60702000  1.0 0.0494916751
N  N3  1  0.92710000  0.17080000  0.67366000  1.0 0.0384099262
N  N4  1  0.68910000  0.99730000  0.64028000  1.0 -0.2677822061
N  N5  1  0.79810000  0.22538000  0.40010000  1.0 -0.275939817
N  N6  1  0.02360000  0.38550000  0.39298000  1.0 0.0494916751
N  N7  1  0.07290000  0.82920000  0.32634000  1.0 0.0384099262
N  N8  1  0.31090000  0.00270000  0.35972000  1.0 -0.2677822061
O  O1  1  0.44397000  0.02485000  0.72214000  1.0 -0.5037381597
O  O2  1  0.39881000  0.07839000  0.59981000  1.0 -0.5250172564
O  O3  1  0.49647000  0.73360000  0.67810000  1.0 -0.5476739355
O  O4  1  0.44180000  0.57132000  0.56844000  1.0 -0.5417687841
O  O5  1  0.55603000  0.97515000  0.27786000  1.0 -0.5037381597
O  O6  1  0.60119000  0.92161000  0.40019000  1.0 -0.5250172564
O  O7  1  0.50353000  0.26640000  0.32190000  1.0 -0.5476739355
O  O8  1  0.55820000  0.42868000  0.43156000  1.0 -0.5417687841
