# DDEC6 charges by PACMAN v1.1 (https://github.com/mtap-research/PACMAN-charge/)
data_JUHHIG_FSR_pacman
_symmetry_space_group_name_H-M   'P 1'
_cell_length_a   18.69160000
_cell_length_b   18.69160000
_cell_length_c   9.85900000
_cell_angle_alpha   84.02050000
_cell_angle_beta   95.97950000
_cell_angle_gamma   37.24430000
_symmetry_Int_Tables_number   1
_chemical_formula_structural   Na3Gd4W4C2O35
_chemical_formula_sum   'Na6 Gd8 W8 C4 O70'
_cell_volume   1970.61195240
_cell_formula_units_Z   2
loop_
 _symmetry_equiv_pos_site_id
 _symmetry_equiv_pos_as_xyz
  1  'x, y, z'
loop_
 _atom_site_type_symbol
 _atom_site_label
 _atom_site_symmetry_multiplicity
 _atom_site_fract_x
 _atom_site_fract_y
 _atom_site_fract_z
 _atom_site_occupancy
 _atom_site_charge
Na  Na1  1  0.54527000  0.88687000  0.12320000  1.0 1.0298859946
Na  Na2  1  0.88687000  0.54527000  0.87680000  1.0 1.0298859946
Na  Na3  1  0.45473000  0.11313000  0.87680000  1.0 1.0298859946
Na  Na4  1  0.11313000  0.45473000  0.12320000  1.0 1.0298859946
Na  Na5  1  0.65990000  0.65990000  0.50000000  1.0 1.0571078383
Na  Na6  1  0.34010000  0.34010000  0.50000000  1.0 1.0571078383
Gd  Gd1  1  0.90876000  0.91344000  0.31345000  1.0 0.3974395715
Gd  Gd2  1  0.89403000  0.89407000  0.31679000  1.0 0.413109011
Gd  Gd3  1  0.91344000  0.90876000  0.68655000  1.0 0.413109011
Gd  Gd4  1  0.89407000  0.89403000  0.68321000  1.0 0.413109011
Gd  Gd5  1  0.09124000  0.08656000  0.68655000  1.0 0.413109011
Gd  Gd6  1  0.10597000  0.10593000  0.68321000  1.0 0.413109011
Gd  Gd7  1  0.08656000  0.09124000  0.31345000  1.0 0.413109011
Gd  Gd8  1  0.10593000  0.10597000  0.31679000  1.0 0.413109011
W  W1  1  0.05494000  0.64692000  0.57956000  1.0 2.22021726
W  W2  1  0.80312000  0.80414000  0.32989000  1.0 2.191057118
W  W3  1  0.64692000  0.05494000  0.42044000  1.0 2.2308566891
W  W4  1  0.80414000  0.80312000  0.67011000  1.0 2.1828364454
W  W5  1  0.94506000  0.35308000  0.42044000  1.0 2.2308566891
W  W6  1  0.19688000  0.19586000  0.67011000  1.0 2.1828364454
W  W7  1  0.35308000  0.94506000  0.57956000  1.0 2.22021726
W  W8  1  0.19586000  0.19688000  0.32989000  1.0 2.191057118
C  C1  1  0.05700000  0.94300000  0.34800000  1.0 0.4302989565
C  C2  1  0.93700000  0.06300000  0.30600000  1.0 0.4196613006
C  C3  1  0.94300000  0.05700000  0.65200000  1.0 0.4302989565
C  C4  1  0.06300000  0.93700000  0.69400000  1.0 0.4196613006
O  O1  1  0.05610000  0.71510000  0.43040000  1.0 -0.7396438621
O  O2  1  0.05970000  0.71230000  0.70280000  1.0 -0.7396438621
O  O3  1  0.20400000  0.48980000  0.63330000  1.0 -0.7264925517
O  O4  1  0.97560000  0.64720000  0.42950000  1.0 -0.7724541403
O  O5  1  0.76320000  0.77200000  0.21400000  1.0 -0.6234964855
O  O6  1  0.64460000  0.97720000  0.30230000  1.0 -0.789450673
O  O7  1  0.84460000  0.84840000  0.22270000  1.0 -0.7066827096
O  O8  1  0.03590000  0.80010000  0.16060000  1.0 0.6180026255
O  O9  1  0.80110000  0.03290000  0.06520000  1.0 0.3207748704
O  O10  1  0.08100000  0.85720000  0.36380000  1.0 -0.3809367277
O  O11  1  0.84750000  0.09030000  0.27580000  1.0 -0.3809367277
O  O12  1  0.44330000  0.08410000  0.11100000  1.0 -0.320168411
O  O13  1  0.57870000  0.84130000  0.37670000  1.0 -0.2895064828
O  O14  1  0.33920000  0.99360000  0.07050000  1.0 -0.0622573864
O  O15  1  0.62100000  0.71060000  0.11480000  1.0 -0.1603300449
O  O16  1  0.75030000  0.48550000  0.67490000  1.0 -0.2133639135
O  O17  1  0.71510000  0.05610000  0.56960000  1.0 -0.7396438621
O  O18  1  0.71230000  0.05970000  0.29720000  1.0 -0.7396438621
O  O19  1  0.48980000  0.20400000  0.36670000  1.0 -0.7229831296
O  O20  1  0.64720000  0.97560000  0.57050000  1.0 -0.7724541403
O  O21  1  0.77200000  0.76320000  0.78600000  1.0 -0.6234964855
O  O22  1  0.97720000  0.64460000  0.69770000  1.0 -0.789450673
O  O23  1  0.84840000  0.84460000  0.77730000  1.0 -0.7066827096
O  O24  1  0.80010000  0.03590000  0.83940000  1.0 0.5656836353
O  O25  1  0.03290000  0.80110000  0.93480000  1.0 0.2647486352
O  O26  1  0.85720000  0.08100000  0.63620000  1.0 -0.3809367277
O  O27  1  0.09030000  0.84750000  0.72420000  1.0 -0.3747241773
O  O28  1  0.08410000  0.44330000  0.88900000  1.0 -0.320168411
O  O29  1  0.84130000  0.57870000  0.62330000  1.0 -0.2793841638
O  O30  1  0.99360000  0.33920000  0.92950000  1.0 -0.0622573864
O  O31  1  0.71060000  0.62100000  0.88520000  1.0 -0.1603300449
O  O32  1  0.48550000  0.75030000  0.32510000  1.0 -0.2167260773
O  O33  1  0.94390000  0.28490000  0.56960000  1.0 -0.7396438621
O  O34  1  0.94030000  0.28770000  0.29720000  1.0 -0.7396438621
O  O35  1  0.79600000  0.51020000  0.36670000  1.0 -0.7229831296
O  O36  1  0.02440000  0.35280000  0.57050000  1.0 -0.7724541403
O  O37  1  0.23680000  0.22800000  0.78600000  1.0 -0.6234964855
O  O38  1  0.35540000  0.02280000  0.69770000  1.0 -0.789450673
O  O39  1  0.15540000  0.15160000  0.77730000  1.0 -0.7049228228
O  O40  1  0.96410000  0.19990000  0.83940000  1.0 0.5769700729
O  O41  1  0.19890000  0.96710000  0.93480000  1.0 0.2769639962
O  O42  1  0.91900000  0.14280000  0.63620000  1.0 -0.3809367277
O  O43  1  0.15250000  0.90970000  0.72420000  1.0 -0.3747241773
O  O44  1  0.55670000  0.91590000  0.88900000  1.0 -0.320168411
O  O45  1  0.42130000  0.15870000  0.62330000  1.0 -0.2895064828
O  O46  1  0.66080000  0.00640000  0.92950000  1.0 -0.0622573864
O  O47  1  0.37900000  0.28940000  0.88520000  1.0 -0.1603300449
O  O48  1  0.24970000  0.51450000  0.32510000  1.0 -0.2167260773
O  O49  1  0.28490000  0.94390000  0.43040000  1.0 -0.7396438621
O  O50  1  0.28770000  0.94030000  0.70280000  1.0 -0.7396438621
O  O51  1  0.51020000  0.79600000  0.63330000  1.0 -0.7229831296
O  O52  1  0.35280000  0.02440000  0.42950000  1.0 -0.7724541403
O  O53  1  0.22800000  0.23680000  0.21400000  1.0 -0.6234964855
O  O54  1  0.02280000  0.35540000  0.30230000  1.0 -0.789450673
O  O55  1  0.15160000  0.15540000  0.22270000  1.0 -0.7066827096
O  O56  1  0.19990000  0.96410000  0.16060000  1.0 0.6180026255
O  O57  1  0.96710000  0.19890000  0.06520000  1.0 0.3207748704
O  O58  1  0.14280000  0.91900000  0.36380000  1.0 -0.3809367277
O  O59  1  0.90970000  0.15250000  0.27580000  1.0 -0.3747241773
O  O60  1  0.91590000  0.55670000  0.11100000  1.0 -0.320168411
O  O61  1  0.15870000  0.42130000  0.37670000  1.0 -0.2895064828
O  O62  1  0.00640000  0.66080000  0.07050000  1.0 -0.0622573864
O  O63  1  0.28940000  0.37900000  0.11480000  1.0 -0.1533430047
O  O64  1  0.51450000  0.24970000  0.67490000  1.0 -0.2133639135
O  O65  1  0.84940000  0.84940000  0.50000000  1.0 -0.9856050886
O  O66  1  0.77400000  0.77400000  0.50000000  1.0 -0.7848632015
O  O67  1  0.92670000  0.92670000  0.50000000  1.0 -0.6578243353
O  O68  1  0.15060000  0.15060000  0.50000000  1.0 -0.9836139358
O  O69  1  0.22600000  0.22600000  0.50000000  1.0 -0.7848632015
O  O70  1  0.07330000  0.07330000  0.50000000  1.0 -0.6578243353
