# DDEC6 charges by PACMAN v1.1 (https://github.com/mtap-research/PACMAN-charge/)
data_JUHNOR_ASR_pacman
_symmetry_space_group_name_H-M   'P 1'
_cell_length_a   16.90180000
_cell_length_b   16.90180000
_cell_length_c   26.71320000
_cell_angle_alpha   77.01150000
_cell_angle_beta   102.98800000
_cell_angle_gamma   120.19200000
_symmetry_Int_Tables_number   1
_chemical_formula_structural   Cu6H10C36N4O27
_chemical_formula_sum   'Cu24 H40 C144 N16 O108'
_cell_volume   6370.42454069
_cell_formula_units_Z   4
loop_
 _symmetry_equiv_pos_site_id
 _symmetry_equiv_pos_as_xyz
  1  'x, y, z'
loop_
 _atom_site_type_symbol
 _atom_site_label
 _atom_site_symmetry_multiplicity
 _atom_site_fract_x
 _atom_site_fract_y
 _atom_site_fract_z
 _atom_site_occupancy
 _atom_site_charge
Cu  Cu1  1  0.63694000  0.63694000  0.25000000  1.0 0.9921769029
Cu  Cu2  1  0.36306000  0.36306000  0.75000000  1.0 0.9921769029
Cu  Cu3  1  0.67376000  0.43272000  0.47817000  1.0 0.738598399
Cu  Cu4  1  0.43272000  0.67376000  0.02183000  1.0 0.738598399
Cu  Cu5  1  0.32624000  0.56728000  0.52183000  1.0 0.738598399
Cu  Cu6  1  0.56728000  0.32624000  0.97817000  1.0 0.738598399
Cu  Cu7  1  0.84915000  0.79323000  0.45793000  1.0 1.025514655
Cu  Cu8  1  0.79323000  0.84915000  0.04207000  1.0 1.025514655
Cu  Cu9  1  0.15085000  0.20677000  0.54207000  1.0 1.025514655
Cu  Cu10  1  0.20677000  0.15085000  0.95793000  1.0 1.025514655
Cu  Cu11  1  0.72998000  0.94062000  0.10256000  1.0 0.9921769029
Cu  Cu12  1  0.94062000  0.72998000  0.39744000  1.0 0.9921769029
Cu  Cu13  1  0.27002000  0.05938000  0.89744000  1.0 0.9921769029
Cu  Cu14  1  0.05938000  0.27002000  0.60256000  1.0 0.9921769029
Cu  Cu15  1  0.50000000  0.00000000  0.50000000  1.0 1.0863661097
Cu  Cu16  1  0.00000000  0.50000000  0.00000000  1.0 1.0863661097
Cu  Cu17  1  0.40271000  0.12803000  0.49387000  1.0 1.0227575229
Cu  Cu18  1  0.12803000  0.40271000  0.00613000  1.0 1.0227575229
Cu  Cu19  1  0.59729000  0.87197000  0.50613000  1.0 1.0227575229
Cu  Cu20  1  0.87197000  0.59729000  0.99387000  1.0 1.0227575229
Cu  Cu21  1  0.70088000  0.10726000  0.47049000  1.0 1.0661745992
Cu  Cu22  1  0.10726000  0.70088000  0.02951000  1.0 1.0661745992
Cu  Cu23  1  0.29912000  0.89274000  0.52951000  1.0 1.0648563431
Cu  Cu24  1  0.89274000  0.29912000  0.97049000  1.0 1.0661745992
H  H1  1  0.04030000  0.86850000  0.42480000  1.0 0.4022002296
H  H2  1  0.86850000  0.04030000  0.07520000  1.0 0.4022002296
H  H3  1  0.95970000  0.13150000  0.57520000  1.0 0.4022002296
H  H4  1  0.13150000  0.95970000  0.92480000  1.0 0.4022002296
H  H5  1  0.01850000  0.92310000  0.44810000  1.0 0.4079701008
H  H6  1  0.92310000  0.01850000  0.05190000  1.0 0.4079701008
H  H7  1  0.98150000  0.07690000  0.55190000  1.0 0.4079701008
H  H8  1  0.07690000  0.98150000  0.94810000  1.0 0.4079701008
H  H9  1  0.67090000  0.40150000  0.25870000  1.0 0.1407306885
H  H10  1  0.40150000  0.67090000  0.24130000  1.0 0.1407306885
H  H11  1  0.32910000  0.59850000  0.74130000  1.0 0.1407306885
H  H12  1  0.59850000  0.32910000  0.75870000  1.0 0.1407306885
H  H13  1  0.62450000  0.16930000  0.35620000  1.0 0.1481792429
H  H14  1  0.16930000  0.62450000  0.14380000  1.0 0.1481792429
H  H15  1  0.37550000  0.83070000  0.64380000  1.0 0.1481792429
H  H16  1  0.83070000  0.37550000  0.85620000  1.0 0.1481792429
H  H17  1  0.78030000  0.40930000  0.15160000  1.0 0.1481792429
H  H18  1  0.40930000  0.78030000  0.34840000  1.0 0.1481792429
H  H19  1  0.21970000  0.59070000  0.84840000  1.0 0.1481792429
H  H20  1  0.59070000  0.21970000  0.65160000  1.0 0.1481792429
H  H21  1  0.71570000  0.15170000  0.22000000  1.0 0.1329525934
H  H22  1  0.15170000  0.71570000  0.28000000  1.0 0.1329525934
H  H23  1  0.28430000  0.84830000  0.78000000  1.0 0.1329525934
H  H24  1  0.84830000  0.28430000  0.72000000  1.0 0.1329525934
H  H25  1  0.59770000  0.02470000  0.32140000  1.0 0.1407306885
H  H26  1  0.02470000  0.59770000  0.17860000  1.0 0.1407306885
H  H27  1  0.40230000  0.97530000  0.67860000  1.0 0.1407306885
H  H28  1  0.97530000  0.40230000  0.82140000  1.0 0.1407306885
H  H29  1  0.59220000  0.86280000  0.22980000  1.0 0.1481792429
H  H30  1  0.86280000  0.59220000  0.27020000  1.0 0.1481792429
H  H31  1  0.40780000  0.13720000  0.77020000  1.0 0.1481792429
H  H32  1  0.13720000  0.40780000  0.72980000  1.0 0.1481792429
H  H33  1  0.33990000  0.84390000  0.13910000  1.0 0.1407306885
H  H34  1  0.84390000  0.33990000  0.36090000  1.0 0.1407306885
H  H35  1  0.66010000  0.15610000  0.86090000  1.0 0.1407306885
H  H36  1  0.15610000  0.66010000  0.63910000  1.0 0.1407306885
H  H37  1  0.53560000  0.10580000  0.15140000  1.0 0.1407306885
H  H38  1  0.10580000  0.53560000  0.34860000  1.0 0.1407306885
H  H39  1  0.46440000  0.89420000  0.84860000  1.0 0.1407306885
H  H40  1  0.89420000  0.46440000  0.65140000  1.0 0.1407306885
C  C1  1  0.60480000  0.47460000  0.30130000  1.0 0.557873741
C  C2  1  0.47460000  0.60480000  0.19870000  1.0 0.557873741
C  C3  1  0.39520000  0.52540000  0.69870000  1.0 0.557873741
C  C4  1  0.52540000  0.39520000  0.80130000  1.0 0.557873741
C  C5  1  0.60520000  0.38480000  0.31720000  1.0 -0.0126566296
C  C6  1  0.38480000  0.60520000  0.18280000  1.0 -0.0126566296
C  C7  1  0.39480000  0.61520000  0.68280000  1.0 -0.0126566296
C  C8  1  0.61520000  0.39480000  0.81720000  1.0 -0.0126566296
C  C9  1  0.64650000  0.36190000  0.28810000  1.0 -0.1421232297
C  C10  1  0.36190000  0.64650000  0.21190000  1.0 -0.1421232297
C  C11  1  0.35350000  0.63810000  0.71190000  1.0 -0.1421232297
C  C12  1  0.63810000  0.35350000  0.78810000  1.0 -0.1421232297
C  C13  1  0.65210000  0.27970000  0.30210000  1.0 0.1481792429
C  C14  1  0.27970000  0.65210000  0.19790000  1.0 0.1481792429
C  C15  1  0.34790000  0.72030000  0.69790000  1.0 0.1481792429
C  C16  1  0.72030000  0.34790000  0.80210000  1.0 0.1481792429
C  C17  1  0.61920000  0.22300000  0.34620000  1.0 -0.1421232297
C  C18  1  0.22300000  0.61920000  0.15380000  1.0 -0.1421232297
C  C19  1  0.38080000  0.77700000  0.65380000  1.0 -0.1421232297
C  C20  1  0.77700000  0.38080000  0.84620000  1.0 -0.1421232297
C  C21  1  0.57740000  0.24560000  0.37650000  1.0 -0.0126566296
C  C22  1  0.24560000  0.57740000  0.12350000  1.0 -0.0126566296
C  C23  1  0.42260000  0.75440000  0.62350000  1.0 -0.0126566296
C  C24  1  0.75440000  0.42260000  0.87650000  1.0 -0.0126566296
C  C25  1  0.53510000  0.17990000  0.42320000  1.0 0.6298587845
C  C26  1  0.17990000  0.53510000  0.07680000  1.0 0.6298587845
C  C27  1  0.46490000  0.82010000  0.57680000  1.0 0.6298587845
C  C28  1  0.82010000  0.46490000  0.92320000  1.0 0.6298587845
C  C29  1  0.56960000  0.32600000  0.36190000  1.0 -0.0126566296
C  C30  1  0.32600000  0.56960000  0.13810000  1.0 -0.0126566296
C  C31  1  0.43040000  0.67400000  0.63810000  1.0 -0.0126566296
C  C32  1  0.67400000  0.43040000  0.86190000  1.0 -0.0126566296
C  C33  1  0.51710000  0.34810000  0.39210000  1.0 0.5841487871
C  C34  1  0.34810000  0.51710000  0.10790000  1.0 0.5841487871
C  C35  1  0.48290000  0.65190000  0.60790000  1.0 0.5841487871
C  C36  1  0.65190000  0.48290000  0.89210000  1.0 0.5841487871
C  C37  1  0.86350000  0.42490000  0.07480000  1.0 0.5999385045
C  C38  1  0.42490000  0.86350000  0.42520000  1.0 0.5999385045
C  C39  1  0.13650000  0.57510000  0.92520000  1.0 0.5999385045
C  C40  1  0.57510000  0.13650000  0.57480000  1.0 0.5999385045
C  C41  1  0.81860000  0.34340000  0.11540000  1.0 0.0095956844
C  C42  1  0.34340000  0.81860000  0.38460000  1.0 0.0095956844
C  C43  1  0.18140000  0.65660000  0.88460000  1.0 0.0095956844
C  C44  1  0.65660000  0.18140000  0.61540000  1.0 0.0095956844
C  C45  1  0.78070000  0.35410000  0.15300000  1.0 -0.1421232297
C  C46  1  0.35410000  0.78070000  0.34700000  1.0 -0.1421232297
C  C47  1  0.21930000  0.64590000  0.84700000  1.0 -0.1421232297
C  C48  1  0.64590000  0.21930000  0.65300000  1.0 -0.1421232297
C  C49  1  0.74370000  0.28310000  0.19230000  1.0 0.157669943
C  C50  1  0.28310000  0.74370000  0.30770000  1.0 0.157669943
C  C51  1  0.25630000  0.71690000  0.80770000  1.0 0.157669943
C  C52  1  0.71690000  0.25630000  0.69230000  1.0 0.157669943
C  C53  1  0.74080000  0.19940000  0.19350000  1.0 -0.158002626
C  C54  1  0.19940000  0.74080000  0.30650000  1.0 -0.158002626
C  C55  1  0.25920000  0.80060000  0.80650000  1.0 -0.158002626
C  C56  1  0.80060000  0.25920000  0.69350000  1.0 -0.158002626
C  C57  1  0.77500000  0.18620000  0.15560000  1.0 -0.0036341981
C  C58  1  0.18620000  0.77500000  0.34440000  1.0 -0.0036341981
C  C59  1  0.22500000  0.81380000  0.84440000  1.0 -0.0036341981
C  C60  1  0.81380000  0.22500000  0.65560000  1.0 -0.0036341981
C  C61  1  0.76810000  0.09210000  0.15690000  1.0 0.5706247912
C  C62  1  0.09210000  0.76810000  0.34310000  1.0 0.5706247912
C  C63  1  0.23190000  0.90790000  0.84310000  1.0 0.5706247912
C  C64  1  0.90790000  0.23190000  0.65690000  1.0 0.5706247912
C  C65  1  0.81520000  0.25840000  0.11660000  1.0 -0.0036341981
C  C66  1  0.25840000  0.81520000  0.38340000  1.0 -0.0036341981
C  C67  1  0.18480000  0.74160000  0.88340000  1.0 -0.0036341981
C  C68  1  0.74160000  0.18480000  0.61660000  1.0 -0.0036341981
C  C69  1  0.86190000  0.25110000  0.07700000  1.0 0.5999385045
C  C70  1  0.25110000  0.86190000  0.42300000  1.0 0.5999385045
C  C71  1  0.13810000  0.74890000  0.92300000  1.0 0.5999385045
C  C72  1  0.74890000  0.13810000  0.57700000  1.0 0.5999385045
C  C73  1  0.66550000  0.96930000  0.41160000  1.0 0.5934262277
C  C74  1  0.96930000  0.66550000  0.08840000  1.0 0.5934262277
C  C75  1  0.33450000  0.03070000  0.58840000  1.0 0.5934262277
C  C76  1  0.03070000  0.33450000  0.91160000  1.0 0.5934262277
C  C77  1  0.64660000  0.93740000  0.35990000  1.0 -0.0216172224
C  C78  1  0.93740000  0.64660000  0.14010000  1.0 -0.0216172224
C  C79  1  0.35340000  0.06260000  0.64010000  1.0 -0.0216172224
C  C80  1  0.06260000  0.35340000  0.85990000  1.0 -0.0216172224
C  C81  1  0.60810000  0.97750000  0.31760000  1.0 -0.1421232297
C  C82  1  0.97750000  0.60810000  0.18240000  1.0 -0.1421232297
C  C83  1  0.39190000  0.02250000  0.68240000  1.0 -0.1421232297
C  C84  1  0.02250000  0.39190000  0.81760000  1.0 -0.1421232297
C  C85  1  0.58490000  0.94730000  0.26930000  1.0 0.1481792429
C  C86  1  0.94730000  0.58490000  0.23070000  1.0 0.1481792429
C  C87  1  0.41510000  0.05270000  0.73070000  1.0 0.1481792429
C  C88  1  0.05270000  0.41510000  0.76930000  1.0 0.1481792429
C  C89  1  0.60610000  0.88170000  0.26220000  1.0 -0.1316907945
C  C90  1  0.88170000  0.60610000  0.23780000  1.0 -0.1316907945
C  C91  1  0.39390000  0.11830000  0.73780000  1.0 -0.1316907945
C  C92  1  0.11830000  0.39390000  0.76220000  1.0 -0.1316907945
C  C93  1  0.64860000  0.84380000  0.30440000  1.0 0.0047861139
C  C94  1  0.84380000  0.64860000  0.19560000  1.0 0.0047861139
C  C95  1  0.35140000  0.15620000  0.69560000  1.0 0.0047861139
C  C96  1  0.15620000  0.35140000  0.80440000  1.0 0.0047861139
C  C97  1  0.67120000  0.77280000  0.29460000  1.0 0.5449077414
C  C98  1  0.77280000  0.67120000  0.20540000  1.0 0.5449077414
C  C99  1  0.32880000  0.22720000  0.70540000  1.0 0.5449077414
C  C100  1  0.22720000  0.32880000  0.79460000  1.0 0.5449077414
C  C101  1  0.66480000  0.86800000  0.35390000  1.0 0.0095956844
C  C102  1  0.86800000  0.66480000  0.14610000  1.0 0.0095956844
C  C103  1  0.33520000  0.13200000  0.64610000  1.0 0.0095956844
C  C104  1  0.13200000  0.33520000  0.85390000  1.0 0.0095956844
C  C105  1  0.70380000  0.81940000  0.39960000  1.0 0.5934262277
C  C106  1  0.81940000  0.70380000  0.10040000  1.0 0.5934262277
C  C107  1  0.29620000  0.18060000  0.60040000  1.0 0.5934262277
C  C108  1  0.18060000  0.29620000  0.89960000  1.0 0.5934262277
C  C109  1  0.22960000  0.86420000  0.05880000  1.0 0.557873741
C  C110  1  0.86420000  0.22960000  0.44120000  1.0 0.557873741
C  C111  1  0.77040000  0.13580000  0.94120000  1.0 0.557873741
C  C112  1  0.13580000  0.77040000  0.55880000  1.0 0.557873741
C  C113  1  0.32050000  0.93590000  0.08230000  1.0 -0.0036341981
C  C114  1  0.93590000  0.32050000  0.41770000  1.0 -0.0036341981
C  C115  1  0.67950000  0.06410000  0.91770000  1.0 -0.0036341981
C  C116  1  0.06410000  0.67950000  0.58230000  1.0 -0.0036341981
C  C117  1  0.36410000  0.90650000  0.12680000  1.0 -0.1421232297
C  C118  1  0.90650000  0.36410000  0.37320000  1.0 -0.1421232297
C  C119  1  0.63590000  0.09350000  0.87320000  1.0 -0.1421232297
C  C120  1  0.09350000  0.63590000  0.62680000  1.0 -0.1421232297
C  C121  1  0.44390000  0.97030000  0.15320000  1.0 0.157669943
C  C122  1  0.97030000  0.44390000  0.34680000  1.0 0.157669943
C  C123  1  0.55610000  0.02970000  0.84680000  1.0 0.157669943
C  C124  1  0.02970000  0.55610000  0.65320000  1.0 0.157669943
C  C125  1  0.48190000  0.06330000  0.13380000  1.0 -0.1316907945
C  C126  1  0.06330000  0.48190000  0.36620000  1.0 -0.1316907945
C  C127  1  0.51810000  0.93670000  0.86620000  1.0 -0.1316907945
C  C128  1  0.93670000  0.51810000  0.63380000  1.0 -0.1316907945
C  C129  1  0.44050000  0.09310000  0.08870000  1.0 -0.0126566296
C  C130  1  0.09310000  0.44050000  0.41130000  1.0 -0.0126566296
C  C131  1  0.55950000  0.90690000  0.91130000  1.0 -0.0126566296
C  C132  1  0.90690000  0.55950000  0.58870000  1.0 -0.0126566296
C  C133  1  0.49280000  0.19440000  0.06820000  1.0 0.5706247912
C  C134  1  0.19440000  0.49280000  0.43180000  1.0 0.5706247912
C  C135  1  0.50720000  0.80560000  0.93180000  1.0 0.5706247912
C  C136  1  0.80560000  0.50720000  0.56820000  1.0 0.5706247912
C  C137  1  0.35930000  0.03050000  0.06220000  1.0 -0.0036341981
C  C138  1  0.03050000  0.35930000  0.43780000  1.0 -0.0036341981
C  C139  1  0.64070000  0.96950000  0.93780000  1.0 -0.0036341981
C  C140  1  0.96950000  0.64070000  0.56220000  1.0 -0.0036341981
C  C141  1  0.31320000  0.05900000  0.01160000  1.0 0.6404144393
C  C142  1  0.05900000  0.31320000  0.48840000  1.0 0.6404144393
C  C143  1  0.68680000  0.94100000  0.98840000  1.0 0.6404144393
C  C144  1  0.94100000  0.68680000  0.51160000  1.0 0.6404144393
N  N1  1  0.68970000  0.25150000  0.26970000  1.0 -0.0772516428
N  N2  1  0.25150000  0.68970000  0.23030000  1.0 -0.0772516428
N  N3  1  0.31030000  0.74850000  0.73030000  1.0 -0.0772516428
N  N4  1  0.74850000  0.31030000  0.76970000  1.0 -0.0772516428
N  N5  1  0.70770000  0.30430000  0.22780000  1.0 -0.0726174487
N  N6  1  0.30430000  0.70770000  0.27220000  1.0 -0.0726174487
N  N7  1  0.29230000  0.69570000  0.77220000  1.0 -0.0726174487
N  N8  1  0.69570000  0.29230000  0.72780000  1.0 -0.0726174487
N  N9  1  0.54050000  0.98770000  0.22850000  1.0 -0.0640475227
N  N10  1  0.98770000  0.54050000  0.27150000  1.0 -0.0640475227
N  N11  1  0.45950000  0.01230000  0.77150000  1.0 -0.0640475227
N  N12  1  0.01230000  0.45950000  0.72850000  1.0 -0.0640475227
N  N13  1  0.48540000  0.93180000  0.19770000  1.0 -0.0915756746
N  N14  1  0.93180000  0.48540000  0.30230000  1.0 -0.0915756746
N  N15  1  0.51460000  0.06820000  0.80230000  1.0 -0.0915756746
N  N16  1  0.06820000  0.51460000  0.69770000  1.0 -0.0915756746
O  O1  1  0.60473000  0.50627000  0.25456000  1.0 -0.4808393194
O  O2  1  0.50627000  0.60473000  0.24544000  1.0 -0.4808393194
O  O3  1  0.39527000  0.49373000  0.74544000  1.0 -0.4808393194
O  O4  1  0.49373000  0.39527000  0.75456000  1.0 -0.4808393194
O  O5  1  0.60660000  0.51620000  0.33547000  1.0 -0.4419492705
O  O6  1  0.51620000  0.60660000  0.16453000  1.0 -0.4419492705
O  O7  1  0.39340000  0.48380000  0.66453000  1.0 -0.4419492705
O  O8  1  0.48380000  0.39340000  0.83547000  1.0 -0.4419492705
O  O9  1  0.44121000  0.34199000  0.36977000  1.0 -0.3578180445
O  O10  1  0.34199000  0.44121000  0.13023000  1.0 -0.3578180445
O  O11  1  0.55879000  0.65801000  0.63023000  1.0 -0.3578180445
O  O12  1  0.65801000  0.55879000  0.86977000  1.0 -0.3578180445
O  O13  1  0.55130000  0.37070000  0.43723000  1.0 -0.5185420586
O  O14  1  0.37070000  0.55130000  0.06277000  1.0 -0.5185420586
O  O15  1  0.44870000  0.62930000  0.56277000  1.0 -0.5185420586
O  O16  1  0.62930000  0.44870000  0.93723000  1.0 -0.5185420586
O  O17  1  0.46158000  0.17622000  0.43065000  1.0 -0.4808393194
O  O18  1  0.17622000  0.46158000  0.06935000  1.0 -0.4808393194
O  O19  1  0.53842000  0.82378000  0.56935000  1.0 -0.4808393194
O  O20  1  0.82378000  0.53842000  0.93065000  1.0 -0.4808393194
O  O21  1  0.57267000  0.13533000  0.45005000  1.0 -0.5655931307
O  O22  1  0.13533000  0.57267000  0.04995000  1.0 -0.5655931307
O  O23  1  0.42733000  0.86467000  0.54995000  1.0 -0.5655931307
O  O24  1  0.86467000  0.42733000  0.95005000  1.0 -0.5655931307
O  O25  1  0.94291000  0.44389000  0.06716000  1.0 -0.4917852952
O  O26  1  0.44389000  0.94291000  0.43284000  1.0 -0.4917852952
O  O27  1  0.05709000  0.55611000  0.93284000  1.0 -0.4917852952
O  O28  1  0.55611000  0.05709000  0.56716000  1.0 -0.4917852952
O  O29  1  0.82087000  0.46833000  0.05220000  1.0 -0.5596963836
O  O30  1  0.46833000  0.82087000  0.44780000  1.0 -0.5596963836
O  O31  1  0.17913000  0.53167000  0.94780000  1.0 -0.5596963836
O  O32  1  0.53167000  0.17913000  0.55220000  1.0 -0.5596963836
O  O33  1  0.82624000  0.26036000  0.03024000  1.0 -0.5027984007
O  O34  1  0.26036000  0.82624000  0.46976000  1.0 -0.5027984007
O  O35  1  0.17376000  0.73964000  0.96976000  1.0 -0.5027984007
O  O36  1  0.73964000  0.17376000  0.53024000  1.0 -0.5027984007
O  O37  1  0.93304000  0.24376000  0.09173000  1.0 -0.4332506134
O  O38  1  0.24376000  0.93304000  0.40827000  1.0 -0.4332506134
O  O39  1  0.06696000  0.75624000  0.90827000  1.0 -0.4332506134
O  O40  1  0.75624000  0.06696000  0.59173000  1.0 -0.4332506134
O  O41  1  0.75194000  0.06286000  0.11424000  1.0 -0.5596963836
O  O42  1  0.06286000  0.75194000  0.38576000  1.0 -0.5596963836
O  O43  1  0.24806000  0.93714000  0.88576000  1.0 -0.5596963836
O  O44  1  0.93714000  0.24806000  0.61424000  1.0 -0.5596963836
O  O45  1  0.77810000  0.05130000  0.20062000  1.0 -0.5027984007
O  O46  1  0.05130000  0.77810000  0.29938000  1.0 -0.5027984007
O  O47  1  0.22190000  0.94870000  0.79938000  1.0 -0.5027984007
O  O48  1  0.94870000  0.22190000  0.70062000  1.0 -0.5027984007
O  O49  1  0.66747000  0.04493000  0.40995000  1.0 -0.5091508849
O  O50  1  0.04493000  0.66747000  0.09005000  1.0 -0.5091508849
O  O51  1  0.33253000  0.95507000  0.59005000  1.0 -0.5091508849
O  O52  1  0.95507000  0.33253000  0.90995000  1.0 -0.5091508849
O  O53  1  0.67848000  0.91972000  0.45147000  1.0 -0.5091508849
O  O54  1  0.91972000  0.67848000  0.04853000  1.0 -0.5091508849
O  O55  1  0.32152000  0.08028000  0.54853000  1.0 -0.5091508849
O  O56  1  0.08028000  0.32152000  0.95147000  1.0 -0.5091508849
O  O57  1  0.79220000  0.85820000  0.40660000  1.0 -0.5275936399
O  O58  1  0.85820000  0.79220000  0.09340000  1.0 -0.5275936399
O  O59  1  0.20780000  0.14180000  0.59340000  1.0 -0.5275936399
O  O60  1  0.14180000  0.20780000  0.90660000  1.0 -0.5275936399
O  O61  1  0.65252000  0.74908000  0.42567000  1.0 -0.4419492705
O  O62  1  0.74908000  0.65252000  0.07433000  1.0 -0.4419492705
O  O63  1  0.34748000  0.25092000  0.57433000  1.0 -0.4419492705
O  O64  1  0.25092000  0.34748000  0.92567000  1.0 -0.4419492705
O  O65  1  0.68746000  0.72314000  0.33097000  1.0 -0.3711537344
O  O66  1  0.72314000  0.68746000  0.16903000  1.0 -0.3711537344
O  O67  1  0.31254000  0.27686000  0.66903000  1.0 -0.3711537344
O  O68  1  0.27686000  0.31254000  0.83097000  1.0 -0.3711537344
O  O69  1  0.66488000  0.76472000  0.24732000  1.0 -0.472790025
O  O70  1  0.76472000  0.66488000  0.25268000  1.0 -0.472790025
O  O71  1  0.33512000  0.23528000  0.75268000  1.0 -0.472790025
O  O72  1  0.23528000  0.33512000  0.74732000  1.0 -0.472790025
O  O73  1  0.22147000  0.78433000  0.06624000  1.0 -0.5091508849
O  O74  1  0.78433000  0.22147000  0.43376000  1.0 -0.5091508849
O  O75  1  0.77853000  0.21567000  0.93376000  1.0 -0.5091508849
O  O76  1  0.21567000  0.77853000  0.56624000  1.0 -0.5091508849
O  O77  1  0.16977000  0.88563000  0.03460000  1.0 -0.5091508849
O  O78  1  0.88563000  0.16977000  0.46540000  1.0 -0.5091508849
O  O79  1  0.83023000  0.11437000  0.96540000  1.0 -0.5091508849
O  O80  1  0.11437000  0.83023000  0.53460000  1.0 -0.5091508849
O  O81  1  0.31424000  0.03276000  0.97141000  1.0 -0.4917852952
O  O82  1  0.03276000  0.31424000  0.52859000  1.0 -0.4917852952
O  O83  1  0.68576000  0.96724000  0.02859000  1.0 -0.4917852952
O  O84  1  0.96724000  0.68576000  0.47141000  1.0 -0.4917852952
O  O85  1  0.27523000  0.10457000  0.01510000  1.0 -0.5275936399
O  O86  1  0.10457000  0.27523000  0.48490000  1.0 -0.5275936399
O  O87  1  0.72477000  0.89543000  0.98490000  1.0 -0.5275936399
O  O88  1  0.89543000  0.72477000  0.51510000  1.0 -0.5275936399
O  O89  1  0.48429000  0.21511000  0.01926000  1.0 -0.5275936399
O  O90  1  0.21511000  0.48429000  0.48074000  1.0 -0.5275936399
O  O91  1  0.51571000  0.78489000  0.98074000  1.0 -0.5275936399
O  O92  1  0.78489000  0.51571000  0.51926000  1.0 -0.5275936399
O  O93  1  0.54300000  0.24860000  0.10017000  1.0 -0.4808393194
O  O94  1  0.24860000  0.54300000  0.39983000  1.0 -0.4808393194
O  O95  1  0.45700000  0.75140000  0.89983000  1.0 -0.4808393194
O  O96  1  0.75140000  0.45700000  0.60017000  1.0 -0.4808393194
O  O97  1  0.61587000  0.99393000  0.50954000  1.0 -0.8427661134
O  O98  1  0.99393000  0.61587000  0.99046000  1.0 -0.8427661134
O  O99  1  0.38413000  0.00607000  0.49046000  1.0 -0.8427661134
O  O100  1  0.00607000  0.38413000  0.00954000  1.0 -0.8427661134
O  O101  1  0.82200000  0.70680000  0.41160000  1.0 -0.6833864076
O  O102  1  0.70680000  0.82200000  0.08840000  1.0 -0.6833864076
O  O103  1  0.17800000  0.29320000  0.58840000  1.0 -0.6833864076
O  O104  1  0.29320000  0.17800000  0.91160000  1.0 -0.6833864076
O  O105  1  0.99850000  0.87870000  0.43050000  1.0 -0.6895451321
O  O106  1  0.87870000  0.99850000  0.06950000  1.0 -0.6895451321
O  O107  1  0.00150000  0.12130000  0.56950000  1.0 -0.6895451321
O  O108  1  0.12130000  0.00150000  0.93050000  1.0 -0.6895451321
