# DDEC6 charges by PACMAN v1.1 (https://github.com/mtap-research/PACMAN-charge/)
data_JUJRIS_ASR_pacman
_symmetry_space_group_name_H-M   'P 1'
_cell_length_a   14.39140000
_cell_length_b   14.39140000
_cell_length_c   11.08730000
_cell_angle_alpha   81.77480000
_cell_angle_beta   98.22520000
_cell_angle_gamma   152.33500000
_symmetry_Int_Tables_number   1
_chemical_formula_structural   SrC23O4
_chemical_formula_sum   'Sr2 C46 O8'
_cell_volume   1054.54665431
_cell_formula_units_Z   2
loop_
 _symmetry_equiv_pos_site_id
 _symmetry_equiv_pos_as_xyz
  1  'x, y, z'
loop_
 _atom_site_type_symbol
 _atom_site_label
 _atom_site_symmetry_multiplicity
 _atom_site_fract_x
 _atom_site_fract_y
 _atom_site_fract_z
 _atom_site_occupancy
 _atom_site_charge
Sr  Sr1  1  0.25998000  0.74002000  0.09687000  1.0 1.3850202993
Sr  Sr2  1  0.74002000  0.25998000  0.90313000  1.0 1.3850202993
C  C1  1  0.07660000  0.24200000  0.36110000  1.0 -0.0164481632
C  C2  1  0.03460000  0.29020000  0.28670000  1.0 0.0112921507
C  C3  1  0.04750000  0.27390000  0.21930000  1.0 0.0225012749
C  C4  1  0.09010000  0.22450000  0.29100000  1.0 -0.0164481632
C  C5  1  0.90540000  0.77060000  0.36990000  1.0 -0.0481097659
C  C6  1  0.93210000  0.75230000  0.24200000  1.0 0.0303103616
C  C7  1  0.89130000  0.79210000  0.30430000  1.0 -0.0126594921
C  C8  1  0.94160000  0.72840000  0.30750000  1.0 0.0303103616
C  C9  1  0.24200000  0.07660000  0.63890000  1.0 -0.0164481632
C  C10  1  0.29020000  0.03460000  0.71330000  1.0 0.0112921507
C  C11  1  0.27390000  0.04750000  0.78070000  1.0 0.0225012749
C  C12  1  0.22450000  0.09010000  0.70900000  1.0 -0.0164481632
C  C13  1  0.77060000  0.90540000  0.63010000  1.0 -0.0481097659
C  C14  1  0.75230000  0.93210000  0.75800000  1.0 0.0303103616
C  C15  1  0.79210000  0.89130000  0.69570000  1.0 -0.0126594921
C  C16  1  0.72840000  0.94160000  0.69250000  1.0 0.0303103616
C  C17  1  0.92340000  0.75800000  0.63890000  1.0 -0.0164481632
C  C18  1  0.96540000  0.70980000  0.71330000  1.0 0.0112921507
C  C19  1  0.95250000  0.72610000  0.78070000  1.0 0.0225012749
C  C20  1  0.90990000  0.77550000  0.70900000  1.0 -0.0126594921
C  C21  1  0.09460000  0.22940000  0.63010000  1.0 -0.0481097659
C  C22  1  0.06790000  0.24770000  0.75800000  1.0 0.0303103616
C  C23  1  0.10870000  0.20790000  0.69570000  1.0 -0.0126594921
C  C24  1  0.05840000  0.27160000  0.69250000  1.0 0.0303103616
C  C25  1  0.75800000  0.92340000  0.36110000  1.0 -0.0164481632
C  C26  1  0.70980000  0.96540000  0.28670000  1.0 0.0112921507
C  C27  1  0.72610000  0.95250000  0.21930000  1.0 0.0225012749
C  C28  1  0.77550000  0.90990000  0.29100000  1.0 -0.0164481632
C  C29  1  0.22940000  0.09460000  0.36990000  1.0 -0.0481097659
C  C30  1  0.24770000  0.06790000  0.24200000  1.0 0.0303103616
C  C31  1  0.20790000  0.10870000  0.30430000  1.0 -0.0126594921
C  C32  1  0.27160000  0.05840000  0.30750000  1.0 0.0303103616
C  C33  1  0.80832000  0.19168000  0.13760000  1.0 0.6131595806
C  C34  1  0.85696000  0.14304000  0.21820000  1.0 -0.0481097659
C  C35  1  0.16290000  0.83710000  0.18180000  1.0 0.5514592068
C  C36  1  0.94760000  0.05240000  0.36260000  1.0 0.0225012749
C  C37  1  0.11750000  0.88250000  0.24140000  1.0 -0.0573432422
C  C38  1  0.03897000  0.96103000  0.36700000  1.0 0.0225012749
C  C39  1  0.99666000  0.00334000  0.43850000  1.0 0.0303103616
C  C40  1  0.19168000  0.80832000  0.86240000  1.0 0.6131595806
C  C41  1  0.14304000  0.85696000  0.78180000  1.0 -0.0481097659
C  C42  1  0.83710000  0.16290000  0.81820000  1.0 0.5514592068
C  C43  1  0.05240000  0.94760000  0.63740000  1.0 0.0225012749
C  C44  1  0.88250000  0.11750000  0.75860000  1.0 -0.0573432422
C  C45  1  0.96103000  0.03897000  0.63300000  1.0 0.0225012749
C  C46  1  0.00334000  0.99666000  0.56150000  1.0 0.0303103616
O  O1  1  0.62918000  0.05102000  0.10480000  1.0 -0.6710372134
O  O2  1  0.34161000  0.97819000  0.16120000  1.0 -0.5904080137
O  O3  1  0.05102000  0.62918000  0.89520000  1.0 -0.6710372134
O  O4  1  0.97819000  0.34161000  0.83880000  1.0 -0.5904080137
O  O5  1  0.37082000  0.94898000  0.89520000  1.0 -0.6710372134
O  O6  1  0.65839000  0.02181000  0.83880000  1.0 -0.5904080137
O  O7  1  0.94898000  0.37082000  0.10480000  1.0 -0.6710372134
O  O8  1  0.02181000  0.65839000  0.16120000  1.0 -0.5904080137
