# DDEC6 charges by PACMAN v1.1 (https://github.com/mtap-research/PACMAN-charge/)
data_JUJTAL_ASR_pacman
_symmetry_space_group_name_H-M   'P 1'
_cell_length_a   10.03450000
_cell_length_b   15.28520000
_cell_length_c   18.42100000
_cell_angle_alpha   112.26800000
_cell_angle_beta   87.02400000
_cell_angle_gamma   102.63900000
_symmetry_Int_Tables_number   1
_chemical_formula_structural   CoH18C28(N2O3)2
_chemical_formula_sum   'Co3 H54 C84 N12 O18'
_cell_volume   2549.82410038
_cell_formula_units_Z   3
loop_
 _symmetry_equiv_pos_site_id
 _symmetry_equiv_pos_as_xyz
  1  'x, y, z'
loop_
 _atom_site_type_symbol
 _atom_site_label
 _atom_site_symmetry_multiplicity
 _atom_site_fract_x
 _atom_site_fract_y
 _atom_site_fract_z
 _atom_site_occupancy
 _atom_site_charge
Co  Co1  1  0.13828000  0.98040000  0.56713000  1.0 0.8375238929
Co  Co2  1  0.86172000  0.01960000  0.43287000  1.0 0.8375238929
Co  Co3  1  0.50000000  0.00000000  0.00000000  1.0 0.8231630777
H  H1  1  0.54930000  0.33680000  0.25520000  1.0 0.286339872
H  H2  1  0.45070000  0.66320000  0.74480000  1.0 0.286339872
H  H3  1  0.39200000  0.99100000  0.42830000  1.0 0.1366386493
H  H4  1  0.60800000  0.00900000  0.57170000  1.0 0.1366386493
H  H5  1  0.09810000  0.63980000  0.32150000  1.0 0.2773958896
H  H6  1  0.90190000  0.36020000  0.67850000  1.0 0.2773958896
H  H7  1  0.08470000  0.28260000  0.83080000  1.0 0.286339872
H  H8  1  0.91530000  0.71740000  0.16920000  1.0 0.286339872
H  H9  1  0.16390000  0.97660000  0.24910000  1.0 0.1206561469
H  H10  1  0.83610000  0.02340000  0.75090000  1.0 0.1206561469
H  H11  1  0.63890000  0.44280000  0.37000000  1.0 0.1206561469
H  H12  1  0.36110000  0.55720000  0.63000000  1.0 0.1206561469
H  H13  1  0.11280000  0.79120000  0.41630000  1.0 0.1206561469
H  H14  1  0.88720000  0.20880000  0.58370000  1.0 0.1206561469
H  H15  1  0.38310000  0.50720000  0.99030000  1.0 0.1206561469
H  H16  1  0.61690000  0.49280000  0.00970000  1.0 0.1206561469
H  H17  1  0.57070000  0.00020000  0.22910000  1.0 0.1206561469
H  H18  1  0.42930000  0.99980000  0.77090000  1.0 0.1206561469
H  H19  1  0.34630000  0.55350000  0.12160000  1.0 0.1283707195
H  H20  1  0.65370000  0.44650000  0.87840000  1.0 0.1283707195
H  H21  1  0.11180000  0.13980000  0.72100000  1.0 0.1283707195
H  H22  1  0.88820000  0.86020000  0.27900000  1.0 0.1283707195
H  H23  1  0.19170000  0.55440000  0.23050000  1.0 0.1206561469
H  H24  1  0.80830000  0.44560000  0.76950000  1.0 0.1206561469
H  H25  1  0.25220000  0.53470000  0.50290000  1.0 0.1206561469
H  H26  1  0.74780000  0.46530000  0.49710000  1.0 0.1206561469
H  H27  1  0.24340000  0.16470000  0.52470000  1.0 0.1119168852
H  H28  1  0.75660000  0.83530000  0.47530000  1.0 0.1119168852
H  H29  1  0.51640000  0.18220000  0.15420000  1.0 0.1283707195
H  H30  1  0.48360000  0.81780000  0.84580000  1.0 0.1283707195
H  H31  1  0.26340000  0.49780000  0.37080000  1.0 0.1206561469
H  H32  1  0.73660000  0.50220000  0.62920000  1.0 0.1206561469
H  H33  1  0.26110000  0.40410000  0.71910000  1.0 0.1206561469
H  H34  1  0.73890000  0.59590000  0.28090000  1.0 0.1206561469
H  H35  1  0.46220000  0.41020000  0.11060000  1.0 0.1283707195
H  H36  1  0.53780000  0.58980000  0.88940000  1.0 0.1283707195
H  H37  1  0.99880000  0.34920000  0.94020000  1.0 0.1206561469
H  H38  1  0.00120000  0.65080000  0.05980000  1.0 0.1206561469
H  H39  1  0.03640000  0.82570000  0.63480000  1.0 0.1206561469
H  H40  1  0.96360000  0.17430000  0.36520000  1.0 0.1206561469
H  H41  1  0.96740000  0.55720000  0.46930000  1.0 0.1206561469
H  H42  1  0.03260000  0.44280000  0.53070000  1.0 0.1206561469
H  H43  1  0.29650000  0.33010000  0.58520000  1.0 0.1283707195
H  H44  1  0.70350000  0.66990000  0.41480000  1.0 0.1283707195
H  H45  1  0.96510000  0.66140000  0.60030000  1.0 0.1283707195
H  H46  1  0.03490000  0.33860000  0.39970000  1.0 0.1283707195
H  H47  1  0.80500000  0.40180000  0.18290000  1.0 0.1206561469
H  H48  1  0.19500000  0.59820000  0.81710000  1.0 0.1206561469
H  H49  1  0.42550000  0.30860000  0.97920000  1.0 0.1283707195
H  H50  1  0.57450000  0.69140000  0.02080000  1.0 0.1283707195
H  H51  1  0.43980000  0.14990000  0.93860000  1.0 0.1119168852
H  H52  1  0.56020000  0.85010000  0.06140000  1.0 0.1119168852
H  H53  1  0.84030000  0.35100000  0.05160000  1.0 0.1283707195
H  H54  1  0.15970000  0.64900000  0.94840000  1.0 0.1283707195
C  C1  1  0.38580000  0.99180000  0.37782000  1.0 -0.1221224438
C  C2  1  0.61420000  0.00820000  0.62218000  1.0 -0.1221224438
C  C3  1  0.25950000  0.98780000  0.34695000  1.0 -0.0374721247
C  C4  1  0.74050000  0.01220000  0.65305000  1.0 -0.0374721247
C  C5  1  0.24950000  0.98160000  0.27050000  1.0 -0.1221224438
C  C6  1  0.75050000  0.01840000  0.72950000  1.0 -0.1221224438
C  C7  1  0.50250000  0.99710000  0.33417000  1.0 -0.0120311683
C  C8  1  0.49750000  0.00290000  0.66583000  1.0 -0.0120311683
C  C9  1  0.55940000  0.48680000  0.47980000  1.0 0.0836895734
C  C10  1  0.44060000  0.51320000  0.52020000  1.0 0.0836895734
C  C11  1  0.13630000  0.99180000  0.39679000  1.0 0.5623914306
C  C12  1  0.86370000  0.00820000  0.60321000  1.0 0.5623914306
C  C13  1  0.14720000  0.48300000  0.11310000  1.0 0.0875232746
C  C14  1  0.85280000  0.51700000  0.88690000  1.0 0.0875232746
C  C15  1  0.36420000  0.98260000  0.22490000  1.0 -0.0285935889
C  C16  1  0.63580000  0.01740000  0.77510000  1.0 -0.0285935889
C  C17  1  0.56140000  0.46120000  0.39720000  1.0 -0.1857350613
C  C18  1  0.43860000  0.53880000  0.60280000  1.0 -0.1857350613
C  C19  1  0.45280000  0.46300000  0.35690000  1.0 -0.0229145768
C  C20  1  0.54720000  0.53700000  0.64310000  1.0 -0.0229145768
C  C21  1  0.08140000  0.76420000  0.45380000  1.0 -0.0374721247
C  C22  1  0.91860000  0.23580000  0.54620000  1.0 -0.0374721247
C  C23  1  0.44730000  0.43460000  0.26940000  1.0 0.4602235038
C  C24  1  0.55270000  0.56540000  0.73060000  1.0 0.4602235038
C  C25  1  0.19370000  0.42160000  0.95230000  1.0 -0.0285935889
C  C26  1  0.80630000  0.57840000  0.04770000  1.0 -0.0285935889
C  C27  1  0.63880000  0.00750000  0.36907000  1.0 0.5283141588
C  C28  1  0.36120000  0.99250000  0.63093000  1.0 0.5283141588
C  C29  1  0.29740000  0.48460000  0.00750000  1.0 -0.1221224438
C  C30  1  0.70260000  0.51540000  0.99250000  1.0 -0.1221224438
C  C31  1  0.03760000  0.66520000  0.42830000  1.0 0.180039302
C  C32  1  0.96240000  0.33480000  0.57170000  1.0 0.180039302
C  C33  1  0.49170000  0.99420000  0.25810000  1.0 -0.1116613865
C  C34  1  0.50830000  0.00580000  0.74190000  1.0 -0.1116613865
C  C35  1  0.27490000  0.51300000  0.08540000  1.0 -0.1317932974
C  C36  1  0.72510000  0.48700000  0.91460000  1.0 -0.1317932974
C  C37  1  0.15160000  0.17920000  0.69350000  1.0 -0.0285935889
C  C38  1  0.84840000  0.82080000  0.30650000  1.0 -0.0285935889
C  C39  1  0.12100000  0.51370000  0.19390000  1.0 -0.1730284239
C  C40  1  0.87900000  0.48630000  0.80610000  1.0 -0.1730284239
C  C41  1  0.35350000  0.96960000  0.14020000  1.0 0.5623914306
C  C42  1  0.64650000  0.03040000  0.85980000  1.0 0.5623914306
C  C43  1  0.33060000  0.51640000  0.47680000  1.0 -0.1415276324
C  C44  1  0.66940000  0.48360000  0.52320000  1.0 -0.1415276324
C  C45  1  0.22750000  0.19340000  0.57840000  1.0 0.0698044398
C  C46  1  0.77250000  0.80660000  0.42160000  1.0 0.0698044398
C  C47  1  0.49770000  0.20840000  0.11820000  1.0 -0.0285935889
C  C48  1  0.50230000  0.79160000  0.88180000  1.0 -0.0285935889
C  C49  1  0.04050000  0.42110000  0.05790000  1.0 0.0836895734
C  C50  1  0.95950000  0.57890000  0.94210000  1.0 0.0836895734
C  C51  1  0.48760000  0.30480000  0.14700000  1.0 0.1859878157
C  C52  1  0.51240000  0.69520000  0.85300000  1.0 0.1859878157
C  C53  1  0.18310000  0.27770000  0.73420000  1.0 0.180039302
C  C54  1  0.81690000  0.72230000  0.26580000  1.0 0.180039302
C  C55  1  0.99630000  0.48600000  0.22010000  1.0 -0.0285935889
C  C56  1  0.00370000  0.51400000  0.77990000  1.0 -0.0285935889
C  C57  1  0.23360000  0.39470000  0.86810000  1.0 0.4544163798
C  C58  1  0.76640000  0.60530000  0.13190000  1.0 0.4544163798
C  C59  1  0.33650000  0.49350000  0.39830000  1.0 -0.1221224438
C  C60  1  0.66350000  0.50650000  0.60170000  1.0 -0.1221224438
C  C61  1  0.97030000  0.52060000  0.30620000  1.0 0.4602235038
C  C62  1  0.02970000  0.47940000  0.69380000  1.0 0.4602235038
C  C63  1  0.23860000  0.33640000  0.69360000  1.0 -0.1317932974
C  C64  1  0.76140000  0.66360000  0.30640000  1.0 -0.1317932974
C  C65  1  0.46460000  0.34440000  0.09410000  1.0 -0.1116613865
C  C66  1  0.53540000  0.65560000  0.90590000  1.0 -0.1116613865
C  C67  1  0.06810000  0.39110000  0.97740000  1.0 -0.1800045069
C  C68  1  0.93190000  0.60890000  0.02260000  1.0 -0.1800045069
C  C69  1  0.03780000  0.78480000  0.58180000  1.0 0.0836895734
C  C70  1  0.96220000  0.21520000  0.41820000  1.0 0.0836895734
C  C71  1  0.99500000  0.62460000  0.48400000  1.0 -0.1415276324
C  C72  1  0.00500000  0.37540000  0.51600000  1.0 -0.1415276324
C  C73  1  0.25980000  0.29220000  0.61440000  1.0 -0.1221224438
C  C74  1  0.74020000  0.70780000  0.38560000  1.0 -0.1221224438
C  C75  1  0.99470000  0.68650000  0.56150000  1.0 -0.1221224438
C  C76  1  0.00530000  0.31350000  0.43850000  1.0 -0.1221224438
C  C77  1  0.89090000  0.42280000  0.16510000  1.0 -0.1116613865
C  C78  1  0.10910000  0.57720000  0.83490000  1.0 -0.1116613865
C  C79  1  0.44510000  0.28420000  0.01640000  1.0 -0.1317932974
C  C80  1  0.55490000  0.71580000  0.98360000  1.0 -0.1317932974
C  C81  1  0.45400000  0.18930000  0.99220000  1.0 0.0698044398
C  C82  1  0.54600000  0.81070000  0.00780000  1.0 0.0698044398
C  C83  1  0.91220000  0.39230000  0.08710000  1.0 -0.1415276324
C  C84  1  0.08780000  0.60770000  0.91290000  1.0 -0.1415276324
N  N1  1  0.08160000  0.82420000  0.52898000  1.0 -0.2091678078
N  N2  1  0.91840000  0.17580000  0.47102000  1.0 -0.2091678078
N  N3  1  0.17400000  0.13600000  0.61738000  1.0 -0.2157134782
N  N4  1  0.82600000  0.86400000  0.38262000  1.0 -0.2157134782
N  N5  1  0.50180000  0.35640000  0.22857000  1.0 -0.3638083186
N  N6  1  0.49820000  0.64360000  0.77143000  1.0 -0.3638083186
N  N7  1  0.48230000  0.15070000  0.04228000  1.0 -0.2048696275
N  N8  1  0.51770000  0.84930000  0.95772000  1.0 -0.2091678078
N  N9  1  0.04260000  0.61180000  0.34796000  1.0 -0.3711812045
N  N10  1  0.95740000  0.38820000  0.65204000  1.0 -0.3711812045
N  N11  1  0.15540000  0.31370000  0.81449000  1.0 -0.3711812045
N  N12  1  0.84460000  0.68630000  0.18551000  1.0 -0.3711812045
O  O1  1  0.46040000  0.00079000  0.11120000  1.0 -0.5742998268
O  O2  1  0.53960000  0.99921000  0.88880000  1.0 -0.5742998268
O  O3  1  0.13600000  0.96848000  0.45478000  1.0 -0.5611404921
O  O4  1  0.86400000  0.03152000  0.54522000  1.0 -0.5611404921
O  O5  1  0.74550000  0.01434000  0.33056000  1.0 -0.5501813139
O  O6  1  0.25450000  0.98566000  0.66944000  1.0 -0.5501813139
O  O7  1  0.04090000  0.01956000  0.37666000  1.0 -0.5292306687
O  O8  1  0.95910000  0.98044000  0.62334000  1.0 -0.5292306687
O  O9  1  0.64550000  0.00840000  0.43695000  1.0 -0.5144707705
O  O10  1  0.35450000  0.99160000  0.56305000  1.0 -0.5144707705
O  O11  1  0.39330000  0.47660000  0.23961000  1.0 -0.4476546492
O  O12  1  0.60670000  0.52340000  0.76039000  1.0 -0.4476546492
O  O13  1  0.33280000  0.44310000  0.85019000  1.0 -0.4476546492
O  O14  1  0.66720000  0.55690000  0.14981000  1.0 -0.4476546492
O  O15  1  0.89080000  0.47180000  0.33633000  1.0 -0.4825452115
O  O16  1  0.10920000  0.52820000  0.66367000  1.0 -0.4825452115
O  O17  1  0.24170000  0.92560000  0.10284000  1.0 -0.5828209962
O  O18  1  0.75830000  0.07440000  0.89716000  1.0 -0.5828209962
