# DDEC6 charges by PACMAN v1.1 (https://github.com/mtap-research/PACMAN-charge/)
data_JUPBUT_ion_pacman
_symmetry_space_group_name_H-M   'P 1'
_cell_length_a   9.63000000
_cell_length_b   10.09160000
_cell_length_c   11.73350000
_cell_angle_alpha   87.95800000
_cell_angle_beta   112.36200000
_cell_angle_gamma   111.81900000
_symmetry_Int_Tables_number   1
_chemical_formula_structural   PrH4C15N2O11
_chemical_formula_sum   'Pr2 H8 C30 N4 O22'
_cell_volume   971.53268596
_cell_formula_units_Z   2
loop_
 _symmetry_equiv_pos_site_id
 _symmetry_equiv_pos_as_xyz
  1  'x, y, z'
loop_
 _atom_site_type_symbol
 _atom_site_label
 _atom_site_symmetry_multiplicity
 _atom_site_fract_x
 _atom_site_fract_y
 _atom_site_fract_z
 _atom_site_occupancy
 _atom_site_charge
Pr  Pr1  1  0.29076000  0.03733000  0.97755000  1.0 2.1269143552
Pr  Pr2  1  0.70924000  0.96267000  0.02245000  1.0 2.1269143552
H  H1  1  0.29060000  0.97780000  0.22630000  1.0 0.3852088779
H  H2  1  0.70940000  0.02220000  0.77370000  1.0 0.3852088779
H  H3  1  0.19420000  0.05740000  0.18510000  1.0 0.3707785438
H  H4  1  0.80580000  0.94260000  0.81490000  1.0 0.3649285167
H  H5  1  0.18020000  0.09640000  0.70700000  1.0 0.3758873374
H  H6  1  0.81980000  0.90360000  0.29300000  1.0 0.3758873374
H  H7  1  0.03560000  0.00930000  0.71670000  1.0 0.3707785438
H  H8  1  0.96440000  0.99070000  0.28330000  1.0 0.3707785438
C  C1  1  0.43910000  0.75260000  0.08180000  1.0 0.6541424424
C  C2  1  0.56090000  0.24740000  0.91820000  1.0 0.6541424424
C  C3  1  0.30700000  0.63670000  0.10760000  1.0 -0.0328983867
C  C4  1  0.69300000  0.36330000  0.89240000  1.0 -0.0328983867
C  C5  1  0.22390000  0.67450000  0.16620000  1.0 -0.0017822639
C  C6  1  0.77610000  0.32550000  0.83380000  1.0 -0.0058459843
C  C7  1  0.10250000  0.56870000  0.19150000  1.0 0.0369433473
C  C8  1  0.89750000  0.43130000  0.80850000  1.0 0.0369433473
C  C9  1  0.06060000  0.42390000  0.15800000  1.0 -0.0017822639
C  C10  1  0.93940000  0.57610000  0.84200000  1.0 -0.0017822639
C  C11  1  0.14320000  0.38670000  0.09720000  1.0 -0.0636298031
C  C12  1  0.85680000  0.61330000  0.90280000  1.0 -0.0636298031
C  C13  1  0.26530000  0.49270000  0.07130000  1.0 0.1056556135
C  C14  1  0.73470000  0.50730000  0.92870000  1.0 0.1056556135
C  C15  1  0.09440000  0.23060000  0.05690000  1.0 0.683842513
C  C16  1  0.90560000  0.76940000  0.94310000  1.0 0.683842513
C  C17  1  0.00710000  0.61030000  0.25230000  1.0 0.0185764932
C  C18  1  0.99290000  0.38970000  0.74770000  1.0 0.0185764932
C  C19  1  0.24750000  0.66190000  0.45290000  1.0 0.1819645196
C  C20  1  0.75250000  0.33810000  0.54710000  1.0 0.1819645196
C  C21  1  0.32460000  0.71100000  0.57950000  1.0 -0.0328983867
C  C22  1  0.67540000  0.28900000  0.42050000  1.0 -0.0328983867
C  C23  1  0.24670000  0.75280000  0.63760000  1.0 0.0287085727
C  C24  1  0.75330000  0.24720000  0.36240000  1.0 0.0287085727
C  C25  1  0.08640000  0.73960000  0.57130000  1.0 -0.0361883369
C  C26  1  0.91360000  0.26040000  0.42870000  1.0 -0.0361883369
C  C27  1  0.01150000  0.68790000  0.44540000  1.0 0.1562508747
C  C28  1  0.98850000  0.31210000  0.55460000  1.0 0.1562508747
C  C29  1  0.33640000  0.81920000  0.77420000  1.0 0.6638554066
C  C30  1  0.66360000  0.18080000  0.22580000  1.0 0.6638554066
N  N1  1  0.09480000  0.65260000  0.38930000  1.0 0.0287085727
N  N2  1  0.90520000  0.34740000  0.61070000  1.0 0.0287085727
N  N3  1  0.70990000  0.90530000  0.52710000  1.0 0.7278582782
N  N4  1  0.29010000  0.09470000  0.47290000  1.0 0.7278582782
O  O1  1  0.47650000  0.82710000  0.82700000  1.0 -0.6074892551
O  O2  1  0.52350000  0.17290000  0.17300000  1.0 -0.6074892551
O  O3  1  0.25350000  0.85770000  0.81640000  1.0 -0.6466581494
O  O4  1  0.74650000  0.14230000  0.18360000  1.0 -0.6466581494
O  O5  1  0.54930000  0.72020000  0.06880000  1.0 -0.5998339921
O  O6  1  0.45070000  0.27980000  0.93120000  1.0 -0.5998339921
O  O7  1  0.44220000  0.87820000  0.07500000  1.0 -0.7199502856
O  O8  1  0.55780000  0.12180000  0.92500000  1.0 -0.7199502856
O  O9  1  0.16930000  0.20120000  0.00000000  1.0 -0.6360085279
O  O10  1  0.83070000  0.79880000  0.00000000  1.0 -0.6360085279
O  O11  1  0.98350000  0.13880000  0.08180000  1.0 -0.6466581494
O  O12  1  0.01650000  0.86120000  0.91820000  1.0 -0.6466581494
O  O13  1  0.21290000  0.98740000  0.16540000  1.0 -0.7503547341
O  O14  1  0.78710000  0.01260000  0.83460000  1.0 -0.7503547341
O  O15  1  0.12380000  0.08260000  0.75040000  1.0 -0.735688743
O  O16  1  0.87620000  0.91740000  0.24960000  1.0 -0.735688743
O  O17  1  0.66100000  0.98500000  0.57090000  1.0 -0.4564217001
O  O18  1  0.79500000  0.84200000  0.60100000  1.0 -0.4770799994
O  O19  1  0.67300000  0.88700000  0.41050000  1.0 -0.4657944411
O  O20  1  0.33900000  0.01500000  0.42910000  1.0 -0.4564217001
O  O21  1  0.20500000  0.15800000  0.39900000  1.0 -0.4770799994
O  O22  1  0.32700000  0.11300000  0.58950000  1.0 -0.4657944411
