# DDEC6 charges by PACMAN v1.1 (https://github.com/mtap-research/PACMAN-charge/)
data_JUPNAL_ASR_pacman
_symmetry_space_group_name_H-M   'P 1'
_cell_length_a   9.92795000
_cell_length_b   9.92795000
_cell_length_c   19.10100000
_cell_angle_alpha   63.15800000
_cell_angle_beta   116.84200000
_cell_angle_gamma   139.48900000
_symmetry_Int_Tables_number   1
_chemical_formula_structural   SrCoH6C14(NO4)2
_chemical_formula_sum   'Sr2 Co2 H12 C28 N4 O16'
_cell_volume   1072.00798131
_cell_formula_units_Z   2
loop_
 _symmetry_equiv_pos_site_id
 _symmetry_equiv_pos_as_xyz
  1  'x, y, z'
loop_
 _atom_site_type_symbol
 _atom_site_label
 _atom_site_symmetry_multiplicity
 _atom_site_fract_x
 _atom_site_fract_y
 _atom_site_fract_z
 _atom_site_occupancy
 _atom_site_charge
Sr  Sr1  1  0.98736000  0.98736000  0.75000000  1.0 1.4532731116
Sr  Sr2  1  0.01264000  0.01264000  0.25000000  1.0 1.4532731116
Co  Co1  1  0.50000000  0.50000000  0.50000000  1.0 0.8402749538
Co  Co2  1  0.50000000  0.50000000  0.00000000  1.0 0.8402749538
H  H1  1  0.36580000  0.79080000  0.57880000  1.0 0.1329324409
H  H2  1  0.79080000  0.36580000  0.92120000  1.0 0.1329324409
H  H3  1  0.63420000  0.20920000  0.42120000  1.0 0.1329324409
H  H4  1  0.20920000  0.63420000  0.07880000  1.0 0.1329324409
H  H5  1  0.06200000  0.68360000  0.35520000  1.0 0.114398399
H  H6  1  0.68360000  0.06200000  0.14480000  1.0 0.114398399
H  H7  1  0.93800000  0.31640000  0.64480000  1.0 0.114398399
H  H8  1  0.31640000  0.93800000  0.85520000  1.0 0.114398399
H  H9  1  0.19420000  0.55900000  0.36650000  1.0 0.1237649262
H  H10  1  0.55900000  0.19420000  0.13350000  1.0 0.1237649262
H  H11  1  0.80580000  0.44100000  0.63350000  1.0 0.1237649262
H  H12  1  0.44100000  0.80580000  0.86650000  1.0 0.1237649262
C  C1  1  0.40431000  0.67029000  0.53703000  1.0 0.0954258234
C  C2  1  0.67029000  0.40431000  0.96297000  1.0 0.0954258234
C  C3  1  0.59569000  0.32971000  0.46297000  1.0 0.0954258234
C  C4  1  0.32971000  0.59569000  0.03703000  1.0 0.0954258234
C  C5  1  0.32931000  0.74509000  0.53474000  1.0 -0.1214648656
C  C6  1  0.74509000  0.32931000  0.96526000  1.0 -0.1214648656
C  C7  1  0.67069000  0.25491000  0.46526000  1.0 -0.1214648656
C  C8  1  0.25491000  0.67069000  0.03474000  1.0 -0.1214648656
C  C9  1  0.19840000  0.75160000  0.46590000  1.0 0.0083540861
C  C10  1  0.75160000  0.19840000  0.03410000  1.0 0.0083540861
C  C11  1  0.80160000  0.24840000  0.53410000  1.0 0.0083540861
C  C12  1  0.24840000  0.80160000  0.96590000  1.0 0.0083540861
C  C13  1  0.14869000  0.68111000  0.40231000  1.0 -0.1561953112
C  C14  1  0.68111000  0.14869000  0.09769000  1.0 -0.1561953112
C  C15  1  0.85131000  0.31889000  0.59769000  1.0 -0.1561953112
C  C16  1  0.31889000  0.85131000  0.90231000  1.0 -0.1561953112
C  C17  1  0.22925000  0.60675000  0.40960000  1.0 0.0919980422
C  C18  1  0.60675000  0.22925000  0.09040000  1.0 0.0919980422
C  C19  1  0.77075000  0.39325000  0.59040000  1.0 0.0919980422
C  C20  1  0.39325000  0.77075000  0.90960000  1.0 0.0919980422
C  C21  1  0.55597000  0.67043000  0.60847000  1.0 0.5426633895
C  C22  1  0.67043000  0.55597000  0.89153000  1.0 0.5426633895
C  C23  1  0.44403000  0.32957000  0.39153000  1.0 0.5426633895
C  C24  1  0.32957000  0.44403000  0.10847000  1.0 0.5426633895
C  C25  1  0.11464000  0.83456000  0.46210000  1.0 0.5506514848
C  C26  1  0.83456000  0.11464000  0.03790000  1.0 0.5506514848
C  C27  1  0.88536000  0.16544000  0.53790000  1.0 0.5506514848
C  C28  1  0.16544000  0.88536000  0.96210000  1.0 0.5506514848
N  N1  1  0.35455000  0.60005000  0.47544000  1.0 -0.2504461169
N  N2  1  0.60005000  0.35455000  0.02456000  1.0 -0.2504461169
N  N3  1  0.64545000  0.39995000  0.52456000  1.0 -0.2504461169
N  N4  1  0.39995000  0.64545000  0.97544000  1.0 -0.2504461169
O  O1  1  0.62209000  0.60521000  0.60360000  1.0 -0.5428487867
O  O2  1  0.60521000  0.62209000  0.89640000  1.0 -0.5428487867
O  O3  1  0.37791000  0.39479000  0.39640000  1.0 -0.5428487867
O  O4  1  0.39479000  0.37791000  0.10360000  1.0 -0.5428487867
O  O5  1  0.60938000  0.73622000  0.66616000  1.0 -0.5684246033
O  O6  1  0.73622000  0.60938000  0.83384000  1.0 -0.5684246033
O  O7  1  0.39062000  0.26378000  0.33384000  1.0 -0.5684246033
O  O8  1  0.26378000  0.39062000  0.16616000  1.0 -0.5684246033
O  O9  1  0.99812000  0.83848000  0.39840000  1.0 -0.6425116122
O  O10  1  0.83848000  0.99812000  0.10160000  1.0 -0.6425116122
O  O11  1  0.00188000  0.16152000  0.60160000  1.0 -0.6425116122
O  O12  1  0.16152000  0.00188000  0.89840000  1.0 -0.6425116122
O  O13  1  0.16613000  0.89187000  0.52284000  1.0 -0.5248646199
O  O14  1  0.89187000  0.16613000  0.97716000  1.0 -0.5252780378
O  O15  1  0.83387000  0.10813000  0.47716000  1.0 -0.5252780378
O  O16  1  0.10813000  0.83387000  0.02284000  1.0 -0.5248646199
