# DDEC6 charges by PACMAN v1.1 (https://github.com/mtap-research/PACMAN-charge/)
data_JUSHEM_ASR_pacman
_symmetry_space_group_name_H-M   'P 1'
_cell_length_a   12.40350000
_cell_length_b   14.70040000
_cell_length_c   12.69160000
_cell_angle_alpha   90.00000000
_cell_angle_beta   114.47500000
_cell_angle_gamma   90.00000000
_symmetry_Int_Tables_number   1
_chemical_formula_structural   Mn3H16C28(NO7)2
_chemical_formula_sum   'Mn6 H32 C56 N4 O28'
_cell_volume   2106.19703194
_cell_formula_units_Z   2
loop_
 _symmetry_equiv_pos_site_id
 _symmetry_equiv_pos_as_xyz
  1  'x, y, z'
loop_
 _atom_site_type_symbol
 _atom_site_label
 _atom_site_symmetry_multiplicity
 _atom_site_fract_x
 _atom_site_fract_y
 _atom_site_fract_z
 _atom_site_occupancy
 _atom_site_charge
Mn  Mn1  1  0.73027000  0.63207000  0.51734000  1.0 1.1530259345
Mn  Mn2  1  0.26973000  0.36793000  0.48266000  1.0 1.1530259345
Mn  Mn3  1  0.76973000  0.13207000  0.98266000  1.0 1.1555646155
Mn  Mn4  1  0.23027000  0.86793000  0.01734000  1.0 1.1530259345
Mn  Mn5  1  0.50000000  0.50000000  0.50000000  1.0 1.2171337102
Mn  Mn6  1  0.00000000  0.00000000  0.00000000  1.0 1.2116604541
H  H1  1  0.39520000  0.69780000  0.69538000  1.0 0.1108334302
H  H2  1  0.60480000  0.30220000  0.30462000  1.0 0.1108334302
H  H3  1  0.10480000  0.19780000  0.80462000  1.0 0.1108334302
H  H4  1  0.89520000  0.80220000  0.19538000  1.0 0.1108334302
H  H5  1  0.52525000  0.93324000  0.91544000  1.0 0.1296425481
H  H6  1  0.47475000  0.06676000  0.08456000  1.0 0.1296425481
H  H7  1  0.97475000  0.43324000  0.58456000  1.0 0.1296425481
H  H8  1  0.02525000  0.56676000  0.41544000  1.0 0.1296425481
H  H9  1  0.74214000  0.80988000  0.76406000  1.0 0.1108334302
H  H10  1  0.25786000  0.19012000  0.23594000  1.0 0.1108334302
H  H11  1  0.75786000  0.30988000  0.73594000  1.0 0.1108334302
H  H12  1  0.24214000  0.69012000  0.26406000  1.0 0.1108334302
H  H13  1  0.39112000  0.67428000  0.18062000  1.0 0.0934930128
H  H14  1  0.60888000  0.32572000  0.81938000  1.0 0.0934930128
H  H15  1  0.10888000  0.17428000  0.31938000  1.0 0.0934930128
H  H16  1  0.89112000  0.82572000  0.68062000  1.0 0.0934930128
H  H17  1  0.38408000  0.63123000  0.98537000  1.0 0.1296425481
H  H18  1  0.61592000  0.36877000  0.01463000  1.0 0.1296425481
H  H19  1  0.11592000  0.13124000  0.51463000  1.0 0.1296425481
H  H20  1  0.88408000  0.86876000  0.48537000  1.0 0.1296425481
H  H21  1  0.64097000  0.41823000  0.15524000  1.0 0.1223801505
H  H22  1  0.35903000  0.58177000  0.84476000  1.0 0.1223801505
H  H23  1  0.85903000  0.91823000  0.34476000  1.0 0.1223801505
H  H24  1  0.14097000  0.08177000  0.65524000  1.0 0.1223801505
H  H25  1  0.64609000  0.47087000  0.34452000  1.0 0.0934930128
H  H26  1  0.35391000  0.52913000  0.65548000  1.0 0.0934930128
H  H27  1  0.85391000  0.97087000  0.15548000  1.0 0.0934930128
H  H28  1  0.14609000  0.02913000  0.84452000  1.0 0.0934930128
H  H29  1  0.52997000  0.61155000  0.37906000  1.0 0.3086709772
H  H30  1  0.47003000  0.38845000  0.62094000  1.0 0.3086709772
H  H31  1  0.97003000  0.11155000  0.12093000  1.0 0.3086709772
H  H32  1  0.02997000  0.88845000  0.87907000  1.0 0.3086709772
C  C1  1  0.57408000  0.74546000  0.72528000  1.0 -0.0424249954
C  C2  1  0.42592000  0.25454000  0.27472000  1.0 -0.0424249954
C  C3  1  0.92592000  0.24546000  0.77472000  1.0 -0.0424249954
C  C4  1  0.07408000  0.75454000  0.22528000  1.0 -0.0424249954
C  C5  1  0.46687000  0.74738000  0.74016000  1.0 -0.0775000562
C  C6  1  0.53313000  0.25262000  0.25984000  1.0 -0.0775000562
C  C7  1  0.03313000  0.24738000  0.75984000  1.0 -0.0775000562
C  C8  1  0.96687000  0.75262000  0.24016000  1.0 -0.0775000562
C  C9  1  0.45056000  0.81264000  0.81425000  1.0 -0.0318854134
C  C10  1  0.54944000  0.18736000  0.18575000  1.0 -0.0318854134
C  C11  1  0.04944000  0.31264000  0.68575000  1.0 -0.0318854134
C  C12  1  0.95056000  0.68736000  0.31425000  1.0 -0.0318854134
C  C13  1  0.53809000  0.87952000  0.86307000  1.0 -0.0775000562
C  C14  1  0.46191000  0.12048000  0.13693000  1.0 -0.0747969057
C  C15  1  0.96191000  0.37952000  0.63693000  1.0 -0.0775000562
C  C16  1  0.03809000  0.62048000  0.36307000  1.0 -0.0775000562
C  C17  1  0.64178000  0.88029000  0.84223000  1.0 -0.0424249954
C  C18  1  0.35822000  0.11971000  0.15777000  1.0 -0.0424249954
C  C19  1  0.85822000  0.38029000  0.65778000  1.0 -0.0424249954
C  C20  1  0.14178000  0.61971000  0.34222000  1.0 -0.0424249954
C  C21  1  0.65995000  0.81136000  0.77604000  1.0 -0.0896964799
C  C22  1  0.34005000  0.18864000  0.22396000  1.0 -0.0896964799
C  C23  1  0.84006000  0.31136000  0.72396000  1.0 -0.0896964799
C  C24  1  0.15994000  0.68864000  0.27604000  1.0 -0.0896964799
C  C25  1  0.59993000  0.67215000  0.65568000  1.0 0.6155821774
C  C26  1  0.40007000  0.32785000  0.34432000  1.0 0.6155821774
C  C27  1  0.90007000  0.17215000  0.84432000  1.0 0.6155821774
C  C28  1  0.09993000  0.82785000  0.15568000  1.0 0.6155821774
C  C29  1  0.33789000  0.80505000  0.83992000  1.0 0.5690116976
C  C30  1  0.66211000  0.19495000  0.16008000  1.0 0.5690116976
C  C31  1  0.16211000  0.30505000  0.66008000  1.0 0.5690116976
C  C32  1  0.83789000  0.69495000  0.33992000  1.0 0.5690116976
C  C33  1  0.76571000  0.45248000  0.60567000  1.0 0.5959915612
C  C34  1  0.23429000  0.54752000  0.39433000  1.0 0.5959915612
C  C35  1  0.73429000  0.95248000  0.89433000  1.0 0.5959915612
C  C36  1  0.26571000  0.04752000  0.10567000  1.0 0.5959915612
C  C37  1  0.44392000  0.61818000  0.16860000  1.0 0.1108334302
C  C38  1  0.55608000  0.38182000  0.83140000  1.0 0.1108334302
C  C39  1  0.05607000  0.11818000  0.33140000  1.0 0.1108334302
C  C40  1  0.94393000  0.88182000  0.66860000  1.0 0.1108334302
C  C41  1  0.44038000  0.59361000  0.06252000  1.0 -0.1723663937
C  C42  1  0.55962000  0.40639000  0.93748000  1.0 -0.1723663937
C  C43  1  0.05962000  0.09361000  0.43748000  1.0 -0.1723663937
C  C44  1  0.94038000  0.90639000  0.56252000  1.0 -0.1723663937
C  C45  1  0.50631000  0.51739000  0.05587000  1.0 0.1108334302
C  C46  1  0.49369000  0.48261000  0.94413000  1.0 0.1108334302
C  C47  1  0.99369000  0.01739000  0.44412000  1.0 0.1108334302
C  C48  1  0.00631000  0.98261000  0.55588000  1.0 0.1108334302
C  C49  1  0.58570000  0.47495000  0.15883000  1.0 -0.1596816536
C  C50  1  0.41430000  0.52505000  0.84117000  1.0 -0.1596816536
C  C51  1  0.91430000  0.97495000  0.34117000  1.0 -0.1596816536
C  C52  1  0.08570000  0.02505000  0.65883000  1.0 -0.1596816536
C  C53  1  0.58708000  0.50387000  0.26363000  1.0 0.1223801505
C  C54  1  0.41292000  0.49613000  0.73637000  1.0 0.1223801505
C  C55  1  0.91292000  0.00387000  0.23637000  1.0 0.1223801505
C  C56  1  0.08708000  0.99613000  0.76363000  1.0 0.1223801505
N  N1  1  0.51293000  0.57235000  0.26477000  1.0 -0.2180289682
N  N2  1  0.48707000  0.42765000  0.73523000  1.0 -0.2180289682
N  N3  1  0.98707000  0.07235000  0.23523000  1.0 -0.2180289682
N  N4  1  0.01293000  0.92765000  0.76477000  1.0 -0.2180289682
O  O1  1  0.69085000  0.68773000  0.62882000  1.0 -0.5807989742
O  O2  1  0.30915000  0.31227000  0.37118000  1.0 -0.5807989742
O  O3  1  0.80915000  0.18773000  0.87118000  1.0 -0.5807989742
O  O4  1  0.19085000  0.81227000  0.12882000  1.0 -0.5807989742
O  O5  1  0.53515000  0.60068000  0.63257000  1.0 -0.5369812057
O  O6  1  0.46485000  0.39932000  0.36743000  1.0 -0.5369812057
O  O7  1  0.96485000  0.10068000  0.86743000  1.0 -0.5369812057
O  O8  1  0.03515000  0.89932000  0.13257000  1.0 -0.5369812057
O  O9  1  0.25923000  0.75136000  0.77986000  1.0 -0.5369812057
O  O10  1  0.74077000  0.24864000  0.22014000  1.0 -0.5369812057
O  O11  1  0.24077000  0.25136000  0.72014000  1.0 -0.5369812057
O  O12  1  0.75923000  0.74864000  0.27986000  1.0 -0.5369812057
O  O13  1  0.33678000  0.85484000  0.92794000  1.0 -0.6308903452
O  O14  1  0.66322000  0.14516000  0.07206000  1.0 -0.6308903452
O  O15  1  0.16322000  0.35484000  0.57205000  1.0 -0.6308903452
O  O16  1  0.83678000  0.64516000  0.42795000  1.0 -0.6308903452
O  O17  1  0.80875000  0.52889000  0.58751000  1.0 -0.5260651614
O  O18  1  0.19125000  0.47111000  0.41249000  1.0 -0.5260651614
O  O19  1  0.69125000  0.02889000  0.91249000  1.0 -0.5260651614
O  O20  1  0.30875000  0.97111000  0.08751000  1.0 -0.5260651614
O  O21  1  0.65567000  0.43624000  0.58439000  1.0 -0.5369812057
O  O22  1  0.34433000  0.56376000  0.41561000  1.0 -0.5369812057
O  O23  1  0.84433000  0.93624000  0.91560000  1.0 -0.5369812057
O  O24  1  0.15567000  0.06376000  0.08440000  1.0 -0.5369812057
O  O25  1  0.58469000  0.58587000  0.46277000  1.0 -0.7252334462
O  O26  1  0.41531000  0.41413000  0.53723000  1.0 -0.7252334462
O  O27  1  0.91531000  0.08587000  0.03723000  1.0 -0.7240971829
O  O28  1  0.08469000  0.91413000  0.96277000  1.0 -0.7252334462
