# DDEC6 charges by PACMAN v1.1 (https://github.com/mtap-research/PACMAN-charge/)
data_JUTWED_ASR_pacman
_symmetry_space_group_name_H-M   'P 1'
_cell_length_a   16.17380000
_cell_length_b   16.17380000
_cell_length_c   16.17380000
_cell_angle_alpha   118.40900000
_cell_angle_beta   118.40900000
_cell_angle_gamma   92.77810000
_symmetry_Int_Tables_number   1
_chemical_formula_structural   Cd4H16C32N32Cl
_chemical_formula_sum   'Cd4 H16 C32 N32 Cl1'
_cell_volume   3059.78624669
_cell_formula_units_Z   1
loop_
 _symmetry_equiv_pos_site_id
 _symmetry_equiv_pos_as_xyz
  1  'x, y, z'
loop_
 _atom_site_type_symbol
 _atom_site_label
 _atom_site_symmetry_multiplicity
 _atom_site_fract_x
 _atom_site_fract_y
 _atom_site_fract_z
 _atom_site_occupancy
 _atom_site_charge
Cd  Cd1  1  0.82891000  0.00000000  0.82891000  1.0 0.6552181315
Cd  Cd2  1  0.00000000  0.17109000  0.17109000  1.0 0.6534964911
Cd  Cd3  1  0.17109000  0.00000000  0.17109000  1.0 0.6534964911
Cd  Cd4  1  0.00000000  0.82891000  0.82891000  1.0 0.6534964911
H  H1  1  0.48930000  0.93130000  0.83460000  1.0 0.1247173172
H  H2  1  0.93130000  0.09670000  0.44200000  1.0 0.1247173172
H  H3  1  0.09670000  0.65470000  0.16540000  1.0 0.1247173172
H  H4  1  0.65470000  0.48930000  0.55800000  1.0 0.1251200509
H  H5  1  0.51070000  0.34530000  0.44200000  1.0 0.1251200509
H  H6  1  0.34530000  0.90330000  0.83460000  1.0 0.1247173172
H  H7  1  0.90330000  0.06870000  0.55800000  1.0 0.1247173172
H  H8  1  0.06870000  0.51070000  0.16540000  1.0 0.1251200509
H  H9  1  0.51070000  0.06870000  0.16540000  1.0 0.1247173172
H  H10  1  0.06870000  0.90330000  0.55800000  1.0 0.1247173172
H  H11  1  0.90330000  0.34530000  0.83460000  1.0 0.1247173172
H  H12  1  0.34530000  0.51070000  0.44200000  1.0 0.1251200509
H  H13  1  0.48930000  0.65470000  0.55800000  1.0 0.1251200509
H  H14  1  0.65470000  0.09670000  0.16540000  1.0 0.1247173172
H  H15  1  0.09670000  0.93130000  0.44200000  1.0 0.1247173172
H  H16  1  0.93130000  0.48930000  0.83460000  1.0 0.1247173172
C  C1  1  0.58270000  0.01370000  0.00000000  1.0 0.0443079813
C  C2  1  0.01370000  0.01370000  0.43100000  1.0 0.0443079813
C  C3  1  0.01370000  0.58270000  0.00000000  1.0 0.0443079813
C  C4  1  0.58270000  0.58270000  0.56900000  1.0 0.0492047385
C  C5  1  0.41730000  0.41730000  0.43100000  1.0 0.0492047385
C  C6  1  0.41730000  0.98630000  0.00000000  1.0 0.0492047385
C  C7  1  0.98630000  0.98630000  0.56900000  1.0 0.0443079813
C  C8  1  0.98630000  0.41730000  0.00000000  1.0 0.0492047385
C  C9  1  0.49490000  0.95950000  0.90320000  1.0 -0.1238618115
C  C10  1  0.95950000  0.05630000  0.46460000  1.0 -0.1238618115
C  C11  1  0.05630000  0.59170000  0.09680000  1.0 -0.1238618115
C  C12  1  0.59170000  0.49490000  0.53540000  1.0 -0.1238618115
C  C13  1  0.50510000  0.40830000  0.46460000  1.0 -0.1238618115
C  C14  1  0.40830000  0.94370000  0.90320000  1.0 -0.1238618115
C  C15  1  0.94370000  0.04050000  0.53540000  1.0 -0.1238618115
C  C16  1  0.04050000  0.50510000  0.09680000  1.0 -0.1238618115
C  C17  1  0.50510000  0.04050000  0.09680000  1.0 -0.1238618115
C  C18  1  0.04050000  0.94370000  0.53540000  1.0 -0.1238618115
C  C19  1  0.94370000  0.40830000  0.90320000  1.0 -0.1238618115
C  C20  1  0.40830000  0.50510000  0.46460000  1.0 -0.1238618115
C  C21  1  0.49490000  0.59170000  0.53540000  1.0 -0.1238618115
C  C22  1  0.59170000  0.05630000  0.09680000  1.0 -0.1238618115
C  C23  1  0.05630000  0.95950000  0.46460000  1.0 -0.1238618115
C  C24  1  0.95950000  0.49490000  0.90320000  1.0 -0.1238618115
C  C25  1  0.67580000  0.03200000  0.00000000  1.0 0.2139437121
C  C26  1  0.03200000  0.03200000  0.35620000  1.0 0.2139437121
C  C27  1  0.03200000  0.67580000  0.00000000  1.0 0.2139437121
C  C28  1  0.67580000  0.67580000  0.64380000  1.0 0.2139437121
C  C29  1  0.32420000  0.32420000  0.35620000  1.0 0.2139437121
C  C30  1  0.32420000  0.96800000  0.00000000  1.0 0.2139437121
C  C31  1  0.96800000  0.96800000  0.64380000  1.0 0.2139437121
C  C32  1  0.96800000  0.32420000  0.00000000  1.0 0.2139437121
N  N1  1  0.76960000  0.02990000  0.94410000  1.0 -0.0408932694
N  N2  1  0.02990000  0.08580000  0.26030000  1.0 -0.0408932694
N  N3  1  0.08580000  0.82550000  0.05590000  1.0 -0.0408932694
N  N4  1  0.82550000  0.76960000  0.73970000  1.0 -0.0408932694
N  N5  1  0.23040000  0.17450000  0.26030000  1.0 -0.0408932694
N  N6  1  0.17450000  0.91420000  0.94410000  1.0 -0.0408932694
N  N7  1  0.91420000  0.97010000  0.73970000  1.0 -0.0408932694
N  N8  1  0.97010000  0.23040000  0.05590000  1.0 -0.0408932694
N  N9  1  0.23040000  0.97010000  0.05590000  1.0 -0.0408932694
N  N10  1  0.97010000  0.91420000  0.73970000  1.0 -0.0408932694
N  N11  1  0.91420000  0.17450000  0.94410000  1.0 -0.0408932694
N  N12  1  0.17450000  0.23040000  0.26030000  1.0 -0.0408932694
N  N13  1  0.76960000  0.82550000  0.73970000  1.0 -0.0408932694
N  N14  1  0.82550000  0.08580000  0.05590000  1.0 -0.0408932694
N  N15  1  0.08580000  0.02990000  0.26030000  1.0 -0.0408932694
N  N16  1  0.02990000  0.76960000  0.94410000  1.0 -0.0408932694
N  N17  1  0.67750000  0.99270000  0.90560000  1.0 -0.2193140586
N  N18  1  0.99270000  0.08710000  0.31520000  1.0 -0.2193140586
N  N19  1  0.08710000  0.77190000  0.09440000  1.0 -0.2193140586
N  N20  1  0.77190000  0.67750000  0.68480000  1.0 -0.2193140586
N  N21  1  0.32250000  0.22810000  0.31520000  1.0 -0.2193140586
N  N22  1  0.22810000  0.91290000  0.90560000  1.0 -0.2193140586
N  N23  1  0.91290000  0.00730000  0.68480000  1.0 -0.2193140586
N  N24  1  0.00730000  0.32250000  0.09440000  1.0 -0.2193140586
N  N25  1  0.32250000  0.00730000  0.09440000  1.0 -0.2193140586
N  N26  1  0.00730000  0.91290000  0.68480000  1.0 -0.2193140586
N  N27  1  0.91290000  0.22810000  0.90560000  1.0 -0.2193140586
N  N28  1  0.22810000  0.32250000  0.31520000  1.0 -0.2193140586
N  N29  1  0.67750000  0.77190000  0.68480000  1.0 -0.2193140586
N  N30  1  0.77190000  0.08710000  0.09440000  1.0 -0.2193140586
N  N31  1  0.08710000  0.99270000  0.31520000  1.0 -0.2193140586
N  N32  1  0.99270000  0.67750000  0.90560000  1.0 -0.2193140586
Cl  Cl1  1  0.00000000  0.00000000  0.00000000  1.0 -0.5536926914
