# DDEC6 charges by PACMAN v1.1 (https://github.com/mtap-research/PACMAN-charge/)
data_JUTZEG_ASR_pacman
_symmetry_space_group_name_H-M   'P 1'
_cell_length_a   22.54760000
_cell_length_b   22.54760000
_cell_length_c   27.77420000
_cell_angle_alpha   90.00000000
_cell_angle_beta   90.00000000
_cell_angle_gamma   90.00000000
_symmetry_Int_Tables_number   1
_chemical_formula_structural   Cu5H52C100(NO4)4
_chemical_formula_sum   'Cu10 H104 C200 N8 O32'
_cell_volume   14120.24401607
_cell_formula_units_Z   2
loop_
 _symmetry_equiv_pos_site_id
 _symmetry_equiv_pos_as_xyz
  1  'x, y, z'
loop_
 _atom_site_type_symbol
 _atom_site_label
 _atom_site_symmetry_multiplicity
 _atom_site_fract_x
 _atom_site_fract_y
 _atom_site_fract_z
 _atom_site_occupancy
 _atom_site_charge
Cu  Cu1  1  0.25840000  0.50000000  0.00000000  1.0 0.8632153567
Cu  Cu2  1  0.14114000  0.50000000  0.00000000  1.0 0.8632153567
Cu  Cu3  1  0.74160000  0.50000000  0.00000000  1.0 0.8632153567
Cu  Cu4  1  0.85886000  0.50000000  0.00000000  1.0 0.8632153567
Cu  Cu5  1  0.50000000  0.25840000  0.50000000  1.0 0.8632153567
Cu  Cu6  1  0.50000000  0.14114000  0.50000000  1.0 0.8632153567
Cu  Cu7  1  0.50000000  0.74160000  0.50000000  1.0 0.8632153567
Cu  Cu8  1  0.50000000  0.85886000  0.50000000  1.0 0.8632153567
Cu  Cu9  1  0.00000000  0.00000000  0.25000000  1.0 0.5890545543
Cu  Cu10  1  0.00000000  0.00000000  0.75000000  1.0 0.5890545543
H  H1  1  0.21860000  0.05440000  0.23610000  1.0 0.1198512282
H  H2  1  0.12790000  0.19670000  0.19000000  1.0 0.1198512282
H  H3  1  0.28860000  0.29720000  0.16940000  1.0 0.1198512282
H  H4  1  0.28860000  0.36680000  0.10990000  1.0 0.1316258978
H  H5  1  0.11220000  0.36630000  0.10880000  1.0 0.1316258978
H  H6  1  0.11190000  0.29430000  0.16710000  1.0 0.1198512282
H  H7  1  0.78140000  0.94560000  0.23610000  1.0 0.1198512282
H  H8  1  0.87210000  0.80330000  0.19000000  1.0 0.1198512282
H  H9  1  0.71140000  0.70280000  0.16940000  1.0 0.1198512282
H  H10  1  0.71140000  0.63320000  0.10990000  1.0 0.1316258978
H  H11  1  0.88780000  0.63370000  0.10880000  1.0 0.1316258978
H  H12  1  0.88810000  0.70570000  0.16710000  1.0 0.1198512282
H  H13  1  0.94560000  0.21860000  0.73610000  1.0 0.1198512282
H  H14  1  0.80330000  0.12790000  0.69000000  1.0 0.1198512282
H  H15  1  0.70280000  0.28860000  0.66940000  1.0 0.1198512282
H  H16  1  0.63320000  0.28860000  0.60990000  1.0 0.1316258978
H  H17  1  0.63370000  0.11220000  0.60880000  1.0 0.1316258978
H  H18  1  0.70570000  0.11190000  0.66710000  1.0 0.1198512282
H  H19  1  0.05440000  0.78140000  0.73610000  1.0 0.1198512282
H  H20  1  0.19670000  0.87210000  0.69000000  1.0 0.1198512282
H  H21  1  0.29720000  0.71140000  0.66940000  1.0 0.1198512282
H  H22  1  0.36680000  0.71140000  0.60990000  1.0 0.1316258978
H  H23  1  0.36630000  0.88780000  0.60880000  1.0 0.1316258978
H  H24  1  0.29430000  0.88810000  0.66710000  1.0 0.1198512282
H  H25  1  0.78140000  0.05440000  0.76390000  1.0 0.1198512282
H  H26  1  0.87210000  0.19670000  0.81000000  1.0 0.1198512282
H  H27  1  0.71140000  0.29720000  0.83060000  1.0 0.1198512282
H  H28  1  0.71140000  0.36680000  0.89010000  1.0 0.1316258978
H  H29  1  0.88780000  0.36630000  0.89120000  1.0 0.1316258978
H  H30  1  0.88810000  0.29430000  0.83290000  1.0 0.1198512282
H  H31  1  0.21860000  0.94560000  0.76390000  1.0 0.1198512282
H  H32  1  0.12790000  0.80330000  0.81000000  1.0 0.1198512282
H  H33  1  0.28860000  0.70280000  0.83060000  1.0 0.1198512282
H  H34  1  0.28860000  0.63320000  0.89010000  1.0 0.1316258978
H  H35  1  0.11220000  0.63370000  0.89120000  1.0 0.1316258978
H  H36  1  0.11190000  0.70570000  0.83290000  1.0 0.1198512282
H  H37  1  0.05440000  0.21860000  0.26390000  1.0 0.1198512282
H  H38  1  0.19670000  0.12790000  0.31000000  1.0 0.1198512282
H  H39  1  0.29720000  0.28860000  0.33060000  1.0 0.1198512282
H  H40  1  0.36680000  0.28860000  0.39010000  1.0 0.1316258978
H  H41  1  0.36630000  0.11220000  0.39120000  1.0 0.1316258978
H  H42  1  0.29430000  0.11190000  0.33290000  1.0 0.1198512282
H  H43  1  0.94560000  0.78140000  0.26390000  1.0 0.1198512282
H  H44  1  0.80330000  0.87210000  0.31000000  1.0 0.1198512282
H  H45  1  0.70280000  0.71140000  0.33060000  1.0 0.1198512282
H  H46  1  0.63320000  0.71140000  0.39010000  1.0 0.1316258978
H  H47  1  0.63370000  0.88780000  0.39120000  1.0 0.1316258978
H  H48  1  0.70570000  0.88810000  0.33290000  1.0 0.1198512282
H  H49  1  0.78140000  0.94560000  0.76390000  1.0 0.1198512282
H  H50  1  0.87210000  0.80330000  0.81000000  1.0 0.1198512282
H  H51  1  0.71140000  0.70280000  0.83060000  1.0 0.1198512282
H  H52  1  0.71140000  0.63320000  0.89010000  1.0 0.1316258978
H  H53  1  0.88780000  0.63370000  0.89120000  1.0 0.1316258978
H  H54  1  0.88810000  0.70570000  0.83290000  1.0 0.1198512282
H  H55  1  0.21860000  0.05440000  0.76390000  1.0 0.1198512282
H  H56  1  0.12790000  0.19670000  0.81000000  1.0 0.1198512282
H  H57  1  0.28860000  0.29720000  0.83060000  1.0 0.1198512282
H  H58  1  0.28860000  0.36680000  0.89010000  1.0 0.1316258978
H  H59  1  0.11220000  0.36630000  0.89120000  1.0 0.1316258978
H  H60  1  0.11190000  0.29430000  0.83290000  1.0 0.1198512282
H  H61  1  0.05440000  0.78140000  0.26390000  1.0 0.1198512282
H  H62  1  0.19670000  0.87210000  0.31000000  1.0 0.1198512282
H  H63  1  0.29720000  0.71140000  0.33060000  1.0 0.1198512282
H  H64  1  0.36680000  0.71140000  0.39010000  1.0 0.1316258978
H  H65  1  0.36630000  0.88780000  0.39120000  1.0 0.1316258978
H  H66  1  0.29430000  0.88810000  0.33290000  1.0 0.1198512282
H  H67  1  0.94560000  0.21860000  0.26390000  1.0 0.1198512282
H  H68  1  0.80330000  0.12790000  0.31000000  1.0 0.1198512282
H  H69  1  0.70280000  0.28860000  0.33060000  1.0 0.1198512282
H  H70  1  0.63320000  0.28860000  0.39010000  1.0 0.1316258978
H  H71  1  0.63370000  0.11220000  0.39120000  1.0 0.1316258978
H  H72  1  0.70570000  0.11190000  0.33290000  1.0 0.1198512282
H  H73  1  0.21860000  0.94560000  0.23610000  1.0 0.1198512282
H  H74  1  0.12790000  0.80330000  0.19000000  1.0 0.1198512282
H  H75  1  0.28860000  0.70280000  0.16940000  1.0 0.1198512282
H  H76  1  0.28860000  0.63320000  0.10990000  1.0 0.1316258978
H  H77  1  0.11220000  0.63370000  0.10880000  1.0 0.1316258978
H  H78  1  0.11190000  0.70570000  0.16710000  1.0 0.1198512282
H  H79  1  0.78140000  0.05440000  0.23610000  1.0 0.1198512282
H  H80  1  0.87210000  0.19670000  0.19000000  1.0 0.1198512282
H  H81  1  0.71140000  0.29720000  0.16940000  1.0 0.1198512282
H  H82  1  0.71140000  0.36680000  0.10990000  1.0 0.1316258978
H  H83  1  0.88780000  0.36630000  0.10880000  1.0 0.1316258978
H  H84  1  0.88810000  0.29430000  0.16710000  1.0 0.1198512282
H  H85  1  0.94560000  0.78140000  0.73610000  1.0 0.1198512282
H  H86  1  0.80330000  0.87210000  0.69000000  1.0 0.1198512282
H  H87  1  0.70280000  0.71140000  0.66940000  1.0 0.1198512282
H  H88  1  0.63320000  0.71140000  0.60990000  1.0 0.1316258978
H  H89  1  0.63370000  0.88780000  0.60880000  1.0 0.1316258978
H  H90  1  0.70570000  0.88810000  0.66710000  1.0 0.1198512282
H  H91  1  0.05440000  0.21860000  0.73610000  1.0 0.1198512282
H  H92  1  0.19670000  0.12790000  0.69000000  1.0 0.1198512282
H  H93  1  0.29720000  0.28860000  0.66940000  1.0 0.1198512282
H  H94  1  0.36680000  0.28860000  0.60990000  1.0 0.1316258978
H  H95  1  0.36630000  0.11220000  0.60880000  1.0 0.1316258978
H  H96  1  0.29430000  0.11190000  0.66710000  1.0 0.1198512282
H  H97  1  0.27100000  0.27100000  0.25000000  1.0 0.1198512282
H  H98  1  0.72900000  0.72900000  0.25000000  1.0 0.1198512282
H  H99  1  0.72900000  0.27100000  0.75000000  1.0 0.1198512282
H  H100  1  0.27100000  0.72900000  0.75000000  1.0 0.1198512282
H  H101  1  0.72900000  0.72900000  0.75000000  1.0 0.1198512282
H  H102  1  0.27100000  0.27100000  0.75000000  1.0 0.1198512282
H  H103  1  0.27100000  0.72900000  0.25000000  1.0 0.1198512282
H  H104  1  0.72900000  0.27100000  0.25000000  1.0 0.1198512282
C  C1  1  0.18569000  0.02989000  0.23977000  1.0 -0.1978958048
C  C2  1  0.12557000  0.04870000  0.24649000  1.0 0.1663466427
C  C3  1  0.15645000  0.19754000  0.21421000  1.0 -0.1935812062
C  C4  1  0.19985000  0.24153000  0.21379000  1.0 0.0805541124
C  C5  1  0.20045000  0.28749000  0.17497000  1.0 0.074602462
C  C6  1  0.25268000  0.31055000  0.15711000  1.0 -0.1476964712
C  C7  1  0.25264000  0.35263000  0.12161000  1.0 -0.0821938763
C  C8  1  0.20038000  0.37448000  0.10293000  1.0 -0.0376181229
C  C9  1  0.14802000  0.35215000  0.12069000  1.0 -0.0821938763
C  C10  1  0.14784000  0.30912000  0.15590000  1.0 -0.1570662134
C  C11  1  0.19999000  0.42073000  0.06450000  1.0 0.5805541571
C  C12  1  0.81431000  0.97011000  0.23977000  1.0 -0.1978958048
C  C13  1  0.87443000  0.95130000  0.24649000  1.0 0.1663466427
C  C14  1  0.84355000  0.80246000  0.21421000  1.0 -0.1935812062
C  C15  1  0.80015000  0.75847000  0.21379000  1.0 0.0805541124
C  C16  1  0.79955000  0.71251000  0.17497000  1.0 0.074602462
C  C17  1  0.74732000  0.68945000  0.15711000  1.0 -0.1476964712
C  C18  1  0.74736000  0.64737000  0.12161000  1.0 -0.0821938763
C  C19  1  0.79962000  0.62552000  0.10293000  1.0 -0.0376181229
C  C20  1  0.85198000  0.64785000  0.12069000  1.0 -0.0821938763
C  C21  1  0.85216000  0.69088000  0.15590000  1.0 -0.1570662134
C  C22  1  0.80001000  0.57927000  0.06450000  1.0 0.5805541571
C  C23  1  0.97011000  0.18569000  0.73977000  1.0 -0.1978958048
C  C24  1  0.95130000  0.12557000  0.74649000  1.0 0.1663466427
C  C25  1  0.80246000  0.15645000  0.71421000  1.0 -0.1935812062
C  C26  1  0.75847000  0.19985000  0.71379000  1.0 0.0805541124
C  C27  1  0.71251000  0.20045000  0.67497000  1.0 0.074602462
C  C28  1  0.68945000  0.25268000  0.65711000  1.0 -0.1476964712
C  C29  1  0.64737000  0.25264000  0.62161000  1.0 -0.0821938763
C  C30  1  0.62552000  0.20038000  0.60293000  1.0 -0.0376181229
C  C31  1  0.64785000  0.14802000  0.62069000  1.0 -0.0821938763
C  C32  1  0.69088000  0.14784000  0.65590000  1.0 -0.1570662134
C  C33  1  0.57927000  0.19999000  0.56450000  1.0 0.5805541571
C  C34  1  0.02989000  0.81431000  0.73977000  1.0 -0.1978958048
C  C35  1  0.04870000  0.87443000  0.74649000  1.0 0.1663466427
C  C36  1  0.19754000  0.84355000  0.71421000  1.0 -0.1935812062
C  C37  1  0.24153000  0.80015000  0.71379000  1.0 0.0805541124
C  C38  1  0.28749000  0.79955000  0.67497000  1.0 0.074602462
C  C39  1  0.31055000  0.74732000  0.65711000  1.0 -0.1476964712
C  C40  1  0.35263000  0.74736000  0.62161000  1.0 -0.0821938763
C  C41  1  0.37448000  0.79962000  0.60293000  1.0 -0.0376181229
C  C42  1  0.35215000  0.85198000  0.62069000  1.0 -0.0821938763
C  C43  1  0.30912000  0.85216000  0.65590000  1.0 -0.1570662134
C  C44  1  0.42073000  0.80001000  0.56450000  1.0 0.5805541571
C  C45  1  0.81431000  0.02989000  0.76023000  1.0 -0.1978958048
C  C46  1  0.87443000  0.04870000  0.75351000  1.0 0.1663466427
C  C47  1  0.84355000  0.19754000  0.78579000  1.0 -0.1935812062
C  C48  1  0.80015000  0.24153000  0.78621000  1.0 0.0805541124
C  C49  1  0.79955000  0.28749000  0.82503000  1.0 0.074602462
C  C50  1  0.74732000  0.31055000  0.84289000  1.0 -0.1476964712
C  C51  1  0.74736000  0.35263000  0.87839000  1.0 -0.0821938763
C  C52  1  0.79962000  0.37448000  0.89707000  1.0 -0.0376181229
C  C53  1  0.85198000  0.35215000  0.87931000  1.0 -0.0821938763
C  C54  1  0.85216000  0.30912000  0.84410000  1.0 -0.1570662134
C  C55  1  0.80001000  0.42073000  0.93550000  1.0 0.5805541571
C  C56  1  0.18569000  0.97011000  0.76023000  1.0 -0.1978958048
C  C57  1  0.12557000  0.95130000  0.75351000  1.0 0.1663466427
C  C58  1  0.15645000  0.80246000  0.78579000  1.0 -0.1935812062
C  C59  1  0.19985000  0.75847000  0.78621000  1.0 0.0805541124
C  C60  1  0.20045000  0.71251000  0.82503000  1.0 0.074602462
C  C61  1  0.25268000  0.68945000  0.84289000  1.0 -0.1476964712
C  C62  1  0.25264000  0.64737000  0.87839000  1.0 -0.0821938763
C  C63  1  0.20038000  0.62552000  0.89707000  1.0 -0.0376181229
C  C64  1  0.14802000  0.64785000  0.87931000  1.0 -0.0821938763
C  C65  1  0.14784000  0.69088000  0.84410000  1.0 -0.1570662134
C  C66  1  0.19999000  0.57927000  0.93550000  1.0 0.5805541571
C  C67  1  0.02989000  0.18569000  0.26023000  1.0 -0.1978958048
C  C68  1  0.04870000  0.12557000  0.25351000  1.0 0.1663466427
C  C69  1  0.19754000  0.15645000  0.28579000  1.0 -0.1935812062
C  C70  1  0.24153000  0.19985000  0.28621000  1.0 0.0805541124
C  C71  1  0.28749000  0.20045000  0.32503000  1.0 0.074602462
C  C72  1  0.31055000  0.25268000  0.34289000  1.0 -0.1476964712
C  C73  1  0.35263000  0.25264000  0.37839000  1.0 -0.0821938763
C  C74  1  0.37448000  0.20038000  0.39707000  1.0 -0.0376181229
C  C75  1  0.35215000  0.14802000  0.37931000  1.0 -0.0821938763
C  C76  1  0.30912000  0.14784000  0.34410000  1.0 -0.1570662134
C  C77  1  0.42073000  0.19999000  0.43550000  1.0 0.5805541571
C  C78  1  0.97011000  0.81431000  0.26023000  1.0 -0.1978958048
C  C79  1  0.95130000  0.87443000  0.25351000  1.0 0.1663466427
C  C80  1  0.80246000  0.84355000  0.28579000  1.0 -0.1935812062
C  C81  1  0.75847000  0.80015000  0.28621000  1.0 0.0805541124
C  C82  1  0.71251000  0.79955000  0.32503000  1.0 0.074602462
C  C83  1  0.68945000  0.74732000  0.34289000  1.0 -0.1476964712
C  C84  1  0.64737000  0.74736000  0.37839000  1.0 -0.0821938763
C  C85  1  0.62552000  0.79962000  0.39707000  1.0 -0.0376181229
C  C86  1  0.64785000  0.85198000  0.37931000  1.0 -0.0821938763
C  C87  1  0.69088000  0.85216000  0.34410000  1.0 -0.1570662134
C  C88  1  0.57927000  0.80001000  0.43550000  1.0 0.5805541571
C  C89  1  0.81431000  0.97011000  0.76023000  1.0 -0.1978958048
C  C90  1  0.87443000  0.95130000  0.75351000  1.0 0.1663466427
C  C91  1  0.84355000  0.80246000  0.78579000  1.0 -0.1935812062
C  C92  1  0.80015000  0.75847000  0.78621000  1.0 0.0805541124
C  C93  1  0.79955000  0.71251000  0.82503000  1.0 0.074602462
C  C94  1  0.74732000  0.68945000  0.84289000  1.0 -0.1476964712
C  C95  1  0.74736000  0.64737000  0.87839000  1.0 -0.0821938763
C  C96  1  0.79962000  0.62552000  0.89707000  1.0 -0.0376181229
C  C97  1  0.85198000  0.64785000  0.87931000  1.0 -0.0821938763
C  C98  1  0.85216000  0.69088000  0.84410000  1.0 -0.1570662134
C  C99  1  0.80001000  0.57927000  0.93550000  1.0 0.5805541571
C  C100  1  0.18569000  0.02989000  0.76023000  1.0 -0.1978958048
C  C101  1  0.12557000  0.04870000  0.75351000  1.0 0.1663466427
C  C102  1  0.15645000  0.19754000  0.78579000  1.0 -0.1935812062
C  C103  1  0.19985000  0.24153000  0.78621000  1.0 0.0805541124
C  C104  1  0.20045000  0.28749000  0.82503000  1.0 0.074602462
C  C105  1  0.25268000  0.31055000  0.84289000  1.0 -0.1476964712
C  C106  1  0.25264000  0.35263000  0.87839000  1.0 -0.0821938763
C  C107  1  0.20038000  0.37448000  0.89707000  1.0 -0.0376181229
C  C108  1  0.14802000  0.35215000  0.87931000  1.0 -0.0821938763
C  C109  1  0.14784000  0.30912000  0.84410000  1.0 -0.1570662134
C  C110  1  0.19999000  0.42073000  0.93550000  1.0 0.5805541571
C  C111  1  0.02989000  0.81431000  0.26023000  1.0 -0.1978958048
C  C112  1  0.04870000  0.87443000  0.25351000  1.0 0.1663466427
C  C113  1  0.19754000  0.84355000  0.28579000  1.0 -0.1935812062
C  C114  1  0.24153000  0.80015000  0.28621000  1.0 0.0805541124
C  C115  1  0.28749000  0.79955000  0.32503000  1.0 0.074602462
C  C116  1  0.31055000  0.74732000  0.34289000  1.0 -0.1476964712
C  C117  1  0.35263000  0.74736000  0.37839000  1.0 -0.0821938763
C  C118  1  0.37448000  0.79962000  0.39707000  1.0 -0.0376181229
C  C119  1  0.35215000  0.85198000  0.37931000  1.0 -0.0821938763
C  C120  1  0.30912000  0.85216000  0.34410000  1.0 -0.1570662134
C  C121  1  0.42073000  0.80001000  0.43550000  1.0 0.5805541571
C  C122  1  0.97011000  0.18569000  0.26023000  1.0 -0.1978958048
C  C123  1  0.95130000  0.12557000  0.25351000  1.0 0.1663466427
C  C124  1  0.80246000  0.15645000  0.28579000  1.0 -0.1935812062
C  C125  1  0.75847000  0.19985000  0.28621000  1.0 0.0805541124
C  C126  1  0.71251000  0.20045000  0.32503000  1.0 0.074602462
C  C127  1  0.68945000  0.25268000  0.34289000  1.0 -0.1476964712
C  C128  1  0.64737000  0.25264000  0.37839000  1.0 -0.0821938763
C  C129  1  0.62552000  0.20038000  0.39707000  1.0 -0.0376181229
C  C130  1  0.64785000  0.14802000  0.37931000  1.0 -0.0821938763
C  C131  1  0.69088000  0.14784000  0.34410000  1.0 -0.1570662134
C  C132  1  0.57927000  0.19999000  0.43550000  1.0 0.5805541571
C  C133  1  0.18569000  0.97011000  0.23977000  1.0 -0.1978958048
C  C134  1  0.12557000  0.95130000  0.24649000  1.0 0.1663466427
C  C135  1  0.15645000  0.80246000  0.21421000  1.0 -0.1935812062
C  C136  1  0.19985000  0.75847000  0.21379000  1.0 0.0805541124
C  C137  1  0.20045000  0.71251000  0.17497000  1.0 0.074602462
C  C138  1  0.25268000  0.68945000  0.15711000  1.0 -0.1476964712
C  C139  1  0.25264000  0.64737000  0.12161000  1.0 -0.0821938763
C  C140  1  0.20038000  0.62552000  0.10293000  1.0 -0.0376181229
C  C141  1  0.14802000  0.64785000  0.12069000  1.0 -0.0821938763
C  C142  1  0.14784000  0.69088000  0.15590000  1.0 -0.1570662134
C  C143  1  0.19999000  0.57927000  0.06450000  1.0 0.5805541571
C  C144  1  0.81431000  0.02989000  0.23977000  1.0 -0.1978958048
C  C145  1  0.87443000  0.04870000  0.24649000  1.0 0.1663466427
C  C146  1  0.84355000  0.19754000  0.21421000  1.0 -0.1935812062
C  C147  1  0.80015000  0.24153000  0.21379000  1.0 0.0805541124
C  C148  1  0.79955000  0.28749000  0.17497000  1.0 0.074602462
C  C149  1  0.74732000  0.31055000  0.15711000  1.0 -0.1476964712
C  C150  1  0.74736000  0.35263000  0.12161000  1.0 -0.0821938763
C  C151  1  0.79962000  0.37448000  0.10293000  1.0 -0.0376181229
C  C152  1  0.85198000  0.35215000  0.12069000  1.0 -0.0821938763
C  C153  1  0.85216000  0.30912000  0.15590000  1.0 -0.1570662134
C  C154  1  0.80001000  0.42073000  0.06450000  1.0 0.5805541571
C  C155  1  0.97011000  0.81431000  0.73977000  1.0 -0.1978958048
C  C156  1  0.95130000  0.87443000  0.74649000  1.0 0.1663466427
C  C157  1  0.80246000  0.84355000  0.71421000  1.0 -0.1935812062
C  C158  1  0.75847000  0.80015000  0.71379000  1.0 0.0805541124
C  C159  1  0.71251000  0.79955000  0.67497000  1.0 0.074602462
C  C160  1  0.68945000  0.74732000  0.65711000  1.0 -0.1476964712
C  C161  1  0.64737000  0.74736000  0.62161000  1.0 -0.0821938763
C  C162  1  0.62552000  0.79962000  0.60293000  1.0 -0.0376181229
C  C163  1  0.64785000  0.85198000  0.62069000  1.0 -0.0821938763
C  C164  1  0.69088000  0.85216000  0.65590000  1.0 -0.1570662134
C  C165  1  0.57927000  0.80001000  0.56450000  1.0 0.5805541571
C  C166  1  0.02989000  0.18569000  0.73977000  1.0 -0.1978958048
C  C167  1  0.04870000  0.12557000  0.74649000  1.0 0.1663466427
C  C168  1  0.19754000  0.15645000  0.71421000  1.0 -0.1935812062
C  C169  1  0.24153000  0.19985000  0.71379000  1.0 0.0805541124
C  C170  1  0.28749000  0.20045000  0.67497000  1.0 0.074602462
C  C171  1  0.31055000  0.25268000  0.65711000  1.0 -0.1476964712
C  C172  1  0.35263000  0.25264000  0.62161000  1.0 -0.0821938763
C  C173  1  0.37448000  0.20038000  0.60293000  1.0 -0.0376181229
C  C174  1  0.35215000  0.14802000  0.62069000  1.0 -0.0821938763
C  C175  1  0.30912000  0.14784000  0.65590000  1.0 -0.1570662134
C  C176  1  0.42073000  0.19999000  0.56450000  1.0 0.5805541571
C  C177  1  0.10761000  0.10761000  0.25000000  1.0 -0.0821938763
C  C178  1  0.15519000  0.15519000  0.25000000  1.0 0.0894639171
C  C179  1  0.24183000  0.24183000  0.25000000  1.0 -0.1978958048
C  C180  1  0.89239000  0.89239000  0.25000000  1.0 -0.0821938763
C  C181  1  0.84481000  0.84481000  0.25000000  1.0 0.0894639171
C  C182  1  0.75817000  0.75817000  0.25000000  1.0 -0.1978958048
C  C183  1  0.89239000  0.10761000  0.75000000  1.0 -0.0821938763
C  C184  1  0.84481000  0.15519000  0.75000000  1.0 0.0894639171
C  C185  1  0.75817000  0.24183000  0.75000000  1.0 -0.1978958048
C  C186  1  0.10761000  0.89239000  0.75000000  1.0 -0.0821938763
C  C187  1  0.15519000  0.84481000  0.75000000  1.0 0.0894639171
C  C188  1  0.24183000  0.75817000  0.75000000  1.0 -0.1978958048
C  C189  1  0.89239000  0.89239000  0.75000000  1.0 -0.0821938763
C  C190  1  0.84481000  0.84481000  0.75000000  1.0 0.0894639171
C  C191  1  0.75817000  0.75817000  0.75000000  1.0 -0.1978958048
C  C192  1  0.10761000  0.10761000  0.75000000  1.0 -0.0821938763
C  C193  1  0.15519000  0.15519000  0.75000000  1.0 0.0894639171
C  C194  1  0.24183000  0.24183000  0.75000000  1.0 -0.1978958048
C  C195  1  0.10761000  0.89239000  0.25000000  1.0 -0.0821938763
C  C196  1  0.15519000  0.84481000  0.25000000  1.0 0.0894639171
C  C197  1  0.24183000  0.75817000  0.25000000  1.0 -0.1978958048
C  C198  1  0.89239000  0.10761000  0.25000000  1.0 -0.0821938763
C  C199  1  0.84481000  0.15519000  0.25000000  1.0 0.0894639171
C  C200  1  0.75817000  0.24183000  0.25000000  1.0 -0.1978958048
N  N1  1  0.08857000  0.00000000  0.24921000  1.0 -0.3580337208
N  N2  1  0.91143000  0.00000000  0.24921000  1.0 -0.3580337208
N  N3  1  0.00000000  0.08857000  0.74921000  1.0 -0.3580337208
N  N4  1  0.00000000  0.91143000  0.74921000  1.0 -0.3580337208
N  N5  1  0.91143000  0.00000000  0.75079000  1.0 -0.3580337208
N  N6  1  0.08857000  0.00000000  0.75079000  1.0 -0.3580337208
N  N7  1  0.00000000  0.08857000  0.25079000  1.0 -0.3580337208
N  N8  1  0.00000000  0.91143000  0.25079000  1.0 -0.3580337208
O  O1  1  0.24988000  0.43906000  0.04967000  1.0 -0.5208885495
O  O2  1  0.15063000  0.43893000  0.04974000  1.0 -0.5149242584
O  O3  1  0.75012000  0.56094000  0.04967000  1.0 -0.5208885495
O  O4  1  0.84937000  0.56107000  0.04974000  1.0 -0.5149242584
O  O5  1  0.56094000  0.24988000  0.54967000  1.0 -0.5208885495
O  O6  1  0.56107000  0.15063000  0.54974000  1.0 -0.5149242584
O  O7  1  0.43906000  0.75012000  0.54967000  1.0 -0.5208885495
O  O8  1  0.43893000  0.84937000  0.54974000  1.0 -0.5149242584
O  O9  1  0.75012000  0.43906000  0.95033000  1.0 -0.5208885495
O  O10  1  0.84937000  0.43893000  0.95026000  1.0 -0.5208885495
O  O11  1  0.24988000  0.56094000  0.95033000  1.0 -0.5208885495
O  O12  1  0.15063000  0.56107000  0.95026000  1.0 -0.5208885495
O  O13  1  0.43906000  0.24988000  0.45033000  1.0 -0.5208885495
O  O14  1  0.43893000  0.15063000  0.45026000  1.0 -0.5149242584
O  O15  1  0.56094000  0.75012000  0.45033000  1.0 -0.5208885495
O  O16  1  0.56107000  0.84937000  0.45026000  1.0 -0.5149242584
O  O17  1  0.75012000  0.56094000  0.95033000  1.0 -0.5208885495
O  O18  1  0.84937000  0.56107000  0.95026000  1.0 -0.5208885495
O  O19  1  0.24988000  0.43906000  0.95033000  1.0 -0.5208885495
O  O20  1  0.15063000  0.43893000  0.95026000  1.0 -0.5208885495
O  O21  1  0.43906000  0.75012000  0.45033000  1.0 -0.5208885495
O  O22  1  0.43893000  0.84937000  0.45026000  1.0 -0.5149242584
O  O23  1  0.56094000  0.24988000  0.45033000  1.0 -0.5208885495
O  O24  1  0.56107000  0.15063000  0.45026000  1.0 -0.5149242584
O  O25  1  0.24988000  0.56094000  0.04967000  1.0 -0.5208885495
O  O26  1  0.15063000  0.56107000  0.04974000  1.0 -0.5149242584
O  O27  1  0.75012000  0.43906000  0.04967000  1.0 -0.5208885495
O  O28  1  0.84937000  0.43893000  0.04974000  1.0 -0.5149242584
O  O29  1  0.56094000  0.75012000  0.54967000  1.0 -0.5208885495
O  O30  1  0.56107000  0.84937000  0.54974000  1.0 -0.5149242584
O  O31  1  0.43906000  0.24988000  0.54967000  1.0 -0.5208885495
O  O32  1  0.43893000  0.15063000  0.54974000  1.0 -0.5149242584
