# DDEC6 charges by PACMAN v1.1 (https://github.com/mtap-research/PACMAN-charge/)
data_JUVPIC_FSR_pacman
_symmetry_space_group_name_H-M   'P 1'
_cell_length_a   14.30700000
_cell_length_b   19.22990000
_cell_length_c   24.27510000
_cell_angle_alpha   90.00000000
_cell_angle_beta   90.00000000
_cell_angle_gamma   90.00000000
_symmetry_Int_Tables_number   1
_chemical_formula_structural   Tb2H25C32(NO9)2
_chemical_formula_sum   'Tb8 H100 C128 N8 O72'
_cell_volume   6678.61841473
_cell_formula_units_Z   4
loop_
 _symmetry_equiv_pos_site_id
 _symmetry_equiv_pos_as_xyz
  1  'x, y, z'
loop_
 _atom_site_type_symbol
 _atom_site_label
 _atom_site_symmetry_multiplicity
 _atom_site_fract_x
 _atom_site_fract_y
 _atom_site_fract_z
 _atom_site_occupancy
 _atom_site_charge
Tb  Tb1  1  0.72659000  0.00000000  0.48468000  1.0 1.9687500003
Tb  Tb2  1  0.27341000  0.00000000  0.51532000  1.0 1.9687500003
Tb  Tb3  1  0.22659000  0.50000000  0.01532000  1.0 1.9687500003
Tb  Tb4  1  0.77341000  0.50000000  0.98468000  1.0 1.9687500003
Tb  Tb5  1  0.50000000  0.10439000  0.50000000  1.0 2.0817769471
Tb  Tb6  1  0.00000000  0.39561000  0.00000000  1.0 2.0817769471
Tb  Tb7  1  0.50000000  0.89561000  0.50000000  1.0 2.0817769471
Tb  Tb8  1  0.00000000  0.60439000  0.00000000  1.0 2.0817769471
H  H1  1  0.84510000  0.85170000  0.63490000  1.0 0.1412308591
H  H2  1  0.56240000  0.79540000  0.71640000  1.0 0.1309611554
H  H3  1  0.56450000  0.85910000  0.63550000  1.0 0.1309611554
H  H4  1  0.91880000  0.70250000  0.82830000  1.0 0.1309611554
H  H5  1  0.66010000  0.66360000  0.88410000  1.0 0.1309611554
H  H6  1  0.59750000  0.72010000  0.80860000  1.0 0.1309611554
H  H7  1  0.94370000  0.69280000  0.72500000  1.0 0.1309611554
H  H8  1  0.86350000  0.69810000  0.68120000  1.0 0.1412308591
H  H9  1  0.95450000  0.74270000  0.67430000  1.0 0.1309611554
H  H10  1  0.89450000  0.86430000  0.77330000  1.0 0.3567209842
H  H11  1  0.90660000  0.04090000  0.46470000  1.0 0.1729401464
H  H12  1  0.91410000  0.97350000  0.48400000  1.0 0.1095493699
H  H13  1  0.15490000  0.85170000  0.36510000  1.0 0.1412308591
H  H14  1  0.43760000  0.79540000  0.28360000  1.0 0.1309611554
H  H15  1  0.43550000  0.85910000  0.36450000  1.0 0.1309611554
H  H16  1  0.08120000  0.70250000  0.17170000  1.0 0.1309611554
H  H17  1  0.33990000  0.66360000  0.11590000  1.0 0.1309611554
H  H18  1  0.40250000  0.72010000  0.19140000  1.0 0.1309611554
H  H19  1  0.05630000  0.69280000  0.27500000  1.0 0.1309611554
H  H20  1  0.13650000  0.69810000  0.31880000  1.0 0.1412308591
H  H21  1  0.04550000  0.74270000  0.32570000  1.0 0.1309611554
H  H22  1  0.10550000  0.86430000  0.22670000  1.0 0.3567209842
H  H23  1  0.09340000  0.04090000  0.53530000  1.0 0.1729401464
H  H24  1  0.08590000  0.97350000  0.51600000  1.0 0.1095493699
H  H25  1  0.34510000  0.64830000  0.86510000  1.0 0.1412308591
H  H26  1  0.06240000  0.70460000  0.78360000  1.0 0.1309611554
H  H27  1  0.06450000  0.64090000  0.86450000  1.0 0.1309611554
H  H28  1  0.41880000  0.79750000  0.67170000  1.0 0.1309611554
H  H29  1  0.16010000  0.83640000  0.61590000  1.0 0.1309611554
H  H30  1  0.09750000  0.77990000  0.69140000  1.0 0.1309611554
H  H31  1  0.44370000  0.80720000  0.77500000  1.0 0.1309611554
H  H32  1  0.36350000  0.80190000  0.81880000  1.0 0.1412308591
H  H33  1  0.45450000  0.75730000  0.82570000  1.0 0.1309611554
H  H34  1  0.39450000  0.63570000  0.72670000  1.0 0.3567209842
H  H35  1  0.40660000  0.45910000  0.03530000  1.0 0.1729401464
H  H36  1  0.41410000  0.52650000  0.01600000  1.0 0.1095493699
H  H37  1  0.65490000  0.64830000  0.13490000  1.0 0.1412308591
H  H38  1  0.93760000  0.70460000  0.21640000  1.0 0.1309611554
H  H39  1  0.93550000  0.64090000  0.13550000  1.0 0.1309611554
H  H40  1  0.58120000  0.79750000  0.32830000  1.0 0.1309611554
H  H41  1  0.83990000  0.83640000  0.38410000  1.0 0.1309611554
H  H42  1  0.90250000  0.77990000  0.30860000  1.0 0.1309611554
H  H43  1  0.55630000  0.80720000  0.22500000  1.0 0.1309611554
H  H44  1  0.63650000  0.80190000  0.18120000  1.0 0.1412308591
H  H45  1  0.54550000  0.75730000  0.17430000  1.0 0.1309611554
H  H46  1  0.60550000  0.63570000  0.27330000  1.0 0.3567209842
H  H47  1  0.59340000  0.45910000  0.96470000  1.0 0.1729401464
H  H48  1  0.58590000  0.52650000  0.98400000  1.0 0.1095493699
H  H49  1  0.15490000  0.14830000  0.36510000  1.0 0.1412308591
H  H50  1  0.43760000  0.20460000  0.28360000  1.0 0.1309611554
H  H51  1  0.43550000  0.14090000  0.36450000  1.0 0.1309611554
H  H52  1  0.08120000  0.29750000  0.17170000  1.0 0.1309611554
H  H53  1  0.33990000  0.33640000  0.11590000  1.0 0.1309611554
H  H54  1  0.40250000  0.27990000  0.19140000  1.0 0.1309611554
H  H55  1  0.05630000  0.30720000  0.27500000  1.0 0.1309611554
H  H56  1  0.13650000  0.30190000  0.31880000  1.0 0.1412308591
H  H57  1  0.04550000  0.25730000  0.32570000  1.0 0.1309611554
H  H58  1  0.10550000  0.13570000  0.22670000  1.0 0.3567209842
H  H59  1  0.09340000  0.95910000  0.53530000  1.0 0.1729401464
H  H60  1  0.08590000  0.02650000  0.51600000  1.0 0.1095493699
H  H61  1  0.84510000  0.14830000  0.63490000  1.0 0.1412308591
H  H62  1  0.56240000  0.20460000  0.71640000  1.0 0.1309611554
H  H63  1  0.56450000  0.14090000  0.63550000  1.0 0.1309611554
H  H64  1  0.91880000  0.29750000  0.82830000  1.0 0.1309611554
H  H65  1  0.66010000  0.33640000  0.88410000  1.0 0.1309611554
H  H66  1  0.59750000  0.27990000  0.80860000  1.0 0.1309611554
H  H67  1  0.94370000  0.30720000  0.72500000  1.0 0.1309611554
H  H68  1  0.86350000  0.30190000  0.68120000  1.0 0.1412308591
H  H69  1  0.95450000  0.25730000  0.67430000  1.0 0.1309611554
H  H70  1  0.89450000  0.13570000  0.77330000  1.0 0.3567209842
H  H71  1  0.90660000  0.95910000  0.46470000  1.0 0.1729401464
H  H72  1  0.91410000  0.02650000  0.48400000  1.0 0.1095493699
H  H73  1  0.65490000  0.35170000  0.13490000  1.0 0.1412308591
H  H74  1  0.93760000  0.29540000  0.21640000  1.0 0.1309611554
H  H75  1  0.93550000  0.35910000  0.13550000  1.0 0.1309611554
H  H76  1  0.58120000  0.20250000  0.32830000  1.0 0.1309611554
H  H77  1  0.83990000  0.16360000  0.38410000  1.0 0.1309611554
H  H78  1  0.90250000  0.22010000  0.30860000  1.0 0.1309611554
H  H79  1  0.55630000  0.19280000  0.22500000  1.0 0.1309611554
H  H80  1  0.63650000  0.19810000  0.18120000  1.0 0.1412308591
H  H81  1  0.54550000  0.24270000  0.17430000  1.0 0.1309611554
H  H82  1  0.60550000  0.36430000  0.27330000  1.0 0.3567209842
H  H83  1  0.59340000  0.54090000  0.96470000  1.0 0.1729401464
H  H84  1  0.58590000  0.47350000  0.98400000  1.0 0.1095493699
H  H85  1  0.34510000  0.35170000  0.86510000  1.0 0.1412308591
H  H86  1  0.06240000  0.29540000  0.78360000  1.0 0.1309611554
H  H87  1  0.06450000  0.35910000  0.86450000  1.0 0.1309611554
H  H88  1  0.41880000  0.20250000  0.67170000  1.0 0.1309611554
H  H89  1  0.16010000  0.16360000  0.61590000  1.0 0.1309611554
H  H90  1  0.09750000  0.22010000  0.69140000  1.0 0.1309611554
H  H91  1  0.44370000  0.19280000  0.77500000  1.0 0.1309611554
H  H92  1  0.36350000  0.19810000  0.81880000  1.0 0.1412308591
H  H93  1  0.45450000  0.24270000  0.82570000  1.0 0.1309611554
H  H94  1  0.39450000  0.36430000  0.72670000  1.0 0.3567209842
H  H95  1  0.40660000  0.54090000  0.03530000  1.0 0.1729401464
H  H96  1  0.41410000  0.47350000  0.01600000  1.0 0.1095493699
H  H97  1  0.56090000  0.00000000  0.42550000  1.0 0.4027670848
H  H98  1  0.43910000  0.00000000  0.57450000  1.0 0.4027670848
H  H99  1  0.06090000  0.50000000  0.07450000  1.0 0.4027670848
H  H100  1  0.93910000  0.50000000  0.92550000  1.0 0.4027670848
C  C1  1  0.70870000  0.90380000  0.57730000  1.0 0.6200480762
C  C2  1  0.70500000  0.86210000  0.62730000  1.0 -0.0333289055
C  C3  1  0.78830000  0.84020000  0.65120000  1.0 -0.1125446919
C  C4  1  0.78660000  0.80130000  0.69920000  1.0 -0.0632516646
C  C5  1  0.70250000  0.78480000  0.72360000  1.0 0.0339478224
C  C6  1  0.61910000  0.80660000  0.69980000  1.0 -0.1271957523
C  C7  1  0.62030000  0.84490000  0.65160000  1.0 -0.0691150685
C  C8  1  0.86650000  0.78220000  0.73340000  1.0 0.3471914867
C  C9  1  0.81790000  0.74050000  0.77876000  1.0 -0.0333289055
C  C10  1  0.85430000  0.70610000  0.82420000  1.0 -0.1271957523
C  C11  1  0.79590000  0.67710000  0.86350000  1.0 -0.014531899
C  C12  1  0.69950000  0.68270000  0.85765000  1.0 -0.0846910176
C  C13  1  0.66200000  0.71680000  0.81257000  1.0 -0.1271957523
C  C14  1  0.72060000  0.74580000  0.77340000  1.0 0.0339478224
C  C15  1  0.83500000  0.63750000  0.91087000  1.0 0.6410741511
C  C16  1  0.91120000  0.72350000  0.70050000  1.0 -0.4977669267
C  C17  1  0.29130000  0.90380000  0.42270000  1.0 0.6200480762
C  C18  1  0.29500000  0.86210000  0.37270000  1.0 -0.0333289055
C  C19  1  0.21170000  0.84020000  0.34880000  1.0 -0.1125446919
C  C20  1  0.21340000  0.80130000  0.30080000  1.0 -0.0632516646
C  C21  1  0.29750000  0.78480000  0.27640000  1.0 0.0339478224
C  C22  1  0.38090000  0.80660000  0.30020000  1.0 -0.1271957523
C  C23  1  0.37970000  0.84490000  0.34840000  1.0 -0.0691150685
C  C24  1  0.13350000  0.78220000  0.26660000  1.0 0.3471914867
C  C25  1  0.18210000  0.74050000  0.22124000  1.0 -0.0333289055
C  C26  1  0.14570000  0.70610000  0.17580000  1.0 -0.1271957523
C  C27  1  0.20410000  0.67710000  0.13650000  1.0 -0.014531899
C  C28  1  0.30050000  0.68270000  0.14235000  1.0 -0.0846910176
C  C29  1  0.33800000  0.71680000  0.18743000  1.0 -0.1271957523
C  C30  1  0.27940000  0.74580000  0.22660000  1.0 0.0339478224
C  C31  1  0.16500000  0.63750000  0.08913000  1.0 0.6410741511
C  C32  1  0.08880000  0.72350000  0.29950000  1.0 -0.4977669267
C  C33  1  0.20870000  0.59620000  0.92270000  1.0 0.6200480762
C  C34  1  0.20500000  0.63790000  0.87270000  1.0 -0.0333289055
C  C35  1  0.28830000  0.65980000  0.84880000  1.0 -0.1125446919
C  C36  1  0.28660000  0.69870000  0.80080000  1.0 -0.0632516646
C  C37  1  0.20250000  0.71520000  0.77640000  1.0 0.0339478224
C  C38  1  0.11910000  0.69340000  0.80020000  1.0 -0.1271957523
C  C39  1  0.12030000  0.65510000  0.84840000  1.0 -0.0691150685
C  C40  1  0.36650000  0.71780000  0.76660000  1.0 0.3471914867
C  C41  1  0.31790000  0.75950000  0.72124000  1.0 -0.0333289055
C  C42  1  0.35430000  0.79390000  0.67580000  1.0 -0.1271957523
C  C43  1  0.29590000  0.82290000  0.63650000  1.0 -0.014531899
C  C44  1  0.19950000  0.81730000  0.64235000  1.0 -0.0846910176
C  C45  1  0.16200000  0.78320000  0.68743000  1.0 -0.1271957523
C  C46  1  0.22060000  0.75420000  0.72660000  1.0 0.0339478224
C  C47  1  0.33500000  0.86250000  0.58913000  1.0 0.6410741511
C  C48  1  0.41120000  0.77650000  0.79950000  1.0 -0.4977669267
C  C49  1  0.79130000  0.59620000  0.07730000  1.0 0.6200480762
C  C50  1  0.79500000  0.63790000  0.12730000  1.0 -0.0333289055
C  C51  1  0.71170000  0.65980000  0.15120000  1.0 -0.1125446919
C  C52  1  0.71340000  0.69870000  0.19920000  1.0 -0.0632516646
C  C53  1  0.79750000  0.71520000  0.22360000  1.0 0.0339478224
C  C54  1  0.88090000  0.69340000  0.19980000  1.0 -0.1271957523
C  C55  1  0.87970000  0.65510000  0.15160000  1.0 -0.0691150685
C  C56  1  0.63350000  0.71780000  0.23340000  1.0 0.3471914867
C  C57  1  0.68210000  0.75950000  0.27876000  1.0 -0.0333289055
C  C58  1  0.64570000  0.79390000  0.32420000  1.0 -0.1271957523
C  C59  1  0.70410000  0.82290000  0.36350000  1.0 -0.014531899
C  C60  1  0.80050000  0.81730000  0.35765000  1.0 -0.0846910176
C  C61  1  0.83800000  0.78320000  0.31257000  1.0 -0.1271957523
C  C62  1  0.77940000  0.75420000  0.27340000  1.0 0.0339478224
C  C63  1  0.66500000  0.86250000  0.41087000  1.0 0.6410741511
C  C64  1  0.58880000  0.77650000  0.20050000  1.0 -0.4977669267
C  C65  1  0.29130000  0.09620000  0.42270000  1.0 0.6200480762
C  C66  1  0.29500000  0.13790000  0.37270000  1.0 -0.0333289055
C  C67  1  0.21170000  0.15980000  0.34880000  1.0 -0.1125446919
C  C68  1  0.21340000  0.19870000  0.30080000  1.0 -0.0632516646
C  C69  1  0.29750000  0.21520000  0.27640000  1.0 0.0339478224
C  C70  1  0.38090000  0.19340000  0.30020000  1.0 -0.1271957523
C  C71  1  0.37970000  0.15510000  0.34840000  1.0 -0.0691150685
C  C72  1  0.13350000  0.21780000  0.26660000  1.0 0.3471914867
C  C73  1  0.18210000  0.25950000  0.22124000  1.0 -0.0333289055
C  C74  1  0.14570000  0.29390000  0.17580000  1.0 -0.1271957523
C  C75  1  0.20410000  0.32290000  0.13650000  1.0 -0.014531899
C  C76  1  0.30050000  0.31730000  0.14235000  1.0 -0.0846910176
C  C77  1  0.33800000  0.28320000  0.18743000  1.0 -0.1271957523
C  C78  1  0.27940000  0.25420000  0.22660000  1.0 0.0339478224
C  C79  1  0.16500000  0.36250000  0.08913000  1.0 0.6410741511
C  C80  1  0.08880000  0.27650000  0.29950000  1.0 -0.4977669267
C  C81  1  0.70870000  0.09620000  0.57730000  1.0 0.6200480762
C  C82  1  0.70500000  0.13790000  0.62730000  1.0 -0.0333289055
C  C83  1  0.78830000  0.15980000  0.65120000  1.0 -0.1125446919
C  C84  1  0.78660000  0.19870000  0.69920000  1.0 -0.0632516646
C  C85  1  0.70250000  0.21520000  0.72360000  1.0 0.0339478224
C  C86  1  0.61910000  0.19340000  0.69980000  1.0 -0.1271957523
C  C87  1  0.62030000  0.15510000  0.65160000  1.0 -0.0691150685
C  C88  1  0.86650000  0.21780000  0.73340000  1.0 0.3471914867
C  C89  1  0.81790000  0.25950000  0.77876000  1.0 -0.0333289055
C  C90  1  0.85430000  0.29390000  0.82420000  1.0 -0.1271957523
C  C91  1  0.79590000  0.32290000  0.86350000  1.0 -0.014531899
C  C92  1  0.69950000  0.31730000  0.85765000  1.0 -0.0846910176
C  C93  1  0.66200000  0.28320000  0.81257000  1.0 -0.1271957523
C  C94  1  0.72060000  0.25420000  0.77340000  1.0 0.0339478224
C  C95  1  0.83500000  0.36250000  0.91087000  1.0 0.6410741511
C  C96  1  0.91120000  0.27650000  0.70050000  1.0 -0.4977669267
C  C97  1  0.79130000  0.40380000  0.07730000  1.0 0.6200480762
C  C98  1  0.79500000  0.36210000  0.12730000  1.0 -0.0333289055
C  C99  1  0.71170000  0.34020000  0.15120000  1.0 -0.1125446919
C  C100  1  0.71340000  0.30130000  0.19920000  1.0 -0.0632516646
C  C101  1  0.79750000  0.28480000  0.22360000  1.0 0.0339478224
C  C102  1  0.88090000  0.30660000  0.19980000  1.0 -0.1271957523
C  C103  1  0.87970000  0.34490000  0.15160000  1.0 -0.0691150685
C  C104  1  0.63350000  0.28220000  0.23340000  1.0 0.3471914867
C  C105  1  0.68210000  0.24050000  0.27876000  1.0 -0.0333289055
C  C106  1  0.64570000  0.20610000  0.32420000  1.0 -0.1271957523
C  C107  1  0.70410000  0.17710000  0.36350000  1.0 -0.014531899
C  C108  1  0.80050000  0.18270000  0.35765000  1.0 -0.0846910176
C  C109  1  0.83800000  0.21680000  0.31257000  1.0 -0.1271957523
C  C110  1  0.77940000  0.24580000  0.27340000  1.0 0.0339478224
C  C111  1  0.66500000  0.13750000  0.41087000  1.0 0.6410741511
C  C112  1  0.58880000  0.22350000  0.20050000  1.0 -0.4977669267
C  C113  1  0.20870000  0.40380000  0.92270000  1.0 0.6200480762
C  C114  1  0.20500000  0.36210000  0.87270000  1.0 -0.0333289055
C  C115  1  0.28830000  0.34020000  0.84880000  1.0 -0.1125446919
C  C116  1  0.28660000  0.30130000  0.80080000  1.0 -0.0632516646
C  C117  1  0.20250000  0.28480000  0.77640000  1.0 0.0339478224
C  C118  1  0.11910000  0.30660000  0.80020000  1.0 -0.1271957523
C  C119  1  0.12030000  0.34490000  0.84840000  1.0 -0.0691150685
C  C120  1  0.36650000  0.28220000  0.76660000  1.0 0.3471914867
C  C121  1  0.31790000  0.24050000  0.72124000  1.0 -0.0333289055
C  C122  1  0.35430000  0.20610000  0.67580000  1.0 -0.1271957523
C  C123  1  0.29590000  0.17710000  0.63650000  1.0 -0.014531899
C  C124  1  0.19950000  0.18270000  0.64235000  1.0 -0.0846910176
C  C125  1  0.16200000  0.21680000  0.68743000  1.0 -0.1271957523
C  C126  1  0.22060000  0.24580000  0.72660000  1.0 0.0339478224
C  C127  1  0.33500000  0.13750000  0.58913000  1.0 0.6410741511
C  C128  1  0.41120000  0.22350000  0.79950000  1.0 -0.4977669267
N  N1  1  0.72390000  0.00000000  0.32950000  1.0 0.7109745445
N  N2  1  0.27610000  0.00000000  0.67050000  1.0 0.7109745445
N  N3  1  0.22390000  0.50000000  0.17050000  1.0 0.7109745445
N  N4  1  0.77610000  0.50000000  0.82950000  1.0 0.7109745445
N  N5  1  0.50000000  0.25530000  0.50000000  1.0 0.742302269
N  N6  1  0.00000000  0.24470000  0.00000000  1.0 0.742302269
N  N7  1  0.50000000  0.74470000  0.50000000  1.0 0.742302269
N  N8  1  0.00000000  0.75530000  0.00000000  1.0 0.742302269
O  O1  1  0.63213000  0.92496000  0.55338000  1.0 -0.7196117712
O  O2  1  0.78459000  0.92374000  0.55662000  1.0 -0.5736207885
O  O3  1  0.77920000  0.60961000  0.94428000  1.0 -0.6563224194
O  O4  1  0.92190000  0.63763000  0.91769000  1.0 -0.6158979831
O  O5  1  0.92600000  0.82970000  0.75192000  1.0 -0.4297185947
O  O6  1  0.43380000  0.22057000  0.47704000  1.0 -0.5544391868
O  O7  1  0.36787000  0.92496000  0.44662000  1.0 -0.7196117712
O  O8  1  0.21541000  0.92374000  0.44338000  1.0 -0.5736207885
O  O9  1  0.22080000  0.60961000  0.05572000  1.0 -0.6563224194
O  O10  1  0.07810000  0.63763000  0.08231000  1.0 -0.6158979831
O  O11  1  0.07400000  0.82970000  0.24808000  1.0 -0.4297185947
O  O12  1  0.56620000  0.22057000  0.52296000  1.0 -0.5544391868
O  O13  1  0.13213000  0.57504000  0.94662000  1.0 -0.7196117712
O  O14  1  0.28459000  0.57626000  0.94338000  1.0 -0.5736207885
O  O15  1  0.27920000  0.89039000  0.55572000  1.0 -0.6563224194
O  O16  1  0.42190000  0.86237000  0.58231000  1.0 -0.6158979831
O  O17  1  0.42600000  0.67030000  0.74808000  1.0 -0.4297185947
O  O18  1  0.93380000  0.27943000  0.02296000  1.0 -0.5544391868
O  O19  1  0.86787000  0.57504000  0.05338000  1.0 -0.7196117712
O  O20  1  0.71541000  0.57626000  0.05662000  1.0 -0.5736207885
O  O21  1  0.72080000  0.89039000  0.44428000  1.0 -0.6563224194
O  O22  1  0.57810000  0.86237000  0.41769000  1.0 -0.6158979831
O  O23  1  0.57400000  0.67030000  0.25192000  1.0 -0.4297185947
O  O24  1  0.06620000  0.27943000  0.97704000  1.0 -0.5544391868
O  O25  1  0.36787000  0.07504000  0.44662000  1.0 -0.7196117712
O  O26  1  0.21541000  0.07626000  0.44338000  1.0 -0.5736207885
O  O27  1  0.22080000  0.39039000  0.05572000  1.0 -0.6563224194
O  O28  1  0.07810000  0.36237000  0.08231000  1.0 -0.6158979831
O  O29  1  0.07400000  0.17030000  0.24808000  1.0 -0.4297185947
O  O30  1  0.56620000  0.77943000  0.52296000  1.0 -0.5544391868
O  O31  1  0.63213000  0.07504000  0.55338000  1.0 -0.7196117712
O  O32  1  0.78459000  0.07626000  0.55662000  1.0 -0.5736207885
O  O33  1  0.77920000  0.39039000  0.94428000  1.0 -0.6563224194
O  O34  1  0.92190000  0.36237000  0.91769000  1.0 -0.6158979831
O  O35  1  0.92600000  0.17030000  0.75192000  1.0 -0.4297185947
O  O36  1  0.43380000  0.77943000  0.47704000  1.0 -0.5544391868
O  O37  1  0.86787000  0.42496000  0.05338000  1.0 -0.7196117712
O  O38  1  0.71541000  0.42374000  0.05662000  1.0 -0.5736207885
O  O39  1  0.72080000  0.10961000  0.44428000  1.0 -0.6563224194
O  O40  1  0.57810000  0.13763000  0.41769000  1.0 -0.6158979831
O  O41  1  0.57400000  0.32970000  0.25192000  1.0 -0.4297185947
O  O42  1  0.06620000  0.72057000  0.97704000  1.0 -0.5544391868
O  O43  1  0.13213000  0.42496000  0.94662000  1.0 -0.7196117712
O  O44  1  0.28459000  0.42374000  0.94338000  1.0 -0.5736207885
O  O45  1  0.27920000  0.10961000  0.55572000  1.0 -0.6563224194
O  O46  1  0.42190000  0.13763000  0.58231000  1.0 -0.6158979831
O  O47  1  0.42600000  0.32970000  0.74808000  1.0 -0.4297185947
O  O48  1  0.93380000  0.72057000  0.02296000  1.0 -0.5544391868
O  O49  1  0.56770000  0.00000000  0.46037000  1.0 -1.0982988773
O  O50  1  0.70960000  0.00000000  0.37930000  1.0 -0.4533035753
O  O51  1  0.80570000  0.00000000  0.31140000  1.0 -0.4062658248
O  O52  1  0.65520000  0.00000000  0.29470000  1.0 -0.4559178052
O  O53  1  0.88540000  0.00000000  0.46184000  1.0 -0.4849991498
O  O54  1  0.43230000  0.00000000  0.53963000  1.0 -1.0982988773
O  O55  1  0.29040000  0.00000000  0.62070000  1.0 -0.4533035753
O  O56  1  0.19430000  0.00000000  0.68860000  1.0 -0.4062658248
O  O57  1  0.34480000  0.00000000  0.70530000  1.0 -0.4559178052
O  O58  1  0.11460000  0.00000000  0.53816000  1.0 -0.4849991498
O  O59  1  0.06770000  0.50000000  0.03963000  1.0 -1.0982988773
O  O60  1  0.20960000  0.50000000  0.12070000  1.0 -0.4533035753
O  O61  1  0.30570000  0.50000000  0.18860000  1.0 -0.4062658248
O  O62  1  0.15520000  0.50000000  0.20530000  1.0 -0.4559178052
O  O63  1  0.38540000  0.50000000  0.03816000  1.0 -0.4849991498
O  O64  1  0.93230000  0.50000000  0.96037000  1.0 -1.0982988773
O  O65  1  0.79040000  0.50000000  0.87930000  1.0 -0.4533035753
O  O66  1  0.69430000  0.50000000  0.81140000  1.0 -0.4062658248
O  O67  1  0.84480000  0.50000000  0.79470000  1.0 -0.4559178052
O  O68  1  0.61460000  0.50000000  0.96184000  1.0 -0.4849991498
O  O69  1  0.50000000  0.32100000  0.50000000  1.0 -0.3574907852
O  O70  1  0.00000000  0.17900000  0.00000000  1.0 -0.3574907852
O  O71  1  0.50000000  0.67900000  0.50000000  1.0 -0.3574907852
O  O72  1  0.00000000  0.82100000  0.00000000  1.0 -0.3574907852
