# DDEC6 charges by PACMAN v1.1 (https://github.com/mtap-research/PACMAN-charge/)
data_JUVPEY_FSR_pacman
_symmetry_space_group_name_H-M   'P 1'
_cell_length_a   14.41220000
_cell_length_b   19.32600000
_cell_length_c   24.21300000
_cell_angle_alpha   90.00000000
_cell_angle_beta   90.00000000
_cell_angle_gamma   90.00000000
_symmetry_Int_Tables_number   1
_chemical_formula_structural   Eu2H25C32(NO9)2
_chemical_formula_sum   'Eu8 H100 C128 N8 O72'
_cell_volume   6744.05118054
_cell_formula_units_Z   4
loop_
 _symmetry_equiv_pos_site_id
 _symmetry_equiv_pos_as_xyz
  1  'x, y, z'
loop_
 _atom_site_type_symbol
 _atom_site_label
 _atom_site_symmetry_multiplicity
 _atom_site_fract_x
 _atom_site_fract_y
 _atom_site_fract_z
 _atom_site_occupancy
 _atom_site_charge
Eu  Eu1  1  0.72686000  0.00000000  0.48375000  1.0 1.9894342785
Eu  Eu2  1  0.27314000  0.00000000  0.51625000  1.0 1.9894342785
Eu  Eu3  1  0.22686000  0.50000000  0.01625000  1.0 1.9894342785
Eu  Eu4  1  0.77314000  0.50000000  0.98375000  1.0 1.9894342785
Eu  Eu5  1  0.50000000  0.10481000  0.50000000  1.0 2.1070365673
Eu  Eu6  1  0.00000000  0.39519000  0.00000000  1.0 2.1070365673
Eu  Eu7  1  0.50000000  0.89519000  0.50000000  1.0 2.1070365673
Eu  Eu8  1  0.00000000  0.60481000  0.00000000  1.0 2.1070365673
H  H1  1  0.84510000  0.85290000  0.63620000  1.0 0.1408223053
H  H2  1  0.56250000  0.79650000  0.71760000  1.0 0.1246878868
H  H3  1  0.56680000  0.85770000  0.63520000  1.0 0.132572781
H  H4  1  0.91640000  0.70310000  0.82930000  1.0 0.132572781
H  H5  1  0.66280000  0.66330000  0.88290000  1.0 0.132572781
H  H6  1  0.59680000  0.72480000  0.81060000  1.0 0.132572781
H  H7  1  0.94490000  0.69430000  0.72500000  1.0 0.132572781
H  H8  1  0.86030000  0.69600000  0.68430000  1.0 0.1408223053
H  H9  1  0.94800000  0.74150000  0.67240000  1.0 0.132572781
H  H10  1  0.89430000  0.86440000  0.77320000  1.0 0.3554295665
H  H11  1  0.90730000  0.95910000  0.46450000  1.0 0.169050551
H  H12  1  0.91480000  0.02650000  0.48390000  1.0 0.1041197172
H  H13  1  0.15490000  0.85290000  0.36380000  1.0 0.1408223053
H  H14  1  0.43750000  0.79650000  0.28240000  1.0 0.1246878868
H  H15  1  0.43320000  0.85770000  0.36480000  1.0 0.132572781
H  H16  1  0.08360000  0.70310000  0.17070000  1.0 0.132572781
H  H17  1  0.33720000  0.66330000  0.11710000  1.0 0.132572781
H  H18  1  0.40320000  0.72480000  0.18940000  1.0 0.132572781
H  H19  1  0.05510000  0.69430000  0.27500000  1.0 0.132572781
H  H20  1  0.13970000  0.69600000  0.31570000  1.0 0.1408223053
H  H21  1  0.05200000  0.74150000  0.32760000  1.0 0.132572781
H  H22  1  0.10570000  0.86440000  0.22680000  1.0 0.3554295665
H  H23  1  0.09270000  0.95910000  0.53550000  1.0 0.169050551
H  H24  1  0.08520000  0.02650000  0.51610000  1.0 0.1041197172
H  H25  1  0.34510000  0.64710000  0.86380000  1.0 0.1408223053
H  H26  1  0.06250000  0.70350000  0.78240000  1.0 0.1246878868
H  H27  1  0.06680000  0.64230000  0.86480000  1.0 0.132572781
H  H28  1  0.41640000  0.79690000  0.67070000  1.0 0.132572781
H  H29  1  0.16280000  0.83670000  0.61710000  1.0 0.132572781
H  H30  1  0.09680000  0.77520000  0.68940000  1.0 0.132572781
H  H31  1  0.44490000  0.80570000  0.77500000  1.0 0.132572781
H  H32  1  0.36030000  0.80400000  0.81570000  1.0 0.1408223053
H  H33  1  0.44800000  0.75850000  0.82760000  1.0 0.132572781
H  H34  1  0.39430000  0.63560000  0.72680000  1.0 0.3554295665
H  H35  1  0.40730000  0.54090000  0.03550000  1.0 0.169050551
H  H36  1  0.41480000  0.47350000  0.01610000  1.0 0.1041197172
H  H37  1  0.65490000  0.64710000  0.13620000  1.0 0.1408223053
H  H38  1  0.93750000  0.70350000  0.21760000  1.0 0.1246878868
H  H39  1  0.93320000  0.64230000  0.13520000  1.0 0.132572781
H  H40  1  0.58360000  0.79690000  0.32930000  1.0 0.132572781
H  H41  1  0.83720000  0.83670000  0.38290000  1.0 0.132572781
H  H42  1  0.90320000  0.77520000  0.31060000  1.0 0.132572781
H  H43  1  0.55510000  0.80570000  0.22500000  1.0 0.132572781
H  H44  1  0.63970000  0.80400000  0.18430000  1.0 0.1408223053
H  H45  1  0.55200000  0.75850000  0.17240000  1.0 0.132572781
H  H46  1  0.60570000  0.63560000  0.27320000  1.0 0.3554295665
H  H47  1  0.59270000  0.54090000  0.96450000  1.0 0.169050551
H  H48  1  0.58520000  0.47350000  0.98390000  1.0 0.1041197172
H  H49  1  0.15490000  0.14710000  0.36380000  1.0 0.1408223053
H  H50  1  0.43750000  0.20350000  0.28240000  1.0 0.1246878868
H  H51  1  0.43320000  0.14230000  0.36480000  1.0 0.132572781
H  H52  1  0.08360000  0.29690000  0.17070000  1.0 0.132572781
H  H53  1  0.33720000  0.33670000  0.11710000  1.0 0.132572781
H  H54  1  0.40320000  0.27520000  0.18940000  1.0 0.132572781
H  H55  1  0.05510000  0.30570000  0.27500000  1.0 0.132572781
H  H56  1  0.13970000  0.30400000  0.31570000  1.0 0.1408223053
H  H57  1  0.05200000  0.25850000  0.32760000  1.0 0.132572781
H  H58  1  0.10570000  0.13560000  0.22680000  1.0 0.3554295665
H  H59  1  0.09270000  0.04090000  0.53550000  1.0 0.169050551
H  H60  1  0.08520000  0.97350000  0.51610000  1.0 0.1041197172
H  H61  1  0.84510000  0.14710000  0.63620000  1.0 0.1408223053
H  H62  1  0.56250000  0.20350000  0.71760000  1.0 0.1246878868
H  H63  1  0.56680000  0.14230000  0.63520000  1.0 0.132572781
H  H64  1  0.91640000  0.29690000  0.82930000  1.0 0.132572781
H  H65  1  0.66280000  0.33670000  0.88290000  1.0 0.132572781
H  H66  1  0.59680000  0.27520000  0.81060000  1.0 0.132572781
H  H67  1  0.94490000  0.30570000  0.72500000  1.0 0.132572781
H  H68  1  0.86030000  0.30400000  0.68430000  1.0 0.1408223053
H  H69  1  0.94800000  0.25850000  0.67240000  1.0 0.132572781
H  H70  1  0.89430000  0.13560000  0.77320000  1.0 0.3554295665
H  H71  1  0.90730000  0.04090000  0.46450000  1.0 0.169050551
H  H72  1  0.91480000  0.97350000  0.48390000  1.0 0.1041197172
H  H73  1  0.65490000  0.35290000  0.13620000  1.0 0.1408223053
H  H74  1  0.93750000  0.29650000  0.21760000  1.0 0.1246878868
H  H75  1  0.93320000  0.35770000  0.13520000  1.0 0.132572781
H  H76  1  0.58360000  0.20310000  0.32930000  1.0 0.132572781
H  H77  1  0.83720000  0.16330000  0.38290000  1.0 0.132572781
H  H78  1  0.90320000  0.22480000  0.31060000  1.0 0.132572781
H  H79  1  0.55510000  0.19430000  0.22500000  1.0 0.132572781
H  H80  1  0.63970000  0.19600000  0.18430000  1.0 0.1408223053
H  H81  1  0.55200000  0.24150000  0.17240000  1.0 0.132572781
H  H82  1  0.60570000  0.36440000  0.27320000  1.0 0.3554295665
H  H83  1  0.59270000  0.45910000  0.96450000  1.0 0.169050551
H  H84  1  0.58520000  0.52650000  0.98390000  1.0 0.1041197172
H  H85  1  0.34510000  0.35290000  0.86380000  1.0 0.1408223053
H  H86  1  0.06250000  0.29650000  0.78240000  1.0 0.1246878868
H  H87  1  0.06680000  0.35770000  0.86480000  1.0 0.132572781
H  H88  1  0.41640000  0.20310000  0.67070000  1.0 0.132572781
H  H89  1  0.16280000  0.16330000  0.61710000  1.0 0.132572781
H  H90  1  0.09680000  0.22480000  0.68940000  1.0 0.132572781
H  H91  1  0.44490000  0.19430000  0.77500000  1.0 0.132572781
H  H92  1  0.36030000  0.19600000  0.81570000  1.0 0.1408223053
H  H93  1  0.44800000  0.24150000  0.82760000  1.0 0.132572781
H  H94  1  0.39430000  0.36440000  0.72680000  1.0 0.3554295665
H  H95  1  0.40730000  0.45910000  0.03550000  1.0 0.169050551
H  H96  1  0.41480000  0.52650000  0.01610000  1.0 0.1041197172
H  H97  1  0.56070000  0.00000000  0.42540000  1.0 0.4012723332
H  H98  1  0.43930000  0.00000000  0.57460000  1.0 0.4012723332
H  H99  1  0.06070000  0.50000000  0.07460000  1.0 0.4012723332
H  H100  1  0.93930000  0.50000000  0.92540000  1.0 0.4012723332
C  C1  1  0.70860000  0.90360000  0.57710000  1.0 0.6238795957
C  C2  1  0.70600000  0.86180000  0.62690000  1.0 -0.0412093784
C  C3  1  0.78810000  0.84080000  0.65140000  1.0 -0.11205626
C  C4  1  0.78370000  0.80200000  0.69820000  1.0 -0.0412093784
C  C5  1  0.70340000  0.78560000  0.72300000  1.0 0.0328322402
C  C6  1  0.61860000  0.80690000  0.70060000  1.0 -0.1366306478
C  C7  1  0.62210000  0.84410000  0.65180000  1.0 -0.0710967192
C  C8  1  0.86590000  0.78250000  0.73400000  1.0 0.3707029736
C  C9  1  0.81490000  0.74090000  0.77940000  1.0 -0.0412093784
C  C10  1  0.85230000  0.70600000  0.82520000  1.0 -0.119076238
C  C11  1  0.79800000  0.67740000  0.86240000  1.0 -0.0152428769
C  C12  1  0.70100000  0.68360000  0.85660000  1.0 -0.0822533006
C  C13  1  0.66070000  0.71880000  0.81330000  1.0 -0.1327761384
C  C14  1  0.72250000  0.74520000  0.77310000  1.0 0.0434989831
C  C15  1  0.83550000  0.63810000  0.91030000  1.0 0.6515475576
C  C16  1  0.90880000  0.72300000  0.70080000  1.0 -0.4917963951
C  C17  1  0.29140000  0.90360000  0.42290000  1.0 0.6238795957
C  C18  1  0.29400000  0.86180000  0.37310000  1.0 -0.0412093784
C  C19  1  0.21190000  0.84080000  0.34860000  1.0 -0.11205626
C  C20  1  0.21630000  0.80200000  0.30180000  1.0 -0.0412093784
C  C21  1  0.29660000  0.78560000  0.27700000  1.0 0.0328322402
C  C22  1  0.38140000  0.80690000  0.29940000  1.0 -0.1366306478
C  C23  1  0.37790000  0.84410000  0.34820000  1.0 -0.0710967192
C  C24  1  0.13410000  0.78250000  0.26600000  1.0 0.3707029736
C  C25  1  0.18510000  0.74090000  0.22060000  1.0 -0.0412093784
C  C26  1  0.14770000  0.70600000  0.17480000  1.0 -0.119076238
C  C27  1  0.20200000  0.67740000  0.13760000  1.0 -0.0152428769
C  C28  1  0.29900000  0.68360000  0.14340000  1.0 -0.0822533006
C  C29  1  0.33930000  0.71880000  0.18670000  1.0 -0.1327761384
C  C30  1  0.27750000  0.74520000  0.22690000  1.0 0.0434989831
C  C31  1  0.16450000  0.63810000  0.08970000  1.0 0.6515475576
C  C32  1  0.09120000  0.72300000  0.29920000  1.0 -0.4917963951
C  C33  1  0.20860000  0.59640000  0.92290000  1.0 0.6238795957
C  C34  1  0.20600000  0.63820000  0.87310000  1.0 -0.0412093784
C  C35  1  0.28810000  0.65920000  0.84860000  1.0 -0.11205626
C  C36  1  0.28370000  0.69800000  0.80180000  1.0 -0.0412093784
C  C37  1  0.20340000  0.71440000  0.77700000  1.0 0.0328322402
C  C38  1  0.11860000  0.69310000  0.79940000  1.0 -0.1366306478
C  C39  1  0.12210000  0.65590000  0.84820000  1.0 -0.0710967192
C  C40  1  0.36590000  0.71750000  0.76600000  1.0 0.3707029736
C  C41  1  0.31490000  0.75910000  0.72060000  1.0 -0.0412093784
C  C42  1  0.35230000  0.79400000  0.67480000  1.0 -0.119076238
C  C43  1  0.29800000  0.82260000  0.63760000  1.0 -0.0152428769
C  C44  1  0.20100000  0.81640000  0.64340000  1.0 -0.0822533006
C  C45  1  0.16070000  0.78120000  0.68670000  1.0 -0.1327761384
C  C46  1  0.22250000  0.75480000  0.72690000  1.0 0.0434989831
C  C47  1  0.33550000  0.86190000  0.58970000  1.0 0.6515475576
C  C48  1  0.40880000  0.77700000  0.79920000  1.0 -0.4917963951
C  C49  1  0.79140000  0.59640000  0.07710000  1.0 0.6238795957
C  C50  1  0.79400000  0.63820000  0.12690000  1.0 -0.0412093784
C  C51  1  0.71190000  0.65920000  0.15140000  1.0 -0.11205626
C  C52  1  0.71630000  0.69800000  0.19820000  1.0 -0.0412093784
C  C53  1  0.79660000  0.71440000  0.22300000  1.0 0.0328322402
C  C54  1  0.88140000  0.69310000  0.20060000  1.0 -0.1366306478
C  C55  1  0.87790000  0.65590000  0.15180000  1.0 -0.0710967192
C  C56  1  0.63410000  0.71750000  0.23400000  1.0 0.3707029736
C  C57  1  0.68510000  0.75910000  0.27940000  1.0 -0.0412093784
C  C58  1  0.64770000  0.79400000  0.32520000  1.0 -0.119076238
C  C59  1  0.70200000  0.82260000  0.36240000  1.0 -0.0152428769
C  C60  1  0.79900000  0.81640000  0.35660000  1.0 -0.0822533006
C  C61  1  0.83930000  0.78120000  0.31330000  1.0 -0.1327761384
C  C62  1  0.77750000  0.75480000  0.27310000  1.0 0.0434989831
C  C63  1  0.66450000  0.86190000  0.41030000  1.0 0.6515475576
C  C64  1  0.59120000  0.77700000  0.20080000  1.0 -0.4917963951
C  C65  1  0.29140000  0.09640000  0.42290000  1.0 0.6238795957
C  C66  1  0.29400000  0.13820000  0.37310000  1.0 -0.0412093784
C  C67  1  0.21190000  0.15920000  0.34860000  1.0 -0.11205626
C  C68  1  0.21630000  0.19800000  0.30180000  1.0 -0.0412093784
C  C69  1  0.29660000  0.21440000  0.27700000  1.0 0.0328322402
C  C70  1  0.38140000  0.19310000  0.29940000  1.0 -0.1366306478
C  C71  1  0.37790000  0.15590000  0.34820000  1.0 -0.0710967192
C  C72  1  0.13410000  0.21750000  0.26600000  1.0 0.3707029736
C  C73  1  0.18510000  0.25910000  0.22060000  1.0 -0.0412093784
C  C74  1  0.14770000  0.29400000  0.17480000  1.0 -0.119076238
C  C75  1  0.20200000  0.32260000  0.13760000  1.0 -0.0152428769
C  C76  1  0.29900000  0.31640000  0.14340000  1.0 -0.0822533006
C  C77  1  0.33930000  0.28120000  0.18670000  1.0 -0.1327761384
C  C78  1  0.27750000  0.25480000  0.22690000  1.0 0.0434989831
C  C79  1  0.16450000  0.36190000  0.08970000  1.0 0.6515475576
C  C80  1  0.09120000  0.27700000  0.29920000  1.0 -0.4917963951
C  C81  1  0.70860000  0.09640000  0.57710000  1.0 0.6238795957
C  C82  1  0.70600000  0.13820000  0.62690000  1.0 -0.0412093784
C  C83  1  0.78810000  0.15920000  0.65140000  1.0 -0.11205626
C  C84  1  0.78370000  0.19800000  0.69820000  1.0 -0.0412093784
C  C85  1  0.70340000  0.21440000  0.72300000  1.0 0.0328322402
C  C86  1  0.61860000  0.19310000  0.70060000  1.0 -0.1366306478
C  C87  1  0.62210000  0.15590000  0.65180000  1.0 -0.0710967192
C  C88  1  0.86590000  0.21750000  0.73400000  1.0 0.3707029736
C  C89  1  0.81490000  0.25910000  0.77940000  1.0 -0.0412093784
C  C90  1  0.85230000  0.29400000  0.82520000  1.0 -0.119076238
C  C91  1  0.79800000  0.32260000  0.86240000  1.0 -0.0152428769
C  C92  1  0.70100000  0.31640000  0.85660000  1.0 -0.0822533006
C  C93  1  0.66070000  0.28120000  0.81330000  1.0 -0.1327761384
C  C94  1  0.72250000  0.25480000  0.77310000  1.0 0.0434989831
C  C95  1  0.83550000  0.36190000  0.91030000  1.0 0.6515475576
C  C96  1  0.90880000  0.27700000  0.70080000  1.0 -0.4917963951
C  C97  1  0.79140000  0.40360000  0.07710000  1.0 0.6238795957
C  C98  1  0.79400000  0.36180000  0.12690000  1.0 -0.0412093784
C  C99  1  0.71190000  0.34080000  0.15140000  1.0 -0.11205626
C  C100  1  0.71630000  0.30200000  0.19820000  1.0 -0.0412093784
C  C101  1  0.79660000  0.28560000  0.22300000  1.0 0.0328322402
C  C102  1  0.88140000  0.30690000  0.20060000  1.0 -0.1366306478
C  C103  1  0.87790000  0.34410000  0.15180000  1.0 -0.0710967192
C  C104  1  0.63410000  0.28250000  0.23400000  1.0 0.3707029736
C  C105  1  0.68510000  0.24090000  0.27940000  1.0 -0.0412093784
C  C106  1  0.64770000  0.20600000  0.32520000  1.0 -0.119076238
C  C107  1  0.70200000  0.17740000  0.36240000  1.0 -0.0152428769
C  C108  1  0.79900000  0.18360000  0.35660000  1.0 -0.0822533006
C  C109  1  0.83930000  0.21880000  0.31330000  1.0 -0.1327761384
C  C110  1  0.77750000  0.24520000  0.27310000  1.0 0.0434989831
C  C111  1  0.66450000  0.13810000  0.41030000  1.0 0.6515475576
C  C112  1  0.59120000  0.22300000  0.20080000  1.0 -0.4917963951
C  C113  1  0.20860000  0.40360000  0.92290000  1.0 0.6238795957
C  C114  1  0.20600000  0.36180000  0.87310000  1.0 -0.0412093784
C  C115  1  0.28810000  0.34080000  0.84860000  1.0 -0.11205626
C  C116  1  0.28370000  0.30200000  0.80180000  1.0 -0.0412093784
C  C117  1  0.20340000  0.28560000  0.77700000  1.0 0.0328322402
C  C118  1  0.11860000  0.30690000  0.79940000  1.0 -0.1366306478
C  C119  1  0.12210000  0.34410000  0.84820000  1.0 -0.0710967192
C  C120  1  0.36590000  0.28250000  0.76600000  1.0 0.3707029736
C  C121  1  0.31490000  0.24090000  0.72060000  1.0 -0.0412093784
C  C122  1  0.35230000  0.20600000  0.67480000  1.0 -0.119076238
C  C123  1  0.29800000  0.17740000  0.63760000  1.0 -0.0152428769
C  C124  1  0.20100000  0.18360000  0.64340000  1.0 -0.0822533006
C  C125  1  0.16070000  0.21880000  0.68670000  1.0 -0.1327761384
C  C126  1  0.22250000  0.24520000  0.72690000  1.0 0.0434989831
C  C127  1  0.33550000  0.13810000  0.58970000  1.0 0.6515475576
C  C128  1  0.40880000  0.22300000  0.79920000  1.0 -0.4917963951
N  N1  1  0.72360000  0.00000000  0.32930000  1.0 0.7090117103
N  N2  1  0.27640000  0.00000000  0.67070000  1.0 0.7090117103
N  N3  1  0.22360000  0.50000000  0.17070000  1.0 0.7090117103
N  N4  1  0.77640000  0.50000000  0.82930000  1.0 0.7090117103
N  N5  1  0.50000000  0.25490000  0.50000000  1.0 0.7384824818
N  N6  1  0.00000000  0.24510000  0.00000000  1.0 0.7384824818
N  N7  1  0.50000000  0.74510000  0.50000000  1.0 0.7384824818
N  N8  1  0.00000000  0.75490000  0.00000000  1.0 0.7384824818
O  O1  1  0.63260000  0.92514000  0.55319000  1.0 -0.7333361665
O  O2  1  0.78460000  0.92387000  0.55672000  1.0 -0.579580077
O  O3  1  0.78010000  0.60997000  0.94368000  1.0 -0.6599350208
O  O4  1  0.92230000  0.63765000  0.91732000  1.0 -0.631248557
O  O5  1  0.92580000  0.82970000  0.75178000  1.0 -0.4304379011
O  O6  1  0.43340000  0.22097000  0.47753000  1.0 -0.5647051567
O  O7  1  0.36740000  0.92514000  0.44681000  1.0 -0.7333361665
O  O8  1  0.21540000  0.92387000  0.44328000  1.0 -0.579580077
O  O9  1  0.21990000  0.60997000  0.05632000  1.0 -0.6599350208
O  O10  1  0.07770000  0.63765000  0.08268000  1.0 -0.631248557
O  O11  1  0.07420000  0.82970000  0.24822000  1.0 -0.4304379011
O  O12  1  0.56660000  0.22097000  0.52247000  1.0 -0.5647051567
O  O13  1  0.13260000  0.57486000  0.94681000  1.0 -0.7333361665
O  O14  1  0.28460000  0.57613000  0.94328000  1.0 -0.579580077
O  O15  1  0.28010000  0.89003000  0.55632000  1.0 -0.6599350208
O  O16  1  0.42230000  0.86235000  0.58268000  1.0 -0.631248557
O  O17  1  0.42580000  0.67030000  0.74822000  1.0 -0.4304379011
O  O18  1  0.93340000  0.27903000  0.02247000  1.0 -0.5647051567
O  O19  1  0.86740000  0.57486000  0.05319000  1.0 -0.7333361665
O  O20  1  0.71540000  0.57613000  0.05672000  1.0 -0.579580077
O  O21  1  0.71990000  0.89003000  0.44368000  1.0 -0.6599350208
O  O22  1  0.57770000  0.86235000  0.41732000  1.0 -0.631248557
O  O23  1  0.57420000  0.67030000  0.25178000  1.0 -0.4304379011
O  O24  1  0.06660000  0.27903000  0.97753000  1.0 -0.5647051567
O  O25  1  0.36740000  0.07486000  0.44681000  1.0 -0.7333361665
O  O26  1  0.21540000  0.07613000  0.44328000  1.0 -0.579580077
O  O27  1  0.21990000  0.39003000  0.05632000  1.0 -0.6599350208
O  O28  1  0.07770000  0.36235000  0.08268000  1.0 -0.631248557
O  O29  1  0.07420000  0.17030000  0.24822000  1.0 -0.4304379011
O  O30  1  0.56660000  0.77903000  0.52247000  1.0 -0.5647051567
O  O31  1  0.63260000  0.07486000  0.55319000  1.0 -0.7333361665
O  O32  1  0.78460000  0.07613000  0.55672000  1.0 -0.579580077
O  O33  1  0.78010000  0.39003000  0.94368000  1.0 -0.6599350208
O  O34  1  0.92230000  0.36235000  0.91732000  1.0 -0.631248557
O  O35  1  0.92580000  0.17030000  0.75178000  1.0 -0.4304379011
O  O36  1  0.43340000  0.77903000  0.47753000  1.0 -0.5647051567
O  O37  1  0.86740000  0.42514000  0.05319000  1.0 -0.7333361665
O  O38  1  0.71540000  0.42387000  0.05672000  1.0 -0.579580077
O  O39  1  0.71990000  0.10997000  0.44368000  1.0 -0.6599350208
O  O40  1  0.57770000  0.13765000  0.41732000  1.0 -0.631248557
O  O41  1  0.57420000  0.32970000  0.25178000  1.0 -0.4304379011
O  O42  1  0.06660000  0.72097000  0.97753000  1.0 -0.5647051567
O  O43  1  0.13260000  0.42514000  0.94681000  1.0 -0.7333361665
O  O44  1  0.28460000  0.42387000  0.94328000  1.0 -0.579580077
O  O45  1  0.28010000  0.10997000  0.55632000  1.0 -0.6599350208
O  O46  1  0.42230000  0.13765000  0.58268000  1.0 -0.631248557
O  O47  1  0.42580000  0.32970000  0.74822000  1.0 -0.4304379011
O  O48  1  0.93340000  0.72097000  0.02247000  1.0 -0.5647051567
O  O49  1  0.56760000  0.00000000  0.46028000  1.0 -1.1116240257
O  O50  1  0.71060000  0.00000000  0.37930000  1.0 -0.4619235033
O  O51  1  0.80520000  0.00000000  0.31150000  1.0 -0.4039338166
O  O52  1  0.65590000  0.00000000  0.29460000  1.0 -0.4481893117
O  O53  1  0.88610000  0.00000000  0.46170000  1.0 -0.4917963951
O  O54  1  0.43240000  0.00000000  0.53972000  1.0 -1.1116240257
O  O55  1  0.28940000  0.00000000  0.62070000  1.0 -0.4619235033
O  O56  1  0.19480000  0.00000000  0.68850000  1.0 -0.4039338166
O  O57  1  0.34410000  0.00000000  0.70540000  1.0 -0.4481893117
O  O58  1  0.11390000  0.00000000  0.53830000  1.0 -0.4917963951
O  O59  1  0.06760000  0.50000000  0.03972000  1.0 -1.1116240257
O  O60  1  0.21060000  0.50000000  0.12070000  1.0 -0.4619235033
O  O61  1  0.30520000  0.50000000  0.18850000  1.0 -0.4039338166
O  O62  1  0.15590000  0.50000000  0.20540000  1.0 -0.4481893117
O  O63  1  0.38610000  0.50000000  0.03830000  1.0 -0.4917963951
O  O64  1  0.93240000  0.50000000  0.96028000  1.0 -1.1116240257
O  O65  1  0.78940000  0.50000000  0.87930000  1.0 -0.4619235033
O  O66  1  0.69480000  0.50000000  0.81150000  1.0 -0.4039338166
O  O67  1  0.84410000  0.50000000  0.79460000  1.0 -0.4481893117
O  O68  1  0.61390000  0.50000000  0.96170000  1.0 -0.4917963951
O  O69  1  0.50000000  0.32090000  0.50000000  1.0 -0.3658318752
O  O70  1  0.00000000  0.17910000  0.00000000  1.0 -0.3658318752
O  O71  1  0.50000000  0.67910000  0.50000000  1.0 -0.3658318752
O  O72  1  0.00000000  0.82090000  0.00000000  1.0 -0.3658318752
