# DDEC6 charges by PACMAN v1.1 (https://github.com/mtap-research/PACMAN-charge/)
data_JUXFAL_ASR_pacman
_symmetry_space_group_name_H-M   'P 1'
_cell_length_a   11.55530000
_cell_length_b   11.55530000
_cell_length_c   10.28190000
_cell_angle_alpha   86.84010000
_cell_angle_beta   93.15990000
_cell_angle_gamma   91.86290000
_symmetry_Int_Tables_number   1
_chemical_formula_structural   Tb2H8(C6O5)3
_chemical_formula_sum   'Tb4 H16 C36 O30'
_cell_volume   1368.12063036
_cell_formula_units_Z   2
loop_
 _symmetry_equiv_pos_site_id
 _symmetry_equiv_pos_as_xyz
  1  'x, y, z'
loop_
 _atom_site_type_symbol
 _atom_site_label
 _atom_site_symmetry_multiplicity
 _atom_site_fract_x
 _atom_site_fract_y
 _atom_site_fract_z
 _atom_site_occupancy
 _atom_site_charge
Tb  Tb1  1  0.33933000  0.41553000  0.45696000  1.0 2.0423792552
Tb  Tb2  1  0.41554000  0.33932000  0.04304000  1.0 2.0423792552
Tb  Tb3  1  0.66068000  0.58447000  0.54304000  1.0 2.0423792552
Tb  Tb4  1  0.58447000  0.66067000  0.95696000  1.0 2.0423792552
H  H1  1  0.30900000  0.00500000  0.59900000  1.0 0.3113269906
H  H2  1  0.00500000  0.30900000  0.90100000  1.0 0.3113269906
H  H3  1  0.69100000  0.99500000  0.40100000  1.0 0.3113269906
H  H4  1  0.99500000  0.69100000  0.09900000  1.0 0.3113269906
H  H5  1  0.45300000  0.00480000  0.16270000  1.0 0.1437793325
H  H6  1  0.00480000  0.45300000  0.33730000  1.0 0.1437793325
H  H7  1  0.54700000  0.99520000  0.83730000  1.0 0.1437793325
H  H8  1  0.99520000  0.54700000  0.66270000  1.0 0.1437793325
H  H9  1  0.33730000  0.81690000  0.54870000  1.0 0.1470994901
H  H10  1  0.81690000  0.33730000  0.95130000  1.0 0.1470994901
H  H11  1  0.66270000  0.18310000  0.45130000  1.0 0.1470994901
H  H12  1  0.18310000  0.66270000  0.04870000  1.0 0.1470994901
H  H13  1  0.50900000  0.44300000  0.27700000  1.0 0.3113269906
H  H14  1  0.44300000  0.50900000  0.22300000  1.0 0.3113269906
H  H15  1  0.49100000  0.55700000  0.72300000  1.0 0.3113269906
H  H16  1  0.55700000  0.49100000  0.77700000  1.0 0.3113269906
C  C1  1  0.35836000  0.97610000  0.45630000  1.0 0.2701118242
C  C2  1  0.97610000  0.35836000  0.04370000  1.0 0.2701118242
C  C3  1  0.64164000  0.02390000  0.54370000  1.0 0.2701118242
C  C4  1  0.02390000  0.64164000  0.95630000  1.0 0.2701118242
C  C5  1  0.39039000  0.03309000  0.33870000  1.0 -0.1496242632
C  C6  1  0.03309000  0.39039000  0.16130000  1.0 -0.1496242632
C  C7  1  0.60961000  0.96691000  0.66130000  1.0 -0.1496242632
C  C8  1  0.96691000  0.60961000  0.83870000  1.0 -0.1496242632
C  C9  1  0.42928000  0.96660000  0.24150000  1.0 -0.0868478615
C  C10  1  0.96660000  0.42928000  0.25850000  1.0 -0.0868478615
C  C11  1  0.57072000  0.03340000  0.75850000  1.0 -0.0868478615
C  C12  1  0.03340000  0.57072000  0.74150000  1.0 -0.0868478615
C  C13  1  0.43466000  0.84658000  0.25560000  1.0 -0.0770096902
C  C14  1  0.84658000  0.43466000  0.24440000  1.0 -0.0770096902
C  C15  1  0.56534000  0.15342000  0.74440000  1.0 -0.0770096902
C  C16  1  0.15342000  0.56534000  0.75560000  1.0 -0.0770096902
C  C17  1  0.39706000  0.79082000  0.37150000  1.0 0.0137509846
C  C18  1  0.79082000  0.39706000  0.12850000  1.0 0.0137509846
C  C19  1  0.60294000  0.20918000  0.62850000  1.0 0.0137509846
C  C20  1  0.20918000  0.60294000  0.87150000  1.0 0.0137509846
C  C21  1  0.36091000  0.85543000  0.47010000  1.0 -0.2466629755
C  C22  1  0.85543000  0.36091000  0.02990000  1.0 -0.2466629755
C  C23  1  0.63909000  0.14457000  0.52990000  1.0 -0.2466629755
C  C24  1  0.14457000  0.63909000  0.97010000  1.0 -0.2466629755
C  C25  1  0.38312000  0.16116000  0.31070000  1.0 0.6752395581
C  C26  1  0.16116000  0.38312000  0.18930000  1.0 0.6752395581
C  C27  1  0.61688000  0.83884000  0.68930000  1.0 0.6752395581
C  C28  1  0.83884000  0.61688000  0.81070000  1.0 0.6752395581
C  C29  1  0.48157000  0.78187000  0.14990000  1.0 0.5770956229
C  C30  1  0.78187000  0.48157000  0.35010000  1.0 0.5770956229
C  C31  1  0.51843000  0.21813000  0.85010000  1.0 0.5770956229
C  C32  1  0.21813000  0.51843000  0.64990000  1.0 0.5770956229
C  C33  1  0.38909000  0.66225000  0.39350000  1.0 0.6315574002
C  C34  1  0.66225000  0.38909000  0.10650000  1.0 0.6315574002
C  C35  1  0.61091000  0.33775000  0.60650000  1.0 0.6315574002
C  C36  1  0.33775000  0.61091000  0.89350000  1.0 0.6315574002
O  O1  1  0.32272000  0.03698000  0.55439000  1.0 -0.3758820344
O  O2  1  0.03698000  0.32272000  0.94561000  1.0 -0.3758820344
O  O3  1  0.67728000  0.96302000  0.44561000  1.0 -0.3728480984
O  O4  1  0.96302000  0.67728000  0.05439000  1.0 -0.3728480984
O  O5  1  0.38695000  0.22723000  0.40349000  1.0 -0.6490123916
O  O6  1  0.22723000  0.38695000  0.09651000  1.0 -0.6490123916
O  O7  1  0.61305000  0.77277000  0.59651000  1.0 -0.6490123916
O  O8  1  0.77277000  0.61305000  0.90349000  1.0 -0.6490123916
O  O9  1  0.37492000  0.19496000  0.19171000  1.0 -0.6784508575
O  O10  1  0.19496000  0.37492000  0.30829000  1.0 -0.6784508575
O  O11  1  0.62508000  0.80504000  0.80829000  1.0 -0.6784508575
O  O12  1  0.80504000  0.62508000  0.69171000  1.0 -0.6784508575
O  O13  1  0.52214000  0.83630000  0.05268000  1.0 -0.6026893307
O  O14  1  0.83630000  0.52214000  0.44732000  1.0 -0.6026893307
O  O15  1  0.47786000  0.16370000  0.94732000  1.0 -0.6026893307
O  O16  1  0.16370000  0.47786000  0.55268000  1.0 -0.6026893307
O  O17  1  0.48235000  0.67111000  0.15921000  1.0 -0.6251359035
O  O18  1  0.67111000  0.48235000  0.34079000  1.0 -0.6251359035
O  O19  1  0.51765000  0.32889000  0.84079000  1.0 -0.6251359035
O  O20  1  0.32889000  0.51765000  0.65921000  1.0 -0.6251359035
O  O21  1  0.47138000  0.60680000  0.45159000  1.0 -0.7132663329
O  O22  1  0.60680000  0.47138000  0.04841000  1.0 -0.7132663329
O  O23  1  0.52862000  0.39320000  0.54841000  1.0 -0.7132663329
O  O24  1  0.39320000  0.52862000  0.95159000  1.0 -0.7132663329
O  O25  1  0.29613000  0.60985000  0.35915000  1.0 -0.5833669353
O  O26  1  0.60985000  0.29613000  0.14085000  1.0 -0.5833669353
O  O27  1  0.70387000  0.39015000  0.64085000  1.0 -0.5833669353
O  O28  1  0.39015000  0.70387000  0.85915000  1.0 -0.5833669353
O  O29  1  0.44800000  0.44800000  0.25000000  1.0 -0.6744716812
O  O30  1  0.55200000  0.55200000  0.75000000  1.0 -0.6744716812
