# DDEC6 charges by PACMAN v1.1 (https://github.com/mtap-research/PACMAN-charge/)
data_JUYBEM_FSR_pacman
_symmetry_space_group_name_H-M   'P 1'
_cell_length_a   14.98220000
_cell_length_b   14.98220000
_cell_length_c   10.49940000
_cell_angle_alpha   72.96180000
_cell_angle_beta   107.03800000
_cell_angle_gamma   141.46500000
_symmetry_Int_Tables_number   1
_chemical_formula_structural   Cd3H28(C13O4)4
_chemical_formula_sum   'Cd3 H28 C52 O16'
_cell_volume   1395.72585379
_cell_formula_units_Z   1
loop_
 _symmetry_equiv_pos_site_id
 _symmetry_equiv_pos_as_xyz
  1  'x, y, z'
loop_
 _atom_site_type_symbol
 _atom_site_label
 _atom_site_symmetry_multiplicity
 _atom_site_fract_x
 _atom_site_fract_y
 _atom_site_fract_z
 _atom_site_occupancy
 _atom_site_charge
Cd  Cd1  1  0.00000000  0.00000000  0.50000000  1.0 1.1165018063
Cd  Cd2  1  0.89934000  0.10066000  0.20715000  1.0 0.9740324896
Cd  Cd3  1  0.10066000  0.89934000  0.79285000  1.0 0.9740324896
H  H1  1  0.90580000  0.09420000  0.74670000  1.0 0.1421678308
H  H2  1  0.09420000  0.90580000  0.25330000  1.0 0.1421678308
H  H3  1  0.76690000  0.23310000  0.78920000  1.0 0.1421678308
H  H4  1  0.23310000  0.76690000  0.21080000  1.0 0.1421678308
H  H5  1  0.78270000  0.21730000  0.41750000  1.0 0.1421678308
H  H6  1  0.21730000  0.78270000  0.58250000  1.0 0.1421678308
H  H7  1  0.41410000  0.58590000  0.23600000  1.0 0.1421678308
H  H8  1  0.58590000  0.41410000  0.76400000  1.0 0.1421678308
H  H9  1  0.74250000  0.65850000  0.37460000  1.0 0.1291599255
H  H10  1  0.65850000  0.74250000  0.62540000  1.0 0.1291599255
H  H11  1  0.25750000  0.34150000  0.62540000  1.0 0.1291599255
H  H12  1  0.34150000  0.25750000  0.37460000  1.0 0.1291599255
H  H13  1  0.43460000  0.21100000  0.53920000  1.0 0.1111087054
H  H14  1  0.21100000  0.43460000  0.46080000  1.0 0.1111087054
H  H15  1  0.56540000  0.78900000  0.46080000  1.0 0.1111087054
H  H16  1  0.78900000  0.56540000  0.53920000  1.0 0.1111087054
H  H17  1  0.52670000  0.12710000  0.63690000  1.0 0.1174654719
H  H18  1  0.12710000  0.52670000  0.36310000  1.0 0.1174654719
H  H19  1  0.47330000  0.87290000  0.36310000  1.0 0.1174654719
H  H20  1  0.87290000  0.47330000  0.63690000  1.0 0.1174654719
H  H21  1  0.87030000  0.45590000  0.42810000  1.0 0.1111087054
H  H22  1  0.45590000  0.87030000  0.57190000  1.0 0.1111087054
H  H23  1  0.12970000  0.54410000  0.57190000  1.0 0.1111087054
H  H24  1  0.54410000  0.12970000  0.42810000  1.0 0.1111087054
H  H25  1  0.79120000  0.55100000  0.33430000  1.0 0.1111087054
H  H26  1  0.55100000  0.79120000  0.66570000  1.0 0.1111087054
H  H27  1  0.20880000  0.44900000  0.66570000  1.0 0.1111087054
H  H28  1  0.44900000  0.20880000  0.33430000  1.0 0.1111087054
C  C1  1  0.88150000  0.11850000  0.47980000  1.0 0.5757967215
C  C2  1  0.11850000  0.88150000  0.52020000  1.0 0.5757967215
C  C3  1  0.86220000  0.13780000  0.93950000  1.0 0.5590114575
C  C4  1  0.13780000  0.86220000  0.06050000  1.0 0.5590114575
C  C5  1  0.84860000  0.15140000  0.57000000  1.0 -0.0040439945
C  C6  1  0.15140000  0.84860000  0.43000000  1.0 -0.0040439945
C  C7  1  0.87140000  0.12860000  0.70940000  1.0 -0.1375371236
C  C8  1  0.12860000  0.87140000  0.29060000  1.0 -0.1375371236
C  C9  1  0.83930000  0.16070000  0.79190000  1.0 0.0126796495
C  C10  1  0.16070000  0.83930000  0.20810000  1.0 0.0126796495
C  C11  1  0.78720000  0.21280000  0.73450000  1.0 -0.1818532664
C  C12  1  0.21280000  0.78720000  0.26550000  1.0 -0.1818532664
C  C13  1  0.76630000  0.23370000  0.59650000  1.0 0.0771008097
C  C14  1  0.23370000  0.76630000  0.40350000  1.0 0.0771008097
C  C15  1  0.79680000  0.20320000  0.51010000  1.0 -0.2143960167
C  C16  1  0.20320000  0.79680000  0.48990000  1.0 -0.2143960167
C  C17  1  0.69590000  0.80430000  0.27600000  1.0 0.5709223133
C  C18  1  0.80430000  0.69590000  0.72400000  1.0 0.5709223133
C  C19  1  0.30410000  0.19570000  0.72400000  1.0 0.5709223133
C  C20  1  0.19570000  0.30410000  0.27600000  1.0 0.5709223133
C  C21  1  0.44840000  0.55160000  0.27590000  1.0 -0.0997792352
C  C22  1  0.55160000  0.44840000  0.72410000  1.0 -0.0997792352
C  C23  1  0.59340000  0.64720000  0.30460000  1.0 -0.0154392645
C  C24  1  0.64720000  0.59340000  0.69540000  1.0 -0.0154392645
C  C25  1  0.40660000  0.35280000  0.69540000  1.0 -0.0154392645
C  C26  1  0.35280000  0.40660000  0.30460000  1.0 -0.0154392645
C  C27  1  0.64370000  0.59370000  0.35690000  1.0 -0.1568931956
C  C28  1  0.59370000  0.64370000  0.64310000  1.0 -0.1568931956
C  C29  1  0.35630000  0.40630000  0.64310000  1.0 -0.1568931956
C  C30  1  0.40630000  0.35630000  0.35690000  1.0 -0.1568931956
C  C31  1  0.55170000  0.44830000  0.38300000  1.0 0.0705615487
C  C32  1  0.44830000  0.55170000  0.61700000  1.0 0.0705615487
C  C33  1  0.60640000  0.39360000  0.43810000  1.0 0.0771008097
C  C34  1  0.39360000  0.60640000  0.56190000  1.0 0.0771008097
C  C35  1  0.52360000  0.26280000  0.52030000  1.0 -0.0882756533
C  C36  1  0.26280000  0.52360000  0.47970000  1.0 -0.0882756533
C  C37  1  0.47640000  0.73720000  0.47970000  1.0 -0.0882756533
C  C38  1  0.73720000  0.47640000  0.52030000  1.0 -0.0882756533
C  C39  1  0.57750000  0.21050000  0.57780000  1.0 -0.0882756533
C  C40  1  0.21050000  0.57750000  0.42220000  1.0 -0.0882756533
C  C41  1  0.42250000  0.78950000  0.42220000  1.0 -0.0882756533
C  C42  1  0.78950000  0.42250000  0.57780000  1.0 -0.0882756533
C  C43  1  0.71010000  0.28990000  0.53610000  1.0 0.0532569029
C  C44  1  0.28990000  0.71010000  0.46390000  1.0 0.0532569029
C  C45  1  0.78420000  0.40780000  0.45120000  1.0 -0.0547658577
C  C46  1  0.40780000  0.78420000  0.54880000  1.0 -0.0547658577
C  C47  1  0.21580000  0.59220000  0.54880000  1.0 -0.0547658577
C  C48  1  0.59220000  0.21580000  0.45120000  1.0 -0.0547658577
C  C49  1  0.73910000  0.46890000  0.39590000  1.0 -0.072757598
C  C50  1  0.46890000  0.73910000  0.60410000  1.0 -0.072757598
C  C51  1  0.26090000  0.53110000  0.60410000  1.0 -0.072757598
C  C52  1  0.53110000  0.26090000  0.39590000  1.0 -0.072757598
O  O1  1  0.92730000  0.07270000  0.53800000  1.0 -0.5586974639
O  O2  1  0.07270000  0.92730000  0.46200000  1.0 -0.5586974639
O  O3  1  0.86040000  0.13960000  0.35850000  1.0 -0.5060159582
O  O4  1  0.13960000  0.86040000  0.64150000  1.0 -0.5060159582
O  O5  1  0.90850000  0.09150000  0.99210000  1.0 -0.5281485337
O  O6  1  0.09150000  0.90850000  0.00790000  1.0 -0.5281485337
O  O7  1  0.83210000  0.16790000  0.01090000  1.0 -0.5440214295
O  O8  1  0.16790000  0.83210000  0.98910000  1.0 -0.5440214295
O  O9  1  0.82690000  0.88990000  0.32010000  1.0 -0.5673092622
O  O10  1  0.88990000  0.82690000  0.67990000  1.0 -0.5673092622
O  O11  1  0.17310000  0.11010000  0.67990000  1.0 -0.5673092622
O  O12  1  0.11010000  0.17310000  0.32010000  1.0 -0.5673092622
O  O13  1  0.65652000  0.85268000  0.20380000  1.0 -0.4831421394
O  O14  1  0.85268000  0.65652000  0.79620000  1.0 -0.4831421394
O  O15  1  0.34348000  0.14732000  0.79620000  1.0 -0.4831421394
O  O16  1  0.14732000  0.34348000  0.20380000  1.0 -0.4831421394
