# DDEC6 charges by PACMAN v1.1 (https://github.com/mtap-research/PACMAN-charge/)
data_JUZSEE_FSR_pacman
_symmetry_space_group_name_H-M   'P 1'
_cell_length_a   10.05550000
_cell_length_b   10.05550000
_cell_length_c   17.90200000
_cell_angle_alpha   66.06160000
_cell_angle_beta   113.93800000
_cell_angle_gamma   120.23300000
_symmetry_Int_Tables_number   1
_chemical_formula_structural   Zn2H20C15N14O
_chemical_formula_sum   'Zn4 H40 C30 N28 O2'
_cell_volume   1382.10504902
_cell_formula_units_Z   2
loop_
 _symmetry_equiv_pos_site_id
 _symmetry_equiv_pos_as_xyz
  1  'x, y, z'
loop_
 _atom_site_type_symbol
 _atom_site_label
 _atom_site_symmetry_multiplicity
 _atom_site_fract_x
 _atom_site_fract_y
 _atom_site_fract_z
 _atom_site_occupancy
 _atom_site_charge
Zn  Zn1  1  0.26422000  0.01608000  0.19349000  1.0 0.6662330332
Zn  Zn2  1  0.01608000  0.26422000  0.80651000  1.0 0.6662330332
Zn  Zn3  1  0.99844000  0.30278000  0.32078000  1.0 0.6980462971
Zn  Zn4  1  0.30278000  0.99844000  0.67922000  1.0 0.6980462971
H  H1  1  0.35430000  0.93630000  0.07490000  1.0 0.1357050616
H  H2  1  0.93630000  0.35430000  0.92510000  1.0 0.1357050616
H  H3  1  0.57020000  0.24860000  0.10540000  1.0 0.1491793501
H  H4  1  0.24860000  0.57020000  0.89460000  1.0 0.1491793501
H  H5  1  0.73180000  0.37860000  0.14140000  1.0 0.1702592898
H  H6  1  0.37860000  0.73180000  0.85860000  1.0 0.1702592898
H  H7  1  0.72780000  0.22280000  0.13840000  1.0 0.1702592898
H  H8  1  0.22280000  0.72780000  0.86160000  1.0 0.1702592898
H  H9  1  0.27080000  0.52420000  0.04320000  1.0 0.112180576
H  H10  1  0.52420000  0.27080000  0.95680000  1.0 0.112180576
H  H11  1  0.38500000  0.80080000  0.00950000  1.0 0.1314183849
H  H12  1  0.80080000  0.38500000  0.99050000  1.0 0.1314183849
H  H13  1  0.00460000  0.71220000  0.30070000  1.0 0.1000703725
H  H14  1  0.71220000  0.00460000  0.69930000  1.0 0.1000703725
H  H15  1  0.13500000  0.37700000  0.14840000  1.0 0.1314183849
H  H16  1  0.37700000  0.13500000  0.85160000  1.0 0.1314183849
H  H17  1  0.16220000  0.70080000  0.44010000  1.0 0.1607029391
H  H18  1  0.70080000  0.16220000  0.55990000  1.0 0.1607029391
H  H19  1  0.26160000  0.63960000  0.42390000  1.0 0.1491793501
H  H20  1  0.63960000  0.26160000  0.57610000  1.0 0.1491793501
H  H21  1  0.27230000  0.81330000  0.37800000  1.0 0.1314183849
H  H22  1  0.81330000  0.27230000  0.62200000  1.0 0.1314183849
H  H23  1  0.40810000  0.21170000  0.32610000  1.0 0.1491793501
H  H24  1  0.21170000  0.40810000  0.67390000  1.0 0.1491793501
H  H25  1  0.36050000  0.34830000  0.31160000  1.0 0.1607029391
H  H26  1  0.34830000  0.36050000  0.68840000  1.0 0.1607029391
H  H27  1  0.33720000  0.20440000  0.39180000  1.0 0.1607029391
H  H28  1  0.20440000  0.33720000  0.60820000  1.0 0.1607029391
H  H29  1  0.89010000  0.98850000  0.45000000  1.0 0.0717790186
H  H30  1  0.98850000  0.89010000  0.55000000  1.0 0.0717790186
H  H31  1  0.99170000  0.88690000  0.50100000  1.0 0.0807386807
H  H32  1  0.88690000  0.99170000  0.49900000  1.0 0.0807386807
H  H33  1  0.93610000  0.94250000  0.54900000  1.0 0.0717790186
H  H34  1  0.94250000  0.93610000  0.45100000  1.0 0.0717790186
H  H35  1  0.94660000  0.87400000  0.05630000  1.0 0.0807386807
H  H36  1  0.87400000  0.94660000  0.94370000  1.0 0.0807386807
H  H37  1  0.85220000  0.96840000  0.98070000  1.0 0.0807386807
H  H38  1  0.96840000  0.85220000  0.01930000  1.0 0.0807386807
H  H39  1  0.93210000  0.88850000  0.96300000  1.0 0.0807386807
H  H40  1  0.88850000  0.93210000  0.03700000  1.0 0.0807386807
C  C1  1  0.64290000  0.18650000  0.23350000  1.0 0.3680844012
C  C2  1  0.18650000  0.64290000  0.76650000  1.0 0.3680844012
C  C3  1  0.31190000  0.82570000  0.09010000  1.0 -0.1652601209
C  C4  1  0.82570000  0.31190000  0.90990000  1.0 -0.1652601209
C  C5  1  0.12140000  0.12140000  0.50000000  1.0 0.2523836496
C  C6  1  0.09440000  0.09440000  0.00000000  1.0 0.2921613756
C  C7  1  0.67070000  0.26630000  0.14690000  1.0 -0.5106314716
C  C8  1  0.26630000  0.67070000  0.85310000  1.0 -0.5106314716
C  C9  1  0.26050000  0.57650000  0.07180000  1.0 -0.0953394172
C  C10  1  0.57650000  0.26050000  0.92820000  1.0 -0.0953394172
C  C11  1  0.32830000  0.74430000  0.05060000  1.0 -0.0902683843
C  C12  1  0.74430000  0.32830000  0.94940000  1.0 -0.0902683843
C  C13  1  0.94220000  0.94220000  0.00000000  1.0 -0.3101445036
C  C14  1  0.97130000  0.97130000  0.50000000  1.0 -0.2943222619
C  C15  1  0.16690000  0.14650000  0.28450000  1.0 0.3418567482
C  C16  1  0.14650000  0.16690000  0.71550000  1.0 0.3418567482
C  C17  1  0.12050000  0.65170000  0.25640000  1.0 0.3188075724
C  C18  1  0.65170000  0.12050000  0.74360000  1.0 0.3188075724
C  C19  1  0.22930000  0.73810000  0.15400000  1.0 0.1491793501
C  C20  1  0.73810000  0.22930000  0.84600000  1.0 0.1491793501
C  C21  1  0.06480000  0.64560000  0.32520000  1.0 0.1314183849
C  C22  1  0.64560000  0.06480000  0.67480000  1.0 0.1314183849
C  C23  1  0.16350000  0.57030000  0.17630000  1.0 0.1491793501
C  C24  1  0.57030000  0.16350000  0.82370000  1.0 0.1491793501
C  C25  1  0.17870000  0.48770000  0.13440000  1.0 -0.1458322403
C  C26  1  0.48770000  0.17870000  0.86560000  1.0 -0.1458322403
C  C27  1  0.20300000  0.70540000  0.39860000  1.0 -0.4489227828
C  C28  1  0.70540000  0.20300000  0.60140000  1.0 -0.4489227828
C  C29  1  0.33350000  0.23590000  0.33300000  1.0 -0.5106314716
C  C30  1  0.23590000  0.33350000  0.66700000  1.0 -0.5106314716
N  N1  1  0.21200000  0.12440000  0.06810000  1.0 -0.3000694212
N  N2  1  0.12440000  0.21200000  0.93190000  1.0 -0.3000694212
N  N3  1  0.13730000  0.25610000  0.43980000  1.0 -0.2727560696
N  N4  1  0.25610000  0.13730000  0.56020000  1.0 -0.2727560696
N  N5  1  0.29170000  0.36250000  0.46440000  1.0 -0.0615351148
N  N6  1  0.36250000  0.29170000  0.53560000  1.0 -0.0615351148
N  N7  1  0.32520000  0.27500000  0.03940000  1.0 -0.0722396296
N  N8  1  0.27500000  0.32520000  0.96060000  1.0 -0.0722396296
N  N9  1  0.75830000  0.18690000  0.30300000  1.0 -0.2594805059
N  N10  1  0.18690000  0.75830000  0.69700000  1.0 -0.2594805059
N  N11  1  0.53270000  0.05190000  0.33700000  1.0 -0.0784912479
N  N12  1  0.05190000  0.53270000  0.66300000  1.0 -0.0784912479
N  N13  1  0.68880000  0.10660000  0.36840000  1.0 -0.0615351148
N  N14  1  0.10660000  0.68880000  0.63160000  1.0 -0.0615351148
N  N15  1  0.49960000  0.10200000  0.25060000  1.0 -0.2943222619
N  N16  1  0.10200000  0.49960000  0.74940000  1.0 -0.2943222619
N  N17  1  0.03360000  0.15140000  0.28100000  1.0 -0.3000694212
N  N18  1  0.15140000  0.03360000  0.71900000  1.0 -0.3000694212
N  N19  1  0.13560000  0.05340000  0.23860000  1.0 -0.3101445036
N  N20  1  0.05340000  0.13560000  0.76140000  1.0 -0.3101445036
N  N21  1  0.19880000  0.78780000  0.20530000  1.0 -0.3986090121
N  N22  1  0.78780000  0.19880000  0.79470000  1.0 -0.3986090121
N  N23  1  0.09500000  0.51700000  0.24300000  1.0 -0.3829953668
N  N24  1  0.51700000  0.09500000  0.75700000  1.0 -0.3829953668
N  N25  1  0.91570000  0.05450000  0.23140000  1.0 -0.0615351148
N  N26  1  0.05450000  0.91570000  0.76860000  1.0 -0.0615351148
N  N27  1  0.97320000  0.99720000  0.20570000  1.0 -0.0784912479
N  N28  1  0.99720000  0.97320000  0.79430000  1.0 -0.0784912479
O  O1  1  0.96010000  0.48330000  0.35520000  1.0 -0.3725737181
O  O2  1  0.48330000  0.96010000  0.64480000  1.0 -0.3725737181
