# DDEC6 charges by PACMAN v1.1 (https://github.com/mtap-research/PACMAN-charge/)
data_KABJOQ_FSR_pacman
_symmetry_space_group_name_H-M   'P 1'
_cell_length_a   13.69270000
_cell_length_b   16.28750000
_cell_length_c   18.10250000
_cell_angle_alpha   71.49700000
_cell_angle_beta   85.21200000
_cell_angle_gamma   87.66400000
_symmetry_Int_Tables_number   1
_chemical_formula_structural   Ca5P2H23C36NO30
_chemical_formula_sum   'Ca10 P4 H46 C72 N2 O60'
_cell_volume   3814.72599405
_cell_formula_units_Z   2
loop_
 _symmetry_equiv_pos_site_id
 _symmetry_equiv_pos_as_xyz
  1  'x, y, z'
loop_
 _atom_site_type_symbol
 _atom_site_label
 _atom_site_symmetry_multiplicity
 _atom_site_fract_x
 _atom_site_fract_y
 _atom_site_fract_z
 _atom_site_occupancy
 _atom_site_charge
Ca  Ca1  1  0.76135000  0.19888000  0.70275000  1.0 1.3603849031
Ca  Ca2  1  0.23346000  0.33892000  0.81085000  1.0 1.3603849031
Ca  Ca3  1  0.50153000  0.82216000  0.15676000  1.0 1.3756904222
Ca  Ca4  1  0.62162000  0.22243000  0.27308000  1.0 1.4373094059
Ca  Ca5  1  0.99640000  0.65694000  0.31759000  1.0 1.4026313043
Ca  Ca6  1  0.23865000  0.80112000  0.29725000  1.0 1.3603849031
Ca  Ca7  1  0.76654000  0.66108000  0.18915000  1.0 1.3603849031
Ca  Ca8  1  0.49847000  0.17784000  0.84324000  1.0 1.3737823583
Ca  Ca9  1  0.37838000  0.77757000  0.72692000  1.0 1.4373094059
Ca  Ca10  1  0.00360000  0.34306000  0.68241000  1.0 1.4026313043
P  P1  1  0.39834000  0.29397000  0.37169000  1.0 1.038452468
P  P2  1  0.84092000  0.17767000  0.16072000  1.0 1.0678934074
P  P3  1  0.60166000  0.70603000  0.62831000  1.0 1.038452468
P  P4  1  0.15908000  0.82233000  0.83928000  1.0 1.0678934074
H  H1  1  0.64333000  0.40287000  0.22282000  1.0 0.372515089
H  H2  1  0.59455000  0.38770000  0.16316000  1.0 0.3931037999
H  H3  1  0.36569000  0.65148000  0.24503000  1.0 0.1365191647
H  H4  1  0.38083000  0.26966000  0.68556000  1.0 0.1296471927
H  H5  1  0.00112000  0.05034000  0.21173000  1.0 0.1365191647
H  H6  1  0.87127000  0.24750000  0.83990000  1.0 0.1296471927
H  H7  1  0.24544000  0.29397000  0.48963000  1.0 0.1365191647
H  H8  1  0.53516000  0.43455000  0.30195000  1.0 0.1115291036
H  H9  1  0.88232000  0.82196000  0.22520000  1.0 0.122871562
H  H10  1  0.70781000  0.18143000  0.04483000  1.0 0.1365191647
H  H11  1  0.99829000  0.23700000  0.03659000  1.0 0.1296471927
H  H12  1  0.53992000  0.26738000  0.48763000  1.0 0.1365191647
H  H13  1  0.71479000  0.04127000  0.17366000  1.0 0.1365191647
H  H14  1  0.24047000  0.41671000  0.34072000  1.0 0.1365191647
H  H15  1  0.69639000  0.89265000  0.42787000  1.0 0.1555526025
H  H16  1  0.78923000  0.95474000  0.40401000  1.0 0.1761841542
H  H17  1  0.71764000  0.95242000  0.33922000  1.0 0.1761841542
H  H18  1  0.63885000  0.12980000  0.50932000  1.0 0.1499492469
H  H19  1  0.54964000  0.06705000  0.55073000  1.0 0.1365191647
H  H20  1  0.54998000  0.12183000  0.46003000  1.0 0.1365191647
H  H21  1  0.61562000  0.94089000  0.59203000  1.0 0.1499492469
H  H22  1  0.72930000  0.96067000  0.56724000  1.0 0.1499492469
H  H23  1  0.67437000  0.89600000  0.53452000  1.0 0.1296471927
H  H24  1  0.35667000  0.59713000  0.77718000  1.0 0.372515089
H  H25  1  0.40545000  0.61230000  0.83684000  1.0 0.3931037999
H  H26  1  0.63431000  0.34852000  0.75497000  1.0 0.1365191647
H  H27  1  0.61917000  0.73034000  0.31444000  1.0 0.1296471927
H  H28  1  0.99888000  0.94966000  0.78827000  1.0 0.1365191647
H  H29  1  0.12873000  0.75250000  0.16010000  1.0 0.1296471927
H  H30  1  0.75456000  0.70603000  0.51037000  1.0 0.1365191647
H  H31  1  0.46484000  0.56545000  0.69805000  1.0 0.1115291036
H  H32  1  0.11768000  0.17804000  0.77480000  1.0 0.122871562
H  H33  1  0.29219000  0.81857000  0.95517000  1.0 0.1365191647
H  H34  1  0.00171000  0.76300000  0.96341000  1.0 0.1296471927
H  H35  1  0.46008000  0.73262000  0.51237000  1.0 0.1365191647
H  H36  1  0.28521000  0.95873000  0.82634000  1.0 0.1365191647
H  H37  1  0.75953000  0.58329000  0.65928000  1.0 0.1365191647
H  H38  1  0.30361000  0.10735000  0.57213000  1.0 0.1555526025
H  H39  1  0.21077000  0.04526000  0.59599000  1.0 0.1761841542
H  H40  1  0.28236000  0.04758000  0.66078000  1.0 0.1761841542
H  H41  1  0.36115000  0.87020000  0.49068000  1.0 0.1499492469
H  H42  1  0.45036000  0.93295000  0.44927000  1.0 0.1365191647
H  H43  1  0.45002000  0.87817000  0.53997000  1.0 0.1365191647
H  H44  1  0.38438000  0.05911000  0.40797000  1.0 0.1499492469
H  H45  1  0.27070000  0.03933000  0.43276000  1.0 0.1499492469
H  H46  1  0.32563000  0.10400000  0.46548000  1.0 0.1296471927
C  C1  1  0.28860000  0.54070000  0.29600000  1.0 0.0035064791
C  C2  1  0.77770000  0.21010000  0.93770000  1.0 -0.0113728477
C  C3  1  0.37180000  0.59030000  0.26610000  1.0 -0.0861042597
C  C4  1  0.95720000  0.92840000  0.22330000  1.0 -0.0113728477
C  C5  1  0.47440000  0.26330000  0.59410000  1.0 -0.0005513111
C  C6  1  0.78640000  0.92370000  0.19610000  1.0 0.0061913744
C  C7  1  0.38390000  0.27200000  0.63230000  1.0 -0.070171125
C  C8  1  0.94630000  0.01810000  0.20840000  1.0 -0.070171125
C  C9  1  0.56480000  0.24500000  0.63800000  1.0 0.5740691639
C  C10  1  0.86640000  0.23670000  0.89480000  1.0 -0.070171125
C  C11  1  0.30370000  0.28790000  0.51600000  1.0 -0.077570469
C  C12  1  0.70050000  0.87540000  0.18590000  1.0 0.5784505672
C  C13  1  0.47210000  0.46140000  0.29910000  1.0 -0.0984428905
C  C14  1  0.94750000  0.24760000  0.93120000  1.0 -0.0113728477
C  C15  1  0.20310000  0.30050000  0.63260000  1.0 0.5917271492
C  C16  1  0.46260000  0.55130000  0.26680000  1.0 0.0035064791
C  C17  1  0.29720000  0.28430000  0.59380000  1.0 -0.0177210093
C  C18  1  0.87610000  0.88260000  0.21620000  1.0 -0.077570469
C  C19  1  0.85870000  0.06100000  0.18920000  1.0 -0.1389926196
C  C20  1  0.19150000  0.58400000  0.29920000  1.0 0.6008331991
C  C21  1  0.85150000  0.20550000  0.05570000  1.0 -0.1389926196
C  C22  1  0.39530000  0.28280000  0.47500000  1.0 -0.1389926196
C  C23  1  0.76940000  0.19680000  0.01630000  1.0 -0.063070231
C  C24  1  0.94200000  0.23110000  0.01150000  1.0 -0.070171125
C  C25  1  0.47810000  0.27080000  0.51470000  1.0 -0.070171125
C  C26  1  0.77650000  0.01300000  0.18460000  1.0 -0.070171125
C  C27  1  0.55460000  0.60370000  0.23510000  1.0 0.6008331991
C  C28  1  0.38810000  0.41080000  0.32730000  1.0 -0.1344938659
C  C29  1  0.69140000  0.19530000  0.89900000  1.0 0.5917271492
C  C30  1  0.04140000  0.27830000  0.88380000  1.0 0.5917271492
C  C31  1  0.05060000  0.88350000  0.24710000  1.0 0.5784505672
C  C32  1  0.29770000  0.45080000  0.32390000  1.0 -0.070171125
C  C33  1  0.65840000  0.02150000  0.41120000  1.0 0.5356721497
C  C34  1  0.72100000  0.94880000  0.39400000  1.0 -0.5474793099
C  C35  1  0.59100000  0.09030000  0.50220000  1.0 -0.3117993705
C  C36  1  0.66720000  0.94880000  0.54960000  1.0 -0.3179362101
C  C37  1  0.71140000  0.45930000  0.70400000  1.0 0.0035064791
C  C38  1  0.22230000  0.78990000  0.06230000  1.0 -0.0113728477
C  C39  1  0.62820000  0.40970000  0.73390000  1.0 -0.0861042597
C  C40  1  0.04280000  0.07160000  0.77670000  1.0 -0.0113728477
C  C41  1  0.52560000  0.73670000  0.40590000  1.0 0.0035064791
C  C42  1  0.21360000  0.07630000  0.80390000  1.0 0.0035064791
C  C43  1  0.61610000  0.72800000  0.36770000  1.0 -0.070171125
C  C44  1  0.05370000  0.98190000  0.79160000  1.0 -0.070171125
C  C45  1  0.43520000  0.75500000  0.36200000  1.0 0.5740691639
C  C46  1  0.13360000  0.76330000  0.10520000  1.0 -0.070171125
C  C47  1  0.69630000  0.71210000  0.48400000  1.0 -0.077570469
C  C48  1  0.29950000  0.12460000  0.81410000  1.0 0.5784505672
C  C49  1  0.52790000  0.53860000  0.70090000  1.0 -0.0984428905
C  C50  1  0.05250000  0.75240000  0.06880000  1.0 -0.0113728477
C  C51  1  0.79690000  0.69950000  0.36740000  1.0 0.5917271492
C  C52  1  0.53740000  0.44870000  0.73320000  1.0 0.0035064791
C  C53  1  0.70280000  0.71570000  0.40620000  1.0 -0.0177210093
C  C54  1  0.12390000  0.11740000  0.78380000  1.0 -0.077570469
C  C55  1  0.14130000  0.93900000  0.81080000  1.0 -0.1389926196
C  C56  1  0.80850000  0.41600000  0.70080000  1.0 0.6008331991
C  C57  1  0.14850000  0.79450000  0.94430000  1.0 -0.1389926196
C  C58  1  0.60470000  0.71720000  0.52500000  1.0 -0.1389926196
C  C59  1  0.23060000  0.80320000  0.98370000  1.0 -0.063070231
C  C60  1  0.05800000  0.76890000  0.98850000  1.0 -0.070171125
C  C61  1  0.52190000  0.72920000  0.48530000  1.0 -0.070171125
C  C62  1  0.22350000  0.98700000  0.81540000  1.0 -0.070171125
C  C63  1  0.44540000  0.39630000  0.76490000  1.0 0.6008331991
C  C64  1  0.61190000  0.58920000  0.67270000  1.0 -0.1389926196
C  C65  1  0.30860000  0.80470000  0.10100000  1.0 0.5917271492
C  C66  1  0.95860000  0.72170000  0.11620000  1.0 0.5917271492
C  C67  1  0.94940000  0.11650000  0.75290000  1.0 0.5784505672
C  C68  1  0.70230000  0.54920000  0.67610000  1.0 -0.070171125
C  C69  1  0.34160000  0.97850000  0.58880000  1.0 0.5356721497
C  C70  1  0.27900000  0.05120000  0.60600000  1.0 -0.5474793099
C  C71  1  0.40900000  0.90970000  0.49780000  1.0 -0.3117993705
C  C72  1  0.33280000  0.05120000  0.45040000  1.0 -0.3179362101
N  N1  1  0.64100000  0.02140000  0.48250000  1.0 -0.0294507229
N  N2  1  0.35900000  0.97860000  0.51750000  1.0 -0.0294507229
O  O1  1  0.73670000  0.19500000  0.18550000  1.0 -0.7013776683
O  O2  1  0.04280000  0.30980000  0.81180000  1.0 -0.600668985
O  O3  1  0.49610000  0.26390000  0.34660000  1.0 -0.7430390202
O  O4  1  0.30770000  0.25550000  0.35590000  1.0 -0.6303560816
O  O5  1  0.18720000  0.66160000  0.30160000  1.0 -0.6303560816
O  O6  1  0.12690000  0.92520000  0.24030000  1.0 -0.5102047555
O  O7  1  0.92260000  0.21960000  0.18650000  1.0 -0.5801277938
O  O8  1  0.19900000  0.32860000  0.68860000  1.0 -0.600668985
O  O9  1  0.55740000  0.21840000  0.71170000  1.0 -0.6303560816
O  O10  1  0.11370000  0.54350000  0.30360000  1.0 -0.5587439619
O  O11  1  0.64790000  0.25710000  0.60040000  1.0 -0.5312648895
O  O12  1  0.05210000  0.80110000  0.27370000  1.0 -0.6155514501
O  O13  1  0.12480000  0.28490000  0.60690000  1.0 -0.5587439619
O  O14  1  0.71370000  0.80480000  0.17560000  1.0 -0.5801277938
O  O15  1  0.70160000  0.19720000  0.82790000  1.0 -0.6354860448
O  O16  1  0.61000000  0.18040000  0.93790000  1.0 -0.5312648895
O  O17  1  0.61650000  0.91210000  0.18510000  1.0 -0.5474793099
O  O18  1  0.54410000  0.67810000  0.18830000  1.0 -0.600668985
O  O19  1  0.63570000  0.57200000  0.25610000  1.0 -0.5404365145
O  O20  1  0.61750000  0.07870000  0.35650000  1.0 -0.5902181052
O  O21  1  0.15150000  0.47840000  0.77860000  1.0 -0.1980066233
O  O22  1  0.28190000  0.38570000  0.91430000  1.0 -0.338236668
O  O23  1  0.64530000  0.36800000  0.19290000  1.0 -0.709990599
O  O24  1  0.11940000  0.27060000  0.92070000  1.0 -0.5312648895
O  O25  1  0.50940000  0.18070000  0.20160000  1.0 -0.5102047555
O  O26  1  0.85370000  0.20950000  0.58190000  1.0 -0.3179362101
O  O27  1  0.41750000  0.96230000  0.13240000  1.0 0.040420211
O  O28  1  0.67930000  0.06420000  0.71340000  1.0 -0.1389926196
O  O29  1  0.59790000  0.85930000  0.03260000  1.0 -0.182060995
O  O30  1  0.75800000  0.23470000  0.33950000  1.0 -0.486416974
O  O31  1  0.26330000  0.80500000  0.81450000  1.0 -0.7013776683
O  O32  1  0.95720000  0.69020000  0.18820000  1.0 -0.600668985
O  O33  1  0.50390000  0.73610000  0.65340000  1.0 -0.7430390202
O  O34  1  0.69230000  0.74450000  0.64410000  1.0 -0.6303560816
O  O35  1  0.81280000  0.33840000  0.69840000  1.0 -0.6303560816
O  O36  1  0.87310000  0.07480000  0.75970000  1.0 -0.5102047555
O  O37  1  0.07740000  0.78040000  0.81350000  1.0 -0.5745082878
O  O38  1  0.80100000  0.67140000  0.31140000  1.0 -0.600668985
O  O39  1  0.44260000  0.78160000  0.28830000  1.0 -0.6303560816
O  O40  1  0.88630000  0.45650000  0.69640000  1.0 -0.5587439619
O  O41  1  0.35210000  0.74290000  0.39960000  1.0 -0.5312648895
O  O42  1  0.94790000  0.19890000  0.72630000  1.0 -0.6142627977
O  O43  1  0.87520000  0.71510000  0.39310000  1.0 -0.5587439619
O  O44  1  0.28630000  0.19520000  0.82440000  1.0 -0.5801277938
O  O45  1  0.29840000  0.80280000  0.17210000  1.0 -0.6354860448
O  O46  1  0.39000000  0.81960000  0.06210000  1.0 -0.5312648895
O  O47  1  0.38350000  0.08790000  0.81490000  1.0 -0.5474793099
O  O48  1  0.45590000  0.32190000  0.81170000  1.0 -0.600668985
O  O49  1  0.36430000  0.42800000  0.74390000  1.0 -0.5404365145
O  O50  1  0.38250000  0.92130000  0.64350000  1.0 -0.5902181052
O  O51  1  0.84850000  0.52160000  0.22140000  1.0 -0.1980066233
O  O52  1  0.71810000  0.61430000  0.08570000  1.0 -0.338236668
O  O53  1  0.35470000  0.63200000  0.80710000  1.0 -0.709990599
O  O54  1  0.88060000  0.72940000  0.07930000  1.0 -0.5312648895
O  O55  1  0.49060000  0.81930000  0.79840000  1.0 -0.5102047555
O  O56  1  0.14630000  0.79050000  0.41810000  1.0 -0.327896633
O  O57  1  0.58250000  0.03770000  0.86760000  1.0 0.040420211
O  O58  1  0.32070000  0.93580000  0.28660000  1.0 -0.1601472877
O  O59  1  0.40210000  0.14070000  0.96740000  1.0 -0.1731701874
O  O60  1  0.24200000  0.76530000  0.66050000  1.0 -0.486416974
