# DDEC6 charges by PACMAN v1.1 (https://github.com/mtap-research/PACMAN-charge/)
data_KABKAD_ASR_pacman
_symmetry_space_group_name_H-M   'P 1'
_cell_length_a   13.59040000
_cell_length_b   13.59040000
_cell_length_c   24.68600000
_cell_angle_alpha   84.12180000
_cell_angle_beta   95.87820000
_cell_angle_gamma   56.47600000
_symmetry_Int_Tables_number   1
_chemical_formula_structural   NiH16C24(N2O3)2
_chemical_formula_sum   'Ni4 H64 C96 N16 O24'
_cell_volume   3710.91489319
_cell_formula_units_Z   4
loop_
 _symmetry_equiv_pos_site_id
 _symmetry_equiv_pos_as_xyz
  1  'x, y, z'
loop_
 _atom_site_type_symbol
 _atom_site_label
 _atom_site_symmetry_multiplicity
 _atom_site_fract_x
 _atom_site_fract_y
 _atom_site_fract_z
 _atom_site_occupancy
 _atom_site_charge
Ni  Ni1  1  0.00000000  0.00000000  0.50000000  1.0 0.5384150957
Ni  Ni2  1  0.00000000  0.00000000  0.00000000  1.0 0.5384150957
Ni  Ni3  1  0.00000000  0.50000000  0.50000000  1.0 0.7158192312
Ni  Ni4  1  0.50000000  0.00000000  0.00000000  1.0 0.7123412406
H  H1  1  0.80800000  0.07540000  0.21080000  1.0 0.1210917812
H  H2  1  0.01580000  0.03800000  0.37590000  1.0 0.1090625933
H  H3  1  0.91250000  0.06730000  0.28980000  1.0 0.1394542458
H  H4  1  0.65140000  0.05840000  0.26450000  1.0 0.1327368577
H  H5  1  0.89130000  0.34350000  0.33900000  1.0 0.1394542458
H  H6  1  0.41270000  0.05950000  0.57240000  1.0 0.1327368577
H  H7  1  0.46130000  0.04610000  0.11360000  1.0 0.1090625933
H  H8  1  0.79470000  0.04730000  0.11450000  1.0 0.1327368577
H  H9  1  0.78380000  0.01680000  0.44760000  1.0 0.1090625933
H  H10  1  0.68090000  0.03510000  0.36300000  1.0 0.1499752629
H  H11  1  0.70820000  0.02260000  0.03770000  1.0 0.1210917812
H  H12  1  0.54040000  0.07440000  0.19320000  1.0 0.1327368577
H  H13  1  0.97700000  0.37700000  0.26860000  1.0 0.1499752629
H  H14  1  0.17060000  0.30800000  0.28370000  1.0 0.1327368577
H  H15  1  0.50470000  0.86090000  0.56360000  1.0 0.1394542458
H  H16  1  0.45340000  0.81780000  0.48190000  1.0 0.1568976904
H  H17  1  0.07540000  0.80800000  0.28920000  1.0 0.1210917812
H  H18  1  0.03800000  0.01580000  0.12410000  1.0 0.1090625933
H  H19  1  0.06730000  0.91250000  0.21020000  1.0 0.1394542458
H  H20  1  0.05840000  0.65140000  0.23550000  1.0 0.1327368577
H  H21  1  0.34350000  0.89130000  0.16100000  1.0 0.1394542458
H  H22  1  0.05950000  0.41270000  0.92760000  1.0 0.1327368577
H  H23  1  0.04610000  0.46130000  0.38640000  1.0 0.1090625933
H  H24  1  0.04730000  0.79470000  0.38550000  1.0 0.1327368577
H  H25  1  0.01680000  0.78380000  0.05240000  1.0 0.1090625933
H  H26  1  0.03510000  0.68090000  0.13700000  1.0 0.1499752629
H  H27  1  0.02260000  0.70820000  0.46230000  1.0 0.1210917812
H  H28  1  0.07440000  0.54040000  0.30680000  1.0 0.1327368577
H  H29  1  0.37700000  0.97700000  0.23140000  1.0 0.1499752629
H  H30  1  0.30800000  0.17060000  0.21630000  1.0 0.1327368577
H  H31  1  0.86090000  0.50470000  0.93640000  1.0 0.1394542458
H  H32  1  0.81780000  0.45340000  0.01810000  1.0 0.1568976904
H  H33  1  0.19200000  0.92460000  0.78920000  1.0 0.1210917812
H  H34  1  0.98420000  0.96200000  0.62410000  1.0 0.1210917812
H  H35  1  0.08750000  0.93270000  0.71020000  1.0 0.1394542458
H  H36  1  0.34860000  0.94160000  0.73550000  1.0 0.1327368577
H  H37  1  0.10870000  0.65650000  0.66100000  1.0 0.1394542458
H  H38  1  0.58730000  0.94050000  0.42760000  1.0 0.1327368577
H  H39  1  0.53870000  0.95390000  0.88640000  1.0 0.1090625933
H  H40  1  0.20530000  0.95270000  0.88550000  1.0 0.1327368577
H  H41  1  0.21620000  0.98320000  0.55240000  1.0 0.1090625933
H  H42  1  0.31910000  0.96490000  0.63700000  1.0 0.1499752629
H  H43  1  0.29180000  0.97740000  0.96230000  1.0 0.1210917812
H  H44  1  0.45960000  0.92560000  0.80680000  1.0 0.1327368577
H  H45  1  0.02300000  0.62300000  0.73140000  1.0 0.1499752629
H  H46  1  0.82940000  0.69200000  0.71630000  1.0 0.1327368577
H  H47  1  0.49530000  0.13910000  0.43640000  1.0 0.1394542458
H  H48  1  0.54660000  0.18220000  0.51810000  1.0 0.1499752629
H  H49  1  0.92460000  0.19200000  0.71080000  1.0 0.1210917812
H  H50  1  0.96200000  0.98420000  0.87590000  1.0 0.1090625933
H  H51  1  0.93270000  0.08750000  0.78980000  1.0 0.1394542458
H  H52  1  0.94160000  0.34860000  0.76450000  1.0 0.1327368577
H  H53  1  0.65650000  0.10870000  0.83900000  1.0 0.1394542458
H  H54  1  0.94050000  0.58730000  0.07240000  1.0 0.1327368577
H  H55  1  0.95390000  0.53870000  0.61360000  1.0 0.1090625933
H  H56  1  0.95270000  0.20530000  0.61450000  1.0 0.1327368577
H  H57  1  0.98320000  0.21620000  0.94760000  1.0 0.1090625933
H  H58  1  0.96490000  0.31910000  0.86300000  1.0 0.1499752629
H  H59  1  0.97740000  0.29180000  0.53770000  1.0 0.1210917812
H  H60  1  0.92560000  0.45960000  0.69320000  1.0 0.1327368577
H  H61  1  0.62300000  0.02300000  0.76860000  1.0 0.1499752629
H  H62  1  0.69200000  0.82940000  0.78370000  1.0 0.1327368577
H  H63  1  0.13910000  0.49530000  0.06360000  1.0 0.1394542458
H  H64  1  0.18220000  0.54660000  0.98190000  1.0 0.1499752629
C  C1  1  0.74592000  0.06592000  0.21399000  1.0 -0.1318211621
C  C2  1  0.99786000  0.20406000  0.43932000  1.0 0.5643877303
C  C3  1  0.94630000  0.03950000  0.37343000  1.0 0.0876946812
C  C4  1  0.88562000  0.05542000  0.32134000  1.0 -0.1991692096
C  C5  1  0.78312000  0.05352000  0.31670000  1.0 0.1568976904
C  C6  1  0.29477000  0.13197000  0.49950000  1.0 -0.0801874772
C  C7  1  0.04930000  0.23510000  0.39457000  1.0 -0.0652264441
C  C8  1  0.26350000  0.10310000  0.45130000  1.0 0.0876946812
C  C9  1  0.68273000  0.05913000  0.16285000  1.0 0.1568976904
C  C10  1  0.71890000  0.05950000  0.26324000  1.0 -0.1318211621
C  C11  1  0.97330000  0.30970000  0.34452000  1.0 -0.0910252082
C  C12  1  0.38840000  0.04060000  0.54070000  1.0 -0.1012410271
C  C13  1  0.52943000  0.04683000  0.11390000  1.0 0.1090625933
C  C14  1  0.72692000  0.04652000  0.11567000  1.0 -0.1822732324
C  C15  1  0.81123000  0.02563000  0.41567000  1.0 0.1090625933
C  C16  1  0.23112000  0.26092000  0.50789000  1.0 0.5676128184
C  C17  1  0.74800000  0.03780000  0.36447000  1.0 -0.1851212095
C  C18  1  0.67400000  0.03260000  0.06923000  1.0 0.1090625933
C  C19  1  0.17060000  0.18800000  0.40164000  1.0 0.0752260899
C  C20  1  0.57680000  0.06240000  0.16241000  1.0 -0.1991692096
C  C21  1  0.02470000  0.33190000  0.30310000  1.0 -0.139411931
C  C22  1  0.13930000  0.29030000  0.31190000  1.0 -0.0801874772
C  C23  1  0.44540000  0.92260000  0.53500000  1.0 -0.1093097134
C  C24  1  0.41380000  0.89720000  0.48670000  1.0 -0.041605196
C  C25  1  0.06592000  0.74592000  0.28601000  1.0 -0.1318211621
C  C26  1  0.20406000  0.99786000  0.06068000  1.0 0.5643877303
C  C27  1  0.03950000  0.94630000  0.12657000  1.0 0.0876946812
C  C28  1  0.05542000  0.88562000  0.17866000  1.0 -0.1991692096
C  C29  1  0.05352000  0.78312000  0.18330000  1.0 0.1568976904
C  C30  1  0.13197000  0.29477000  0.00050000  1.0 -0.0801874772
C  C31  1  0.23510000  0.04930000  0.10543000  1.0 -0.0648650239
C  C32  1  0.10310000  0.26350000  0.04870000  1.0 0.0876946812
C  C33  1  0.05913000  0.68273000  0.33715000  1.0 0.1568976904
C  C34  1  0.05950000  0.71890000  0.23676000  1.0 -0.1318211621
C  C35  1  0.30970000  0.97330000  0.15548000  1.0 -0.0910252082
C  C36  1  0.04060000  0.38840000  0.95930000  1.0 -0.1012410271
C  C37  1  0.04683000  0.52943000  0.38610000  1.0 0.1090625933
C  C38  1  0.04652000  0.72692000  0.38433000  1.0 -0.1822732324
C  C39  1  0.02563000  0.81123000  0.08433000  1.0 0.1090625933
C  C40  1  0.26092000  0.23112000  0.99211000  1.0 0.5676128184
C  C41  1  0.03780000  0.74800000  0.13553000  1.0 -0.1851212095
C  C42  1  0.03260000  0.67400000  0.43077000  1.0 0.1090625933
C  C43  1  0.18800000  0.17060000  0.09836000  1.0 0.0752260899
C  C44  1  0.06240000  0.57680000  0.33759000  1.0 -0.1991692096
C  C45  1  0.33190000  0.02470000  0.19690000  1.0 -0.139411931
C  C46  1  0.29030000  0.13930000  0.18810000  1.0 -0.0801874772
C  C47  1  0.92260000  0.44540000  0.96500000  1.0 -0.1093097134
C  C48  1  0.89720000  0.41380000  0.01330000  1.0 -0.041605196
C  C49  1  0.25408000  0.93408000  0.78601000  1.0 -0.1318211621
C  C50  1  0.00214000  0.79594000  0.56068000  1.0 0.5643877303
C  C51  1  0.05370000  0.96050000  0.62657000  1.0 0.0876946812
C  C52  1  0.11438000  0.94458000  0.67866000  1.0 -0.1991692096
C  C53  1  0.21688000  0.94648000  0.68330000  1.0 0.1568976904
C  C54  1  0.70523000  0.86803000  0.50050000  1.0 -0.0801874772
C  C55  1  0.95070000  0.76490000  0.60543000  1.0 -0.0652264441
C  C56  1  0.73650000  0.89690000  0.54870000  1.0 0.0876946812
C  C57  1  0.31727000  0.94087000  0.83715000  1.0 0.1568976904
C  C58  1  0.28110000  0.94050000  0.73676000  1.0 -0.1318211621
C  C59  1  0.02670000  0.69030000  0.65548000  1.0 -0.0910252082
C  C60  1  0.61160000  0.95940000  0.45930000  1.0 -0.1012410271
C  C61  1  0.47057000  0.95317000  0.88610000  1.0 0.1090625933
C  C62  1  0.27308000  0.95348000  0.88433000  1.0 -0.1822732324
C  C63  1  0.18877000  0.97437000  0.58433000  1.0 0.1090625933
C  C64  1  0.76888000  0.73908000  0.49211000  1.0 0.5676128184
C  C65  1  0.25200000  0.96220000  0.63553000  1.0 -0.1851212095
C  C66  1  0.32600000  0.96740000  0.93077000  1.0 0.1090625933
C  C67  1  0.82940000  0.81200000  0.59836000  1.0 0.0743449618
C  C68  1  0.42320000  0.93760000  0.83759000  1.0 -0.1991692096
C  C69  1  0.97530000  0.66810000  0.69690000  1.0 -0.139411931
C  C70  1  0.86070000  0.70970000  0.68810000  1.0 -0.0801874772
C  C71  1  0.55460000  0.07740000  0.46500000  1.0 -0.1093097134
C  C72  1  0.58620000  0.10280000  0.51330000  1.0 -0.041605196
C  C73  1  0.93408000  0.25408000  0.71399000  1.0 -0.1318211621
C  C74  1  0.79594000  0.00214000  0.93932000  1.0 0.5643877303
C  C75  1  0.96050000  0.05370000  0.87343000  1.0 0.0876946812
C  C76  1  0.94458000  0.11438000  0.82134000  1.0 -0.1991692096
C  C77  1  0.94648000  0.21688000  0.81670000  1.0 0.1499752629
C  C78  1  0.86803000  0.70523000  0.99950000  1.0 -0.0801874772
C  C79  1  0.76490000  0.95070000  0.89457000  1.0 -0.0648650239
C  C80  1  0.89690000  0.73650000  0.95130000  1.0 0.0876946812
C  C81  1  0.94087000  0.31727000  0.66285000  1.0 0.1568976904
C  C82  1  0.94050000  0.28110000  0.76324000  1.0 -0.1318211621
C  C83  1  0.69030000  0.02670000  0.84452000  1.0 -0.0910252082
C  C84  1  0.95940000  0.61160000  0.04070000  1.0 -0.1012410271
C  C85  1  0.95317000  0.47057000  0.61390000  1.0 0.1090625933
C  C86  1  0.95348000  0.27308000  0.61567000  1.0 -0.1822732324
C  C87  1  0.97437000  0.18877000  0.91567000  1.0 0.1090625933
C  C88  1  0.73908000  0.76888000  0.00789000  1.0 0.5676128184
C  C89  1  0.96220000  0.25200000  0.86447000  1.0 -0.1851212095
C  C90  1  0.96740000  0.32600000  0.56923000  1.0 0.1090625933
C  C91  1  0.81200000  0.82940000  0.90164000  1.0 0.0743449618
C  C92  1  0.93760000  0.42320000  0.66241000  1.0 -0.1991692096
C  C93  1  0.66810000  0.97530000  0.80310000  1.0 -0.139411931
C  C94  1  0.70970000  0.86070000  0.81190000  1.0 -0.0801874772
C  C95  1  0.07740000  0.55460000  0.03500000  1.0 -0.1093097134
C  C96  1  0.10280000  0.58620000  0.98670000  1.0 -0.041605196
N  N1  1  0.91030000  0.02610000  0.42068000  1.0 -0.2065948034
N  N2  1  0.57539000  0.03299000  0.06783000  1.0 -0.1991692096
N  N3  1  0.21300000  0.22200000  0.36136000  1.0 0.2669061897
N  N4  1  0.32460000  0.98760000  0.44560000  1.0 0.2669061897
N  N5  1  0.02610000  0.91030000  0.07932000  1.0 -0.2065948034
N  N6  1  0.03299000  0.57539000  0.43217000  1.0 -0.1991692096
N  N7  1  0.22200000  0.21300000  0.13864000  1.0 0.2669061897
N  N8  1  0.98760000  0.32460000  0.05440000  1.0 0.2669061897
N  N9  1  0.08970000  0.97390000  0.57932000  1.0 -0.2065948034
N  N10  1  0.42461000  0.96701000  0.93217000  1.0 -0.1991692096
N  N11  1  0.78700000  0.77800000  0.63864000  1.0 0.2669061897
N  N12  1  0.67540000  0.01240000  0.55440000  1.0 0.2669061897
N  N13  1  0.97390000  0.08970000  0.92068000  1.0 -0.2065948034
N  N14  1  0.96701000  0.42461000  0.56783000  1.0 -0.1991692096
N  N15  1  0.77800000  0.78700000  0.86136000  1.0 0.2669061897
N  N16  1  0.01240000  0.67540000  0.94560000  1.0 0.2669061897
O  O1  1  0.06194000  0.09754000  0.46649000  1.0 -0.5428158427
O  O2  1  0.12155000  0.32975000  0.48665000  1.0 -0.5428158427
O  O3  1  0.89371000  0.28751000  0.44455000  1.0 -0.5474938835
O  O4  1  0.29301000  0.28641000  0.53550000  1.0 -0.5428158427
O  O5  1  0.29940000  0.95940000  0.39800000  1.0 -0.4941413189
O  O6  1  0.32710000  0.18630000  0.37040000  1.0 -0.4765747274
O  O7  1  0.09754000  0.06194000  0.03351000  1.0 -0.5428158427
O  O8  1  0.32975000  0.12155000  0.01335000  1.0 -0.5428158427
O  O9  1  0.28751000  0.89371000  0.05545000  1.0 -0.5474938835
O  O10  1  0.28641000  0.29301000  0.96450000  1.0 -0.5428158427
O  O11  1  0.95940000  0.29940000  0.10200000  1.0 -0.4941413189
O  O12  1  0.18630000  0.32710000  0.12960000  1.0 -0.4765747274
O  O13  1  0.93806000  0.90246000  0.53351000  1.0 -0.5428158427
O  O14  1  0.87845000  0.67025000  0.51335000  1.0 -0.5428158427
O  O15  1  0.10629000  0.71249000  0.55545000  1.0 -0.5474938835
O  O16  1  0.70699000  0.71359000  0.46450000  1.0 -0.5428158427
O  O17  1  0.70060000  0.04060000  0.60200000  1.0 -0.4941413189
O  O18  1  0.67290000  0.81370000  0.62960000  1.0 -0.4765747274
O  O19  1  0.90246000  0.93806000  0.96649000  1.0 -0.5428158427
O  O20  1  0.67025000  0.87845000  0.98665000  1.0 -0.5428158427
O  O21  1  0.71249000  0.10629000  0.94455000  1.0 -0.5474938835
O  O22  1  0.71359000  0.70699000  0.03550000  1.0 -0.5428158427
O  O23  1  0.04060000  0.70060000  0.89800000  1.0 -0.4941413189
O  O24  1  0.81370000  0.67290000  0.87040000  1.0 -0.4745358611
