# DDEC6 charges by PACMAN v1.1 (https://github.com/mtap-research/PACMAN-charge/)
data_KACGAZ_ASR_pacman
_symmetry_space_group_name_H-M   'P 1'
_cell_length_a   18.89750000
_cell_length_b   18.89750000
_cell_length_c   31.17070000
_cell_angle_alpha   79.02700000
_cell_angle_beta   100.97300000
_cell_angle_gamma   133.14100000
_symmetry_Int_Tables_number   1
_chemical_formula_structural   Zn7H48C72(IN)24
_chemical_formula_sum   'Zn14 H96 C144 I48 N48'
_cell_volume   7945.68741680
_cell_formula_units_Z   2
loop_
 _symmetry_equiv_pos_site_id
 _symmetry_equiv_pos_as_xyz
  1  'x, y, z'
loop_
 _atom_site_type_symbol
 _atom_site_label
 _atom_site_symmetry_multiplicity
 _atom_site_fract_x
 _atom_site_fract_y
 _atom_site_fract_z
 _atom_site_occupancy
 _atom_site_charge
Zn  Zn1  1  0.46716000  0.72002000  0.69371000  1.0 0.2888906631
Zn  Zn2  1  0.97114000  0.80512000  0.84442000  1.0 0.2799846265
Zn  Zn3  1  0.20703000  0.04291000  0.34502000  1.0 0.313012417
Zn  Zn4  1  0.82779000  0.47375000  0.02532000  1.0 0.2233679551
Zn  Zn5  1  0.29525000  0.54791000  0.19489000  1.0 0.313012417
Zn  Zn6  1  0.53292000  0.19228000  0.51918000  1.0 0.2064522612
Zn  Zn7  1  0.54230000  0.17970000  0.52940000  1.0 0.2262965176
Zn  Zn8  1  0.72002000  0.46716000  0.30629000  1.0 0.2888906631
Zn  Zn9  1  0.80512000  0.97114000  0.15558000  1.0 0.2799846265
Zn  Zn10  1  0.04291000  0.20703000  0.65498000  1.0 0.313012417
Zn  Zn11  1  0.47375000  0.82779000  0.97468000  1.0 0.2233679551
Zn  Zn12  1  0.54791000  0.29525000  0.80511000  1.0 0.313012417
Zn  Zn13  1  0.19228000  0.53292000  0.48082000  1.0 0.2064522612
Zn  Zn14  1  0.17970000  0.54230000  0.47060000  1.0 0.2262965176
H  H1  1  0.50580000  0.31320000  0.53900000  1.0 0.0783106502
H  H2  1  0.45500000  0.33880000  0.59040000  1.0 0.1279304267
H  H3  1  0.38060000  0.09880000  0.65910000  1.0 0.1224882792
H  H4  1  0.43810000  0.08510000  0.60760000  1.0 0.0708775677
H  H5  1  0.39270000  0.53930000  0.75550000  1.0 0.0708775677
H  H6  1  0.35580000  0.39480000  0.75710000  1.0 0.1279304267
H  H7  1  0.41790000  0.46590000  0.63100000  1.0 0.1224882792
H  H8  1  0.46830000  0.61450000  0.63440000  1.0 0.0708775677
H  H9  1  0.09680000  0.85800000  0.77740000  1.0 0.0783106502
H  H10  1  0.21360000  0.98880000  0.73280000  1.0 0.1224882792
H  H11  1  0.15890000  0.14090000  0.76840000  1.0 0.1224882792
H  H12  1  0.04510000  0.00670000  0.81250000  1.0 0.0708775677
H  H13  1  0.25320000  0.58160000  0.68010000  1.0 0.0708775677
H  H14  1  0.12700000  0.55040000  0.63010000  1.0 0.1224882792
H  H15  1  0.33400000  0.80140000  0.55910000  1.0 0.1001176942
H  H16  1  0.45070000  0.81610000  0.60830000  1.0 0.0593317258
H  H17  1  0.03810000  0.84150000  0.37530000  1.0 0.0708775677
H  H18  1  0.99150000  0.72250000  0.43210000  1.0 0.1001176942
H  H19  1  0.27600000  0.89100000  0.47470000  1.0 0.1113089207
H  H20  1  0.30850000  0.00190000  0.41800000  1.0 0.0708775677
H  H21  1  0.72430000  0.25930000  0.57400000  1.0 0.0708775677
H  H22  1  0.89250000  0.39930000  0.57630000  1.0 0.1279304267
H  H23  1  0.83130000  0.53230000  0.48320000  1.0 0.1224882792
H  H24  1  0.67030000  0.38430000  0.47810000  1.0 0.0708775677
H  H25  1  0.15760000  0.92080000  0.27850000  1.0 0.0783106502
H  H26  1  0.02840000  0.80640000  0.22920000  1.0 0.1279304267
H  H27  1  0.86830000  0.85230000  0.26850000  1.0 0.1224882792
H  H28  1  0.00610000  0.96830000  0.31290000  1.0 0.0708775677
H  H29  1  0.67740000  0.46200000  0.04940000  1.0 0.0783106502
H  H30  1  0.66210000  0.53830000  0.09550000  1.0 0.1224882792
H  H31  1  0.92100000  0.64320000  0.16020000  1.0 0.1224882792
H  H32  1  0.93570000  0.57470000  0.10780000  1.0 0.049555621
H  H33  1  0.40720000  0.56740000  0.13310000  1.0 0.0708775677
H  H34  1  0.54100000  0.57560000  0.13240000  1.0 0.1224882792
H  H35  1  0.62070000  0.65850000  0.25580000  1.0 0.1279304267
H  H36  1  0.46760000  0.61200000  0.25720000  1.0 0.0593317258
H  H37  1  0.62920000  0.34180000  0.98190000  1.0 0.0593317258
H  H38  1  0.48950000  0.18130000  0.98220000  1.0 0.1224882792
H  H39  1  0.60500000  0.12160000  0.08870000  1.0 0.1279304267
H  H40  1  0.75170000  0.28170000  0.07690000  1.0 0.0708775677
H  H41  1  0.19170000  0.56090000  0.11060000  1.0 0.049555621
H  H42  1  0.21290000  0.68110000  0.05960000  1.0 0.1001176942
H  H43  1  0.45960000  0.88520000  0.12980000  1.0 0.1113089207
H  H44  1  0.43220000  0.76160000  0.17920000  1.0 0.0708775677
H  H45  1  0.16860000  0.97920000  0.87830000  1.0 0.0708775677
H  H46  1  0.29320000  0.01960000  0.93150000  1.0 0.1001176942
H  H47  1  0.12770000  0.73810000  0.97630000  1.0 0.1113089207
H  H48  1  0.01280000  0.69880000  0.91480000  1.0 0.049555621
H  H49  1  0.31320000  0.50580000  0.46100000  1.0 0.0783106502
H  H50  1  0.33880000  0.45500000  0.40960000  1.0 0.1279304267
H  H51  1  0.09880000  0.38060000  0.34090000  1.0 0.1224882792
H  H52  1  0.08510000  0.43810000  0.39240000  1.0 0.0708775677
H  H53  1  0.53930000  0.39270000  0.24450000  1.0 0.0708775677
H  H54  1  0.39480000  0.35580000  0.24290000  1.0 0.1279304267
H  H55  1  0.46590000  0.41790000  0.36900000  1.0 0.1224882792
H  H56  1  0.61450000  0.46830000  0.36560000  1.0 0.0708775677
H  H57  1  0.85800000  0.09680000  0.22260000  1.0 0.0783106502
H  H58  1  0.98880000  0.21360000  0.26720000  1.0 0.1279304267
H  H59  1  0.14090000  0.15890000  0.23160000  1.0 0.1224882792
H  H60  1  0.00670000  0.04510000  0.18750000  1.0 0.0708775677
H  H61  1  0.58160000  0.25320000  0.31990000  1.0 0.0708775677
H  H62  1  0.55040000  0.12700000  0.36990000  1.0 0.1224882792
H  H63  1  0.80140000  0.33400000  0.44090000  1.0 0.1001176942
H  H64  1  0.81610000  0.45070000  0.39170000  1.0 0.0593317258
H  H65  1  0.84150000  0.03810000  0.62470000  1.0 0.0708775677
H  H66  1  0.72250000  0.99150000  0.56790000  1.0 0.1001176942
H  H67  1  0.89100000  0.27600000  0.52530000  1.0 0.1113089207
H  H68  1  0.00190000  0.30850000  0.58200000  1.0 0.0708775677
H  H69  1  0.25930000  0.72430000  0.42600000  1.0 0.0708775677
H  H70  1  0.39930000  0.89250000  0.42370000  1.0 0.1279304267
H  H71  1  0.53230000  0.83130000  0.51680000  1.0 0.1224882792
H  H72  1  0.38430000  0.67030000  0.52190000  1.0 0.0708775677
H  H73  1  0.92080000  0.15760000  0.72150000  1.0 0.0783106502
H  H74  1  0.80640000  0.02840000  0.77080000  1.0 0.1279304267
H  H75  1  0.85230000  0.86830000  0.73150000  1.0 0.1224882792
H  H76  1  0.96830000  0.00610000  0.68710000  1.0 0.0783106502
H  H77  1  0.46200000  0.67740000  0.95060000  1.0 0.0783106502
H  H78  1  0.53830000  0.66210000  0.90450000  1.0 0.1224882792
H  H79  1  0.64320000  0.92100000  0.83980000  1.0 0.1224882792
H  H80  1  0.57470000  0.93570000  0.89220000  1.0 0.049555621
H  H81  1  0.56740000  0.40720000  0.86690000  1.0 0.0708775677
H  H82  1  0.57560000  0.54100000  0.86760000  1.0 0.1224882792
H  H83  1  0.65850000  0.62070000  0.74420000  1.0 0.1279304267
H  H84  1  0.61200000  0.46760000  0.74280000  1.0 0.0593317258
H  H85  1  0.34180000  0.62920000  0.01810000  1.0 0.0593317258
H  H86  1  0.18130000  0.48950000  0.01780000  1.0 0.1224882792
H  H87  1  0.12160000  0.60500000  0.91130000  1.0 0.1279304267
H  H88  1  0.28170000  0.75170000  0.92310000  1.0 0.0708775677
H  H89  1  0.56090000  0.19170000  0.88940000  1.0 0.049555621
H  H90  1  0.68110000  0.21290000  0.94040000  1.0 0.1001176942
H  H91  1  0.88520000  0.45960000  0.87020000  1.0 0.1113089207
H  H92  1  0.76160000  0.43220000  0.82080000  1.0 0.0708775677
H  H93  1  0.97920000  0.16860000  0.12170000  1.0 0.0708775677
H  H94  1  0.01960000  0.29320000  0.06850000  1.0 0.1001176942
H  H95  1  0.73810000  0.12770000  0.02370000  1.0 0.1113089207
H  H96  1  0.69880000  0.01280000  0.08520000  1.0 0.049555621
C  C1  1  0.48360000  0.27080000  0.56510000  1.0 0.0593317258
C  C2  1  0.45020000  0.28440000  0.59480000  1.0 -0.1686585946
C  C3  1  0.41080000  0.22160000  0.63020000  1.0 0.049555621
C  C4  1  0.40790000  0.14590000  0.63460000  1.0 -0.1686585946
C  C5  1  0.44360000  0.13960000  0.60460000  1.0 0.0197810411
C  C6  1  0.40020000  0.52460000  0.73020000  1.0 0.0402600419
C  C7  1  0.37720000  0.43860000  0.73140000  1.0 -0.1598381442
C  C8  1  0.38630000  0.41710000  0.69360000  1.0 0.049555621
C  C9  1  0.41590000  0.48190000  0.65760000  1.0 -0.1598381442
C  C10  1  0.44210000  0.56790000  0.65910000  1.0 0.0402600419
C  C11  1  0.10960000  0.91660000  0.77550000  1.0 0.0402600419
C  C12  1  0.17920000  0.99380000  0.74860000  1.0 -0.1598381442
C  C13  1  0.19730000  0.07770000  0.74550000  1.0 0.0402600419
C  C14  1  0.14670000  0.08270000  0.76980000  1.0 -0.1686585946
C  C15  1  0.07930000  0.00270000  0.79580000  1.0 0.0197810411
C  C16  1  0.37050000  0.23130000  0.66190000  1.0 0.3276729974
C  C17  1  0.35930000  0.32250000  0.69190000  1.0 0.3502889971
C  C18  1  0.27450000  0.16550000  0.71690000  1.0 0.3502889971
C  C19  1  0.26880000  0.62520000  0.65470000  1.0 0.0708775677
C  C20  1  0.19300000  0.60660000  0.62540000  1.0 -0.1686585946
C  C21  1  0.21730000  0.67370000  0.58840000  1.0 0.049555621
C  C22  1  0.31510000  0.75370000  0.58310000  1.0 -0.1598381442
C  C23  1  0.38390000  0.76310000  0.61300000  1.0 0.0402600419
C  C24  1  0.08660000  0.85180000  0.39680000  1.0 0.049555621
C  C25  1  0.05820000  0.78000000  0.43030000  1.0 -0.1686585946
C  C26  1  0.12920000  0.79400000  0.46130000  1.0 0.049555621
C  C27  1  0.22410000  0.87870000  0.45520000  1.0 -0.1686585946
C  C28  1  0.24260000  0.94400000  0.42130000  1.0 0.049555621
C  C29  1  0.74610000  0.31490000  0.55450000  1.0 0.0593317258
C  C30  1  0.84760000  0.40020000  0.55710000  1.0 -0.1686585946
C  C31  1  0.87840000  0.48120000  0.53190000  1.0 0.0593317258
C  C32  1  0.81190000  0.47670000  0.50200000  1.0 -0.1598381442
C  C33  1  0.71500000  0.38820000  0.50000000  1.0 0.0402600419
C  C34  1  0.14070000  0.65930000  0.55660000  1.0 0.3433625955
C  C35  1  0.10130000  0.71850000  0.49680000  1.0 0.3502889971
C  C36  1  0.98460000  0.57320000  0.53170000  1.0 0.3502889971
C  C37  1  0.09790000  0.90610000  0.27580000  1.0 0.0708775677
C  C38  1  0.02100000  0.83680000  0.24670000  1.0 -0.1798629564
C  C39  1  0.93280000  0.81540000  0.24500000  1.0 0.049555621
C  C40  1  0.92660000  0.86480000  0.26970000  1.0 -0.1798629564
C  C41  1  0.00870000  0.93310000  0.29620000  1.0 0.0402600419
C  C42  1  0.73000000  0.50520000  0.06970000  1.0 0.0593317258
C  C43  1  0.71930000  0.54830000  0.09850000  1.0 -0.1598381442
C  C44  1  0.79430000  0.60510000  0.13100000  1.0 0.0402600419
C  C45  1  0.87300000  0.61200000  0.13630000  1.0 -0.1686585946
C  C46  1  0.88160000  0.57000000  0.10460000  1.0 0.0708775677
C  C47  1  0.44740000  0.57840000  0.15940000  1.0 0.0593317258
C  C48  1  0.53170000  0.59030000  0.15710000  1.0 -0.1598381442
C  C49  1  0.59860000  0.62600000  0.19390000  1.0 0.0402600419
C  C50  1  0.57570000  0.63490000  0.23050000  1.0 -0.1598381442
C  C51  1  0.48430000  0.60910000  0.23110000  1.0 0.0593317258
C  C52  1  0.84760000  0.74120000  0.21630000  1.0 0.319877443
C  C53  1  0.78420000  0.64600000  0.16290000  1.0 0.3276729974
C  C54  1  0.68970000  0.65150000  0.19300000  1.0 0.319877443
C  C55  1  0.62540000  0.29580000  0.00280000  1.0 0.0402600419
C  C56  1  0.54180000  0.20040000  0.00350000  1.0 -0.1686585946
C  C57  1  0.53010000  0.13150000  0.03340000  1.0 0.049555621
C  C58  1  0.60950000  0.16390000  0.06480000  1.0 -0.1798629564
C  C59  1  0.69480000  0.26120000  0.05900000  1.0 0.0708775677
C  C60  1  0.24710000  0.62750000  0.11450000  1.0 0.0402600419
C  C61  1  0.25940000  0.69940000  0.08410000  1.0 -0.1598381442
C  C62  1  0.33770000  0.79610000  0.08940000  1.0 0.049555621
C  C63  1  0.40370000  0.81910000  0.12510000  1.0 -0.1686585946
C  C64  1  0.38730000  0.74450000  0.15430000  1.0 0.049555621
C  C65  1  0.16110000  0.92890000  0.89720000  1.0 0.049555621
C  C66  1  0.23360000  0.95380000  0.93000000  1.0 -0.1598381442
C  C67  1  0.21930000  0.88410000  0.95980000  1.0 0.0593317258
C  C68  1  0.13760000  0.78780000  0.95570000  1.0 -0.1798629564
C  C69  1  0.06830000  0.76510000  0.91930000  1.0 0.0402600419
C  C70  1  0.43940000  0.02880000  0.03300000  1.0 0.3276729974
C  C71  1  0.35070000  0.87050000  0.05740000  1.0 0.3433625955
C  C72  1  0.29530000  0.91350000  0.99930000  1.0 0.3502889971
C  C73  1  0.27080000  0.48360000  0.43490000  1.0 0.0593317258
C  C74  1  0.28440000  0.45020000  0.40520000  1.0 -0.1686585946
C  C75  1  0.22160000  0.41080000  0.36980000  1.0 0.049555621
C  C76  1  0.14590000  0.40790000  0.36540000  1.0 -0.1686585946
C  C77  1  0.13960000  0.44360000  0.39540000  1.0 0.0197810411
C  C78  1  0.52460000  0.40020000  0.26980000  1.0 0.0402600419
C  C79  1  0.43860000  0.37720000  0.26860000  1.0 -0.1598381442
C  C80  1  0.41710000  0.38630000  0.30640000  1.0 0.049555621
C  C81  1  0.48190000  0.41590000  0.34240000  1.0 -0.1598381442
C  C82  1  0.56790000  0.44210000  0.34090000  1.0 0.0402600419
C  C83  1  0.91660000  0.10960000  0.22450000  1.0 0.049555621
C  C84  1  0.99380000  0.17920000  0.25140000  1.0 -0.1598381442
C  C85  1  0.07770000  0.19730000  0.25450000  1.0 0.0402600419
C  C86  1  0.08270000  0.14670000  0.23020000  1.0 -0.1686585946
C  C87  1  0.00270000  0.07930000  0.20420000  1.0 0.0197810411
C  C88  1  0.23130000  0.37050000  0.33810000  1.0 0.319877443
C  C89  1  0.32250000  0.35930000  0.30810000  1.0 0.3502889971
C  C90  1  0.16550000  0.27450000  0.28310000  1.0 0.3502889971
C  C91  1  0.62520000  0.26880000  0.34530000  1.0 0.0708775677
C  C92  1  0.60660000  0.19300000  0.37460000  1.0 -0.1686585946
C  C93  1  0.67370000  0.21730000  0.41160000  1.0 0.049555621
C  C94  1  0.75370000  0.31510000  0.41690000  1.0 -0.1598381442
C  C95  1  0.76310000  0.38390000  0.38700000  1.0 0.0402600419
C  C96  1  0.85180000  0.08660000  0.60320000  1.0 0.049555621
C  C97  1  0.78000000  0.05820000  0.56970000  1.0 -0.1686585946
C  C98  1  0.79400000  0.12920000  0.53870000  1.0 0.049555621
C  C99  1  0.87870000  0.22410000  0.54480000  1.0 -0.1686585946
C  C100  1  0.94400000  0.24260000  0.57870000  1.0 0.049555621
C  C101  1  0.31490000  0.74610000  0.44550000  1.0 0.0593317258
C  C102  1  0.40020000  0.84760000  0.44290000  1.0 -0.1686585946
C  C103  1  0.48120000  0.87840000  0.46810000  1.0 0.0593317258
C  C104  1  0.47670000  0.81190000  0.49800000  1.0 -0.1598381442
C  C105  1  0.38820000  0.71500000  0.50000000  1.0 0.0402600419
C  C106  1  0.65930000  0.14070000  0.44340000  1.0 0.3433625955
C  C107  1  0.71850000  0.10130000  0.50320000  1.0 0.3502889971
C  C108  1  0.57320000  0.98460000  0.46830000  1.0 0.3502889971
C  C109  1  0.90610000  0.09790000  0.72420000  1.0 0.0783106502
C  C110  1  0.83680000  0.02100000  0.75330000  1.0 -0.1798629564
C  C111  1  0.81540000  0.93280000  0.75500000  1.0 0.049555621
C  C112  1  0.86480000  0.92660000  0.73030000  1.0 -0.1798629564
C  C113  1  0.93310000  0.00870000  0.70380000  1.0 0.049555621
C  C114  1  0.50520000  0.73000000  0.93030000  1.0 0.0593317258
C  C115  1  0.54830000  0.71930000  0.90150000  1.0 -0.1598381442
C  C116  1  0.60510000  0.79430000  0.86900000  1.0 0.0402600419
C  C117  1  0.61200000  0.87300000  0.86370000  1.0 -0.1686585946
C  C118  1  0.57000000  0.88160000  0.89540000  1.0 0.0708775677
C  C119  1  0.57840000  0.44740000  0.84060000  1.0 0.0593317258
C  C120  1  0.59030000  0.53170000  0.84290000  1.0 -0.1598381442
C  C121  1  0.62600000  0.59860000  0.80610000  1.0 0.0402600419
C  C122  1  0.63490000  0.57570000  0.76950000  1.0 -0.1598381442
C  C123  1  0.60910000  0.48430000  0.76890000  1.0 0.0593317258
C  C124  1  0.74120000  0.84760000  0.78370000  1.0 0.319877443
C  C125  1  0.64600000  0.78420000  0.83710000  1.0 0.3276729974
C  C126  1  0.65150000  0.68970000  0.80700000  1.0 0.319877443
C  C127  1  0.29580000  0.62540000  0.99720000  1.0 0.0402600419
C  C128  1  0.20040000  0.54180000  0.99650000  1.0 -0.1686585946
C  C129  1  0.13150000  0.53010000  0.96660000  1.0 0.049555621
C  C130  1  0.16390000  0.60950000  0.93520000  1.0 -0.1798629564
C  C131  1  0.26120000  0.69480000  0.94100000  1.0 0.0708775677
C  C132  1  0.62750000  0.24710000  0.88550000  1.0 0.049555621
C  C133  1  0.69940000  0.25940000  0.91590000  1.0 -0.1598381442
C  C134  1  0.79610000  0.33770000  0.91060000  1.0 0.049555621
C  C135  1  0.81910000  0.40370000  0.87490000  1.0 -0.1686585946
C  C136  1  0.74450000  0.38730000  0.84570000  1.0 0.049555621
C  C137  1  0.92890000  0.16110000  0.10280000  1.0 0.049555621
C  C138  1  0.95380000  0.23360000  0.07000000  1.0 -0.1598381442
C  C139  1  0.88410000  0.21930000  0.04020000  1.0 0.0593317258
C  C140  1  0.78780000  0.13760000  0.04430000  1.0 -0.1798629564
C  C141  1  0.76510000  0.06830000  0.08070000  1.0 0.0402600419
C  C142  1  0.02880000  0.43940000  0.96700000  1.0 0.3276729974
C  C143  1  0.87050000  0.35070000  0.94260000  1.0 0.3433625955
C  C144  1  0.91350000  0.29530000  0.00070000  1.0 0.3570257756
I  I1  1  0.46967000  0.22273000  0.44507000  1.0 0.0304979976
I  I2  1  0.49007000  0.03053000  0.53865000  1.0 -0.0294856298
I  I3  1  0.63120000  0.85780000  0.64960000  1.0 0.0304979976
I  I4  1  0.44930000  0.73470000  0.75910000  1.0 0.0304979976
I  I5  1  0.88930000  0.84550000  0.87977000  1.0 0.0402600419
I  I6  1  0.88314000  0.65106000  0.81280000  1.0 -0.008954989
I  I7  1  0.17644000  0.13036000  0.38380000  1.0 0.0148506644
I  I8  1  0.36124000  0.13196000  0.30950000  1.0 -0.304822084
I  I9  1  0.80200000  0.54500000  0.94740000  1.0 0.049555621
I  I10  1  0.97420000  0.50140000  0.04760000  1.0 0.0304979976
I  I11  1  0.16310000  0.38050000  0.16090000  1.0 -0.1002973658
I  I12  1  0.28580000  0.57720000  0.26780000  1.0 -0.0684329592
I  I13  1  0.47230000  0.19370000  0.45260000  1.0 -0.0294856298
I  I14  1  0.52450000  0.03670000  0.55900000  1.0 0.0197810411
I  I15  1  0.62793000  0.84947000  0.66200000  1.0 -0.0015547578
I  I16  1  0.43107000  0.72453000  0.76900000  1.0 0.0304979976
I  I17  1  0.87730000  0.81750000  0.87280000  1.0 0.0304979976
I  I18  1  0.90940000  0.65000000  0.80790000  1.0 0.0197810411
I  I19  1  0.17160000  0.12660000  0.37240000  1.0 -0.008954989
I  I20  1  0.36070000  0.11690000  0.31000000  1.0 -0.324268457
I  I21  1  0.82550000  0.53690000  0.95580000  1.0 0.0197810411
I  I22  1  0.97690000  0.47970000  0.06580000  1.0 0.0708775677
I  I23  1  0.15850000  0.39250000  0.16330000  1.0 -0.107486965
I  I24  1  0.30790000  0.59730000  0.26960000  1.0 -0.0513146729
I  I25  1  0.22273000  0.46967000  0.55493000  1.0 0.0304979976
I  I26  1  0.03053000  0.49007000  0.46135000  1.0 -0.0294856298
I  I27  1  0.85780000  0.63120000  0.35040000  1.0 0.0304979976
I  I28  1  0.73470000  0.44930000  0.24090000  1.0 0.0304979976
I  I29  1  0.84550000  0.88930000  0.12023000  1.0 0.0402600419
I  I30  1  0.65106000  0.88314000  0.18720000  1.0 -0.008954989
I  I31  1  0.13036000  0.17644000  0.61620000  1.0 0.0197810411
I  I32  1  0.13196000  0.36124000  0.69050000  1.0 -0.304822084
I  I33  1  0.54500000  0.80200000  0.05260000  1.0 0.049555621
I  I34  1  0.50140000  0.97420000  0.95240000  1.0 0.0197810411
I  I35  1  0.38050000  0.16310000  0.83910000  1.0 -0.107486965
I  I36  1  0.57720000  0.28580000  0.73220000  1.0 -0.0684329592
I  I37  1  0.19370000  0.47230000  0.54740000  1.0 -0.0294856298
I  I38  1  0.03670000  0.52450000  0.44100000  1.0 0.0197810411
I  I39  1  0.84947000  0.62793000  0.33800000  1.0 -0.0015547578
I  I40  1  0.72453000  0.43107000  0.23100000  1.0 0.0304979976
I  I41  1  0.81750000  0.87730000  0.12720000  1.0 0.0304979976
I  I42  1  0.65000000  0.90940000  0.19210000  1.0 0.0197810411
I  I43  1  0.12660000  0.17160000  0.62760000  1.0 -0.008954989
I  I44  1  0.11690000  0.36070000  0.69000000  1.0 -0.324268457
I  I45  1  0.53690000  0.82550000  0.04420000  1.0 0.0304979976
I  I46  1  0.47970000  0.97690000  0.93420000  1.0 0.0708775677
I  I47  1  0.39250000  0.15850000  0.83670000  1.0 -0.107486965
I  I48  1  0.59730000  0.30790000  0.73040000  1.0 -0.0513146729
N  N1  1  0.48660000  0.20460000  0.57030000  1.0 -0.1798629564
N  N2  1  0.43280000  0.58980000  0.69500000  1.0 -0.2192216632
N  N3  1  0.05870000  0.91830000  0.79900000  1.0 -0.2073579417
N  N4  1  0.39630000  0.31770000  0.66210000  1.0 -0.4281146494
N  N5  1  0.29880000  0.25000000  0.72110000  1.0 -0.448967831
N  N6  1  0.30650000  0.15070000  0.68940000  1.0 -0.4281146494
N  N7  1  0.36130000  0.70110000  0.64850000  1.0 -0.1986943972
N  N8  1  0.17680000  0.93320000  0.39290000  1.0 -0.1686585946
N  N9  1  0.68220000  0.31020000  0.52670000  1.0 -0.1902380218
N  N10  1  0.16850000  0.72910000  0.52420000  1.0 -0.4115151979
N  N11  1  0.00670000  0.64150000  0.49980000  1.0 -0.4404793349
N  N12  1  0.04750000  0.57990000  0.56180000  1.0 -0.4115151979
N  N13  1  0.09080000  0.95100000  0.29930000  1.0 -0.1986943972
N  N14  1  0.81420000  0.52600000  0.07160000  1.0 -0.2073579417
N  N15  1  0.42380000  0.58140000  0.19520000  1.0 -0.2073579417
N  N16  1  0.86090000  0.70870000  0.18810000  1.0 -0.4115151979
N  N17  1  0.69650000  0.61530000  0.16180000  1.0 -0.4404793349
N  N18  1  0.76220000  0.71180000  0.22200000  1.0 -0.448967831
N  N19  1  0.70210000  0.32550000  0.03090000  1.0 -0.2073579417
N  N20  1  0.31240000  0.65100000  0.14910000  1.0 -0.1902380218
N  N21  1  0.07950000  0.83470000  0.89130000  1.0 -0.1986943972
N  N22  1  0.43380000  0.96420000  0.06290000  1.0 -0.448967831
N  N23  1  0.28030000  0.83890000  0.02490000  1.0 -0.4404793349
N  N24  1  0.37020000  0.00760000  0.00160000  1.0 -0.4281146494
N  N25  1  0.20460000  0.48660000  0.42970000  1.0 -0.1798629564
N  N26  1  0.58980000  0.43280000  0.30500000  1.0 -0.2192216632
N  N27  1  0.91830000  0.05870000  0.20100000  1.0 -0.2073579417
N  N28  1  0.31770000  0.39630000  0.33790000  1.0 -0.4281146494
N  N29  1  0.25000000  0.29880000  0.27890000  1.0 -0.448967831
N  N30  1  0.15070000  0.30650000  0.31060000  1.0 -0.4281146494
N  N31  1  0.70110000  0.36130000  0.35150000  1.0 -0.1986943972
N  N32  1  0.93320000  0.17680000  0.60710000  1.0 -0.1686585946
N  N33  1  0.31020000  0.68220000  0.47330000  1.0 -0.1902380218
N  N34  1  0.72910000  0.16850000  0.47580000  1.0 -0.4115151979
N  N35  1  0.64150000  0.00670000  0.50020000  1.0 -0.4404793349
N  N36  1  0.57990000  0.04750000  0.43820000  1.0 -0.4115151979
N  N37  1  0.95100000  0.09080000  0.70070000  1.0 -0.1986943972
N  N38  1  0.52600000  0.81420000  0.92840000  1.0 -0.2073579417
N  N39  1  0.58140000  0.42380000  0.80480000  1.0 -0.2073579417
N  N40  1  0.70870000  0.86090000  0.81190000  1.0 -0.4115151979
N  N41  1  0.61530000  0.69650000  0.83820000  1.0 -0.4404793349
N  N42  1  0.71180000  0.76220000  0.77800000  1.0 -0.448967831
N  N43  1  0.32550000  0.70210000  0.96910000  1.0 -0.2073579417
N  N44  1  0.65100000  0.31240000  0.85090000  1.0 -0.1902380218
N  N45  1  0.83470000  0.07950000  0.10870000  1.0 -0.1986943972
N  N46  1  0.96420000  0.43380000  0.93710000  1.0 -0.448967831
N  N47  1  0.83890000  0.28030000  0.97510000  1.0 -0.4404793349
N  N48  1  0.00760000  0.37020000  0.99840000  1.0 -0.4281146494
