# DDEC6 charges by PACMAN v1.1 (https://github.com/mtap-research/PACMAN-charge/)
data_KAFGEH_ASR_pacman
_symmetry_space_group_name_H-M   'P 1'
_cell_length_a   19.25470000
_cell_length_b   19.25470000
_cell_length_c   18.72420000
_cell_angle_alpha   90.00000000
_cell_angle_beta   90.00000000
_cell_angle_gamma   90.00000000
_symmetry_Int_Tables_number   1
_chemical_formula_structural   Cd4H25C41(NO)16
_chemical_formula_sum   'Cd16 H100 C164 N64 O64'
_cell_volume   6941.87492011
_cell_formula_units_Z   4
loop_
 _symmetry_equiv_pos_site_id
 _symmetry_equiv_pos_as_xyz
  1  'x, y, z'
loop_
 _atom_site_type_symbol
 _atom_site_label
 _atom_site_symmetry_multiplicity
 _atom_site_fract_x
 _atom_site_fract_y
 _atom_site_fract_z
 _atom_site_occupancy
 _atom_site_charge
Cd  Cd1  1  0.99785000  0.12079000  0.46298000  1.0 0.9026191998
Cd  Cd2  1  0.92374000  0.20718000  0.30278000  1.0 0.8254475015
Cd  Cd3  1  0.00215000  0.87921000  0.96298000  1.0 0.9026191998
Cd  Cd4  1  0.07626000  0.79282000  0.80278000  1.0 0.8246595281
Cd  Cd5  1  0.62079000  0.50215000  0.71298000  1.0 0.9026191998
Cd  Cd6  1  0.70718000  0.57626000  0.55278000  1.0 0.8254475015
Cd  Cd7  1  0.37921000  0.49785000  0.21298000  1.0 0.9026191998
Cd  Cd8  1  0.29282000  0.42374000  0.05278000  1.0 0.8246595281
Cd  Cd9  1  0.49785000  0.37921000  0.78702000  1.0 0.9026191998
Cd  Cd10  1  0.42374000  0.29282000  0.94722000  1.0 0.8246595281
Cd  Cd11  1  0.50215000  0.62079000  0.28702000  1.0 0.9026191998
Cd  Cd12  1  0.57626000  0.70718000  0.44722000  1.0 0.8254475015
Cd  Cd13  1  0.12079000  0.99785000  0.53702000  1.0 0.9026191998
Cd  Cd14  1  0.20718000  0.92374000  0.69722000  1.0 0.8254475015
Cd  Cd15  1  0.87921000  0.00215000  0.03702000  1.0 0.9026191998
Cd  Cd16  1  0.79282000  0.07626000  0.19722000  1.0 0.8246595281
H  H1  1  0.24260000  0.39120000  0.42130000  1.0 0.310602432
H  H2  1  0.26890000  0.42260000  0.35380000  1.0 0.310602432
H  H3  1  0.82410000  0.05490000  0.60470000  1.0 0.2794832046
H  H4  1  0.79480000  0.99230000  0.63570000  1.0 0.2610701471
H  H5  1  0.78640000  0.05860000  0.67180000  1.0 0.2610701471
H  H6  1  0.79620000  0.89440000  0.41880000  1.0 0.127972627
H  H7  1  0.17340000  0.29540000  0.42480000  1.0 0.1381535089
H  H8  1  0.09250000  0.22830000  0.23950000  1.0 0.127972627
H  H9  1  0.16860000  0.29790000  0.17940000  1.0 0.122378705
H  H10  1  0.84800000  0.93970000  0.74740000  1.0 0.122378705
H  H11  1  0.00990000  0.03590000  0.83360000  1.0 0.109342684
H  H12  1  0.04500000  0.04770000  0.71260000  1.0 0.109342684
H  H13  1  0.75740000  0.60880000  0.92130000  1.0 0.310602432
H  H14  1  0.73110000  0.57740000  0.85380000  1.0 0.310602432
H  H15  1  0.17590000  0.94510000  0.10470000  1.0 0.2794832046
H  H16  1  0.20520000  0.00770000  0.13570000  1.0 0.2610701471
H  H17  1  0.21360000  0.94140000  0.17180000  1.0 0.2610701471
H  H18  1  0.20380000  0.10560000  0.91880000  1.0 0.127972627
H  H19  1  0.82660000  0.70460000  0.92480000  1.0 0.1381535089
H  H20  1  0.90750000  0.77170000  0.73950000  1.0 0.127972627
H  H21  1  0.83140000  0.70210000  0.67940000  1.0 0.122378705
H  H22  1  0.15200000  0.06030000  0.24740000  1.0 0.122378705
H  H23  1  0.99010000  0.96410000  0.33360000  1.0 0.109342684
H  H24  1  0.95500000  0.95230000  0.21260000  1.0 0.109342684
H  H25  1  0.89120000  0.25740000  0.67130000  1.0 0.310602432
H  H26  1  0.92260000  0.23110000  0.60380000  1.0 0.310602432
H  H27  1  0.55490000  0.67590000  0.85470000  1.0 0.2794832046
H  H28  1  0.49230000  0.70520000  0.88570000  1.0 0.2610701471
H  H29  1  0.55860000  0.71360000  0.92180000  1.0 0.2610701471
H  H30  1  0.39440000  0.70380000  0.66880000  1.0 0.127972627
H  H31  1  0.79540000  0.32660000  0.67480000  1.0 0.1381535089
H  H32  1  0.72830000  0.40750000  0.48950000  1.0 0.127972627
H  H33  1  0.79790000  0.33140000  0.42940000  1.0 0.122378705
H  H34  1  0.43970000  0.65200000  0.99740000  1.0 0.122378705
H  H35  1  0.53590000  0.49010000  0.08360000  1.0 0.109342684
H  H36  1  0.54770000  0.45500000  0.96260000  1.0 0.109342684
H  H37  1  0.10880000  0.74260000  0.17130000  1.0 0.310602432
H  H38  1  0.07740000  0.76890000  0.10380000  1.0 0.310602432
H  H39  1  0.44510000  0.32410000  0.35470000  1.0 0.2794832046
H  H40  1  0.50770000  0.29480000  0.38570000  1.0 0.2610701471
H  H41  1  0.44140000  0.28640000  0.42180000  1.0 0.2610701471
H  H42  1  0.60560000  0.29620000  0.16880000  1.0 0.127972627
H  H43  1  0.20460000  0.67340000  0.17480000  1.0 0.1381535089
H  H44  1  0.27170000  0.59250000  0.98950000  1.0 0.127972627
H  H45  1  0.20210000  0.66860000  0.92940000  1.0 0.122378705
H  H46  1  0.56030000  0.34800000  0.49740000  1.0 0.122378705
H  H47  1  0.46410000  0.50990000  0.58360000  1.0 0.109342684
H  H48  1  0.45230000  0.54500000  0.46260000  1.0 0.109342684
H  H49  1  0.74260000  0.10880000  0.82870000  1.0 0.310602432
H  H50  1  0.76890000  0.07740000  0.89620000  1.0 0.310602432
H  H51  1  0.32410000  0.44510000  0.64530000  1.0 0.2794832046
H  H52  1  0.29480000  0.50770000  0.61430000  1.0 0.2610701471
H  H53  1  0.28640000  0.44140000  0.57820000  1.0 0.2610701471
H  H54  1  0.29620000  0.60560000  0.83120000  1.0 0.127972627
H  H55  1  0.67340000  0.20460000  0.82520000  1.0 0.1381535089
H  H56  1  0.59250000  0.27170000  0.01050000  1.0 0.127972627
H  H57  1  0.66860000  0.20210000  0.07060000  1.0 0.122378705
H  H58  1  0.34800000  0.56030000  0.50260000  1.0 0.122378705
H  H59  1  0.50990000  0.46410000  0.41640000  1.0 0.109342684
H  H60  1  0.54500000  0.45230000  0.53740000  1.0 0.109342684
H  H61  1  0.25740000  0.89120000  0.32870000  1.0 0.310602432
H  H62  1  0.23110000  0.92260000  0.39620000  1.0 0.310602432
H  H63  1  0.67590000  0.55490000  0.14530000  1.0 0.2794832046
H  H64  1  0.70520000  0.49230000  0.11430000  1.0 0.2610701471
H  H65  1  0.71360000  0.55860000  0.07820000  1.0 0.2610701471
H  H66  1  0.70380000  0.39440000  0.33120000  1.0 0.127972627
H  H67  1  0.32660000  0.79540000  0.32520000  1.0 0.1381535089
H  H68  1  0.40750000  0.72830000  0.51050000  1.0 0.127972627
H  H69  1  0.33140000  0.79790000  0.57060000  1.0 0.122378705
H  H70  1  0.65200000  0.43970000  0.00260000  1.0 0.122378705
H  H71  1  0.49010000  0.53590000  0.91640000  1.0 0.109342684
H  H72  1  0.45500000  0.54770000  0.03740000  1.0 0.109342684
H  H73  1  0.39120000  0.24260000  0.57870000  1.0 0.310602432
H  H74  1  0.42260000  0.26890000  0.64620000  1.0 0.310602432
H  H75  1  0.05490000  0.82410000  0.39530000  1.0 0.2794832046
H  H76  1  0.99230000  0.79480000  0.36430000  1.0 0.2610701471
H  H77  1  0.05860000  0.78640000  0.32820000  1.0 0.2610701471
H  H78  1  0.89440000  0.79620000  0.58120000  1.0 0.127972627
H  H79  1  0.29540000  0.17340000  0.57520000  1.0 0.1381535089
H  H80  1  0.22830000  0.09250000  0.76050000  1.0 0.127972627
H  H81  1  0.29790000  0.16860000  0.82060000  1.0 0.122378705
H  H82  1  0.93970000  0.84800000  0.25260000  1.0 0.122378705
H  H83  1  0.03590000  0.00990000  0.16640000  1.0 0.109342684
H  H84  1  0.04770000  0.04500000  0.28740000  1.0 0.109342684
H  H85  1  0.60880000  0.75740000  0.07870000  1.0 0.310602432
H  H86  1  0.57740000  0.73110000  0.14620000  1.0 0.310602432
H  H87  1  0.94510000  0.17590000  0.89530000  1.0 0.2794832046
H  H88  1  0.00770000  0.20520000  0.86430000  1.0 0.2610701471
H  H89  1  0.94140000  0.21360000  0.82820000  1.0 0.2610701471
H  H90  1  0.10560000  0.20380000  0.08120000  1.0 0.127972627
H  H91  1  0.70460000  0.82660000  0.07520000  1.0 0.1381535089
H  H92  1  0.77170000  0.90750000  0.26050000  1.0 0.127972627
H  H93  1  0.70210000  0.83140000  0.32060000  1.0 0.122378705
H  H94  1  0.06030000  0.15200000  0.75260000  1.0 0.122378705
H  H95  1  0.96410000  0.99010000  0.66640000  1.0 0.109342684
H  H96  1  0.95230000  0.95500000  0.78740000  1.0 0.109342684
H  H97  1  0.97170000  0.97170000  0.50000000  1.0 0.1381535089
H  H98  1  0.02830000  0.02830000  0.00000000  1.0 0.1381535089
H  H99  1  0.47170000  0.52830000  0.75000000  1.0 0.1381535089
H  H100  1  0.52830000  0.47170000  0.25000000  1.0 0.1381535089
C  C1  1  0.87720000  0.00000000  0.39970000  1.0 0.2610701471
C  C2  1  0.88380000  0.94270000  0.45300000  1.0 0.0490920623
C  C3  1  0.83240000  0.89160000  0.45150000  1.0 -0.1584085972
C  C4  1  0.25680000  0.39100000  0.22200000  1.0 0.606603803
C  C5  1  0.07770000  0.20460000  0.37990000  1.0 0.5506667289
C  C6  1  0.20960000  0.34450000  0.26320000  1.0 -0.1316385568
C  C7  1  0.20790000  0.34510000  0.33730000  1.0 0.2610701471
C  C8  1  0.16980000  0.29780000  0.37530000  1.0 -0.2607661681
C  C9  1  0.12430000  0.25240000  0.33750000  1.0 0.0196679131
C  C10  1  0.12340000  0.25580000  0.26500000  1.0 -0.1458972861
C  C11  1  0.16760000  0.29950000  0.22910000  1.0 -0.0773887117
C  C12  1  0.96760000  0.06970000  0.59930000  1.0 0.3356848377
C  C13  1  0.89260000  0.97670000  0.87880000  1.0 0.3605552334
C  C14  1  0.94790000  0.04520000  0.67290000  1.0 -0.0773887117
C  C15  1  0.88080000  0.02060000  0.68520000  1.0 0.0007738542
C  C16  1  0.87620000  0.97890000  0.74650000  1.0 -0.2123024352
C  C17  1  0.91500000  0.99820000  0.80550000  1.0 -0.0427063229
C  C18  1  0.98020000  0.02670000  0.79560000  1.0 -0.0427063229
C  C19  1  0.99860000  0.04100000  0.72470000  1.0 -0.0122714965
C  C20  1  0.12280000  0.00000000  0.89970000  1.0 0.2610701471
C  C21  1  0.11620000  0.05730000  0.95300000  1.0 0.0490920623
C  C22  1  0.16760000  0.10840000  0.95150000  1.0 -0.1584085972
C  C23  1  0.74320000  0.60900000  0.72200000  1.0 0.606603803
C  C24  1  0.92230000  0.79540000  0.87990000  1.0 0.5506667289
C  C25  1  0.79040000  0.65550000  0.76320000  1.0 -0.1316385568
C  C26  1  0.79210000  0.65490000  0.83730000  1.0 0.2610701471
C  C27  1  0.83020000  0.70220000  0.87530000  1.0 -0.2607661681
C  C28  1  0.87570000  0.74760000  0.83750000  1.0 0.0196679131
C  C29  1  0.87660000  0.74420000  0.76500000  1.0 -0.1458972861
C  C30  1  0.83240000  0.70050000  0.72910000  1.0 -0.0773887117
C  C31  1  0.03240000  0.93030000  0.09930000  1.0 0.3356848377
C  C32  1  0.10740000  0.02330000  0.37880000  1.0 0.3605552334
C  C33  1  0.05210000  0.95480000  0.17290000  1.0 -0.0773887117
C  C34  1  0.11920000  0.97940000  0.18520000  1.0 0.0007738542
C  C35  1  0.12380000  0.02110000  0.24650000  1.0 -0.2123024352
C  C36  1  0.08500000  0.00180000  0.30550000  1.0 -0.0427063229
C  C37  1  0.01980000  0.97330000  0.29560000  1.0 -0.0427063229
C  C38  1  0.00140000  0.95900000  0.22470000  1.0 -0.0122714965
C  C39  1  0.50000000  0.62280000  0.64970000  1.0 0.2610701471
C  C40  1  0.44270000  0.61620000  0.70300000  1.0 0.0490920623
C  C41  1  0.39160000  0.66760000  0.70150000  1.0 -0.1584085972
C  C42  1  0.89100000  0.24320000  0.47200000  1.0 0.606603803
C  C43  1  0.70460000  0.42230000  0.62990000  1.0 0.5506667289
C  C44  1  0.84450000  0.29040000  0.51320000  1.0 -0.1316385568
C  C45  1  0.84510000  0.29210000  0.58730000  1.0 0.2610701471
C  C46  1  0.79780000  0.33020000  0.62530000  1.0 -0.2607661681
C  C47  1  0.75240000  0.37570000  0.58750000  1.0 0.0196679131
C  C48  1  0.75580000  0.37660000  0.51500000  1.0 -0.1458972861
C  C49  1  0.79950000  0.33240000  0.47910000  1.0 -0.0773887117
C  C50  1  0.56970000  0.53240000  0.84930000  1.0 0.3356848377
C  C51  1  0.47670000  0.60740000  0.12880000  1.0 0.3605552334
C  C52  1  0.54520000  0.55210000  0.92290000  1.0 -0.0773887117
C  C53  1  0.52060000  0.61920000  0.93520000  1.0 0.0007738542
C  C54  1  0.47890000  0.62380000  0.99650000  1.0 -0.2123024352
C  C55  1  0.49820000  0.58500000  0.05550000  1.0 -0.0427063229
C  C56  1  0.52670000  0.51980000  0.04560000  1.0 -0.0427063229
C  C57  1  0.54100000  0.50140000  0.97470000  1.0 -0.0122714965
C  C58  1  0.50000000  0.37720000  0.14970000  1.0 0.2610701471
C  C59  1  0.55730000  0.38380000  0.20300000  1.0 0.0490920623
C  C60  1  0.60840000  0.33240000  0.20150000  1.0 -0.1584085972
C  C61  1  0.10900000  0.75680000  0.97200000  1.0 0.606603803
C  C62  1  0.29540000  0.57770000  0.12990000  1.0 0.5506667289
C  C63  1  0.15550000  0.70960000  0.01320000  1.0 -0.1316385568
C  C64  1  0.15490000  0.70790000  0.08730000  1.0 0.2610701471
C  C65  1  0.20220000  0.66980000  0.12530000  1.0 -0.2607661681
C  C66  1  0.24760000  0.62430000  0.08750000  1.0 0.0196679131
C  C67  1  0.24420000  0.62340000  0.01500000  1.0 -0.1458972861
C  C68  1  0.20050000  0.66760000  0.97910000  1.0 -0.0773887117
C  C69  1  0.43030000  0.46760000  0.34930000  1.0 0.3356848377
C  C70  1  0.52330000  0.39260000  0.62880000  1.0 0.3605552334
C  C71  1  0.45480000  0.44790000  0.42290000  1.0 -0.0773887117
C  C72  1  0.47940000  0.38080000  0.43520000  1.0 0.0007738542
C  C73  1  0.52110000  0.37620000  0.49650000  1.0 -0.2123024352
C  C74  1  0.50180000  0.41500000  0.55550000  1.0 -0.0427063229
C  C75  1  0.47330000  0.48020000  0.54560000  1.0 -0.0427063229
C  C76  1  0.45900000  0.49860000  0.47470000  1.0 -0.0122714965
C  C77  1  0.37720000  0.50000000  0.85030000  1.0 0.2610701471
C  C78  1  0.38380000  0.55730000  0.79700000  1.0 0.0490920623
C  C79  1  0.33240000  0.60840000  0.79850000  1.0 -0.1584085972
C  C80  1  0.75680000  0.10900000  0.02800000  1.0 0.606603803
C  C81  1  0.57770000  0.29540000  0.87010000  1.0 0.5506667289
C  C82  1  0.70960000  0.15550000  0.98680000  1.0 -0.1316385568
C  C83  1  0.70790000  0.15490000  0.91270000  1.0 0.2610701471
C  C84  1  0.66980000  0.20220000  0.87470000  1.0 -0.2607661681
C  C85  1  0.62430000  0.24760000  0.91250000  1.0 0.0196679131
C  C86  1  0.62340000  0.24420000  0.98500000  1.0 -0.1458972861
C  C87  1  0.66760000  0.20050000  0.02090000  1.0 -0.0773887117
C  C88  1  0.46760000  0.43030000  0.65070000  1.0 0.3356848377
C  C89  1  0.39260000  0.52330000  0.37120000  1.0 0.3605552334
C  C90  1  0.44790000  0.45480000  0.57710000  1.0 -0.0773887117
C  C91  1  0.38080000  0.47940000  0.56480000  1.0 0.0007738542
C  C92  1  0.37620000  0.52110000  0.50350000  1.0 -0.2123024352
C  C93  1  0.41500000  0.50180000  0.44450000  1.0 -0.0427063229
C  C94  1  0.48020000  0.47330000  0.45440000  1.0 -0.0427063229
C  C95  1  0.49860000  0.45900000  0.52530000  1.0 -0.0122714965
C  C96  1  0.62280000  0.50000000  0.35030000  1.0 0.2610701471
C  C97  1  0.61620000  0.44270000  0.29700000  1.0 0.0490920623
C  C98  1  0.66760000  0.39160000  0.29850000  1.0 -0.1584085972
C  C99  1  0.24320000  0.89100000  0.52800000  1.0 0.606603803
C  C100  1  0.42230000  0.70460000  0.37010000  1.0 0.5506667289
C  C101  1  0.29040000  0.84450000  0.48680000  1.0 -0.1316385568
C  C102  1  0.29210000  0.84510000  0.41270000  1.0 0.2610701471
C  C103  1  0.33020000  0.79780000  0.37470000  1.0 -0.2607661681
C  C104  1  0.37570000  0.75240000  0.41250000  1.0 0.0196679131
C  C105  1  0.37660000  0.75580000  0.48500000  1.0 -0.1458972861
C  C106  1  0.33240000  0.79950000  0.52090000  1.0 -0.0773887117
C  C107  1  0.53240000  0.56970000  0.15070000  1.0 0.3356848377
C  C108  1  0.60740000  0.47670000  0.87120000  1.0 0.3605552334
C  C109  1  0.55210000  0.54520000  0.07710000  1.0 -0.0773887117
C  C110  1  0.61920000  0.52060000  0.06480000  1.0 0.0007738542
C  C111  1  0.62380000  0.47890000  0.00350000  1.0 -0.2123024352
C  C112  1  0.58500000  0.49820000  0.94450000  1.0 -0.0427063229
C  C113  1  0.51980000  0.52670000  0.95440000  1.0 -0.0427063229
C  C114  1  0.50140000  0.54100000  0.02530000  1.0 -0.0122714965
C  C115  1  0.00000000  0.87720000  0.60030000  1.0 0.2610701471
C  C116  1  0.94270000  0.88380000  0.54700000  1.0 0.0490920623
C  C117  1  0.89160000  0.83240000  0.54850000  1.0 -0.1584085972
C  C118  1  0.39100000  0.25680000  0.77800000  1.0 0.606603803
C  C119  1  0.20460000  0.07770000  0.62010000  1.0 0.5506667289
C  C120  1  0.34450000  0.20960000  0.73680000  1.0 -0.1316385568
C  C121  1  0.34510000  0.20790000  0.66270000  1.0 0.2610701471
C  C122  1  0.29780000  0.16980000  0.62470000  1.0 -0.2607661681
C  C123  1  0.25240000  0.12430000  0.66250000  1.0 0.0196679131
C  C124  1  0.25580000  0.12340000  0.73500000  1.0 -0.1458972861
C  C125  1  0.29950000  0.16760000  0.77090000  1.0 -0.0773887117
C  C126  1  0.06970000  0.96760000  0.40070000  1.0 0.3356848377
C  C127  1  0.97670000  0.89260000  0.12120000  1.0 0.3605552334
C  C128  1  0.04520000  0.94790000  0.32710000  1.0 -0.0773887117
C  C129  1  0.02060000  0.88080000  0.31480000  1.0 -0.000345828
C  C130  1  0.97890000  0.87620000  0.25350000  1.0 -0.2123024352
C  C131  1  0.99820000  0.91500000  0.19450000  1.0 -0.0427063229
C  C132  1  0.02670000  0.98020000  0.20440000  1.0 -0.0427063229
C  C133  1  0.04100000  0.99860000  0.27530000  1.0 -0.0122714965
C  C134  1  0.00000000  0.12280000  0.10030000  1.0 0.2610701471
C  C135  1  0.05730000  0.11620000  0.04700000  1.0 0.0490920623
C  C136  1  0.10840000  0.16760000  0.04850000  1.0 -0.1584085972
C  C137  1  0.60900000  0.74320000  0.27800000  1.0 0.606603803
C  C138  1  0.79540000  0.92230000  0.12010000  1.0 0.5506667289
C  C139  1  0.65550000  0.79040000  0.23680000  1.0 -0.1316385568
C  C140  1  0.65490000  0.79210000  0.16270000  1.0 0.2610701471
C  C141  1  0.70220000  0.83020000  0.12470000  1.0 -0.2607661681
C  C142  1  0.74760000  0.87570000  0.16250000  1.0 0.0196679131
C  C143  1  0.74420000  0.87660000  0.23500000  1.0 -0.1458972861
C  C144  1  0.70050000  0.83240000  0.27090000  1.0 -0.0773887117
C  C145  1  0.93030000  0.03240000  0.90070000  1.0 0.3356848377
C  C146  1  0.02330000  0.10740000  0.62120000  1.0 0.3605552334
C  C147  1  0.95480000  0.05210000  0.82710000  1.0 -0.0773887117
C  C148  1  0.97940000  0.11920000  0.81480000  1.0 0.0007738542
C  C149  1  0.02110000  0.12380000  0.75350000  1.0 -0.2123024352
C  C150  1  0.00180000  0.08500000  0.69450000  1.0 -0.0427063229
C  C151  1  0.97330000  0.01980000  0.70440000  1.0 -0.0427063229
C  C152  1  0.95900000  0.00140000  0.77530000  1.0 -0.0122714965
C  C153  1  0.93760000  0.93760000  0.50000000  1.0 -0.2158434596
C  C154  1  0.83600000  0.83600000  0.50000000  1.0 0.0553732272
C  C155  1  0.78250000  0.78250000  0.50000000  1.0 0.2365179937
C  C156  1  0.06240000  0.06240000  0.00000000  1.0 -0.2158434596
C  C157  1  0.16400000  0.16400000  0.00000000  1.0 0.0490920623
C  C158  1  0.21750000  0.21750000  0.00000000  1.0 0.2365179937
C  C159  1  0.43760000  0.56240000  0.75000000  1.0 -0.2158434596
C  C160  1  0.33600000  0.66400000  0.75000000  1.0 0.0490920623
C  C161  1  0.28250000  0.71750000  0.75000000  1.0 0.2365179937
C  C162  1  0.56240000  0.43760000  0.25000000  1.0 -0.2158434596
C  C163  1  0.66400000  0.33600000  0.25000000  1.0 0.0490920623
C  C164  1  0.71750000  0.28250000  0.25000000  1.0 0.2365179937
N  N1  1  0.91270000  0.06030000  0.39990000  1.0 -0.2820703146
N  N2  1  0.89070000  0.09300000  0.34150000  1.0 -0.0733142515
N  N3  1  0.84480000  0.05490000  0.30860000  1.0 -0.0733142515
N  N4  1  0.83580000  0.99540000  0.34350000  1.0 -0.2607661681
N  N5  1  0.73090000  0.68880000  0.51880000  1.0 -0.0733142515
N  N6  1  0.79040000  0.72080000  0.53030000  1.0 -0.2495454234
N  N7  1  0.24410000  0.39190000  0.37540000  1.0 -0.5271496606
N  N8  1  0.81490000  0.03280000  0.64530000  1.0 -0.5610774142
N  N9  1  0.08730000  0.93970000  0.89990000  1.0 -0.2820703146
N  N10  1  0.10930000  0.90700000  0.84150000  1.0 -0.0733142515
N  N11  1  0.15520000  0.94510000  0.80860000  1.0 -0.0773887117
N  N12  1  0.16420000  0.00460000  0.84350000  1.0 -0.2495454234
N  N13  1  0.26910000  0.31120000  0.01880000  1.0 -0.0733142515
N  N14  1  0.20960000  0.27920000  0.03030000  1.0 -0.2495454234
N  N15  1  0.75590000  0.60810000  0.87540000  1.0 -0.5271496606
N  N16  1  0.18510000  0.96720000  0.14530000  1.0 -0.5610774142
N  N17  1  0.56030000  0.58730000  0.64990000  1.0 -0.2820703146
N  N18  1  0.59300000  0.60930000  0.59150000  1.0 -0.0733142515
N  N19  1  0.55490000  0.65520000  0.55860000  1.0 -0.0773887117
N  N20  1  0.49540000  0.66420000  0.59350000  1.0 -0.2607661681
N  N21  1  0.18880000  0.76910000  0.76880000  1.0 -0.0733142515
N  N22  1  0.22080000  0.70960000  0.78030000  1.0 -0.2495454234
N  N23  1  0.89190000  0.25590000  0.62540000  1.0 -0.5271496606
N  N24  1  0.53280000  0.68510000  0.89530000  1.0 -0.5610774142
N  N25  1  0.43970000  0.41270000  0.14990000  1.0 -0.2820703146
N  N26  1  0.40700000  0.39070000  0.09150000  1.0 -0.0733142515
N  N27  1  0.44510000  0.34480000  0.05860000  1.0 -0.0733142515
N  N28  1  0.50460000  0.33580000  0.09350000  1.0 -0.2495454234
N  N29  1  0.81120000  0.23090000  0.26880000  1.0 -0.0733142515
N  N30  1  0.77920000  0.29040000  0.28030000  1.0 -0.2495454234
N  N31  1  0.10810000  0.74410000  0.12540000  1.0 -0.5271496606
N  N32  1  0.46720000  0.31490000  0.39530000  1.0 -0.5610774142
N  N33  1  0.41270000  0.43970000  0.85010000  1.0 -0.2820703146
N  N34  1  0.39070000  0.40700000  0.90850000  1.0 -0.0733142515
N  N35  1  0.34480000  0.44510000  0.94140000  1.0 -0.0733142515
N  N36  1  0.33580000  0.50460000  0.90650000  1.0 -0.2607661681
N  N37  1  0.23090000  0.81120000  0.73120000  1.0 -0.0733142515
N  N38  1  0.29040000  0.77920000  0.71970000  1.0 -0.2495454234
N  N39  1  0.74410000  0.10810000  0.87460000  1.0 -0.5271496606
N  N40  1  0.31490000  0.46720000  0.60470000  1.0 -0.5610774142
N  N41  1  0.58730000  0.56030000  0.35010000  1.0 -0.2820703146
N  N42  1  0.60930000  0.59300000  0.40850000  1.0 -0.0733142515
N  N43  1  0.65520000  0.55490000  0.44140000  1.0 -0.0773887117
N  N44  1  0.66420000  0.49540000  0.40650000  1.0 -0.2607661681
N  N45  1  0.76910000  0.18880000  0.23120000  1.0 -0.0733142515
N  N46  1  0.70960000  0.22080000  0.21970000  1.0 -0.2495454234
N  N47  1  0.25590000  0.89190000  0.37460000  1.0 -0.5271496606
N  N48  1  0.68510000  0.53280000  0.10470000  1.0 -0.5610774142
N  N49  1  0.06030000  0.91270000  0.60010000  1.0 -0.2820703146
N  N50  1  0.09300000  0.89070000  0.65850000  1.0 -0.0733142515
N  N51  1  0.05490000  0.84480000  0.69140000  1.0 -0.0733142515
N  N52  1  0.99540000  0.83580000  0.65650000  1.0 -0.2607661681
N  N53  1  0.68880000  0.73090000  0.48120000  1.0 -0.0733142515
N  N54  1  0.72080000  0.79040000  0.46970000  1.0 -0.2495454234
N  N55  1  0.39190000  0.24410000  0.62460000  1.0 -0.5271496606
N  N56  1  0.03280000  0.81490000  0.35470000  1.0 -0.5610774142
N  N57  1  0.93970000  0.08730000  0.10010000  1.0 -0.2820703146
N  N58  1  0.90700000  0.10930000  0.15850000  1.0 -0.0733142515
N  N59  1  0.94510000  0.15520000  0.19140000  1.0 -0.0773887117
N  N60  1  0.00460000  0.16420000  0.15650000  1.0 -0.2495454234
N  N61  1  0.31120000  0.26910000  0.98120000  1.0 -0.0733142515
N  N62  1  0.27920000  0.20960000  0.96970000  1.0 -0.2495454234
N  N63  1  0.60810000  0.75590000  0.12460000  1.0 -0.5271496606
N  N64  1  0.96720000  0.18510000  0.85470000  1.0 -0.5610774142
O  O1  1  0.24460000  0.39780000  0.15860000  1.0 -0.4953953904
O  O2  1  0.30280000  0.42470000  0.25420000  1.0 -0.4900958445
O  O3  1  0.02900000  0.17470000  0.34850000  1.0 -0.5372654778
O  O4  1  0.08870000  0.19380000  0.44360000  1.0 -0.4343968314
O  O5  1  0.92070000  0.08970000  0.55890000  1.0 -0.3705823701
O  O6  1  0.92700000  0.97300000  0.92500000  1.0 -0.2607661681
O  O7  1  0.82970000  0.95780000  0.88670000  1.0 -0.3880905901
O  O8  1  0.02200000  0.07000000  0.56800000  1.0 -0.321296407
O  O9  1  0.75540000  0.60220000  0.65860000  1.0 -0.4953953904
O  O10  1  0.69720000  0.57530000  0.75420000  1.0 -0.4900958445
O  O11  1  0.97100000  0.82530000  0.84850000  1.0 -0.5372654778
O  O12  1  0.91130000  0.80620000  0.94360000  1.0 -0.4350984973
O  O13  1  0.07930000  0.91030000  0.05890000  1.0 -0.3705823701
O  O14  1  0.07300000  0.02700000  0.42500000  1.0 -0.2607661681
O  O15  1  0.17030000  0.04220000  0.38670000  1.0 -0.3880905901
O  O16  1  0.97800000  0.93000000  0.06800000  1.0 -0.321296407
O  O17  1  0.89780000  0.25540000  0.40860000  1.0 -0.4953953904
O  O18  1  0.92470000  0.19720000  0.50420000  1.0 -0.4900958445
O  O19  1  0.67470000  0.47100000  0.59850000  1.0 -0.5372654778
O  O20  1  0.69380000  0.41130000  0.69360000  1.0 -0.4343968314
O  O21  1  0.58970000  0.57930000  0.80890000  1.0 -0.3705823701
O  O22  1  0.47300000  0.57300000  0.17500000  1.0 -0.2607661681
O  O23  1  0.45780000  0.67030000  0.13670000  1.0 -0.3880905901
O  O24  1  0.57000000  0.47800000  0.81800000  1.0 -0.321296407
O  O25  1  0.10220000  0.74460000  0.90860000  1.0 -0.4953953904
O  O26  1  0.07530000  0.80280000  0.00420000  1.0 -0.4900958445
O  O27  1  0.32530000  0.52900000  0.09850000  1.0 -0.5372654778
O  O28  1  0.30620000  0.58870000  0.19360000  1.0 -0.4343968314
O  O29  1  0.41030000  0.42070000  0.30890000  1.0 -0.3705823701
O  O30  1  0.52700000  0.42700000  0.67500000  1.0 -0.2607661681
O  O31  1  0.54220000  0.32970000  0.63670000  1.0 -0.3880905901
O  O32  1  0.43000000  0.52200000  0.31800000  1.0 -0.321296407
O  O33  1  0.74460000  0.10220000  0.09140000  1.0 -0.4953953904
O  O34  1  0.80280000  0.07530000  0.99580000  1.0 -0.4900958445
O  O35  1  0.52900000  0.32530000  0.90150000  1.0 -0.5372654778
O  O36  1  0.58870000  0.30620000  0.80640000  1.0 -0.4343968314
O  O37  1  0.42070000  0.41030000  0.69110000  1.0 -0.3705823701
O  O38  1  0.42700000  0.52700000  0.32500000  1.0 -0.2607661681
O  O39  1  0.32970000  0.54220000  0.36330000  1.0 -0.3880905901
O  O40  1  0.52200000  0.43000000  0.68200000  1.0 -0.321296407
O  O41  1  0.25540000  0.89780000  0.59140000  1.0 -0.4953953904
O  O42  1  0.19720000  0.92470000  0.49580000  1.0 -0.4900958445
O  O43  1  0.47100000  0.67470000  0.40150000  1.0 -0.5372654778
O  O44  1  0.41130000  0.69380000  0.30640000  1.0 -0.4343968314
O  O45  1  0.57930000  0.58970000  0.19110000  1.0 -0.3705823701
O  O46  1  0.57300000  0.47300000  0.82500000  1.0 -0.2607661681
O  O47  1  0.67030000  0.45780000  0.86330000  1.0 -0.3880905901
O  O48  1  0.47800000  0.57000000  0.18200000  1.0 -0.321296407
O  O49  1  0.39780000  0.24460000  0.84140000  1.0 -0.4953953904
O  O50  1  0.42470000  0.30280000  0.74580000  1.0 -0.4900958445
O  O51  1  0.17470000  0.02900000  0.65150000  1.0 -0.5372654778
O  O52  1  0.19380000  0.08870000  0.55640000  1.0 -0.4343968314
O  O53  1  0.08970000  0.92070000  0.44110000  1.0 -0.3705823701
O  O54  1  0.97300000  0.92700000  0.07500000  1.0 -0.2607661681
O  O55  1  0.95780000  0.82970000  0.11330000  1.0 -0.3880905901
O  O56  1  0.07000000  0.02200000  0.43200000  1.0 -0.321296407
O  O57  1  0.60220000  0.75540000  0.34140000  1.0 -0.4953953904
O  O58  1  0.57530000  0.69720000  0.24580000  1.0 -0.4900958445
O  O59  1  0.82530000  0.97100000  0.15150000  1.0 -0.5372654778
O  O60  1  0.80620000  0.91130000  0.05640000  1.0 -0.4343968314
O  O61  1  0.91030000  0.07930000  0.94110000  1.0 -0.3705823701
O  O62  1  0.02700000  0.07300000  0.57500000  1.0 -0.2607661681
O  O63  1  0.04220000  0.17030000  0.61330000  1.0 -0.3880905901
O  O64  1  0.93000000  0.97800000  0.93200000  1.0 -0.321296407
