# DDEC6 charges by PACMAN v1.1 (https://github.com/mtap-research/PACMAN-charge/)
data_KAFGAD_ASR_pacman
_symmetry_space_group_name_H-M   'P 1'
_cell_length_a   19.24410000
_cell_length_b   19.24410000
_cell_length_c   18.74890000
_cell_angle_alpha   90.00000000
_cell_angle_beta   90.00000000
_cell_angle_gamma   90.00000000
_symmetry_Int_Tables_number   1
_chemical_formula_structural   Cd4H19C41(N3O5)4
_chemical_formula_sum   'Cd16 H76 C164 N48 O80'
_cell_volume   6943.38109626
_cell_formula_units_Z   4
loop_
 _symmetry_equiv_pos_site_id
 _symmetry_equiv_pos_as_xyz
  1  'x, y, z'
loop_
 _atom_site_type_symbol
 _atom_site_label
 _atom_site_symmetry_multiplicity
 _atom_site_fract_x
 _atom_site_fract_y
 _atom_site_fract_z
 _atom_site_occupancy
 _atom_site_charge
Cd  Cd1  1  0.99695000  0.12162000  0.46403000  1.0 0.9228306424
Cd  Cd2  1  0.92328000  0.20780000  0.30131000  1.0 0.830104978
Cd  Cd3  1  0.00305000  0.87838000  0.96403000  1.0 0.9228306424
Cd  Cd4  1  0.07672000  0.79220000  0.80131000  1.0 0.830104978
Cd  Cd5  1  0.62162000  0.50305000  0.71403000  1.0 0.9228306424
Cd  Cd6  1  0.70780000  0.57672000  0.55131000  1.0 0.830104978
Cd  Cd7  1  0.37838000  0.49695000  0.21403000  1.0 0.9228306424
Cd  Cd8  1  0.29220000  0.42328000  0.05131000  1.0 0.830104978
Cd  Cd9  1  0.49695000  0.37838000  0.78597000  1.0 0.9228306424
Cd  Cd10  1  0.42328000  0.29220000  0.94869000  1.0 0.830104978
Cd  Cd11  1  0.50305000  0.62162000  0.28597000  1.0 0.9228306424
Cd  Cd12  1  0.57672000  0.70780000  0.44869000  1.0 0.830104978
Cd  Cd13  1  0.12162000  0.99695000  0.53597000  1.0 0.9228306424
Cd  Cd14  1  0.20780000  0.92328000  0.69869000  1.0 0.830104978
Cd  Cd15  1  0.87838000  0.00305000  0.03597000  1.0 0.9228306424
Cd  Cd16  1  0.79220000  0.07672000  0.19869000  1.0 0.830104978
H  H1  1  0.26930000  0.41240000  0.34740000  1.0 0.3602710676
H  H2  1  0.83680000  0.05230000  0.60070000  1.0 0.3529646631
H  H3  1  0.79380000  0.89710000  0.42180000  1.0 0.1364189795
H  H4  1  0.16760000  0.29690000  0.42260000  1.0 0.1601795453
H  H5  1  0.08980000  0.22710000  0.24150000  1.0 0.1310775813
H  H6  1  0.16050000  0.29880000  0.17840000  1.0 0.1310775813
H  H7  1  0.82370000  0.96620000  0.75760000  1.0 0.1468326461
H  H8  1  0.95620000  0.95550000  0.78870000  1.0 0.1174407454
H  H9  1  0.97240000  0.99030000  0.66910000  1.0 0.1174407454
H  H10  1  0.73070000  0.58760000  0.84740000  1.0 0.3602710676
H  H11  1  0.16320000  0.94770000  0.10070000  1.0 0.3529646631
H  H12  1  0.20620000  0.10290000  0.92180000  1.0 0.1364189795
H  H13  1  0.83240000  0.70310000  0.92260000  1.0 0.1601795453
H  H14  1  0.91020000  0.77290000  0.74150000  1.0 0.1310775813
H  H15  1  0.83950000  0.70120000  0.67840000  1.0 0.1310775813
H  H16  1  0.17630000  0.03380000  0.25760000  1.0 0.1468326461
H  H17  1  0.04380000  0.04450000  0.28870000  1.0 0.1174407454
H  H18  1  0.02760000  0.00970000  0.16910000  1.0 0.1174407454
H  H19  1  0.91240000  0.23070000  0.59740000  1.0 0.3602710676
H  H20  1  0.55230000  0.66320000  0.85070000  1.0 0.3529646631
H  H21  1  0.39710000  0.70620000  0.67180000  1.0 0.1364189795
H  H22  1  0.79690000  0.33240000  0.67260000  1.0 0.1601795453
H  H23  1  0.72710000  0.41020000  0.49150000  1.0 0.1310775813
H  H24  1  0.79880000  0.33950000  0.42840000  1.0 0.1310775813
H  H25  1  0.46620000  0.67630000  0.00760000  1.0 0.1468326461
H  H26  1  0.45550000  0.54380000  0.03870000  1.0 0.1174407454
H  H27  1  0.49030000  0.52760000  0.91910000  1.0 0.1174407454
H  H28  1  0.08760000  0.76930000  0.09740000  1.0 0.3602710676
H  H29  1  0.44770000  0.33680000  0.35070000  1.0 0.3529646631
H  H30  1  0.60290000  0.29380000  0.17180000  1.0 0.1364189795
H  H31  1  0.20310000  0.66760000  0.17260000  1.0 0.1601795453
H  H32  1  0.27290000  0.58980000  0.99150000  1.0 0.1310775813
H  H33  1  0.20120000  0.66050000  0.92840000  1.0 0.1310775813
H  H34  1  0.53380000  0.32370000  0.50760000  1.0 0.1468326461
H  H35  1  0.54450000  0.45620000  0.53870000  1.0 0.1174407454
H  H36  1  0.50970000  0.47240000  0.41910000  1.0 0.1174407454
H  H37  1  0.76930000  0.08760000  0.90260000  1.0 0.3602710676
H  H38  1  0.33680000  0.44770000  0.64930000  1.0 0.3529646631
H  H39  1  0.29380000  0.60290000  0.82820000  1.0 0.1364189795
H  H40  1  0.66760000  0.20310000  0.82740000  1.0 0.1601795453
H  H41  1  0.58980000  0.27290000  0.00850000  1.0 0.1310775813
H  H42  1  0.66050000  0.20120000  0.07160000  1.0 0.1310775813
H  H43  1  0.32370000  0.53380000  0.49240000  1.0 0.1468326461
H  H44  1  0.45620000  0.54450000  0.46130000  1.0 0.1174407454
H  H45  1  0.47240000  0.50970000  0.58090000  1.0 0.1174407454
H  H46  1  0.23070000  0.91240000  0.40260000  1.0 0.3602710676
H  H47  1  0.66320000  0.55230000  0.14930000  1.0 0.3529646631
H  H48  1  0.70620000  0.39710000  0.32820000  1.0 0.1364189795
H  H49  1  0.33240000  0.79690000  0.32740000  1.0 0.1601795453
H  H50  1  0.41020000  0.72710000  0.50850000  1.0 0.1310775813
H  H51  1  0.33950000  0.79880000  0.57160000  1.0 0.1310775813
H  H52  1  0.67630000  0.46620000  0.99240000  1.0 0.1468326461
H  H53  1  0.54380000  0.45550000  0.96130000  1.0 0.1174407454
H  H54  1  0.52760000  0.49030000  0.08090000  1.0 0.1174407454
H  H55  1  0.41240000  0.26930000  0.65260000  1.0 0.3602710676
H  H56  1  0.05230000  0.83680000  0.39930000  1.0 0.3529646631
H  H57  1  0.89710000  0.79380000  0.57820000  1.0 0.1364189795
H  H58  1  0.29690000  0.16760000  0.57740000  1.0 0.1601795453
H  H59  1  0.22710000  0.08980000  0.75850000  1.0 0.1310775813
H  H60  1  0.29880000  0.16050000  0.82160000  1.0 0.1310775813
H  H61  1  0.96620000  0.82370000  0.24240000  1.0 0.1468326461
H  H62  1  0.95550000  0.95620000  0.21130000  1.0 0.1174407454
H  H63  1  0.99030000  0.97240000  0.33090000  1.0 0.1174407454
H  H64  1  0.58760000  0.73070000  0.15260000  1.0 0.3602710676
H  H65  1  0.94770000  0.16320000  0.89930000  1.0 0.3529646631
H  H66  1  0.10290000  0.20620000  0.07820000  1.0 0.1364189795
H  H67  1  0.70310000  0.83240000  0.07740000  1.0 0.1601795453
H  H68  1  0.77290000  0.91020000  0.25850000  1.0 0.1310775813
H  H69  1  0.70120000  0.83950000  0.32160000  1.0 0.1310775813
H  H70  1  0.03380000  0.17630000  0.74240000  1.0 0.1468326461
H  H71  1  0.04450000  0.04380000  0.71130000  1.0 0.1174407454
H  H72  1  0.00970000  0.02760000  0.83090000  1.0 0.1174407454
H  H73  1  0.97240000  0.97240000  0.50000000  1.0 0.1364189795
H  H74  1  0.02760000  0.02760000  0.00000000  1.0 0.1364189795
H  H75  1  0.47240000  0.52760000  0.75000000  1.0 0.1364189795
H  H76  1  0.52760000  0.47240000  0.25000000  1.0 0.1364189795
C  C1  1  0.87790000  0.99960000  0.40020000  1.0 0.252234773
C  C2  1  0.88340000  0.94360000  0.45310000  1.0 0.0458946202
C  C3  1  0.83150000  0.89350000  0.45270000  1.0 -0.1213070664
C  C4  1  0.25640000  0.38960000  0.22090000  1.0 0.6224866521
C  C5  1  0.07630000  0.20600000  0.38040000  1.0 0.5604869735
C  C6  1  0.20820000  0.34390000  0.26230000  1.0 -0.1588698242
C  C7  1  0.21080000  0.34170000  0.33620000  1.0 0.2948865306
C  C8  1  0.16750000  0.29690000  0.37300000  1.0 -0.1985025096
C  C9  1  0.12420000  0.25250000  0.33670000  1.0 0.0172990209
C  C10  1  0.12110000  0.25540000  0.26570000  1.0 -0.1377059508
C  C11  1  0.16260000  0.29900000  0.22800000  1.0 -0.060164446
C  C12  1  0.96600000  0.07090000  0.59940000  1.0 0.3660624038
C  C13  1  0.89130000  0.97550000  0.87900000  1.0 0.3924240518
C  C14  1  0.94640000  0.04590000  0.67280000  1.0 -0.060164446
C  C15  1  0.88110000  0.01670000  0.68350000  1.0 0.1117756983
C  C16  1  0.86580000  0.98880000  0.75000000  1.0 -0.221855751
C  C17  1  0.91330000  0.99470000  0.80470000  1.0 -0.0245384488
C  C18  1  0.99800000  0.03800000  0.72300000  1.0 -0.0291569097
C  C19  1  0.97900000  0.02100000  0.79300000  1.0 -0.0291569097
C  C20  1  0.12210000  0.00040000  0.90020000  1.0 0.252234773
C  C21  1  0.11660000  0.05640000  0.95310000  1.0 0.0458946202
C  C22  1  0.16850000  0.10650000  0.95270000  1.0 -0.1213070664
C  C23  1  0.74360000  0.61040000  0.72090000  1.0 0.6224866521
C  C24  1  0.92370000  0.79400000  0.88040000  1.0 0.5604869735
C  C25  1  0.79180000  0.65610000  0.76230000  1.0 -0.1588698242
C  C26  1  0.78920000  0.65830000  0.83620000  1.0 0.2948865306
C  C27  1  0.83250000  0.70310000  0.87300000  1.0 -0.1985025096
C  C28  1  0.87580000  0.74750000  0.83670000  1.0 0.0172990209
C  C29  1  0.87890000  0.74460000  0.76570000  1.0 -0.1377059508
C  C30  1  0.83740000  0.70100000  0.72800000  1.0 -0.060164446
C  C31  1  0.03400000  0.92910000  0.09940000  1.0 0.3660624038
C  C32  1  0.10870000  0.02450000  0.37900000  1.0 0.3924240518
C  C33  1  0.05360000  0.95410000  0.17280000  1.0 -0.060164446
C  C34  1  0.11890000  0.98330000  0.18350000  1.0 0.1117756983
C  C35  1  0.13420000  0.01120000  0.25000000  1.0 -0.221855751
C  C36  1  0.08670000  0.00530000  0.30470000  1.0 -0.0291569097
C  C37  1  0.00200000  0.96200000  0.22300000  1.0 -0.0245384488
C  C38  1  0.02100000  0.97900000  0.29300000  1.0 -0.0291569097
C  C39  1  0.49960000  0.62210000  0.65020000  1.0 0.252234773
C  C40  1  0.44360000  0.61660000  0.70310000  1.0 0.0458946202
C  C41  1  0.39350000  0.66850000  0.70270000  1.0 -0.1213070664
C  C42  1  0.88960000  0.24360000  0.47090000  1.0 0.6224866521
C  C43  1  0.70600000  0.42370000  0.63040000  1.0 0.5604869735
C  C44  1  0.84390000  0.29180000  0.51230000  1.0 -0.1588698242
C  C45  1  0.84170000  0.28920000  0.58620000  1.0 0.2952082765
C  C46  1  0.79690000  0.33250000  0.62300000  1.0 -0.1985025096
C  C47  1  0.75250000  0.37580000  0.58670000  1.0 0.0172990209
C  C48  1  0.75540000  0.37890000  0.51570000  1.0 -0.1377059508
C  C49  1  0.79900000  0.33740000  0.47800000  1.0 -0.060164446
C  C50  1  0.57090000  0.53400000  0.84940000  1.0 0.3660624038
C  C51  1  0.47550000  0.60870000  0.12900000  1.0 0.3924240518
C  C52  1  0.54590000  0.55360000  0.92280000  1.0 -0.060164446
C  C53  1  0.51670000  0.61890000  0.93350000  1.0 0.1117756983
C  C54  1  0.48880000  0.63420000  0.00000000  1.0 -0.221855751
C  C55  1  0.49470000  0.58670000  0.05470000  1.0 -0.0245384488
C  C56  1  0.53800000  0.50200000  0.97300000  1.0 -0.0291569097
C  C57  1  0.52100000  0.52100000  0.04300000  1.0 -0.0291569097
C  C58  1  0.50040000  0.37790000  0.15020000  1.0 0.252234773
C  C59  1  0.55640000  0.38340000  0.20310000  1.0 0.0458946202
C  C60  1  0.60650000  0.33150000  0.20270000  1.0 -0.1213070664
C  C61  1  0.11040000  0.75640000  0.97090000  1.0 0.6224866521
C  C62  1  0.29400000  0.57630000  0.13040000  1.0 0.5604869735
C  C63  1  0.15610000  0.70820000  0.01230000  1.0 -0.1588698242
C  C64  1  0.15830000  0.71080000  0.08620000  1.0 0.2952082765
C  C65  1  0.20310000  0.66750000  0.12300000  1.0 -0.1985025096
C  C66  1  0.24750000  0.62420000  0.08670000  1.0 0.0172990209
C  C67  1  0.24460000  0.62110000  0.01570000  1.0 -0.1377059508
C  C68  1  0.20100000  0.66260000  0.97800000  1.0 -0.060164446
C  C69  1  0.42910000  0.46600000  0.34940000  1.0 0.3660624038
C  C70  1  0.52450000  0.39130000  0.62900000  1.0 0.3924240518
C  C71  1  0.45410000  0.44640000  0.42280000  1.0 -0.060164446
C  C72  1  0.48330000  0.38110000  0.43350000  1.0 0.1117756983
C  C73  1  0.51120000  0.36580000  0.50000000  1.0 -0.221855751
C  C74  1  0.50530000  0.41330000  0.55470000  1.0 -0.0291569097
C  C75  1  0.46200000  0.49800000  0.47300000  1.0 -0.0245384488
C  C76  1  0.47900000  0.47900000  0.54300000  1.0 -0.0291569097
C  C77  1  0.37790000  0.50040000  0.84980000  1.0 0.252234773
C  C78  1  0.38340000  0.55640000  0.79690000  1.0 0.0458946202
C  C79  1  0.33150000  0.60650000  0.79730000  1.0 -0.1213070664
C  C80  1  0.75640000  0.11040000  0.02910000  1.0 0.6224866521
C  C81  1  0.57630000  0.29400000  0.86960000  1.0 0.5604869735
C  C82  1  0.70820000  0.15610000  0.98770000  1.0 -0.1588698242
C  C83  1  0.71080000  0.15830000  0.91380000  1.0 0.2948865306
C  C84  1  0.66750000  0.20310000  0.87700000  1.0 -0.1985025096
C  C85  1  0.62420000  0.24750000  0.91330000  1.0 0.0172990209
C  C86  1  0.62110000  0.24460000  0.98430000  1.0 -0.1377059508
C  C87  1  0.66260000  0.20100000  0.02200000  1.0 -0.060164446
C  C88  1  0.46600000  0.42910000  0.65060000  1.0 0.3660624038
C  C89  1  0.39130000  0.52450000  0.37100000  1.0 0.3924240518
C  C90  1  0.44640000  0.45410000  0.57720000  1.0 -0.060164446
C  C91  1  0.38110000  0.48330000  0.56650000  1.0 0.1117756983
C  C92  1  0.36580000  0.51120000  0.50000000  1.0 -0.221855751
C  C93  1  0.41330000  0.50530000  0.44530000  1.0 -0.0245384488
C  C94  1  0.49800000  0.46200000  0.52700000  1.0 -0.0245384488
C  C95  1  0.47900000  0.47900000  0.45700000  1.0 -0.0291569097
C  C96  1  0.62210000  0.49960000  0.34980000  1.0 0.252234773
C  C97  1  0.61660000  0.44360000  0.29690000  1.0 0.0458946202
C  C98  1  0.66850000  0.39350000  0.29730000  1.0 -0.1213070664
C  C99  1  0.24360000  0.88960000  0.52910000  1.0 0.6224866521
C  C100  1  0.42370000  0.70600000  0.36960000  1.0 0.5604869735
C  C101  1  0.29180000  0.84390000  0.48770000  1.0 -0.1588698242
C  C102  1  0.28920000  0.84170000  0.41380000  1.0 0.2948865306
C  C103  1  0.33250000  0.79690000  0.37700000  1.0 -0.1985025096
C  C104  1  0.37580000  0.75250000  0.41330000  1.0 0.0172990209
C  C105  1  0.37890000  0.75540000  0.48430000  1.0 -0.1377059508
C  C106  1  0.33740000  0.79900000  0.52200000  1.0 -0.060164446
C  C107  1  0.53400000  0.57090000  0.15060000  1.0 0.3660624038
C  C108  1  0.60870000  0.47550000  0.87100000  1.0 0.3924240518
C  C109  1  0.55360000  0.54590000  0.07720000  1.0 -0.060164446
C  C110  1  0.61890000  0.51670000  0.06650000  1.0 0.1117756983
C  C111  1  0.63420000  0.48880000  0.00000000  1.0 -0.221855751
C  C112  1  0.58670000  0.49470000  0.94530000  1.0 -0.0291569097
C  C113  1  0.50200000  0.53800000  0.02700000  1.0 -0.0245384488
C  C114  1  0.52100000  0.52100000  0.95700000  1.0 -0.0291569097
C  C115  1  0.99960000  0.87790000  0.59980000  1.0 0.252234773
C  C116  1  0.94360000  0.88340000  0.54690000  1.0 0.0458946202
C  C117  1  0.89350000  0.83150000  0.54730000  1.0 -0.1213070664
C  C118  1  0.38960000  0.25640000  0.77910000  1.0 0.6224866521
C  C119  1  0.20600000  0.07630000  0.61960000  1.0 0.5604869735
C  C120  1  0.34390000  0.20820000  0.73770000  1.0 -0.1588698242
C  C121  1  0.34170000  0.21080000  0.66380000  1.0 0.2948865306
C  C122  1  0.29690000  0.16750000  0.62700000  1.0 -0.1985025096
C  C123  1  0.25250000  0.12420000  0.66330000  1.0 0.0172990209
C  C124  1  0.25540000  0.12110000  0.73430000  1.0 -0.1377059508
C  C125  1  0.29900000  0.16260000  0.77200000  1.0 -0.060164446
C  C126  1  0.07090000  0.96600000  0.40060000  1.0 0.3660624038
C  C127  1  0.97550000  0.89130000  0.12100000  1.0 0.3924240518
C  C128  1  0.04590000  0.94640000  0.32720000  1.0 -0.060164446
C  C129  1  0.01670000  0.88110000  0.31650000  1.0 0.1117756983
C  C130  1  0.98880000  0.86580000  0.25000000  1.0 -0.221855751
C  C131  1  0.99470000  0.91330000  0.19530000  1.0 -0.0245384488
C  C132  1  0.03800000  0.99800000  0.27700000  1.0 -0.0245384488
C  C133  1  0.02100000  0.97900000  0.20700000  1.0 -0.0291569097
C  C134  1  0.00040000  0.12210000  0.09980000  1.0 0.252234773
C  C135  1  0.05640000  0.11660000  0.04690000  1.0 0.0458946202
C  C136  1  0.10650000  0.16850000  0.04730000  1.0 -0.1213070664
C  C137  1  0.61040000  0.74360000  0.27910000  1.0 0.6224866521
C  C138  1  0.79400000  0.92370000  0.11960000  1.0 0.5604869735
C  C139  1  0.65610000  0.79180000  0.23770000  1.0 -0.1588698242
C  C140  1  0.65830000  0.78920000  0.16380000  1.0 0.2952082765
C  C141  1  0.70310000  0.83250000  0.12700000  1.0 -0.1985025096
C  C142  1  0.74750000  0.87580000  0.16330000  1.0 0.0172990209
C  C143  1  0.74460000  0.87890000  0.23430000  1.0 -0.1377059508
C  C144  1  0.70100000  0.83740000  0.27200000  1.0 -0.060164446
C  C145  1  0.92910000  0.03400000  0.90060000  1.0 0.3660624038
C  C146  1  0.02450000  0.10870000  0.62100000  1.0 0.3924240518
C  C147  1  0.95410000  0.05360000  0.82720000  1.0 -0.060164446
C  C148  1  0.98330000  0.11890000  0.81650000  1.0 0.1117756983
C  C149  1  0.01120000  0.13420000  0.75000000  1.0 -0.221855751
C  C150  1  0.00530000  0.08670000  0.69530000  1.0 -0.0291569097
C  C151  1  0.96200000  0.00200000  0.77700000  1.0 -0.0245384488
C  C152  1  0.97900000  0.02100000  0.70700000  1.0 -0.0291569097
C  C153  1  0.93820000  0.93820000  0.50000000  1.0 -0.1727331716
C  C154  1  0.83710000  0.83710000  0.50000000  1.0 0.0803632003
C  C155  1  0.78250000  0.78250000  0.50000000  1.0 0.2591940921
C  C156  1  0.06180000  0.06180000  0.00000000  1.0 -0.1727331716
C  C157  1  0.16290000  0.16290000  0.00000000  1.0 0.0803632003
C  C158  1  0.21750000  0.21750000  0.00000000  1.0 0.2591940921
C  C159  1  0.43820000  0.56180000  0.75000000  1.0 -0.1727331716
C  C160  1  0.33710000  0.66290000  0.75000000  1.0 0.0803632003
C  C161  1  0.28250000  0.71750000  0.75000000  1.0 0.2591940921
C  C162  1  0.56180000  0.43820000  0.25000000  1.0 -0.1727331716
C  C163  1  0.66290000  0.33710000  0.25000000  1.0 0.0803632003
C  C164  1  0.71750000  0.28250000  0.25000000  1.0 0.2591940921
N  N1  1  0.91200000  0.06120000  0.40020000  1.0 -0.2595118012
N  N2  1  0.89040000  0.09380000  0.34230000  1.0 -0.0481717445
N  N3  1  0.84660000  0.05520000  0.30850000  1.0 -0.0670756733
N  N4  1  0.83670000  0.99450000  0.34320000  1.0 -0.2595118012
N  N5  1  0.72940000  0.68990000  0.51890000  1.0 -0.060164446
N  N6  1  0.79260000  0.71950000  0.52850000  1.0 -0.2713010598
N  N7  1  0.08800000  0.93880000  0.90020000  1.0 -0.2595118012
N  N8  1  0.10960000  0.90620000  0.84230000  1.0 -0.0481717445
N  N9  1  0.15340000  0.94480000  0.80850000  1.0 -0.0670756733
N  N10  1  0.16330000  0.00550000  0.84320000  1.0 -0.2595118012
N  N11  1  0.27060000  0.31010000  0.01890000  1.0 -0.060164446
N  N12  1  0.20740000  0.28050000  0.02850000  1.0 -0.2713010598
N  N13  1  0.56120000  0.58800000  0.65020000  1.0 -0.2595118012
N  N14  1  0.59380000  0.60960000  0.59230000  1.0 -0.0481717445
N  N15  1  0.55520000  0.65340000  0.55850000  1.0 -0.0670756733
N  N16  1  0.49450000  0.66330000  0.59320000  1.0 -0.2595118012
N  N17  1  0.18990000  0.77060000  0.76890000  1.0 -0.060164446
N  N18  1  0.21950000  0.70740000  0.77850000  1.0 -0.2713010598
N  N19  1  0.43880000  0.41200000  0.15020000  1.0 -0.2595118012
N  N20  1  0.40620000  0.39040000  0.09230000  1.0 -0.0481717445
N  N21  1  0.44480000  0.34660000  0.05850000  1.0 -0.0670756733
N  N22  1  0.50550000  0.33670000  0.09320000  1.0 -0.2595118012
N  N23  1  0.81010000  0.22940000  0.26890000  1.0 -0.060164446
N  N24  1  0.78050000  0.29260000  0.27850000  1.0 -0.2713010598
N  N25  1  0.41200000  0.43880000  0.84980000  1.0 -0.2595118012
N  N26  1  0.39040000  0.40620000  0.90770000  1.0 -0.0481717445
N  N27  1  0.34660000  0.44480000  0.94150000  1.0 -0.0670756733
N  N28  1  0.33670000  0.50550000  0.90680000  1.0 -0.2595118012
N  N29  1  0.22940000  0.81010000  0.73110000  1.0 -0.060164446
N  N30  1  0.29260000  0.78050000  0.72150000  1.0 -0.2713010598
N  N31  1  0.58800000  0.56120000  0.34980000  1.0 -0.2595118012
N  N32  1  0.60960000  0.59380000  0.40770000  1.0 -0.0481717445
N  N33  1  0.65340000  0.55520000  0.44150000  1.0 -0.0670756733
N  N34  1  0.66330000  0.49450000  0.40680000  1.0 -0.2595118012
N  N35  1  0.77060000  0.18990000  0.23110000  1.0 -0.060164446
N  N36  1  0.70740000  0.21950000  0.22150000  1.0 -0.2713010598
N  N37  1  0.06120000  0.91200000  0.59980000  1.0 -0.2595118012
N  N38  1  0.09380000  0.89040000  0.65770000  1.0 -0.0481717445
N  N39  1  0.05520000  0.84660000  0.69150000  1.0 -0.0670756733
N  N40  1  0.99450000  0.83670000  0.65680000  1.0 -0.2595118012
N  N41  1  0.68990000  0.72940000  0.48110000  1.0 -0.060164446
N  N42  1  0.71950000  0.79260000  0.47150000  1.0 -0.2713010598
N  N43  1  0.93880000  0.08800000  0.09980000  1.0 -0.2595118012
N  N44  1  0.90620000  0.10960000  0.15770000  1.0 -0.0481717445
N  N45  1  0.94480000  0.15340000  0.19150000  1.0 -0.0670756733
N  N46  1  0.00550000  0.16330000  0.15680000  1.0 -0.2595118012
N  N47  1  0.31010000  0.27060000  0.98110000  1.0 -0.060164446
N  N48  1  0.28050000  0.20740000  0.97150000  1.0 -0.2713010598
O  O1  1  0.24370000  0.39510000  0.15590000  1.0 -0.5200951088
O  O2  1  0.29610000  0.42940000  0.25570000  1.0 -0.5200951088
O  O3  1  0.02740000  0.17570000  0.35010000  1.0 -0.5200951088
O  O4  1  0.08830000  0.19490000  0.44400000  1.0 -0.4180382218
O  O5  1  0.24890000  0.38570000  0.37430000  1.0 -0.390588044
O  O6  1  0.91770000  0.08840000  0.55910000  1.0 -0.4343910206
O  O7  1  0.93200000  0.97400000  0.92900000  1.0 -0.381989247
O  O8  1  0.83010000  0.95200000  0.88570000  1.0 -0.3577006373
O  O9  1  0.82360000  0.02790000  0.63390000  1.0 -0.4134236339
O  O10  1  0.02500000  0.07600000  0.57300000  1.0 -0.2595118012
O  O11  1  0.75630000  0.60490000  0.65590000  1.0 -0.5200951088
O  O12  1  0.70390000  0.57060000  0.75570000  1.0 -0.5200951088
O  O13  1  0.97260000  0.82430000  0.85010000  1.0 -0.5200951088
O  O14  1  0.91170000  0.80510000  0.94400000  1.0 -0.4180382218
O  O15  1  0.75110000  0.61430000  0.87430000  1.0 -0.390588044
O  O16  1  0.08230000  0.91160000  0.05910000  1.0 -0.4343910206
O  O17  1  0.06800000  0.02600000  0.42900000  1.0 -0.381989247
O  O18  1  0.16990000  0.04800000  0.38570000  1.0 -0.3577006373
O  O19  1  0.17640000  0.97210000  0.13390000  1.0 -0.4134236339
O  O20  1  0.97500000  0.92400000  0.07300000  1.0 -0.2595118012
O  O21  1  0.89510000  0.25630000  0.40590000  1.0 -0.5200951088
O  O22  1  0.92940000  0.20390000  0.50570000  1.0 -0.5200951088
O  O23  1  0.67570000  0.47260000  0.60010000  1.0 -0.5200951088
O  O24  1  0.69490000  0.41170000  0.69400000  1.0 -0.4180382218
O  O25  1  0.88570000  0.25110000  0.62430000  1.0 -0.390588044
O  O26  1  0.58840000  0.58230000  0.80910000  1.0 -0.4343910206
O  O27  1  0.47400000  0.56800000  0.17900000  1.0 -0.381989247
O  O28  1  0.45200000  0.66990000  0.13570000  1.0 -0.3577006373
O  O29  1  0.52790000  0.67640000  0.88390000  1.0 -0.4134236339
O  O30  1  0.57600000  0.47500000  0.82300000  1.0 -0.2595118012
O  O31  1  0.10490000  0.74370000  0.90590000  1.0 -0.5200951088
O  O32  1  0.07060000  0.79610000  0.00570000  1.0 -0.5200951088
O  O33  1  0.32430000  0.52740000  0.10010000  1.0 -0.5200951088
O  O34  1  0.30510000  0.58830000  0.19400000  1.0 -0.4180382218
O  O35  1  0.11430000  0.74890000  0.12430000  1.0 -0.390588044
O  O36  1  0.41160000  0.41770000  0.30910000  1.0 -0.4343910206
O  O37  1  0.52600000  0.43200000  0.67900000  1.0 -0.381989247
O  O38  1  0.54800000  0.33010000  0.63570000  1.0 -0.3577006373
O  O39  1  0.47210000  0.32360000  0.38390000  1.0 -0.4134236339
O  O40  1  0.42400000  0.52500000  0.32300000  1.0 -0.2595118012
O  O41  1  0.74370000  0.10490000  0.09410000  1.0 -0.5200951088
O  O42  1  0.79610000  0.07060000  0.99430000  1.0 -0.5200951088
O  O43  1  0.52740000  0.32430000  0.89990000  1.0 -0.5200951088
O  O44  1  0.58830000  0.30510000  0.80600000  1.0 -0.4180382218
O  O45  1  0.74890000  0.11430000  0.87570000  1.0 -0.390588044
O  O46  1  0.41770000  0.41160000  0.69090000  1.0 -0.4343910206
O  O47  1  0.43200000  0.52600000  0.32100000  1.0 -0.381989247
O  O48  1  0.33010000  0.54800000  0.36430000  1.0 -0.3577006373
O  O49  1  0.32360000  0.47210000  0.61610000  1.0 -0.4134236339
O  O50  1  0.52500000  0.42400000  0.67700000  1.0 -0.2595118012
O  O51  1  0.25630000  0.89510000  0.59410000  1.0 -0.5200951088
O  O52  1  0.20390000  0.92940000  0.49430000  1.0 -0.5200951088
O  O53  1  0.47260000  0.67570000  0.39990000  1.0 -0.5200951088
O  O54  1  0.41170000  0.69490000  0.30600000  1.0 -0.4180382218
O  O55  1  0.25110000  0.88570000  0.37570000  1.0 -0.390588044
O  O56  1  0.58230000  0.58840000  0.19090000  1.0 -0.4343910206
O  O57  1  0.56800000  0.47400000  0.82100000  1.0 -0.381989247
O  O58  1  0.66990000  0.45200000  0.86430000  1.0 -0.3577006373
O  O59  1  0.67640000  0.52790000  0.11610000  1.0 -0.4134236339
O  O60  1  0.47500000  0.57600000  0.17700000  1.0 -0.2595118012
O  O61  1  0.39510000  0.24370000  0.84410000  1.0 -0.5200951088
O  O62  1  0.42940000  0.29610000  0.74430000  1.0 -0.5200951088
O  O63  1  0.17570000  0.02740000  0.64990000  1.0 -0.5200951088
O  O64  1  0.19490000  0.08830000  0.55600000  1.0 -0.4180382218
O  O65  1  0.38570000  0.24890000  0.62570000  1.0 -0.390588044
O  O66  1  0.08840000  0.91770000  0.44090000  1.0 -0.4343910206
O  O67  1  0.97400000  0.93200000  0.07100000  1.0 -0.381989247
O  O68  1  0.95200000  0.83010000  0.11430000  1.0 -0.3577006373
O  O69  1  0.02790000  0.82360000  0.36610000  1.0 -0.4134236339
O  O70  1  0.07600000  0.02500000  0.42700000  1.0 -0.2595118012
O  O71  1  0.60490000  0.75630000  0.34410000  1.0 -0.5200951088
O  O72  1  0.57060000  0.70390000  0.24430000  1.0 -0.5200951088
O  O73  1  0.82430000  0.97260000  0.14990000  1.0 -0.5200951088
O  O74  1  0.80510000  0.91170000  0.05600000  1.0 -0.4180382218
O  O75  1  0.61430000  0.75110000  0.12570000  1.0 -0.390588044
O  O76  1  0.91160000  0.08230000  0.94090000  1.0 -0.4343910206
O  O77  1  0.02600000  0.06800000  0.57100000  1.0 -0.381989247
O  O78  1  0.04800000  0.16990000  0.61430000  1.0 -0.3577006373
O  O79  1  0.97210000  0.17640000  0.86610000  1.0 -0.4134236339
O  O80  1  0.92400000  0.97500000  0.92700000  1.0 -0.2595118012
