# DDEC6 charges by PACMAN v1.1 (https://github.com/mtap-research/PACMAN-charge/)
data_KAFGOR_ASR_pacman
_symmetry_space_group_name_H-M   'P 1'
_cell_length_a   19.30530000
_cell_length_b   19.30530000
_cell_length_c   18.66330000
_cell_angle_alpha   90.00000000
_cell_angle_beta   90.00000000
_cell_angle_gamma   90.00000000
_symmetry_Int_Tables_number   1
_chemical_formula_structural   Cd4H19C41Br4(N3O4)4
_chemical_formula_sum   'Cd16 H76 C164 Br16 N48 O64'
_cell_volume   6955.71127917
_cell_formula_units_Z   4
loop_
 _symmetry_equiv_pos_site_id
 _symmetry_equiv_pos_as_xyz
  1  'x, y, z'
loop_
 _atom_site_type_symbol
 _atom_site_label
 _atom_site_symmetry_multiplicity
 _atom_site_fract_x
 _atom_site_fract_y
 _atom_site_fract_z
 _atom_site_occupancy
 _atom_site_charge
Cd  Cd1  1  0.99743000  0.12141000  0.46260000  1.0 0.9181463536
Cd  Cd2  1  0.92245000  0.20859000  0.30141000  1.0 0.8326641288
Cd  Cd3  1  0.00257000  0.87859000  0.96260000  1.0 0.9181463536
Cd  Cd4  1  0.07755000  0.79141000  0.80141000  1.0 0.8326641288
Cd  Cd5  1  0.62141000  0.50257000  0.71260000  1.0 0.9181463536
Cd  Cd6  1  0.70859000  0.57755000  0.55141000  1.0 0.8326641288
Cd  Cd7  1  0.37859000  0.49743000  0.21260000  1.0 0.9181463536
Cd  Cd8  1  0.29141000  0.42245000  0.05141000  1.0 0.8326641288
Cd  Cd9  1  0.49743000  0.37859000  0.78740000  1.0 0.9181463536
Cd  Cd10  1  0.42245000  0.29141000  0.94859000  1.0 0.8326641288
Cd  Cd11  1  0.50257000  0.62141000  0.28740000  1.0 0.9181463536
Cd  Cd12  1  0.57755000  0.70859000  0.44859000  1.0 0.8326641288
Cd  Cd13  1  0.12141000  0.99743000  0.53740000  1.0 0.9181463536
Cd  Cd14  1  0.20859000  0.92245000  0.69859000  1.0 0.8326641288
Cd  Cd15  1  0.87859000  0.00257000  0.03740000  1.0 0.9181463536
Cd  Cd16  1  0.79141000  0.07755000  0.19859000  1.0 0.8326641288
H  H1  1  0.79470000  0.89740000  0.42160000  1.0 0.1341271343
H  H2  1  0.16510000  0.30450000  0.42130000  1.0 0.1376289972
H  H3  1  0.09160000  0.22870000  0.24030000  1.0 0.1199441395
H  H4  1  0.16990000  0.29480000  0.17800000  1.0 0.1341271343
H  H5  1  0.22170000  0.38890000  0.35970000  1.0 0.1598368124
H  H6  1  0.01550000  0.11690000  0.86010000  1.0 0.108903889
H  H7  1  0.94550000  0.00410000  0.65630000  1.0 0.1199441395
H  H8  1  0.89790000  0.96990000  0.76670000  1.0 0.1199441395
H  H9  1  0.04000000  0.16540000  0.74900000  1.0 0.1341271343
H  H10  1  0.20530000  0.10260000  0.92160000  1.0 0.1341271343
H  H11  1  0.83490000  0.69550000  0.92130000  1.0 0.1376289972
H  H12  1  0.90840000  0.77130000  0.74030000  1.0 0.1199441395
H  H13  1  0.83010000  0.70520000  0.67800000  1.0 0.1341271343
H  H14  1  0.77830000  0.61110000  0.85970000  1.0 0.1598368124
H  H15  1  0.98450000  0.88310000  0.36010000  1.0 0.108903889
H  H16  1  0.05450000  0.99590000  0.15630000  1.0 0.1199441395
H  H17  1  0.10210000  0.03010000  0.26670000  1.0 0.1199441395
H  H18  1  0.96000000  0.83460000  0.24900000  1.0 0.1341271343
H  H19  1  0.39740000  0.70530000  0.67160000  1.0 0.1341271343
H  H20  1  0.80450000  0.33490000  0.67130000  1.0 0.1376289972
H  H21  1  0.72870000  0.40840000  0.49030000  1.0 0.1199441395
H  H22  1  0.79480000  0.33010000  0.42800000  1.0 0.1341271343
H  H23  1  0.88890000  0.27830000  0.60970000  1.0 0.1598368124
H  H24  1  0.61690000  0.48450000  0.11010000  1.0 0.108903889
H  H25  1  0.50410000  0.55450000  0.90630000  1.0 0.1199441395
H  H26  1  0.46990000  0.60210000  0.01670000  1.0 0.1199441395
H  H27  1  0.66540000  0.46000000  0.99900000  1.0 0.1341271343
H  H28  1  0.60260000  0.29470000  0.17160000  1.0 0.1341271343
H  H29  1  0.19550000  0.66510000  0.17130000  1.0 0.1376289972
H  H30  1  0.27130000  0.59160000  0.99030000  1.0 0.1199441395
H  H31  1  0.20520000  0.66990000  0.92800000  1.0 0.1341271343
H  H32  1  0.11110000  0.72170000  0.10970000  1.0 0.1598368124
H  H33  1  0.38310000  0.51550000  0.61010000  1.0 0.108903889
H  H34  1  0.49590000  0.44550000  0.40630000  1.0 0.1199441395
H  H35  1  0.53010000  0.39790000  0.51670000  1.0 0.1199441395
H  H36  1  0.33460000  0.54000000  0.49900000  1.0 0.1341271343
H  H37  1  0.29470000  0.60260000  0.82840000  1.0 0.1341271343
H  H38  1  0.66510000  0.19550000  0.82870000  1.0 0.1376289972
H  H39  1  0.59160000  0.27130000  0.00970000  1.0 0.1199441395
H  H40  1  0.66990000  0.20520000  0.07200000  1.0 0.1341271343
H  H41  1  0.72170000  0.11110000  0.89030000  1.0 0.1598368124
H  H42  1  0.51550000  0.38310000  0.38990000  1.0 0.108903889
H  H43  1  0.44550000  0.49590000  0.59370000  1.0 0.1199441395
H  H44  1  0.39790000  0.53010000  0.48330000  1.0 0.1199441395
H  H45  1  0.54000000  0.33460000  0.50100000  1.0 0.1341271343
H  H46  1  0.70530000  0.39740000  0.32840000  1.0 0.1341271343
H  H47  1  0.33490000  0.80450000  0.32870000  1.0 0.1376289972
H  H48  1  0.40840000  0.72870000  0.50970000  1.0 0.1199441395
H  H49  1  0.33010000  0.79480000  0.57200000  1.0 0.1341271343
H  H50  1  0.27830000  0.88890000  0.39030000  1.0 0.1598368124
H  H51  1  0.48450000  0.61690000  0.88990000  1.0 0.108903889
H  H52  1  0.55450000  0.50410000  0.09370000  1.0 0.1199441395
H  H53  1  0.60210000  0.46990000  0.98330000  1.0 0.1199441395
H  H54  1  0.46000000  0.66540000  0.00100000  1.0 0.1341271343
H  H55  1  0.89740000  0.79470000  0.57840000  1.0 0.1341271343
H  H56  1  0.30450000  0.16510000  0.57870000  1.0 0.1376289972
H  H57  1  0.22870000  0.09160000  0.75970000  1.0 0.1199441395
H  H58  1  0.29480000  0.16990000  0.82200000  1.0 0.1341271343
H  H59  1  0.38890000  0.22170000  0.64030000  1.0 0.1598368124
H  H60  1  0.11690000  0.01550000  0.13990000  1.0 0.108903889
H  H61  1  0.00410000  0.94550000  0.34370000  1.0 0.1199441395
H  H62  1  0.96990000  0.89790000  0.23330000  1.0 0.1199441395
H  H63  1  0.16540000  0.04000000  0.25100000  1.0 0.1341271343
H  H64  1  0.10260000  0.20530000  0.07840000  1.0 0.1341271343
H  H65  1  0.69550000  0.83490000  0.07870000  1.0 0.1376289972
H  H66  1  0.77130000  0.90840000  0.25970000  1.0 0.1199441395
H  H67  1  0.70520000  0.83010000  0.32200000  1.0 0.1341271343
H  H68  1  0.61110000  0.77830000  0.14030000  1.0 0.1598368124
H  H69  1  0.88310000  0.98450000  0.63990000  1.0 0.108903889
H  H70  1  0.99590000  0.05450000  0.84370000  1.0 0.1199441395
H  H71  1  0.03010000  0.10210000  0.73330000  1.0 0.1199441395
H  H72  1  0.83460000  0.96000000  0.75100000  1.0 0.1341271343
H  H73  1  0.97200000  0.97200000  0.50000000  1.0 0.1512202066
H  H74  1  0.02800000  0.02800000  0.00000000  1.0 0.1512202066
H  H75  1  0.47200000  0.52800000  0.75000000  1.0 0.1512202066
H  H76  1  0.52800000  0.47200000  0.25000000  1.0 0.1512202066
C  C1  1  0.87840000  0.99900000  0.39970000  1.0 0.2521700882
C  C2  1  0.88470000  0.94320000  0.45310000  1.0 0.04916745
C  C3  1  0.83220000  0.89330000  0.45270000  1.0 -0.140256952
C  C4  1  0.25530000  0.39380000  0.21940000  1.0 0.5889771548
C  C5  1  0.07530000  0.20700000  0.37950000  1.0 0.5531894383
C  C6  1  0.20560000  0.34790000  0.26100000  1.0 -0.0282314057
C  C7  1  0.20010000  0.35290000  0.33530000  1.0 -0.0395121538
C  C8  1  0.16310000  0.30470000  0.37150000  1.0 -0.1079324293
C  C9  1  0.12310000  0.25670000  0.33800000  1.0 0.0052038974
C  C10  1  0.12230000  0.25720000  0.26490000  1.0 -0.1079324293
C  C11  1  0.16660000  0.29950000  0.22750000  1.0 -0.0799845323
C  C12  1  0.92780000  0.02060000  0.89700000  1.0 0.2915444099
C  C13  1  0.02870000  0.10850000  0.62230000  1.0 0.2915444099
C  C14  1  0.95300000  0.04200000  0.82420000  1.0 -0.0395121538
C  C15  1  0.00360000  0.08190000  0.69330000  1.0 -0.019760958
C  C16  1  0.01800000  0.12270000  0.75320000  1.0 -0.0486164615
C  C17  1  0.99800000  0.09690000  0.81860000  1.0 -0.0799845323
C  C18  1  0.92990000  0.00590000  0.76360000  1.0 -0.0017262236
C  C19  1  0.95800000  0.02740000  0.69800000  1.0 -0.0486164615
C  C20  1  0.12160000  0.00100000  0.89970000  1.0 0.2521700882
C  C21  1  0.11530000  0.05680000  0.95310000  1.0 0.04916745
C  C22  1  0.16780000  0.10670000  0.95270000  1.0 -0.140256952
C  C23  1  0.74470000  0.60620000  0.71940000  1.0 0.5889771548
C  C24  1  0.92470000  0.79300000  0.87950000  1.0 0.5531894383
C  C25  1  0.79440000  0.65210000  0.76100000  1.0 -0.0282314057
C  C26  1  0.79990000  0.64710000  0.83530000  1.0 -0.0395121538
C  C27  1  0.83690000  0.69530000  0.87150000  1.0 -0.1079324293
C  C28  1  0.87690000  0.74330000  0.83800000  1.0 0.0052038974
C  C29  1  0.87770000  0.74280000  0.76490000  1.0 -0.1079324293
C  C30  1  0.83340000  0.70050000  0.72750000  1.0 -0.0799845323
C  C31  1  0.07220000  0.97940000  0.39700000  1.0 0.2915444099
C  C32  1  0.97130000  0.89150000  0.12230000  1.0 0.2915444099
C  C33  1  0.04700000  0.95800000  0.32420000  1.0 -0.0395121538
C  C34  1  0.99640000  0.91810000  0.19330000  1.0 -0.019760958
C  C35  1  0.98200000  0.87730000  0.25320000  1.0 -0.0486164615
C  C36  1  0.00200000  0.90310000  0.31860000  1.0 -0.0799845323
C  C37  1  0.07010000  0.99410000  0.26360000  1.0 -0.0017262236
C  C38  1  0.04200000  0.97260000  0.19800000  1.0 -0.0486164615
C  C39  1  0.49900000  0.62160000  0.64970000  1.0 0.2521700882
C  C40  1  0.44320000  0.61530000  0.70310000  1.0 0.04916745
C  C41  1  0.39330000  0.66780000  0.70270000  1.0 -0.140256952
C  C42  1  0.89380000  0.24470000  0.46940000  1.0 0.5889771548
C  C43  1  0.70700000  0.42470000  0.62950000  1.0 0.5531894383
C  C44  1  0.84790000  0.29440000  0.51100000  1.0 -0.0282314057
C  C45  1  0.85290000  0.29990000  0.58530000  1.0 -0.0395121538
C  C46  1  0.80470000  0.33690000  0.62150000  1.0 -0.1079324293
C  C47  1  0.75670000  0.37690000  0.58800000  1.0 0.0052038974
C  C48  1  0.75720000  0.37770000  0.51490000  1.0 -0.1079324293
C  C49  1  0.79950000  0.33340000  0.47750000  1.0 -0.0799845323
C  C50  1  0.52060000  0.57220000  0.14700000  1.0 0.2915444099
C  C51  1  0.60850000  0.47130000  0.87230000  1.0 0.2915444099
C  C52  1  0.54200000  0.54700000  0.07420000  1.0 -0.0395121538
C  C53  1  0.58190000  0.49640000  0.94330000  1.0 -0.019760958
C  C54  1  0.62270000  0.48200000  0.00320000  1.0 -0.0486164615
C  C55  1  0.59690000  0.50200000  0.06860000  1.0 -0.0799845323
C  C56  1  0.50590000  0.57010000  0.01360000  1.0 -0.0017262236
C  C57  1  0.52740000  0.54200000  0.94800000  1.0 -0.0486164615
C  C58  1  0.50100000  0.37840000  0.14970000  1.0 0.2521700882
C  C59  1  0.55680000  0.38470000  0.20310000  1.0 0.04916745
C  C60  1  0.60670000  0.33220000  0.20270000  1.0 -0.140256952
C  C61  1  0.10620000  0.75530000  0.96940000  1.0 0.5889771548
C  C62  1  0.29300000  0.57530000  0.12950000  1.0 0.5531894383
C  C63  1  0.15210000  0.70560000  0.01100000  1.0 -0.0282314057
C  C64  1  0.14710000  0.70010000  0.08530000  1.0 -0.0395121538
C  C65  1  0.19530000  0.66310000  0.12150000  1.0 -0.1079324293
C  C66  1  0.24330000  0.62310000  0.08800000  1.0 0.0052038974
C  C67  1  0.24280000  0.62230000  0.01490000  1.0 -0.1079324293
C  C68  1  0.20050000  0.66666667  0.97750000  1.0 -0.0799845323
C  C69  1  0.47940000  0.42780000  0.64700000  1.0 0.2915444099
C  C70  1  0.39150000  0.52870000  0.37230000  1.0 0.2915444099
C  C71  1  0.45800000  0.45300000  0.57420000  1.0 -0.0395121538
C  C72  1  0.41810000  0.50360000  0.44330000  1.0 -0.019760958
C  C73  1  0.37730000  0.51800000  0.50320000  1.0 -0.0486164615
C  C74  1  0.40310000  0.49800000  0.56860000  1.0 -0.0799845323
C  C75  1  0.49410000  0.42990000  0.51360000  1.0 -0.0017262236
C  C76  1  0.47260000  0.45800000  0.44800000  1.0 -0.0486164615
C  C77  1  0.37840000  0.50100000  0.85030000  1.0 0.2521700882
C  C78  1  0.38470000  0.55680000  0.79690000  1.0 0.04916745
C  C79  1  0.33220000  0.60670000  0.79730000  1.0 -0.140256952
C  C80  1  0.75530000  0.10620000  0.03060000  1.0 0.5889771548
C  C81  1  0.57530000  0.29300000  0.87050000  1.0 0.5531894383
C  C82  1  0.70560000  0.15210000  0.98900000  1.0 -0.0282314057
C  C83  1  0.70010000  0.14710000  0.91470000  1.0 -0.0395121538
C  C84  1  0.66310000  0.19530000  0.87850000  1.0 -0.1079324293
C  C85  1  0.62310000  0.24330000  0.91200000  1.0 0.0052038974
C  C86  1  0.62230000  0.24280000  0.98510000  1.0 -0.1079324293
C  C87  1  0.66666667  0.20050000  0.02250000  1.0 -0.0799845323
C  C88  1  0.42780000  0.47940000  0.35300000  1.0 0.2915444099
C  C89  1  0.52870000  0.39150000  0.62770000  1.0 0.2915444099
C  C90  1  0.45300000  0.45800000  0.42580000  1.0 -0.0395121538
C  C91  1  0.50360000  0.41810000  0.55670000  1.0 -0.019760958
C  C92  1  0.51800000  0.37730000  0.49680000  1.0 -0.0486164615
C  C93  1  0.49800000  0.40310000  0.43140000  1.0 -0.0799845323
C  C94  1  0.42990000  0.49410000  0.48640000  1.0 -0.0017262236
C  C95  1  0.45800000  0.47260000  0.55200000  1.0 -0.0486164615
C  C96  1  0.62160000  0.49900000  0.35030000  1.0 0.2521700882
C  C97  1  0.61530000  0.44320000  0.29690000  1.0 0.04916745
C  C98  1  0.66780000  0.39330000  0.29730000  1.0 -0.140256952
C  C99  1  0.24470000  0.89380000  0.53060000  1.0 0.5889771548
C  C100  1  0.42470000  0.70700000  0.37050000  1.0 0.5531894383
C  C101  1  0.29440000  0.84790000  0.48900000  1.0 -0.0282314057
C  C102  1  0.29990000  0.85290000  0.41470000  1.0 -0.0395121538
C  C103  1  0.33690000  0.80470000  0.37850000  1.0 -0.1079324293
C  C104  1  0.37690000  0.75670000  0.41200000  1.0 0.0052038974
C  C105  1  0.37770000  0.75720000  0.48510000  1.0 -0.1079324293
C  C106  1  0.33340000  0.79950000  0.52250000  1.0 -0.0799845323
C  C107  1  0.57220000  0.52060000  0.85300000  1.0 0.2915444099
C  C108  1  0.47130000  0.60850000  0.12770000  1.0 0.2915444099
C  C109  1  0.54700000  0.54200000  0.92580000  1.0 -0.0395121538
C  C110  1  0.49640000  0.58190000  0.05670000  1.0 -0.019760958
C  C111  1  0.48200000  0.62270000  0.99680000  1.0 -0.0486164615
C  C112  1  0.50200000  0.59690000  0.93140000  1.0 -0.0799845323
C  C113  1  0.57010000  0.50590000  0.98640000  1.0 -0.0017262236
C  C114  1  0.54200000  0.52740000  0.05200000  1.0 -0.0486164615
C  C115  1  0.99900000  0.87840000  0.60030000  1.0 0.2521700882
C  C116  1  0.94320000  0.88470000  0.54690000  1.0 0.04916745
C  C117  1  0.89330000  0.83220000  0.54730000  1.0 -0.140256952
C  C118  1  0.39380000  0.25530000  0.78060000  1.0 0.5889771548
C  C119  1  0.20700000  0.07530000  0.62050000  1.0 0.5531894383
C  C120  1  0.34790000  0.20560000  0.73900000  1.0 -0.0282314057
C  C121  1  0.35290000  0.20010000  0.66470000  1.0 -0.0395121538
C  C122  1  0.30470000  0.16310000  0.62850000  1.0 -0.1079324293
C  C123  1  0.25670000  0.12310000  0.66200000  1.0 0.0052038974
C  C124  1  0.25720000  0.12230000  0.73510000  1.0 -0.1079324293
C  C125  1  0.29950000  0.16660000  0.77250000  1.0 -0.0799845323
C  C126  1  0.02060000  0.92780000  0.10300000  1.0 0.2915444099
C  C127  1  0.10850000  0.02870000  0.37770000  1.0 0.2915444099
C  C128  1  0.04200000  0.95300000  0.17580000  1.0 -0.0395121538
C  C129  1  0.08190000  0.00360000  0.30670000  1.0 -0.019760958
C  C130  1  0.12270000  0.01800000  0.24680000  1.0 -0.0486164615
C  C131  1  0.09690000  0.99800000  0.18140000  1.0 -0.0799845323
C  C132  1  0.00590000  0.92990000  0.23640000  1.0 -0.0017262236
C  C133  1  0.02740000  0.95800000  0.30200000  1.0 -0.0486164615
C  C134  1  0.00100000  0.12160000  0.10030000  1.0 0.2521700882
C  C135  1  0.05680000  0.11530000  0.04690000  1.0 0.04916745
C  C136  1  0.10670000  0.16780000  0.04730000  1.0 -0.140256952
C  C137  1  0.60620000  0.74470000  0.28060000  1.0 0.5889771548
C  C138  1  0.79300000  0.92470000  0.12050000  1.0 0.5531894383
C  C139  1  0.65210000  0.79440000  0.23900000  1.0 -0.0282314057
C  C140  1  0.64710000  0.79990000  0.16470000  1.0 -0.0395121538
C  C141  1  0.69530000  0.83690000  0.12850000  1.0 -0.1079324293
C  C142  1  0.74330000  0.87690000  0.16200000  1.0 0.0052038974
C  C143  1  0.74280000  0.87770000  0.23510000  1.0 -0.1079324293
C  C144  1  0.70050000  0.83340000  0.27250000  1.0 -0.0799845323
C  C145  1  0.97940000  0.07220000  0.60300000  1.0 0.2915444099
C  C146  1  0.89150000  0.97130000  0.87770000  1.0 0.2915444099
C  C147  1  0.95800000  0.04700000  0.67580000  1.0 -0.0395121538
C  C148  1  0.91810000  0.99640000  0.80670000  1.0 -0.019760958
C  C149  1  0.87730000  0.98200000  0.74680000  1.0 -0.0486164615
C  C150  1  0.90310000  0.00200000  0.68140000  1.0 -0.0799845323
C  C151  1  0.99410000  0.07010000  0.73640000  1.0 -0.0017262236
C  C152  1  0.97260000  0.04200000  0.80200000  1.0 -0.0486164615
C  C153  1  0.93790000  0.93790000  0.50000000  1.0 -0.2032275382
C  C154  1  0.83700000  0.83700000  0.50000000  1.0 0.0791995027
C  C155  1  0.78170000  0.78170000  0.50000000  1.0 0.2617404652
C  C156  1  0.06210000  0.06210000  0.00000000  1.0 -0.2032275382
C  C157  1  0.16300000  0.16300000  0.00000000  1.0 0.0791995027
C  C158  1  0.21830000  0.21830000  0.00000000  1.0 0.2617404652
C  C159  1  0.43790000  0.56210000  0.75000000  1.0 -0.2032275382
C  C160  1  0.33700000  0.66300000  0.75000000  1.0 0.0791995027
C  C161  1  0.28170000  0.71830000  0.75000000  1.0 0.2617404652
C  C162  1  0.56210000  0.43790000  0.25000000  1.0 -0.2032275382
C  C163  1  0.66300000  0.33700000  0.25000000  1.0 0.0791995027
C  C164  1  0.71830000  0.28170000  0.25000000  1.0 0.2617404652
Br  Br1  1  0.23940000  0.42550000  0.38990000  1.0 -0.1263340894
Br  Br2  1  0.05970000  0.14350000  0.74950000  1.0 -0.0282314057
Br  Br3  1  0.76060000  0.57450000  0.88990000  1.0 -0.1263340894
Br  Br4  1  0.94030000  0.85650000  0.24950000  1.0 -0.0282314057
Br  Br5  1  0.92550000  0.26060000  0.63990000  1.0 -0.1263340894
Br  Br6  1  0.64350000  0.44030000  0.99950000  1.0 -0.0282314057
Br  Br7  1  0.07450000  0.73940000  0.13990000  1.0 -0.1263340894
Br  Br8  1  0.35650000  0.55970000  0.49950000  1.0 -0.0282314057
Br  Br9  1  0.73940000  0.07450000  0.86010000  1.0 -0.1263340894
Br  Br10  1  0.55970000  0.35650000  0.50050000  1.0 -0.0282314057
Br  Br11  1  0.26060000  0.92550000  0.36010000  1.0 -0.1263340894
Br  Br12  1  0.44030000  0.64350000  0.00050000  1.0 -0.0282314057
Br  Br13  1  0.42550000  0.23940000  0.61010000  1.0 -0.1263340894
Br  Br14  1  0.14350000  0.05970000  0.25050000  1.0 -0.0282314057
Br  Br15  1  0.57450000  0.76060000  0.11010000  1.0 -0.1263340894
Br  Br16  1  0.85650000  0.94030000  0.75050000  1.0 -0.0282314057
N  N1  1  0.91460000  0.05970000  0.39890000  1.0 -0.261650953
N  N2  1  0.89160000  0.09320000  0.34060000  1.0 -0.0701582698
N  N3  1  0.84570000  0.05520000  0.30810000  1.0 -0.0701582698
N  N4  1  0.83510000  0.99580000  0.34470000  1.0 -0.2493297801
N  N5  1  0.72990000  0.69100000  0.52090000  1.0 -0.056455506
N  N6  1  0.78880000  0.72330000  0.53500000  1.0 -0.2493297801
N  N7  1  0.08540000  0.94030000  0.89890000  1.0 -0.261650953
N  N8  1  0.10840000  0.90680000  0.84060000  1.0 -0.0701582698
N  N9  1  0.15430000  0.94480000  0.80810000  1.0 -0.0701582698
N  N10  1  0.16490000  0.00420000  0.84470000  1.0 -0.2493297801
N  N11  1  0.27010000  0.30900000  0.02090000  1.0 -0.056455506
N  N12  1  0.21120000  0.27670000  0.03500000  1.0 -0.2493297801
N  N13  1  0.55970000  0.58540000  0.64890000  1.0 -0.261650953
N  N14  1  0.59320000  0.60840000  0.59060000  1.0 -0.0701582698
N  N15  1  0.55520000  0.65430000  0.55810000  1.0 -0.0701582698
N  N16  1  0.49580000  0.66490000  0.59470000  1.0 -0.2493297801
N  N17  1  0.19100000  0.77010000  0.77090000  1.0 -0.056455506
N  N18  1  0.22330000  0.71120000  0.78500000  1.0 -0.2493297801
N  N19  1  0.44030000  0.41460000  0.14890000  1.0 -0.261650953
N  N20  1  0.40680000  0.39160000  0.09060000  1.0 -0.0701582698
N  N21  1  0.44480000  0.34570000  0.05810000  1.0 -0.0701582698
N  N22  1  0.50420000  0.33510000  0.09470000  1.0 -0.2493297801
N  N23  1  0.80900000  0.22990000  0.27090000  1.0 -0.056455506
N  N24  1  0.77670000  0.28880000  0.28500000  1.0 -0.2493297801
N  N25  1  0.41460000  0.44030000  0.85110000  1.0 -0.261650953
N  N26  1  0.39160000  0.40680000  0.90940000  1.0 -0.0701582698
N  N27  1  0.34570000  0.44480000  0.94190000  1.0 -0.0701582698
N  N28  1  0.33510000  0.50420000  0.90530000  1.0 -0.2493297801
N  N29  1  0.22990000  0.80900000  0.72910000  1.0 -0.056455506
N  N30  1  0.28880000  0.77670000  0.71500000  1.0 -0.2493297801
N  N31  1  0.58540000  0.55970000  0.35110000  1.0 -0.261650953
N  N32  1  0.60840000  0.59320000  0.40940000  1.0 -0.0701582698
N  N33  1  0.65430000  0.55520000  0.44190000  1.0 -0.0701582698
N  N34  1  0.66490000  0.49580000  0.40530000  1.0 -0.2493297801
N  N35  1  0.77010000  0.19100000  0.22910000  1.0 -0.056455506
N  N36  1  0.71120000  0.22330000  0.21500000  1.0 -0.2493297801
N  N37  1  0.05970000  0.91460000  0.60110000  1.0 -0.261650953
N  N38  1  0.09320000  0.89160000  0.65940000  1.0 -0.0701582698
N  N39  1  0.05520000  0.84570000  0.69190000  1.0 -0.0701582698
N  N40  1  0.99580000  0.83510000  0.65530000  1.0 -0.2493297801
N  N41  1  0.69100000  0.72990000  0.47910000  1.0 -0.056455506
N  N42  1  0.72330000  0.78880000  0.46500000  1.0 -0.2493297801
N  N43  1  0.94030000  0.08540000  0.10110000  1.0 -0.261650953
N  N44  1  0.90680000  0.10840000  0.15940000  1.0 -0.0701582698
N  N45  1  0.94480000  0.15430000  0.19190000  1.0 -0.0701582698
N  N46  1  0.00420000  0.16490000  0.15530000  1.0 -0.2493297801
N  N47  1  0.30900000  0.27010000  0.97910000  1.0 -0.056455506
N  N48  1  0.27670000  0.21120000  0.96500000  1.0 -0.2493297801
O  O1  1  0.29880000  0.42770000  0.25200000  1.0 -0.4722789223
O  O2  1  0.24070000  0.39840000  0.15590000  1.0 -0.4946746795
O  O3  1  0.02770000  0.17760000  0.34720000  1.0 -0.5381816509
O  O4  1  0.08740000  0.19770000  0.44430000  1.0 -0.4279622692
O  O5  1  0.92600000  0.97000000  0.93000000  1.0 -0.2997274879
O  O6  1  0.91930000  0.07520000  0.93820000  1.0 -0.3460095111
O  O7  1  0.02000000  0.07300000  0.57000000  1.0 -0.2493297801
O  O8  1  0.06070000  0.16850000  0.61930000  1.0 -0.4129910105
O  O9  1  0.70120000  0.57230000  0.75200000  1.0 -0.4722789223
O  O10  1  0.75930000  0.60160000  0.65590000  1.0 -0.4946746795
O  O11  1  0.97230000  0.82240000  0.84720000  1.0 -0.5381816509
O  O12  1  0.91260000  0.80230000  0.94430000  1.0 -0.4279622692
O  O13  1  0.07400000  0.03000000  0.43000000  1.0 -0.2997274879
O  O14  1  0.08070000  0.92480000  0.43820000  1.0 -0.3460095111
O  O15  1  0.98000000  0.92700000  0.07000000  1.0 -0.2493297801
O  O16  1  0.93930000  0.83150000  0.11930000  1.0 -0.4155987832
O  O17  1  0.92770000  0.20120000  0.50200000  1.0 -0.4722789223
O  O18  1  0.89840000  0.25930000  0.40590000  1.0 -0.4946746795
O  O19  1  0.67760000  0.47230000  0.59720000  1.0 -0.5381816509
O  O20  1  0.69770000  0.41260000  0.69430000  1.0 -0.4279622692
O  O21  1  0.47000000  0.57400000  0.18000000  1.0 -0.2997274879
O  O22  1  0.57520000  0.58070000  0.18820000  1.0 -0.3460095111
O  O23  1  0.57300000  0.48000000  0.82000000  1.0 -0.2493297801
O  O24  1  0.66850000  0.43930000  0.86930000  1.0 -0.4129910105
O  O25  1  0.07230000  0.79880000  0.00200000  1.0 -0.4722789223
O  O26  1  0.10160000  0.74070000  0.90590000  1.0 -0.4946746795
O  O27  1  0.32240000  0.52770000  0.09720000  1.0 -0.5381816509
O  O28  1  0.30230000  0.58740000  0.19430000  1.0 -0.4279622692
O  O29  1  0.53000000  0.42600000  0.68000000  1.0 -0.2997274879
O  O30  1  0.42480000  0.41930000  0.68820000  1.0 -0.3460095111
O  O31  1  0.42700000  0.52000000  0.32000000  1.0 -0.2493297801
O  O32  1  0.33150000  0.56070000  0.36930000  1.0 -0.4129910105
O  O33  1  0.79880000  0.07230000  0.99800000  1.0 -0.4722789223
O  O34  1  0.74070000  0.10160000  0.09410000  1.0 -0.4946746795
O  O35  1  0.52770000  0.32240000  0.90280000  1.0 -0.5381816509
O  O36  1  0.58740000  0.30230000  0.80570000  1.0 -0.4279622692
O  O37  1  0.42600000  0.53000000  0.32000000  1.0 -0.2997274879
O  O38  1  0.41930000  0.42480000  0.31180000  1.0 -0.3460095111
O  O39  1  0.52000000  0.42700000  0.68000000  1.0 -0.2493297801
O  O40  1  0.56070000  0.33150000  0.63070000  1.0 -0.4129910105
O  O41  1  0.20120000  0.92770000  0.49800000  1.0 -0.4722789223
O  O42  1  0.25930000  0.89840000  0.59410000  1.0 -0.4957560185
O  O43  1  0.47230000  0.67760000  0.40280000  1.0 -0.5381816509
O  O44  1  0.41260000  0.69770000  0.30570000  1.0 -0.4279622692
O  O45  1  0.57400000  0.47000000  0.82000000  1.0 -0.2997274879
O  O46  1  0.58070000  0.57520000  0.81180000  1.0 -0.3460095111
O  O47  1  0.48000000  0.57300000  0.18000000  1.0 -0.2493297801
O  O48  1  0.43930000  0.66850000  0.13070000  1.0 -0.4129910105
O  O49  1  0.42770000  0.29880000  0.74800000  1.0 -0.4722789223
O  O50  1  0.39840000  0.24070000  0.84410000  1.0 -0.4946746795
O  O51  1  0.17760000  0.02770000  0.65280000  1.0 -0.5381816509
O  O52  1  0.19770000  0.08740000  0.55570000  1.0 -0.4279622692
O  O53  1  0.97000000  0.92600000  0.07000000  1.0 -0.2997274879
O  O54  1  0.07520000  0.91930000  0.06180000  1.0 -0.3460095111
O  O55  1  0.07300000  0.02000000  0.43000000  1.0 -0.2493297801
O  O56  1  0.16850000  0.06070000  0.38070000  1.0 -0.4129910105
O  O57  1  0.57230000  0.70120000  0.24800000  1.0 -0.4722789223
O  O58  1  0.60160000  0.75930000  0.34410000  1.0 -0.4946746795
O  O59  1  0.82240000  0.97230000  0.15280000  1.0 -0.5381816509
O  O60  1  0.80230000  0.91260000  0.05570000  1.0 -0.4279622692
O  O61  1  0.03000000  0.07400000  0.57000000  1.0 -0.2997274879
O  O62  1  0.92480000  0.08070000  0.56180000  1.0 -0.3460095111
O  O63  1  0.92700000  0.98000000  0.93000000  1.0 -0.2493297801
O  O64  1  0.83150000  0.93930000  0.88070000  1.0 -0.4155987832
