# DDEC6 charges by PACMAN v1.1 (https://github.com/mtap-research/PACMAN-charge/)
data_KAHKUB02_FSR_pacman
_symmetry_space_group_name_H-M   'P 1'
_cell_length_a   8.03252000
_cell_length_b   8.03252000
_cell_length_c   15.12500000
_cell_angle_alpha   71.76240000
_cell_angle_beta   108.23800000
_cell_angle_gamma   113.85200000
_symmetry_Int_Tables_number   1
_chemical_formula_structural   KFe(CN)6
_chemical_formula_sum   'K2 Fe2 C12 N12'
_cell_volume   827.95365374
_cell_formula_units_Z   2
loop_
 _symmetry_equiv_pos_site_id
 _symmetry_equiv_pos_as_xyz
  1  'x, y, z'
loop_
 _atom_site_type_symbol
 _atom_site_label
 _atom_site_symmetry_multiplicity
 _atom_site_fract_x
 _atom_site_fract_y
 _atom_site_fract_z
 _atom_site_occupancy
 _atom_site_charge
K  K1  1  0.24844000  0.24844000  0.25000000  1.0 0.7319317354
K  K2  1  0.75156000  0.75156000  0.75000000  1.0 0.7319317354
Fe  Fe1  1  0.50000000  0.00000000  0.00000000  1.0 0.1985613001
Fe  Fe2  1  0.00000000  0.50000000  0.50000000  1.0 0.1985613001
C  C1  1  0.75320000  0.08380000  0.07490000  1.0 0.1673148963
C  C2  1  0.08380000  0.75320000  0.42510000  1.0 0.1673148963
C  C3  1  0.24680000  0.91620000  0.92510000  1.0 0.1673148963
C  C4  1  0.91620000  0.24680000  0.57490000  1.0 0.1585117412
C  C5  1  0.43150000  0.76250000  0.09040000  1.0 0.1329364596
C  C6  1  0.76250000  0.43150000  0.40960000  1.0 0.1329364596
C  C7  1  0.56850000  0.23750000  0.90960000  1.0 0.1329364596
C  C8  1  0.23750000  0.56850000  0.59040000  1.0 0.1329364596
C  C9  1  0.43060000  0.10540000  0.07720000  1.0 0.1585117412
C  C10  1  0.10540000  0.43060000  0.42280000  1.0 0.1585117412
C  C11  1  0.56940000  0.89460000  0.92280000  1.0 0.1585117412
C  C12  1  0.89460000  0.56940000  0.57720000  1.0 0.1585117412
N  N1  1  0.90480000  0.14420000  0.11490000  1.0 -0.3306554438
N  N2  1  0.14420000  0.90480000  0.38510000  1.0 -0.3306554438
N  N3  1  0.09520000  0.85580000  0.88510000  1.0 -0.3306554438
N  N4  1  0.85580000  0.09520000  0.61490000  1.0 -0.3306554438
N  N5  1  0.38620000  0.62420000  0.14480000  1.0 -0.2962233471
N  N6  1  0.62420000  0.38620000  0.35520000  1.0 -0.2962233471
N  N7  1  0.61380000  0.37580000  0.85520000  1.0 -0.2944989311
N  N8  1  0.37580000  0.61380000  0.64480000  1.0 -0.2944989311
N  N9  1  0.39670000  0.17010000  0.12430000  1.0 -0.2962233471
N  N10  1  0.17010000  0.39670000  0.37570000  1.0 -0.2962233471
N  N11  1  0.60330000  0.82990000  0.87570000  1.0 -0.2962233471
N  N12  1  0.82990000  0.60330000  0.62430000  1.0 -0.2944989311
