# DDEC6 charges by PACMAN v1.1 (https://github.com/mtap-research/PACMAN-charge/)
data_KAHMOW_FSR_pacman
_symmetry_space_group_name_H-M   'P 1'
_cell_length_a   21.22400000
_cell_length_b   21.22400000
_cell_length_c   7.71000000
_cell_angle_alpha   90.00000000
_cell_angle_beta   90.00000000
_cell_angle_gamma   120.00000000
_symmetry_Int_Tables_number   1
_chemical_formula_structural   ZnH8C17(O2F3)2
_chemical_formula_sum   'Zn6 H48 C102 O24 F36'
_cell_volume   3007.73440518
_cell_formula_units_Z   6
loop_
 _symmetry_equiv_pos_site_id
 _symmetry_equiv_pos_as_xyz
  1  'x, y, z'
loop_
 _atom_site_type_symbol
 _atom_site_label
 _atom_site_symmetry_multiplicity
 _atom_site_fract_x
 _atom_site_fract_y
 _atom_site_fract_z
 _atom_site_occupancy
 _atom_site_charge
Zn  Zn1  1  0.63313000  0.36689000  0.14908000  1.0 0.9095058647
Zn  Zn2  1  0.63311000  0.26624000  0.48241000  1.0 0.9095058647
Zn  Zn3  1  0.73376000  0.36687000  0.81575000  1.0 0.9095058647
Zn  Zn4  1  0.03350000  0.06697000  0.48212000  1.0 0.9168000427
Zn  Zn5  1  0.93303000  0.96653000  0.81545000  1.0 0.9168000427
Zn  Zn6  1  0.03347000  0.96650000  0.14879000  1.0 0.9168000427
H  H1  1  0.40370000  0.32640000  0.92420000  1.0 0.1198147992
H  H2  1  0.67360000  0.07730000  0.25753000  1.0 0.1198147992
H  H3  1  0.92270000  0.59630000  0.59087000  1.0 0.1198147992
H  H4  1  0.69520000  0.51070000  0.50690000  1.0 0.128202195
H  H5  1  0.48930000  0.18450000  0.84023000  1.0 0.128202195
H  H6  1  0.81550000  0.30480000  0.17357000  1.0 0.128202195
H  H7  1  0.17600000  0.14990000  0.83400000  1.0 0.128202195
H  H8  1  0.85010000  0.02610000  0.16733000  1.0 0.128202195
H  H9  1  0.97390000  0.82400000  0.50067000  1.0 0.128202195
H  H10  1  0.74010000  0.81840000  0.03580000  1.0 0.1198147992
H  H11  1  0.18160000  0.92170000  0.36913000  1.0 0.1198147992
H  H12  1  0.07830000  0.25990000  0.70247000  1.0 0.1198147992
H  H13  1  0.85100000  0.82400000  0.46220000  1.0 0.128202195
H  H14  1  0.17600000  0.02700000  0.79553000  1.0 0.128202195
H  H15  1  0.97300000  0.14900000  0.12887000  1.0 0.128202195
H  H16  1  0.58970000  0.51440000  0.93010000  1.0 0.128202195
H  H17  1  0.48560000  0.07530000  0.26343000  1.0 0.128202195
H  H18  1  0.92470000  0.41030000  0.59677000  1.0 0.128202195
H  H19  1  0.18390000  0.26060000  0.26370000  1.0 0.128202195
H  H20  1  0.73940000  0.92330000  0.59703000  1.0 0.128202195
H  H21  1  0.07670000  0.81610000  0.93037000  1.0 0.128202195
H  H22  1  0.49100000  0.30590000  0.79030000  1.0 0.128202195
H  H23  1  0.69410000  0.18510000  0.12363000  1.0 0.128202195
H  H24  1  0.81490000  0.50900000  0.45697000  1.0 0.128202195
H  H25  1  0.26360000  0.25700000  0.70800000  1.0 0.1198147992
H  H26  1  0.74300000  0.00660000  0.04133000  1.0 0.1198147992
H  H27  1  0.99340000  0.73640000  0.37467000  1.0 0.1198147992
H  H28  1  0.67520000  0.59720000  0.37510000  1.0 0.1198147992
H  H29  1  0.40280000  0.07800000  0.70843000  1.0 0.1198147992
H  H30  1  0.92200000  0.32480000  0.04177000  1.0 0.1198147992
H  H31  1  0.56720000  0.60010000  0.80240000  1.0 0.1146662069
H  H32  1  0.39990000  0.96710000  0.13573000  1.0 0.1146662069
H  H33  1  0.03290000  0.43280000  0.46907000  1.0 0.1146662069
H  H34  1  0.74240000  0.73620000  0.59000000  1.0 0.1198147992
H  H35  1  0.26380000  0.00620000  0.92333000  1.0 0.1198147992
H  H36  1  0.99380000  0.25760000  0.25667000  1.0 0.1198147992
H  H37  1  0.48500000  0.41190000  0.36930000  1.0 0.128202195
H  H38  1  0.58810000  0.07310000  0.70263000  1.0 0.128202195
H  H39  1  0.92690000  0.51500000  0.03597000  1.0 0.128202195
H  H40  1  0.39910000  0.43160000  0.49290000  1.0 0.1198147992
H  H41  1  0.56840000  0.96750000  0.82623000  1.0 0.1198147992
H  H42  1  0.03250000  0.60090000  0.15957000  1.0 0.1198147992
H  H43  1  0.63210000  0.73200000  0.16140000  1.0 0.1198147992
H  H44  1  0.26800000  0.90010000  0.49473000  1.0 0.1198147992
H  H45  1  0.09990000  0.36790000  0.82807000  1.0 0.1198147992
H  H46  1  0.26810000  0.36670000  0.13470000  1.0 0.1198147992
H  H47  1  0.63330000  0.90140000  0.46803000  1.0 0.1198147992
H  H48  1  0.09860000  0.73190000  0.80137000  1.0 0.1198147992
C  C1  1  0.65680000  0.44730000  0.82100000  1.0 0.5920853291
C  C2  1  0.55270000  0.20950000  0.15433000  1.0 0.5920853291
C  C3  1  0.79050000  0.34320000  0.48767000  1.0 0.5920853291
C  C4  1  0.87550000  0.88480000  0.14350000  1.0 0.5920853291
C  C5  1  0.11520000  0.99070000  0.47683000  1.0 0.5920853291
C  C6  1  0.00930000  0.12450000  0.81017000  1.0 0.5920853291
C  C7  1  0.55240000  0.34300000  0.47860000  1.0 0.5920853291
C  C8  1  0.65700000  0.20940000  0.81193000  1.0 0.5920853291
C  C9  1  0.79060000  0.44760000  0.14527000  1.0 0.5920853291
C  C10  1  0.11460000  0.12500000  0.15270000  1.0 0.598107597
C  C11  1  0.87500000  0.98960000  0.48603000  1.0 0.598107597
C  C12  1  0.01040000  0.88540000  0.81937000  1.0 0.598107597
C  C13  1  0.49590000  0.35650000  0.56600000  1.0 -0.0228243565
C  C14  1  0.64350000  0.13940000  0.89933000  1.0 -0.0228243565
C  C15  1  0.86060000  0.50410000  0.23267000  1.0 -0.0228243565
C  C16  1  0.80670000  0.82960000  0.23290000  1.0 -0.0307489813
C  C17  1  0.17040000  0.97710000  0.56623000  1.0 -0.0307489813
C  C18  1  0.02290000  0.19330000  0.89957000  1.0 -0.0307489813
C  C19  1  0.64360000  0.50350000  0.72920000  1.0 -0.0228243565
C  C20  1  0.49650000  0.14010000  0.06253000  1.0 -0.0228243565
C  C21  1  0.85990000  0.35640000  0.39587000  1.0 -0.0228243565
C  C22  1  0.17070000  0.19370000  0.06340000  1.0 -0.0228243565
C  C23  1  0.80630000  0.97700000  0.39673000  1.0 -0.0228243565
C  C24  1  0.02300000  0.82930000  0.73007000  1.0 -0.0228243565
C  C25  1  0.41930000  0.34290000  0.81200000  1.0 -0.1476185903
C  C26  1  0.65710000  0.07640000  0.14533000  1.0 -0.1391247859
C  C27  1  0.92360000  0.58070000  0.47867000  1.0 -0.1476185903
C  C28  1  0.66940000  0.52880000  0.56600000  1.0 -0.0832287656
C  C29  1  0.47120000  0.14060000  0.89933000  1.0 -0.0832287656
C  C30  1  0.85940000  0.33060000  0.23267000  1.0 -0.0832287656
C  C31  1  0.19500000  0.19340000  0.89540000  1.0 -0.0868104422
C  C32  1  0.80660000  0.00160000  0.22873000  1.0 -0.0868104422
C  C33  1  0.99840000  0.80500000  0.56207000  1.0 -0.0868104422
C  C34  1  0.74090000  0.80170000  0.14690000  1.0 -0.0832287656
C  C35  1  0.19830000  0.93920000  0.48023000  1.0 -0.0832287656
C  C36  1  0.06080000  0.25910000  0.81357000  1.0 -0.0832287656
C  C37  1  0.80740000  0.80520000  0.40130000  1.0 -0.0832287656
C  C38  1  0.19480000  0.00220000  0.73463000  1.0 -0.0832287656
C  C39  1  0.99780000  0.19260000  0.06797000  1.0 -0.0832287656
C  C40  1  0.60630000  0.53070000  0.81850000  1.0 -0.0868104422
C  C41  1  0.46930000  0.07560000  0.15183000  1.0 -0.0868104422
C  C42  1  0.92440000  0.39370000  0.48517000  1.0 -0.0868104422
C  C43  1  0.19950000  0.25970000  0.15150000  1.0 -0.0868104422
C  C44  1  0.74030000  0.93980000  0.48483000  1.0 -0.0868104422
C  C45  1  0.06020000  0.80050000  0.81817000  1.0 -0.0868104422
C  C46  1  0.47210000  0.33100000  0.73160000  1.0 -0.0868104422
C  C47  1  0.66900000  0.14110000  0.06493000  1.0 -0.0868104422
C  C48  1  0.85890000  0.52790000  0.39827000  1.0 -0.0868104422
C  C49  1  0.67660000  0.72350000  0.38680000  1.0 0.0796182467
C  C50  1  0.27650000  0.95310000  0.72013000  1.0 0.0796182467
C  C51  1  0.04690000  0.32340000  0.05347000  1.0 0.0796182467
C  C52  1  0.24730000  0.25760000  0.81960000  1.0 -0.1391247859
C  C53  1  0.74240000  0.98970000  0.15293000  1.0 -0.1391247859
C  C54  1  0.01030000  0.75270000  0.48627000  1.0 -0.1391247859
C  C55  1  0.65790000  0.58120000  0.48660000  1.0 -0.1345293614
C  C56  1  0.41880000  0.07670000  0.81993000  1.0 -0.1345293614
C  C57  1  0.92330000  0.34210000  0.15327000  1.0 -0.1345293614
C  C58  1  0.27570000  0.32320000  0.90990000  1.0 0.0796182467
C  C59  1  0.67680000  0.95250000  0.24323000  1.0 0.0796182467
C  C60  1  0.04750000  0.72430000  0.57657000  1.0 0.0796182467
C  C61  1  0.59360000  0.58300000  0.74210000  1.0 -0.1476185903
C  C62  1  0.41700000  0.01060000  0.07543000  1.0 -0.1476185903
C  C63  1  0.98940000  0.40640000  0.40877000  1.0 -0.1476185903
C  C64  1  0.60710000  0.66666667  0.48380000  1.0 -0.2794102821
C  C65  1  0.33333333  0.94043000  0.81713000  1.0 -0.2794102821
C  C66  1  0.05957000  0.39290000  0.15047000  1.0 -0.2794102821
C  C67  1  0.74200000  0.75220000  0.47790000  1.0 -0.1391247859
C  C68  1  0.24780000  0.98980000  0.81123000  1.0 -0.1391247859
C  C69  1  0.01020000  0.25800000  0.14457000  1.0 -0.1391247859
C  C70  1  0.33290000  0.39420000  0.81370000  1.0 -0.2794102821
C  C71  1  0.60580000  0.93870000  0.14703000  1.0 -0.2794102821
C  C72  1  0.06130000  0.66710000  0.48037000  1.0 -0.2794102821
C  C73  1  0.46820000  0.39420000  0.48020000  1.0 -0.0832287656
C  C74  1  0.60580000  0.07400000  0.81353000  1.0 -0.0832287656
C  C75  1  0.92600000  0.53180000  0.14687000  1.0 -0.0832287656
C  C76  1  0.41690000  0.40600000  0.55380000  1.0 -0.1476185903
C  C77  1  0.59400000  0.01090000  0.88713000  1.0 -0.1476185903
C  C78  1  0.98910000  0.58310000  0.22047000  1.0 -0.1476185903
C  C79  1  0.67570000  0.74940000  0.22140000  1.0 -0.1476185903
C  C80  1  0.25060000  0.92630000  0.55473000  1.0 -0.1476185903
C  C81  1  0.07370000  0.32430000  0.88807000  1.0 -0.1476185903
C  C82  1  0.54250000  0.62360000  0.35200000  1.0 0.6688464788
C  C83  1  0.37640000  0.91890000  0.68533000  1.0 0.6688464788
C  C84  1  0.08110000  0.45750000  0.01867000  1.0 0.6688464788
C  C85  1  0.25040000  0.32310000  0.07480000  1.0 -0.1476185903
C  C86  1  0.67690000  0.92730000  0.40813000  1.0 -0.1476185903
C  C87  1  0.07270000  0.74960000  0.74147000  1.0 -0.1476185903
C  C88  1  0.58570000  0.70930000  0.61000000  1.0 0.6688464788
C  C89  1  0.29070000  0.87640000  0.94333000  1.0 0.6688464788
C  C90  1  0.12360000  0.41430000  0.27667000  1.0 0.6688464788
C  C91  1  0.39060000  0.38010000  0.72000000  1.0 0.0796182467
C  C92  1  0.61990000  0.01050000  0.05333000  1.0 0.0796182467
C  C93  1  0.98950000  0.60940000  0.38667000  1.0 0.0796182467
C  C94  1  0.62000000  0.61000000  0.57640000  1.0 0.0796182467
C  C95  1  0.39000000  0.01000000  0.90973000  1.0 0.0796182467
C  C96  1  0.99000000  0.38000000  0.24307000  1.0 0.0796182467
C  C97  1  0.28890000  0.41260000  0.68400000  1.0 0.6688464788
C  C98  1  0.58740000  0.87630000  0.01733000  1.0 0.6688464788
C  C99  1  0.12370000  0.71110000  0.35067000  1.0 0.6688464788
C  C100  1  0.37720000  0.45760000  0.94600000  1.0 0.6688464788
C  C101  1  0.54240000  0.91960000  0.27933000  1.0 0.6688464788
C  C102  1  0.08040000  0.62280000  0.61267000  1.0 0.6688464788
O  O1  1  0.09170000  0.13150000  0.29840000  1.0 -0.5410210582
O  O2  1  0.86850000  0.96020000  0.63173000  1.0 -0.5410210582
O  O3  1  0.03980000  0.90830000  0.96507000  1.0 -0.5410210582
O  O4  1  0.62680000  0.42430000  0.96380000  1.0 -0.5285914533
O  O5  1  0.57570000  0.20250000  0.29713000  1.0 -0.5285914533
O  O6  1  0.79750000  0.37320000  0.63047000  1.0 -0.5285914533
O  O7  1  0.93420000  0.90650000  0.22740000  1.0 -0.5523576232
O  O8  1  0.09350000  0.02770000  0.56073000  1.0 -0.5523576232
O  O9  1  0.97230000  0.06580000  0.89407000  1.0 -0.5523576232
O  O10  1  0.57490000  0.37240000  0.33490000  1.0 -0.5285914533
O  O11  1  0.62760000  0.20250000  0.66823000  1.0 -0.5285914533
O  O12  1  0.79750000  0.42510000  0.00157000  1.0 -0.5285914533
O  O13  1  0.57280000  0.30550000  0.56090000  1.0 -0.5410210582
O  O14  1  0.69450000  0.26730000  0.89423000  1.0 -0.5410210582
O  O15  1  0.73270000  0.42720000  0.22757000  1.0 -0.5410210582
O  O16  1  0.09280000  0.06530000  0.07130000  1.0 -0.560499429
O  O17  1  0.93470000  0.02750000  0.40463000  1.0 -0.560499429
O  O18  1  0.97250000  0.90720000  0.73797000  1.0 -0.560499429
O  O19  1  0.69440000  0.42640000  0.73790000  1.0 -0.5523576232
O  O20  1  0.57360000  0.26800000  0.07123000  1.0 -0.5523576232
O  O21  1  0.73200000  0.30560000  0.40457000  1.0 -0.5523576232
O  O22  1  0.86850000  0.90850000  0.00130000  1.0 -0.5285914533
O  O23  1  0.09150000  0.96000000  0.33463000  1.0 -0.5285914533
O  O24  1  0.04000000  0.13150000  0.66797000  1.0 -0.5285914533
F  F1  1  0.33540000  0.48320000  0.01220000  1.0 -0.1984777701
F  F2  1  0.51680000  0.85220000  0.34553000  1.0 -0.1984777701
F  F3  1  0.14780000  0.66460000  0.67887000  1.0 -0.1984777701
F  F4  1  0.26150000  0.36650000  0.55710000  1.0 -0.1933526134
F  F5  1  0.63350000  0.89500000  0.89043000  1.0 -0.1933526134
F  F6  1  0.10500000  0.73850000  0.22377000  1.0 -0.1933526134
F  F7  1  0.33130000  0.48080000  0.61980000  1.0 -0.1984777701
F  F8  1  0.51920000  0.85050000  0.95313000  1.0 -0.1984777701
F  F9  1  0.14950000  0.66870000  0.28647000  1.0 -0.1984777701
F  F10  1  0.63340000  0.73860000  0.74080000  1.0 -0.1933526134
F  F11  1  0.26140000  0.89480000  0.07413000  1.0 -0.1933526134
F  F12  1  0.10520000  0.36660000  0.40747000  1.0 -0.1933526134
F  F13  1  0.40570000  0.43910000  0.07490000  1.0 -0.1984777701
F  F14  1  0.56090000  0.96660000  0.40823000  1.0 -0.1984777701
F  F15  1  0.03340000  0.59430000  0.74157000  1.0 -0.1984777701
F  F16  1  0.51710000  0.66420000  0.28510000  1.0 -0.1984777701
F  F17  1  0.33580000  0.85290000  0.61843000  1.0 -0.1984777701
F  F18  1  0.14710000  0.48290000  0.95177000  1.0 -0.1984777701
F  F19  1  0.51960000  0.66920000  0.67810000  1.0 -0.1933526134
F  F20  1  0.33080000  0.85040000  0.01143000  1.0 -0.1933526134
F  F21  1  0.14960000  0.48040000  0.34477000  1.0 -0.1933526134
F  F22  1  0.56140000  0.59480000  0.22380000  1.0 -0.1933526134
F  F23  1  0.40520000  0.96660000  0.55713000  1.0 -0.1933526134
F  F24  1  0.03340000  0.43860000  0.89047000  1.0 -0.1933526134
F  F25  1  0.43220000  0.51360000  0.86230000  1.0 -0.1933526134
F  F26  1  0.48640000  0.91860000  0.19563000  1.0 -0.1933526134
F  F27  1  0.08140000  0.56780000  0.52897000  1.0 -0.1933526134
F  F28  1  0.48640000  0.56780000  0.43630000  1.0 -0.1984777701
F  F29  1  0.43220000  0.91860000  0.76963000  1.0 -0.1984777701
F  F30  1  0.08140000  0.51360000  0.10297000  1.0 -0.1984777701
F  F31  1  0.23390000  0.41420000  0.76770000  1.0 -0.1933526134
F  F32  1  0.58580000  0.81970000  0.10103000  1.0 -0.1933526134
F  F33  1  0.18030000  0.76610000  0.43437000  1.0 -0.1933526134
F  F34  1  0.58550000  0.76620000  0.53030000  1.0 -0.1933526134
F  F35  1  0.23380000  0.81930000  0.86363000  1.0 -0.1933526134
F  F36  1  0.18070000  0.41450000  0.19697000  1.0 -0.1933526134
