# DDEC6 charges by PACMAN v1.1 (https://github.com/mtap-research/PACMAN-charge/)
data_KAHPUE_ASR_pacman
_symmetry_space_group_name_H-M   'P 1'
_cell_length_a   6.94500000
_cell_length_b   7.78200000
_cell_length_c   11.47000000
_cell_angle_alpha   90.00000000
_cell_angle_beta   105.29000000
_cell_angle_gamma   90.00000000
_symmetry_Int_Tables_number   1
_chemical_formula_structural   CdNi(C2N)6
_chemical_formula_sum   'Cd1 Ni1 C12 N6'
_cell_volume   597.96492344
_cell_formula_units_Z   1
loop_
 _symmetry_equiv_pos_site_id
 _symmetry_equiv_pos_as_xyz
  1  'x, y, z'
loop_
 _atom_site_type_symbol
 _atom_site_label
 _atom_site_symmetry_multiplicity
 _atom_site_fract_x
 _atom_site_fract_y
 _atom_site_fract_z
 _atom_site_occupancy
 _atom_site_charge
Cd  Cd1  1  0.00000000  0.00000000  0.00000000  1.0 1.0210114026
Ni  Ni1  1  0.50000000  0.50000000  0.00000000  1.0 0.1617189997
C  C1  1  0.30710000  0.32900000  0.96350000  1.0 0.096484957
C  C2  1  0.69290000  0.32900000  0.03650000  1.0 0.096484957
C  C3  1  0.69290000  0.67100000  0.03650000  1.0 0.096484957
C  C4  1  0.30710000  0.67100000  0.96350000  1.0 0.096484957
C  C5  1  0.43190000  0.00000000  0.20780000  1.0 0.4033857935
C  C6  1  0.56810000  0.00000000  0.79220000  1.0 0.4033857935
C  C7  1  0.54990000  0.00000000  0.33780000  1.0 -0.0720558188
C  C8  1  0.45010000  0.00000000  0.66220000  1.0 -0.0720558188
C  C9  1  0.77410000  0.00000000  0.35670000  1.0 0.0265094859
C  C10  1  0.22590000  0.00000000  0.64330000  1.0 0.0246442274
C  C11  1  0.88930000  0.00000000  0.48780000  1.0 0.077011069
C  C12  1  0.11070000  0.00000000  0.51220000  1.0 0.077011069
N  N1  1  0.19070000  0.21990000  0.94420000  1.0 -0.2826684511
N  N2  1  0.80930000  0.21990000  0.05580000  1.0 -0.2826684511
N  N3  1  0.80930000  0.78010000  0.05580000  1.0 -0.2826684511
N  N4  1  0.19070000  0.78010000  0.94420000  1.0 -0.2826684511
N  N5  1  0.21480000  0.00000000  0.19010000  1.0 -0.6488968826
N  N6  1  0.78520000  0.00000000  0.80990000  1.0 -0.6569353438
