# DDEC6 charges by PACMAN v1.1 (https://github.com/mtap-research/PACMAN-charge/)
data_KAJZIH_ASR_pacman
_symmetry_space_group_name_H-M   'P 1'
_cell_length_a   19.21000000
_cell_length_b   19.21000000
_cell_length_c   6.91580000
_cell_angle_alpha   90.00000000
_cell_angle_beta   90.00000000
_cell_angle_gamma   90.00000000
_symmetry_Int_Tables_number   1
_chemical_formula_structural   Cu2H3(C3O2)3
_chemical_formula_sum   'Cu16 H24 C72 O48'
_cell_volume   2552.09687078
_cell_formula_units_Z   8
loop_
 _symmetry_equiv_pos_site_id
 _symmetry_equiv_pos_as_xyz
  1  'x, y, z'
loop_
 _atom_site_type_symbol
 _atom_site_label
 _atom_site_symmetry_multiplicity
 _atom_site_fract_x
 _atom_site_fract_y
 _atom_site_fract_z
 _atom_site_occupancy
 _atom_site_charge
Cu  Cu1  1  0.92264000  0.92264000  0.50000000  1.0 0.3828242957
Cu  Cu2  1  0.07736000  0.07736000  0.50000000  1.0 0.3828242957
Cu  Cu3  1  0.42264000  0.57736000  0.50000000  1.0 0.3828242957
Cu  Cu4  1  0.57736000  0.42264000  0.50000000  1.0 0.3828242957
Cu  Cu5  1  0.57736000  0.57736000  0.50000000  1.0 0.3828242957
Cu  Cu6  1  0.42264000  0.42264000  0.50000000  1.0 0.3828242957
Cu  Cu7  1  0.07736000  0.92264000  0.50000000  1.0 0.3828242957
Cu  Cu8  1  0.92264000  0.07736000  0.50000000  1.0 0.3828242957
Cu  Cu9  1  0.28003000  0.78003000  0.35189000  1.0 0.8205916896
Cu  Cu10  1  0.71997000  0.21997000  0.35189000  1.0 0.8205916896
Cu  Cu11  1  0.28003000  0.21997000  0.35189000  1.0 0.8205916896
Cu  Cu12  1  0.71997000  0.78003000  0.35189000  1.0 0.8205916896
Cu  Cu13  1  0.78003000  0.71997000  0.64811000  1.0 0.8205916896
Cu  Cu14  1  0.21997000  0.28003000  0.64811000  1.0 0.8205916896
Cu  Cu15  1  0.78003000  0.28003000  0.64811000  1.0 0.8205916896
Cu  Cu16  1  0.21997000  0.71997000  0.64811000  1.0 0.8205916896
H  H1  1  0.10510000  0.81590000  0.00830000  1.0 0.1343268022
H  H2  1  0.89490000  0.18410000  0.00830000  1.0 0.1343268022
H  H3  1  0.31590000  0.39490000  0.00830000  1.0 0.1343268022
H  H4  1  0.68410000  0.60510000  0.00830000  1.0 0.1343268022
H  H5  1  0.60510000  0.68410000  0.99170000  1.0 0.1343268022
H  H6  1  0.39490000  0.31590000  0.99170000  1.0 0.1343268022
H  H7  1  0.81590000  0.10510000  0.99170000  1.0 0.1343268022
H  H8  1  0.18410000  0.89490000  0.99170000  1.0 0.1343268022
H  H9  1  0.39490000  0.68410000  0.99170000  1.0 0.1343268022
H  H10  1  0.60510000  0.31590000  0.99170000  1.0 0.1343268022
H  H11  1  0.18410000  0.10510000  0.99170000  1.0 0.1343268022
H  H12  1  0.81590000  0.89490000  0.99170000  1.0 0.1343268022
H  H13  1  0.89490000  0.81590000  0.00830000  1.0 0.1343268022
H  H14  1  0.10510000  0.18410000  0.00830000  1.0 0.1343268022
H  H15  1  0.68410000  0.39490000  0.00830000  1.0 0.1343268022
H  H16  1  0.31590000  0.60510000  0.00830000  1.0 0.1343268022
H  H17  1  0.00000000  0.73840000  0.47140000  1.0 0.141751464
H  H18  1  0.00000000  0.26160000  0.47140000  1.0 0.141751464
H  H19  1  0.23840000  0.50000000  0.47140000  1.0 0.141751464
H  H20  1  0.76160000  0.50000000  0.47140000  1.0 0.141751464
H  H21  1  0.50000000  0.76160000  0.52860000  1.0 0.141751464
H  H22  1  0.50000000  0.23840000  0.52860000  1.0 0.141751464
H  H23  1  0.73840000  0.00000000  0.52860000  1.0 0.141751464
H  H24  1  0.26160000  0.00000000  0.52860000  1.0 0.141751464
C  C1  1  0.00000000  0.86530000  0.80180000  1.0 0.5676296964
C  C2  1  0.00000000  0.13470000  0.80180000  1.0 0.5676296964
C  C3  1  0.36530000  0.50000000  0.80180000  1.0 0.5676296964
C  C4  1  0.63470000  0.50000000  0.80180000  1.0 0.5676296964
C  C5  1  0.50000000  0.63470000  0.19820000  1.0 0.5676296964
C  C6  1  0.50000000  0.36530000  0.19820000  1.0 0.5676296964
C  C7  1  0.86530000  0.00000000  0.19820000  1.0 0.5676296964
C  C8  1  0.13470000  0.00000000  0.19820000  1.0 0.5676296964
C  C9  1  0.00000000  0.82420000  0.98550000  1.0 -0.0084429978
C  C10  1  0.00000000  0.17580000  0.98550000  1.0 -0.0084429978
C  C11  1  0.32420000  0.50000000  0.98550000  1.0 -0.0084429978
C  C12  1  0.67580000  0.50000000  0.98550000  1.0 -0.0084429978
C  C13  1  0.50000000  0.67580000  0.01450000  1.0 -0.0084429978
C  C14  1  0.50000000  0.32420000  0.01450000  1.0 -0.0084429978
C  C15  1  0.82420000  0.00000000  0.01450000  1.0 -0.0084429978
C  C16  1  0.17580000  0.00000000  0.01450000  1.0 -0.0084429978
C  C17  1  0.06241000  0.80650000  0.07240000  1.0 -0.0930252517
C  C18  1  0.93759000  0.19350000  0.07240000  1.0 -0.0930252517
C  C19  1  0.30650000  0.43759000  0.07240000  1.0 -0.0930252517
C  C20  1  0.69350000  0.56241000  0.07240000  1.0 -0.0930252517
C  C21  1  0.56241000  0.69350000  0.92760000  1.0 -0.0930252517
C  C22  1  0.43759000  0.30650000  0.92760000  1.0 -0.0930252517
C  C23  1  0.80650000  0.06241000  0.92760000  1.0 -0.0930252517
C  C24  1  0.19350000  0.93759000  0.92760000  1.0 -0.0930252517
C  C25  1  0.43759000  0.69350000  0.92760000  1.0 -0.0930252517
C  C26  1  0.56241000  0.30650000  0.92760000  1.0 -0.0930252517
C  C27  1  0.19350000  0.06241000  0.92760000  1.0 -0.0930252517
C  C28  1  0.80650000  0.93759000  0.92760000  1.0 -0.0930252517
C  C29  1  0.93759000  0.80650000  0.07240000  1.0 -0.0930252517
C  C30  1  0.06241000  0.19350000  0.07240000  1.0 -0.0930252517
C  C31  1  0.69350000  0.43759000  0.07240000  1.0 -0.0930252517
C  C32  1  0.30650000  0.56241000  0.07240000  1.0 -0.0930252517
C  C33  1  0.06270000  0.77472000  0.25460000  1.0 -0.0220849638
C  C34  1  0.93730000  0.22528000  0.25460000  1.0 -0.0220849638
C  C35  1  0.27472000  0.43730000  0.25460000  1.0 -0.0220849638
C  C36  1  0.72528000  0.56270000  0.25460000  1.0 -0.0220849638
C  C37  1  0.56270000  0.72528000  0.74540000  1.0 -0.0220849638
C  C38  1  0.43730000  0.27472000  0.74540000  1.0 -0.0220849638
C  C39  1  0.77472000  0.06270000  0.74540000  1.0 -0.0220849638
C  C40  1  0.22528000  0.93730000  0.74540000  1.0 -0.0220849638
C  C41  1  0.43730000  0.72528000  0.74540000  1.0 -0.0220849638
C  C42  1  0.56270000  0.27472000  0.74540000  1.0 -0.0220849638
C  C43  1  0.22528000  0.06270000  0.74540000  1.0 -0.0220849638
C  C44  1  0.77472000  0.93730000  0.74540000  1.0 -0.0220849638
C  C45  1  0.93730000  0.77472000  0.25460000  1.0 -0.0220849638
C  C46  1  0.06270000  0.22528000  0.25460000  1.0 -0.0220849638
C  C47  1  0.72528000  0.43730000  0.25460000  1.0 -0.0220849638
C  C48  1  0.27472000  0.56270000  0.25460000  1.0 -0.0220849638
C  C49  1  0.00000000  0.75920000  0.34680000  1.0 -0.1219100789
C  C50  1  0.00000000  0.24080000  0.34680000  1.0 -0.1219100789
C  C51  1  0.25920000  0.50000000  0.34680000  1.0 -0.1219100789
C  C52  1  0.74080000  0.50000000  0.34680000  1.0 -0.1219100789
C  C53  1  0.50000000  0.74080000  0.65320000  1.0 -0.1219100789
C  C54  1  0.50000000  0.25920000  0.65320000  1.0 -0.1219100789
C  C55  1  0.75920000  0.00000000  0.65320000  1.0 -0.1219100789
C  C56  1  0.24080000  0.00000000  0.65320000  1.0 -0.1219100789
C  C57  1  0.13111000  0.76203000  0.35080000  1.0 0.5643881872
C  C58  1  0.86889000  0.23797000  0.35080000  1.0 0.5643881872
C  C59  1  0.26203000  0.36889000  0.35080000  1.0 0.5643881872
C  C60  1  0.73797000  0.63111000  0.35080000  1.0 0.5643881872
C  C61  1  0.63111000  0.73797000  0.64920000  1.0 0.5643881872
C  C62  1  0.36889000  0.26203000  0.64920000  1.0 0.5643881872
C  C63  1  0.76203000  0.13111000  0.64920000  1.0 0.5643881872
C  C64  1  0.23797000  0.86889000  0.64920000  1.0 0.5643881872
C  C65  1  0.36889000  0.73797000  0.64920000  1.0 0.5643881872
C  C66  1  0.63111000  0.26203000  0.64920000  1.0 0.5643881872
C  C67  1  0.23797000  0.13111000  0.64920000  1.0 0.5643881872
C  C68  1  0.76203000  0.86889000  0.64920000  1.0 0.5643881872
C  C69  1  0.86889000  0.76203000  0.35080000  1.0 0.5643881872
C  C70  1  0.13111000  0.23797000  0.35080000  1.0 0.5643881872
C  C71  1  0.73797000  0.36889000  0.35080000  1.0 0.5643881872
C  C72  1  0.26203000  0.63111000  0.35080000  1.0 0.5643881872
O  O1  1  0.94197000  0.88198000  0.73350000  1.0 -0.4830590472
O  O2  1  0.05803000  0.11802000  0.73350000  1.0 -0.4830590472
O  O3  1  0.38198000  0.55803000  0.73350000  1.0 -0.4830590472
O  O4  1  0.61802000  0.44197000  0.73350000  1.0 -0.4830590472
O  O5  1  0.44197000  0.61802000  0.26650000  1.0 -0.4830590472
O  O6  1  0.55803000  0.38198000  0.26650000  1.0 -0.4830590472
O  O7  1  0.88198000  0.94197000  0.26650000  1.0 -0.4830590472
O  O8  1  0.11802000  0.05803000  0.26650000  1.0 -0.4830590472
O  O9  1  0.55803000  0.61802000  0.26650000  1.0 -0.4830590472
O  O10  1  0.44197000  0.38198000  0.26650000  1.0 -0.4830590472
O  O11  1  0.11802000  0.94197000  0.26650000  1.0 -0.4830590472
O  O12  1  0.88198000  0.05803000  0.26650000  1.0 -0.4830590472
O  O13  1  0.05803000  0.88198000  0.73350000  1.0 -0.4830590472
O  O14  1  0.94197000  0.11802000  0.73350000  1.0 -0.4830590472
O  O15  1  0.61802000  0.55803000  0.73350000  1.0 -0.4830590472
O  O16  1  0.38198000  0.44197000  0.73350000  1.0 -0.4830590472
O  O17  1  0.18386000  0.78227000  0.26150000  1.0 -0.5032316655
O  O18  1  0.81614000  0.21773000  0.26150000  1.0 -0.5032316655
O  O19  1  0.28227000  0.31614000  0.26150000  1.0 -0.5032316655
O  O20  1  0.71773000  0.68386000  0.26150000  1.0 -0.5032316655
O  O21  1  0.68386000  0.71773000  0.73850000  1.0 -0.5032316655
O  O22  1  0.31614000  0.28227000  0.73850000  1.0 -0.5032316655
O  O23  1  0.78227000  0.18386000  0.73850000  1.0 -0.5032316655
O  O24  1  0.21773000  0.81614000  0.73850000  1.0 -0.5032316655
O  O25  1  0.31614000  0.71773000  0.73850000  1.0 -0.5032316655
O  O26  1  0.68386000  0.28227000  0.73850000  1.0 -0.5032316655
O  O27  1  0.21773000  0.18386000  0.73850000  1.0 -0.5032316655
O  O28  1  0.78227000  0.81614000  0.73850000  1.0 -0.5032316655
O  O29  1  0.81614000  0.78227000  0.26150000  1.0 -0.5032316655
O  O30  1  0.18386000  0.21773000  0.26150000  1.0 -0.5032316655
O  O31  1  0.71773000  0.31614000  0.26150000  1.0 -0.5032316655
O  O32  1  0.28227000  0.68386000  0.26150000  1.0 -0.5032316655
O  O33  1  0.13177000  0.73410000  0.51240000  1.0 -0.4885360957
O  O34  1  0.86823000  0.26590000  0.51240000  1.0 -0.4885360957
O  O35  1  0.23410000  0.36823000  0.51240000  1.0 -0.4885360957
O  O36  1  0.76590000  0.63177000  0.51240000  1.0 -0.4885360957
O  O37  1  0.63177000  0.76590000  0.48760000  1.0 -0.4885360957
O  O38  1  0.36823000  0.23410000  0.48760000  1.0 -0.4885360957
O  O39  1  0.73410000  0.13177000  0.48760000  1.0 -0.4885360957
O  O40  1  0.26590000  0.86823000  0.48760000  1.0 -0.4885360957
O  O41  1  0.36823000  0.76590000  0.48760000  1.0 -0.4885360957
O  O42  1  0.63177000  0.23410000  0.48760000  1.0 -0.4885360957
O  O43  1  0.26590000  0.13177000  0.48760000  1.0 -0.4885360957
O  O44  1  0.73410000  0.86823000  0.48760000  1.0 -0.4885360957
O  O45  1  0.86823000  0.73410000  0.51240000  1.0 -0.4885360957
O  O46  1  0.13177000  0.26590000  0.51240000  1.0 -0.4885360957
O  O47  1  0.76590000  0.36823000  0.51240000  1.0 -0.4885360957
O  O48  1  0.23410000  0.63177000  0.51240000  1.0 -0.4885360957
