# DDEC6 charges by PACMAN v1.1 (https://github.com/mtap-research/PACMAN-charge/)
data_KAKCEH01_ASR_pacman
_symmetry_space_group_name_H-M   'P 1'
_cell_length_a   7.24590000
_cell_length_b   19.22420000
_cell_length_c   25.80700000
_cell_angle_alpha   90.00000000
_cell_angle_beta   90.00000000
_cell_angle_gamma   90.00000000
_symmetry_Int_Tables_number   1
_chemical_formula_structural   BaH15(C9O2)3
_chemical_formula_sum   'Ba4 H60 C108 O24'
_cell_volume   3594.82815054
_cell_formula_units_Z   4
loop_
 _symmetry_equiv_pos_site_id
 _symmetry_equiv_pos_as_xyz
  1  'x, y, z'
loop_
 _atom_site_type_symbol
 _atom_site_label
 _atom_site_symmetry_multiplicity
 _atom_site_fract_x
 _atom_site_fract_y
 _atom_site_fract_z
 _atom_site_occupancy
 _atom_site_charge
Ba  Ba1  1  0.18198000  0.31140000  0.89257000  1.0 1.4471500232
Ba  Ba2  1  0.81802000  0.68860000  0.39257000  1.0 1.4471500232
Ba  Ba3  1  0.31802000  0.81140000  0.39257000  1.0 1.4471500232
Ba  Ba4  1  0.68198000  0.18860000  0.89257000  1.0 1.4471500232
H  H1  1  0.29690000  0.09430000  0.76760000  1.0 0.1356979995
H  H2  1  0.70310000  0.90570000  0.26760000  1.0 0.1356979995
H  H3  1  0.20310000  0.59430000  0.26760000  1.0 0.1356979995
H  H4  1  0.79690000  0.40570000  0.76760000  1.0 0.1356979995
H  H5  1  0.22160000  0.98680000  0.73070000  1.0 0.1140000774
H  H6  1  0.77840000  0.01320000  0.23070000  1.0 0.1140000774
H  H7  1  0.27840000  0.48680000  0.23070000  1.0 0.1140000774
H  H8  1  0.72160000  0.51320000  0.73070000  1.0 0.1140000774
H  H9  1  0.96890000  0.93340000  0.86250000  1.0 0.1198166815
H  H10  1  0.03110000  0.06660000  0.36250000  1.0 0.1198166815
H  H11  1  0.53110000  0.43340000  0.36250000  1.0 0.1198166815
H  H12  1  0.46890000  0.56660000  0.86250000  1.0 0.1198166815
H  H13  1  0.01430000  0.04530000  0.89270000  1.0 0.1356979995
H  H14  1  0.98570000  0.95470000  0.39270000  1.0 0.1356979995
H  H15  1  0.48570000  0.54530000  0.39270000  1.0 0.1356979995
H  H16  1  0.51430000  0.45470000  0.89270000  1.0 0.1356979995
H  H17  1  0.60910000  0.91810000  0.56520000  1.0 0.1356979995
H  H18  1  0.39090000  0.08190000  0.06520000  1.0 0.1356979995
H  H19  1  0.89090000  0.41810000  0.06520000  1.0 0.1356979995
H  H20  1  0.10910000  0.58190000  0.56520000  1.0 0.1356979995
H  H21  1  0.72420000  0.91490000  0.64540000  1.0 0.1198166815
H  H22  1  0.27580000  0.08510000  0.14540000  1.0 0.1198166815
H  H23  1  0.77580000  0.41490000  0.14540000  1.0 0.1198166815
H  H24  1  0.22420000  0.58510000  0.64540000  1.0 0.1198166815
H  H25  1  0.78830000  0.72420000  0.53930000  1.0 0.1198166815
H  H26  1  0.21170000  0.27580000  0.03930000  1.0 0.1198166815
H  H27  1  0.71170000  0.22420000  0.03930000  1.0 0.1198166815
H  H28  1  0.28830000  0.77580000  0.53930000  1.0 0.1198166815
H  H29  1  0.89710000  0.72060000  0.62250000  1.0 0.1140000774
H  H30  1  0.10290000  0.27940000  0.12250000  1.0 0.1140000774
H  H31  1  0.60290000  0.22060000  0.12250000  1.0 0.1140000774
H  H32  1  0.39710000  0.77940000  0.62250000  1.0 0.1140000774
H  H33  1  0.09760000  0.53150000  0.79660000  1.0 0.1140000774
H  H34  1  0.90240000  0.46850000  0.29660000  1.0 0.1140000774
H  H35  1  0.40240000  0.03150000  0.29660000  1.0 0.1140000774
H  H36  1  0.59760000  0.96850000  0.79660000  1.0 0.1140000774
H  H37  1  0.07230000  0.63080000  0.74960000  1.0 0.1140000774
H  H38  1  0.92770000  0.36920000  0.24960000  1.0 0.1140000774
H  H39  1  0.42770000  0.13080000  0.24960000  1.0 0.1140000774
H  H40  1  0.57230000  0.86920000  0.74960000  1.0 0.1140000774
H  H41  1  0.92920000  0.73180000  0.87790000  1.0 0.1198166815
H  H42  1  0.07080000  0.26820000  0.37790000  1.0 0.1198166815
H  H43  1  0.57080000  0.23180000  0.37790000  1.0 0.1198166815
H  H44  1  0.42920000  0.76820000  0.87790000  1.0 0.1198166815
H  H45  1  0.94170000  0.63220000  0.92430000  1.0 0.1254071757
H  H46  1  0.05830000  0.36780000  0.42430000  1.0 0.1254071757
H  H47  1  0.55830000  0.13220000  0.42430000  1.0 0.1254071757
H  H48  1  0.44170000  0.86780000  0.92430000  1.0 0.1254071757
H  H49  1  0.87740000  0.71570000  0.71110000  1.0 0.1198166815
H  H50  1  0.12260000  0.28430000  0.21110000  1.0 0.1198166815
H  H51  1  0.62260000  0.21570000  0.21110000  1.0 0.1198166815
H  H52  1  0.37740000  0.78430000  0.71110000  1.0 0.1198166815
H  H53  1  0.97050000  0.91870000  0.69730000  1.0 0.1198166815
H  H54  1  0.02950000  0.08130000  0.19730000  1.0 0.1198166815
H  H55  1  0.52950000  0.41870000  0.19730000  1.0 0.1198166815
H  H56  1  0.47050000  0.58130000  0.69730000  1.0 0.1198166815
H  H57  1  0.06390000  0.82270000  0.83340000  1.0 0.1198166815
H  H58  1  0.93610000  0.17730000  0.33340000  1.0 0.1198166815
H  H59  1  0.43610000  0.32270000  0.33340000  1.0 0.1198166815
H  H60  1  0.56390000  0.67730000  0.83340000  1.0 0.1198166815
C  C1  1  0.18880000  0.15420000  0.85520000  1.0 0.5952956393
C  C2  1  0.81120000  0.84580000  0.35520000  1.0 0.5952956393
C  C3  1  0.31120000  0.65420000  0.35520000  1.0 0.5952956393
C  C4  1  0.68880000  0.34580000  0.85520000  1.0 0.5952956393
C  C5  1  0.15900000  0.08070000  0.83160000  1.0 0.0010657435
C  C6  1  0.84100000  0.91930000  0.33160000  1.0 0.0010657435
C  C7  1  0.34100000  0.58070000  0.33160000  1.0 0.0010657435
C  C8  1  0.65900000  0.41930000  0.83160000  1.0 0.0010657435
C  C9  1  0.22320000  0.06320000  0.78580000  1.0 -0.0889322825
C  C10  1  0.77680000  0.93680000  0.28580000  1.0 -0.0889322825
C  C11  1  0.27680000  0.56320000  0.28580000  1.0 -0.0889322825
C  C12  1  0.72320000  0.43680000  0.78580000  1.0 -0.0889322825
C  C13  1  0.18200000  0.99790000  0.76390000  1.0 -0.1421769545
C  C14  1  0.81800000  0.00210000  0.26390000  1.0 -0.1421769545
C  C15  1  0.31800000  0.49790000  0.26390000  1.0 -0.1421769545
C  C16  1  0.68200000  0.50210000  0.76390000  1.0 -0.1421769545
C  C17  1  0.08240000  0.95140000  0.79230000  1.0 0.0595465056
C  C18  1  0.91760000  0.04860000  0.29230000  1.0 0.0595465056
C  C19  1  0.41760000  0.45140000  0.29230000  1.0 0.0595465056
C  C20  1  0.58240000  0.54860000  0.79230000  1.0 0.0595465056
C  C21  1  0.02690000  0.96660000  0.84200000  1.0 -0.120984428
C  C22  1  0.97310000  0.03340000  0.34200000  1.0 -0.120984428
C  C23  1  0.47310000  0.46660000  0.34200000  1.0 -0.120984428
C  C24  1  0.52690000  0.53340000  0.84200000  1.0 -0.120984428
C  C25  1  0.05970000  0.03270000  0.86040000  1.0 -0.0782130347
C  C26  1  0.94030000  0.96730000  0.36040000  1.0 -0.0782130347
C  C27  1  0.44030000  0.53270000  0.36040000  1.0 -0.0782130347
C  C28  1  0.55970000  0.46730000  0.86040000  1.0 -0.0782130347
C  C29  1  0.02790000  0.88140000  0.77040000  1.0 0.0997576505
C  C30  1  0.97210000  0.11860000  0.27040000  1.0 0.0997576505
C  C31  1  0.47210000  0.38140000  0.27040000  1.0 0.0997576505
C  C32  1  0.52790000  0.61860000  0.77040000  1.0 0.0997576505
C  C33  1  0.60540000  0.82360000  0.48900000  1.0 0.5625778749
C  C34  1  0.39460000  0.17640000  0.98900000  1.0 0.5625778749
C  C35  1  0.89460000  0.32360000  0.98900000  1.0 0.5625778749
C  C36  1  0.10540000  0.67640000  0.48900000  1.0 0.5625778749
C  C37  1  0.68320000  0.82130000  0.54260000  1.0 -0.0134726637
C  C38  1  0.31680000  0.17870000  0.04260000  1.0 -0.0134726637
C  C39  1  0.81680000  0.32130000  0.04260000  1.0 -0.0134726637
C  C40  1  0.18320000  0.67870000  0.54260000  1.0 -0.0134726637
C  C41  1  0.66870000  0.87800000  0.57640000  1.0 -0.0889322825
C  C42  1  0.33130000  0.12200000  0.07640000  1.0 -0.0889322825
C  C43  1  0.83130000  0.37800000  0.07640000  1.0 -0.0889322825
C  C44  1  0.16870000  0.62200000  0.57640000  1.0 -0.0889322825
C  C45  1  0.73800000  0.87610000  0.62420000  1.0 -0.1421769545
C  C46  1  0.26200000  0.12390000  0.12420000  1.0 -0.1421769545
C  C47  1  0.76200000  0.37610000  0.12420000  1.0 -0.1421769545
C  C48  1  0.23800000  0.62390000  0.62420000  1.0 -0.1421769545
C  C49  1  0.77360000  0.76260000  0.56080000  1.0 -0.0889322825
C  C50  1  0.22640000  0.23740000  0.06080000  1.0 -0.0889322825
C  C51  1  0.72640000  0.26260000  0.06080000  1.0 -0.0889322825
C  C52  1  0.27360000  0.73740000  0.56080000  1.0 -0.0889322825
C  C53  1  0.84140000  0.76100000  0.61030000  1.0 -0.1509120114
C  C54  1  0.15860000  0.23900000  0.11030000  1.0 -0.1509120114
C  C55  1  0.65860000  0.26100000  0.11030000  1.0 -0.1509120114
C  C56  1  0.34140000  0.73900000  0.61030000  1.0 -0.1509120114
C  C57  1  0.03650000  0.50430000  0.89510000  1.0 0.5625778749
C  C58  1  0.96350000  0.49570000  0.39510000  1.0 0.5625778749
C  C59  1  0.46350000  0.00430000  0.39510000  1.0 0.5625778749
C  C60  1  0.53650000  0.99570000  0.89510000  1.0 0.5625778749
C  C61  1  0.02410000  0.56990000  0.86690000  1.0 -0.0465213381
C  C62  1  0.97590000  0.43010000  0.36690000  1.0 -0.0465213381
C  C63  1  0.47590000  0.06990000  0.36690000  1.0 -0.0465213381
C  C64  1  0.52410000  0.93010000  0.86690000  1.0 -0.0465213381
C  C65  1  0.06160000  0.57220000  0.81330000  1.0 -0.0889322825
C  C66  1  0.93840000  0.42780000  0.31330000  1.0 -0.0889322825
C  C67  1  0.43840000  0.07220000  0.31330000  1.0 -0.0889322825
C  C68  1  0.56160000  0.92780000  0.81330000  1.0 -0.0889322825
C  C69  1  0.04700000  0.63160000  0.78490000  1.0 -0.1509120114
C  C70  1  0.95300000  0.36840000  0.28490000  1.0 -0.1509120114
C  C71  1  0.45300000  0.13160000  0.28490000  1.0 -0.1509120114
C  C72  1  0.54700000  0.86840000  0.78490000  1.0 -0.1509120114
C  C73  1  0.99540000  0.69230000  0.80820000  1.0 0.0595465056
C  C74  1  0.00460000  0.30770000  0.30820000  1.0 0.0595465056
C  C75  1  0.50460000  0.19230000  0.30820000  1.0 0.0595465056
C  C76  1  0.49540000  0.80770000  0.80820000  1.0 0.0595465056
C  C77  1  0.96100000  0.69060000  0.86120000  1.0 -0.1509120114
C  C78  1  0.03900000  0.30940000  0.36120000  1.0 -0.1509120114
C  C79  1  0.53900000  0.19060000  0.36120000  1.0 -0.1509120114
C  C80  1  0.46100000  0.80940000  0.86120000  1.0 -0.1509120114
C  C81  1  0.97110000  0.63130000  0.88920000  1.0 -0.0889322825
C  C82  1  0.02890000  0.36870000  0.38920000  1.0 -0.0889322825
C  C83  1  0.52890000  0.13130000  0.38920000  1.0 -0.0889322825
C  C84  1  0.47110000  0.86870000  0.88920000  1.0 -0.0889322825
C  C85  1  0.97600000  0.75840000  0.77700000  1.0 0.0878402456
C  C86  1  0.02400000  0.24160000  0.27700000  1.0 0.0878402456
C  C87  1  0.52400000  0.25840000  0.27700000  1.0 0.0878402456
C  C88  1  0.47600000  0.74160000  0.77700000  1.0 0.0878402456
C  C89  1  0.91390000  0.75770000  0.72570000  1.0 -0.1835537203
C  C90  1  0.08610000  0.24230000  0.22570000  1.0 -0.1835537203
C  C91  1  0.58610000  0.25770000  0.22570000  1.0 -0.1835537203
C  C92  1  0.41390000  0.74230000  0.72570000  1.0 -0.1835537203
C  C93  1  0.90520000  0.81680000  0.69660000  1.0 0.076082544
C  C94  1  0.09480000  0.18320000  0.19660000  1.0 0.076082544
C  C95  1  0.59480000  0.31680000  0.19660000  1.0 0.076082544
C  C96  1  0.40520000  0.68320000  0.69660000  1.0 0.076082544
C  C97  1  0.96770000  0.87880000  0.71750000  1.0 -0.2047674194
C  C98  1  0.03230000  0.12120000  0.21750000  1.0 -0.2051179246
C  C99  1  0.53230000  0.37880000  0.21750000  1.0 -0.2051179246
C  C100  1  0.46770000  0.62120000  0.71750000  1.0 -0.2047674194
C  C101  1  0.02810000  0.82130000  0.79880000  1.0 -0.1835537203
C  C102  1  0.97190000  0.17870000  0.29880000  1.0 -0.1835537203
C  C103  1  0.47190000  0.32130000  0.29880000  1.0 -0.1835537203
C  C104  1  0.52810000  0.67870000  0.79880000  1.0 -0.1835537203
C  C105  1  0.82830000  0.81950000  0.64340000  1.0 0.0595465056
C  C106  1  0.17170000  0.18050000  0.14340000  1.0 0.0595465056
C  C107  1  0.67170000  0.31950000  0.14340000  1.0 0.0595465056
C  C108  1  0.32830000  0.68050000  0.64340000  1.0 0.0595465056
O  O1  1  0.62090000  0.77120000  0.46080000  1.0 -0.6213554427
O  O2  1  0.37910000  0.22880000  0.96080000  1.0 -0.6213554427
O  O3  1  0.87910000  0.27120000  0.96080000  1.0 -0.6213554427
O  O4  1  0.12090000  0.72880000  0.46080000  1.0 -0.6213554427
O  O5  1  0.51380000  0.87550000  0.47420000  1.0 -0.5305955396
O  O6  1  0.48620000  0.12450000  0.97420000  1.0 -0.5305955396
O  O7  1  0.98620000  0.37550000  0.97420000  1.0 -0.5305955396
O  O8  1  0.01380000  0.62450000  0.47420000  1.0 -0.5305955396
O  O9  1  0.10960000  0.45160000  0.87610000  1.0 -0.6044874475
O  O10  1  0.89040000  0.54840000  0.37610000  1.0 -0.608455736
O  O11  1  0.39040000  0.95160000  0.37610000  1.0 -0.608455736
O  O12  1  0.60960000  0.04840000  0.87610000  1.0 -0.6044874475
O  O13  1  0.97110000  0.50380000  0.94010000  1.0 -0.4846311495
O  O14  1  0.02890000  0.49620000  0.44010000  1.0 -0.4846311495
O  O15  1  0.52890000  0.00380000  0.44010000  1.0 -0.4846311495
O  O16  1  0.47110000  0.99620000  0.94010000  1.0 -0.4846311495
O  O17  1  0.05840000  0.17710000  0.87980000  1.0 -0.608455736
O  O18  1  0.94160000  0.82290000  0.37980000  1.0 -0.608455736
O  O19  1  0.44160000  0.67710000  0.37980000  1.0 -0.608455736
O  O20  1  0.55840000  0.32290000  0.87980000  1.0 -0.608455736
O  O21  1  0.32570000  0.18590000  0.84160000  1.0 -0.5737029746
O  O22  1  0.67430000  0.81410000  0.34160000  1.0 -0.5737029746
O  O23  1  0.17430000  0.68590000  0.34160000  1.0 -0.5737029746
O  O24  1  0.82570000  0.31410000  0.84160000  1.0 -0.5737029746
