# DDEC6 charges by PACMAN v1.1 (https://github.com/mtap-research/PACMAN-charge/)
data_KALFUA_FSR_pacman
_symmetry_space_group_name_H-M   'P 1'
_cell_length_a   20.01270000
_cell_length_b   17.97630000
_cell_length_c   14.04350000
_cell_angle_alpha   76.26710000
_cell_angle_beta   60.75870000
_cell_angle_gamma   42.97420000
_symmetry_Int_Tables_number   1
_chemical_formula_structural   Ni2H36C46N4O9
_chemical_formula_sum   'Ni4 H72 C92 N8 O18'
_cell_volume   2943.27056270
_cell_formula_units_Z   2
loop_
 _symmetry_equiv_pos_site_id
 _symmetry_equiv_pos_as_xyz
  1  'x, y, z'
loop_
 _atom_site_type_symbol
 _atom_site_label
 _atom_site_symmetry_multiplicity
 _atom_site_fract_x
 _atom_site_fract_y
 _atom_site_fract_z
 _atom_site_occupancy
 _atom_site_charge
Ni  Ni1  1  0.29700000  0.50072000  0.72292000  1.0 0.8008461224
Ni  Ni2  1  0.50072000  0.29700000  0.47936000  1.0 0.8008461224
Ni  Ni3  1  0.52708000  0.77064000  0.95300000  1.0 0.8008461224
Ni  Ni4  1  0.77064000  0.52708000  0.74928000  1.0 0.8008461224
H  H1  1  0.08910000  0.74950000  0.78470000  1.0 0.1096325929
H  H2  1  0.74950000  0.08910000  0.37670000  1.0 0.1096325929
H  H3  1  0.46530000  0.87330000  0.16090000  1.0 0.1096325929
H  H4  1  0.87330000  0.46530000  0.50050000  1.0 0.1096325929
H  H5  1  0.00060000  0.91260000  0.87140000  1.0 0.1291064689
H  H6  1  0.91260000  0.00060000  0.21540000  1.0 0.1291064689
H  H7  1  0.37860000  0.03460000  0.24940000  1.0 0.1291064689
H  H8  1  0.03460000  0.37860000  0.33740000  1.0 0.1291064689
H  H9  1  0.24550000  0.73050000  0.95170000  1.0 0.1291064689
H  H10  1  0.73050000  0.24550000  0.07230000  1.0 0.1291064689
H  H11  1  0.29830000  0.17770000  0.00450000  1.0 0.1291064689
H  H12  1  0.17770000  0.29830000  0.51950000  1.0 0.1291064689
H  H13  1  0.30700000  0.39900000  0.64300000  1.0 0.3130361962
H  H14  1  0.39900000  0.30700000  0.65100000  1.0 0.3130361962
H  H15  1  0.60700000  0.59900000  0.94300000  1.0 0.3130361962
H  H16  1  0.59900000  0.60700000  0.85100000  1.0 0.3130361962
H  H17  1  0.33010000  0.57570000  0.85610000  1.0 0.1096325929
H  H18  1  0.57570000  0.33010000  0.23810000  1.0 0.1096325929
H  H19  1  0.39390000  0.01190000  0.91990000  1.0 0.1096325929
H  H20  1  0.01190000  0.39390000  0.67430000  1.0 0.1096325929
H  H21  1  0.06510000  0.92710000  0.05690000  1.0 0.0908104631
H  H22  1  0.92710000  0.06510000  0.95090000  1.0 0.0908104631
H  H23  1  0.19310000  0.29910000  0.18490000  1.0 0.0908104631
H  H24  1  0.29910000  0.19310000  0.32290000  1.0 0.0908104631
H  H25  1  0.12760000  0.97880000  0.84160000  1.0 0.1045006553
H  H26  1  0.97880000  0.12760000  0.05200000  1.0 0.1045006553
H  H27  1  0.40840000  0.19800000  0.12240000  1.0 0.1045006553
H  H28  1  0.19800000  0.40840000  0.27120000  1.0 0.1045006553
H  H29  1  0.13070000  0.99370000  0.09190000  1.0 0.1291064689
H  H30  1  0.99370000  0.13070000  0.78370000  1.0 0.1291064689
H  H31  1  0.15810000  0.46630000  0.11930000  1.0 0.1291064689
H  H32  1  0.46630000  0.15810000  0.25630000  1.0 0.1291064689
H  H33  1  0.28120000  0.91580000  0.09640000  1.0 0.1096325929
H  H34  1  0.91580000  0.28120000  0.70660000  1.0 0.1096325929
H  H35  1  0.15360000  0.54340000  0.96880000  1.0 0.1096325929
H  H36  1  0.54340000  0.15360000  0.33420000  1.0 0.1096325929
H  H37  1  0.46780000  0.79120000  0.77820000  1.0 0.1096325929
H  H38  1  0.79120000  0.46780000  0.96280000  1.0 0.1096325929
H  H39  1  0.47180000  0.28720000  0.78220000  1.0 0.1096325929
H  H40  1  0.28720000  0.47180000  0.45880000  1.0 0.1096325929
H  H41  1  0.31600000  0.87000000  0.76440000  1.0 0.1400715786
H  H42  1  0.87000000  0.31600000  0.04960000  1.0 0.1400715786
H  H43  1  0.48560000  0.20040000  0.93400000  1.0 0.1400715786
H  H44  1  0.20040000  0.48560000  0.38000000  1.0 0.1400715786
H  H45  1  0.17850000  0.77070000  0.54990000  1.0 0.0712545007
H  H46  1  0.77070000  0.17850000  0.50090000  1.0 0.0712545007
H  H47  1  0.70010000  0.74910000  0.07150000  1.0 0.0712545007
H  H48  1  0.74910000  0.70010000  0.47930000  1.0 0.0712545007
H  H49  1  0.17890000  0.90170000  0.47290000  1.0 0.0546241345
H  H50  1  0.90170000  0.17890000  0.44650000  1.0 0.0546241345
H  H51  1  0.77710000  0.80350000  0.07110000  1.0 0.0546241345
H  H52  1  0.80350000  0.77710000  0.34830000  1.0 0.0546241345
H  H53  1  0.29640000  0.85980000  0.29160000  1.0 0.0606273468
H  H54  1  0.85980000  0.29640000  0.55220000  1.0 0.0606273468
H  H55  1  0.95840000  0.69780000  0.95360000  1.0 0.0606273468
H  H56  1  0.69780000  0.95840000  0.39020000  1.0 0.0606273468
H  H57  1  0.47690000  0.53490000  0.28170000  1.0 0.1235101225
H  H58  1  0.53490000  0.47690000  0.70650000  1.0 0.1235101225
H  H59  1  0.96830000  0.54350000  0.77310000  1.0 0.1235101225
H  H60  1  0.54350000  0.96830000  0.71510000  1.0 0.1235101225
H  H61  1  0.79030000  0.68370000  0.49170000  1.0 0.0908104631
H  H62  1  0.68370000  0.79030000  0.03430000  1.0 0.0908104631
H  H63  1  0.75830000  0.21570000  0.45970000  1.0 0.0908104631
H  H64  1  0.21570000  0.75830000  0.56630000  1.0 0.0908104631
H  H65  1  0.87300000  0.74660000  0.38540000  1.0 0.0798043424
H  H66  1  0.74660000  0.87300000  0.99500000  1.0 0.0798043424
H  H67  1  0.86460000  0.25500000  0.37700000  1.0 0.0798043424
H  H68  1  0.25500000  0.86460000  0.50340000  1.0 0.0798043424
H  H69  1  0.75560000  0.93700000  0.42120000  1.0 0.0712545007
H  H70  1  0.93700000  0.75560000  0.88620000  1.0 0.0712545007
H  H71  1  0.82880000  0.36380000  0.49440000  1.0 0.0712545007
H  H72  1  0.36380000  0.82880000  0.31300000  1.0 0.0712545007
C  C1  1  0.12180000  0.74580000  0.81760000  1.0 0.0546241345
C  C2  1  0.74580000  0.12180000  0.31480000  1.0 0.0606273468
C  C3  1  0.43240000  0.93520000  0.12820000  1.0 0.0606273468
C  C4  1  0.93520000  0.43240000  0.50420000  1.0 0.0606273468
C  C5  1  0.06590000  0.84510000  0.87210000  1.0 -0.2365040926
C  C6  1  0.84510000  0.06590000  0.21690000  1.0 -0.2365040926
C  C7  1  0.37790000  0.03310000  0.18410000  1.0 -0.2365040926
C  C8  1  0.03310000  0.37790000  0.40490000  1.0 -0.2365040926
C  C9  1  0.10980000  0.84240000  0.92920000  1.0 0.1291064689
C  C10  1  0.84240000  0.10980000  0.11860000  1.0 0.1291064689
C  C11  1  0.32080000  0.13140000  0.14020000  1.0 0.1291064689
C  C12  1  0.13140000  0.32080000  0.40760000  1.0 0.1291064689
C  C13  1  0.21140000  0.73720000  0.91840000  1.0 -0.2031226342
C  C14  1  0.73720000  0.21140000  0.13300000  1.0 -0.2031226342
C  C15  1  0.33160000  0.11700000  0.03860000  1.0 -0.2031226342
C  C16  1  0.11700000  0.33160000  0.51280000  1.0 -0.2031226342
C  C17  1  0.26240000  0.64360000  0.86020000  1.0 0.0798043424
C  C18  1  0.64360000  0.26240000  0.23380000  1.0 0.0798043424
C  C19  1  0.38980000  0.01620000  0.98760000  1.0 0.0798043424
C  C20  1  0.01620000  0.38980000  0.60640000  1.0 0.0798043424
C  C21  1  0.06020000  0.94180000  0.98760000  1.0 -0.0993578357
C  C22  1  0.94180000  0.06020000  0.01040000  1.0 -0.0993578357
C  C23  1  0.26240000  0.23960000  0.18980000  1.0 -0.0993578357
C  C24  1  0.23960000  0.26240000  0.30820000  1.0 -0.0993578357
C  C25  1  0.10850000  0.98830000  0.91970000  1.0 -0.0993578357
C  C26  1  0.98830000  0.10850000  0.98350000  1.0 -0.0993578357
C  C27  1  0.33030000  0.26650000  0.14150000  1.0 -0.0993578357
C  C28  1  0.26650000  0.33030000  0.26170000  1.0 -0.0993578357
C  C29  1  0.20570000  0.94250000  0.92510000  1.0 0.1291064689
C  C30  1  0.94250000  0.20570000  0.92670000  1.0 0.1291064689
C  C31  1  0.32490000  0.32330000  0.04430000  1.0 0.1291064689
C  C32  1  0.32330000  0.32490000  0.30750000  1.0 0.1291064689
C  C33  1  0.19830000  0.95350000  0.02650000  1.0 -0.2076906038
C  C34  1  0.95350000  0.19830000  0.82170000  1.0 -0.2076906038
C  C35  1  0.22350000  0.42830000  0.05170000  1.0 -0.2076906038
C  C36  1  0.42830000  0.22350000  0.29650000  1.0 -0.2076906038
C  C37  1  0.28880000  0.90600000  0.02840000  1.0 0.0712545007
C  C38  1  0.90600000  0.28880000  0.77680000  1.0 0.0712545007
C  C39  1  0.22160000  0.47320000  0.96120000  1.0 0.0712545007
C  C40  1  0.47320000  0.22160000  0.34400000  1.0 0.0712545007
C  C41  1  0.39880000  0.83280000  0.84180000  1.0 0.1096325929
C  C42  1  0.83280000  0.39880000  0.92660000  1.0 0.1096325929
C  C43  1  0.40820000  0.32340000  0.85120000  1.0 0.1096325929
C  C44  1  0.32340000  0.40820000  0.41720000  1.0 0.1096325929
C  C45  1  0.30710000  0.88070000  0.83290000  1.0 -0.2031226342
C  C46  1  0.88070000  0.30710000  0.97930000  1.0 -0.2031226342
C  C47  1  0.41710000  0.27070000  0.94290000  1.0 -0.2031226342
C  C48  1  0.27070000  0.41710000  0.36930000  1.0 -0.2031226342
C  C49  1  0.34660000  0.63160000  0.43080000  1.0 -0.0108650393
C  C50  1  0.63160000  0.34660000  0.59100000  1.0 -0.0108650393
C  C51  1  0.81920000  0.65900000  0.90340000  1.0 -0.0108650393
C  C52  1  0.65900000  0.81920000  0.61840000  1.0 -0.0108650393
C  C53  1  0.23910000  0.75030000  0.48510000  1.0 -0.0581675188
C  C54  1  0.75030000  0.23910000  0.52550000  1.0 -0.0581675188
C  C55  1  0.76490000  0.72450000  0.01090000  1.0 -0.0581675188
C  C56  1  0.72450000  0.76490000  0.49970000  1.0 -0.0581675188
C  C57  1  0.23460000  0.82920000  0.43300000  1.0 -0.0581675188
C  C58  1  0.82920000  0.23460000  0.50320000  1.0 -0.0581675188
C  C59  1  0.81700000  0.74680000  0.01540000  1.0 -0.0533337088
C  C60  1  0.74680000  0.81700000  0.42080000  1.0 -0.0533337088
C  C61  1  0.30860000  0.80280000  0.32660000  1.0 -0.0279444042
C  C62  1  0.80280000  0.30860000  0.56200000  1.0 -0.0279444042
C  C63  1  0.92340000  0.68800000  0.94140000  1.0 -0.0279444042
C  C64  1  0.68800000  0.92340000  0.44720000  1.0 -0.0279444042
C  C65  1  0.40530000  0.69070000  0.26510000  1.0 -0.0108650393
C  C66  1  0.69070000  0.40530000  0.63890000  1.0 -0.0108650393
C  C67  1  0.98490000  0.61110000  0.84470000  1.0 -0.0108650393
C  C68  1  0.61110000  0.98490000  0.55930000  1.0 -0.0108650393
C  C69  1  0.41790000  0.60810000  0.32090000  1.0 -0.2314710577
C  C70  1  0.60810000  0.41790000  0.65310000  1.0 -0.2314710577
C  C71  1  0.92910000  0.59690000  0.83210000  1.0 -0.2314710577
C  C72  1  0.59690000  0.92910000  0.64190000  1.0 -0.2314710577
C  C73  1  0.35930000  0.54490000  0.49110000  1.0 0.5397649186
C  C74  1  0.54490000  0.35930000  0.60470000  1.0 0.5397649186
C  C75  1  0.75890000  0.64530000  0.89070000  1.0 0.5397649186
C  C76  1  0.64530000  0.75890000  0.70510000  1.0 0.5397649186
C  C77  1  0.47980000  0.66880000  0.14540000  1.0 0.5397649186
C  C78  1  0.66880000  0.47980000  0.70600000  1.0 0.5397649186
C  C79  1  0.10460000  0.54400000  0.77020000  1.0 0.5397649186
C  C80  1  0.54400000  0.10460000  0.58120000  1.0 0.5397649186
C  C81  1  0.75530000  0.75390000  0.51450000  1.0 -0.0197949733
C  C82  1  0.75390000  0.75530000  0.97630000  1.0 -0.0197949733
C  C83  1  0.73550000  0.27370000  0.49470000  1.0 -0.0197949733
C  C84  1  0.27370000  0.73550000  0.49610000  1.0 -0.0197949733
C  C85  1  0.80000000  0.79460000  0.44340000  1.0 -0.0581675188
C  C86  1  0.79460000  0.80000000  0.96200000  1.0 -0.0674325598
C  C87  1  0.80660000  0.28800000  0.45000000  1.0 -0.0581675188
C  C88  1  0.28800000  0.80660000  0.45540000  1.0 -0.0674325598
C  C89  1  0.72970000  0.90750000  0.46510000  1.0 -0.0279444042
C  C90  1  0.90750000  0.72970000  0.89770000  1.0 -0.0279444042
C  C91  1  0.78490000  0.35230000  0.52030000  1.0 -0.0279444042
C  C92  1  0.35230000  0.78490000  0.34250000  1.0 -0.0279444042
N  N1  1  0.22080000  0.64340000  0.80800000  1.0 -0.2492933532
N  N2  1  0.64340000  0.22080000  0.32780000  1.0 -0.2492933532
N  N3  1  0.44200000  0.92220000  0.02920000  1.0 -0.2492933532
N  N4  1  0.92220000  0.44200000  0.60660000  1.0 -0.2492933532
N  N5  1  0.38990000  0.84530000  0.93870000  1.0 -0.2314710577
N  N6  1  0.84530000  0.38990000  0.82610000  1.0 -0.2314710577
N  N7  1  0.31130000  0.42390000  0.86010000  1.0 -0.2314710577
N  N8  1  0.42390000  0.31130000  0.40470000  1.0 -0.2314710577
O  O1  1  0.28255000  0.57535000  0.58765000  1.0 -0.530883841
O  O2  1  0.57535000  0.28255000  0.55445000  1.0 -0.530883841
O  O3  1  0.66235000  0.69555000  0.96745000  1.0 -0.530883841
O  O4  1  0.69555000  0.66235000  0.67465000  1.0 -0.530883841
O  O5  1  0.44599000  0.44499000  0.44101000  1.0 -0.5470631344
O  O6  1  0.44499000  0.44599000  0.66801000  1.0 -0.5470631344
O  O7  1  0.80899000  0.58199000  0.80401000  1.0 -0.5470631344
O  O8  1  0.58199000  0.80899000  0.80501000  1.0 -0.5470631344
O  O9  1  0.46094000  0.74934000  0.10986000  1.0 -0.5391884891
O  O10  1  0.74934000  0.46094000  0.67986000  1.0 -0.5391884891
O  O11  1  0.14014000  0.57014000  0.78906000  1.0 -0.5391884891
O  O12  1  0.57014000  0.14014000  0.50066000  1.0 -0.5391884891
O  O13  1  0.55810000  0.57110000  0.08790000  1.0 -0.5391884891
O  O14  1  0.57110000  0.55810000  0.78290000  1.0 -0.5391884891
O  O15  1  0.16210000  0.46710000  0.69190000  1.0 -0.5391884891
O  O16  1  0.46710000  0.16210000  0.67890000  1.0 -0.5391884891
O  O17  1  0.36270000  0.36270000  0.63730000  1.0 -0.5848631037
O  O18  1  0.61270000  0.61270000  0.88730000  1.0 -0.5859923733
