# DDEC6 charges by PACMAN v1.1 (https://github.com/mtap-research/PACMAN-charge/)
data_KALHAK_ASR_pacman
_symmetry_space_group_name_H-M   'P 1'
_cell_length_a   6.61970000
_cell_length_b   9.48960000
_cell_length_c   9.51030000
_cell_angle_alpha   107.98000000
_cell_angle_beta   93.16100000
_cell_angle_gamma   107.63600000
_symmetry_Int_Tables_number   1
_chemical_formula_structural   AlC8O5
_chemical_formula_sum   'Al2 C16 O10'
_cell_volume   534.20554369
_cell_formula_units_Z   2
loop_
 _symmetry_equiv_pos_site_id
 _symmetry_equiv_pos_as_xyz
  1  'x, y, z'
loop_
 _atom_site_type_symbol
 _atom_site_label
 _atom_site_symmetry_multiplicity
 _atom_site_fract_x
 _atom_site_fract_y
 _atom_site_fract_z
 _atom_site_occupancy
 _atom_site_charge
Al  Al1  1  0.00000000  0.00000000  0.00000000  1.0 1.6539740641
Al  Al2  1  0.50000000  0.00000000  0.00000000  1.0 1.6668386538
C  C1  1  0.37600000  0.23800000  0.22200000  1.0 0.6598914642
C  C2  1  0.46300000  0.40200000  0.34800000  1.0 -0.0927338174
C  C3  1  0.64200000  0.40400000  0.45900000  1.0 0.0785245266
C  C4  1  0.27200000  0.42200000  0.43100000  1.0 0.0492434357
C  C5  1  0.83200000  0.22000000  0.89000000  1.0 0.6598914642
C  C6  1  0.88500000  0.36700000  0.84700000  1.0 -0.0927338174
C  C7  1  0.77800000  0.47000000  0.94700000  1.0 -0.0376926638
C  C8  1  0.13000000  0.46200000  0.88800000  1.0 0.0150526356
C  C9  1  0.62400000  0.76200000  0.77800000  1.0 0.6598914642
C  C10  1  0.53700000  0.59800000  0.65200000  1.0 -0.0927338174
C  C11  1  0.35800000  0.59600000  0.54100000  1.0 0.0785245266
C  C12  1  0.72800000  0.57800000  0.56900000  1.0 0.0492434357
C  C13  1  0.16800000  0.78000000  0.11000000  1.0 0.6598914642
C  C14  1  0.11500000  0.63300000  0.15300000  1.0 -0.0953101735
C  C15  1  0.22200000  0.53000000  0.05300000  1.0 -0.0376926638
C  C16  1  0.87000000  0.53800000  0.11200000  1.0 0.0150526356
O  O1  1  0.51400000  0.17100000  0.17930000  1.0 -0.4921293776
O  O2  1  0.16700000  0.16150000  0.17120000  1.0 -0.5086593549
O  O3  1  0.97200000  0.15770000  0.92410000  1.0 -0.4592556279
O  O4  1  0.64700000  0.14260000  0.90960000  1.0 -0.471424691
O  O5  1  0.23800000  0.99780000  0.91360000  1.0 -0.9747547429
O  O6  1  0.48600000  0.82900000  0.82070000  1.0 -0.4921293776
O  O7  1  0.83300000  0.83850000  0.82880000  1.0 -0.5086593549
O  O8  1  0.02800000  0.84230000  0.07590000  1.0 -0.4592556279
O  O9  1  0.35300000  0.85740000  0.09040000  1.0 -0.471424691
O  O10  1  0.76200000  0.00220000  0.08640000  1.0 -0.9594299715
