# DDEC6 charges by PACMAN v1.1 (https://github.com/mtap-research/PACMAN-charge/)
data_KALHUE_FSR_pacman
_symmetry_space_group_name_H-M   'P 1'
_cell_length_a   6.62270000
_cell_length_b   9.41450000
_cell_length_c   9.44510000
_cell_angle_alpha   107.31600000
_cell_angle_beta   107.78800000
_cell_angle_gamma   93.44500000
_symmetry_Int_Tables_number   1
_chemical_formula_structural   AlC8O5
_chemical_formula_sum   'Al2 C16 O10'
_cell_volume   527.89007934
_cell_formula_units_Z   2
loop_
 _symmetry_equiv_pos_site_id
 _symmetry_equiv_pos_as_xyz
  1  'x, y, z'
loop_
 _atom_site_type_symbol
 _atom_site_label
 _atom_site_symmetry_multiplicity
 _atom_site_fract_x
 _atom_site_fract_y
 _atom_site_fract_z
 _atom_site_occupancy
 _atom_site_charge
Al  Al1  1  0.00000000  0.00000000  0.00000000  1.0 1.6684921785
Al  Al2  1  0.50000000  0.00000000  0.00000000  1.0 1.6684921785
C  C1  1  0.62100000  0.77300000  0.76000000  1.0 0.6600795193
C  C2  1  0.53900000  0.65100000  0.60200000  1.0 -0.1099411203
C  C3  1  0.35500000  0.54100000  0.60100000  1.0 0.0688603027
C  C4  1  0.72300000  0.57000000  0.56900000  1.0 0.0688603027
C  C5  1  0.17200000  0.10700000  0.77200000  1.0 0.6722189588
C  C6  1  0.11700000  0.15100000  0.62600000  1.0 -0.1099411203
C  C7  1  0.23300000  0.05200000  0.53000000  1.0 -0.0429792022
C  C8  1  0.87600000  0.11500000  0.54400000  1.0 0.0237085214
C  C9  1  0.37900000  0.22700000  0.24000000  1.0 0.6600795193
C  C10  1  0.46100000  0.34900000  0.39800000  1.0 -0.1099411203
C  C11  1  0.64500000  0.45900000  0.39900000  1.0 0.0688603027
C  C12  1  0.27700000  0.43000000  0.43100000  1.0 0.0688603027
C  C13  1  0.82800000  0.89300000  0.22800000  1.0 0.6722189588
C  C14  1  0.88300000  0.84900000  0.37400000  1.0 -0.1099411203
C  C15  1  0.76700000  0.94800000  0.47000000  1.0 -0.0429792022
C  C16  1  0.12400000  0.88500000  0.45600000  1.0 0.0237085214
O  O1  1  0.48500000  0.83480000  0.82170000  1.0 -0.4957797424
O  O2  1  0.82500000  0.82380000  0.83820000  1.0 -0.5065936642
O  O3  1  0.02600000  0.08270000  0.83390000  1.0 -0.4718525605
O  O4  1  0.36200000  0.10130000  0.86320000  1.0 -0.4899667995
O  O5  1  0.76300000  0.09150000  0.00270000  1.0 -0.9354905682
O  O6  1  0.51500000  0.16520000  0.17830000  1.0 -0.4957797424
O  O7  1  0.17500000  0.17620000  0.16180000  1.0 -0.5065936642
O  O8  1  0.97400000  0.91730000  0.16610000  1.0 -0.4718525605
O  O9  1  0.63800000  0.89870000  0.13680000  1.0 -0.4899667995
O  O10  1  0.23700000  0.90850000  0.99730000  1.0 -0.9348405795
