# DDEC6 charges by PACMAN v1.1 (https://github.com/mtap-research/PACMAN-charge/)
data_KANMIX_ASR_pacman
_symmetry_space_group_name_H-M   'P 1'
_cell_length_a   18.99750000
_cell_length_b   18.99750000
_cell_length_c   13.45660000
_cell_angle_alpha   90.00000000
_cell_angle_beta   90.00000000
_cell_angle_gamma   120.00000000
_symmetry_Int_Tables_number   1
_chemical_formula_structural   Cu2H9C19N3O8
_chemical_formula_sum   'Cu12 H54 C114 N18 O48'
_cell_volume   4205.89940481
_cell_formula_units_Z   6
loop_
 _symmetry_equiv_pos_site_id
 _symmetry_equiv_pos_as_xyz
  1  'x, y, z'
loop_
 _atom_site_type_symbol
 _atom_site_label
 _atom_site_symmetry_multiplicity
 _atom_site_fract_x
 _atom_site_fract_y
 _atom_site_fract_z
 _atom_site_occupancy
 _atom_site_charge
Cu  Cu1  1  0.37722000  0.18861000  0.26126000  1.0 0.8200180768
Cu  Cu2  1  0.18861000  0.37722000  0.76126000  1.0 0.8200180768
Cu  Cu3  1  0.81139000  0.18861000  0.26126000  1.0 0.8200180768
Cu  Cu4  1  0.62278000  0.81139000  0.76126000  1.0 0.8200180768
Cu  Cu5  1  0.81139000  0.62278000  0.26126000  1.0 0.8200180768
Cu  Cu6  1  0.18861000  0.81139000  0.76126000  1.0 0.8200180768
Cu  Cu7  1  0.29268000  0.14634000  0.09340000  1.0 0.7777267435
Cu  Cu8  1  0.14634000  0.29268000  0.59340000  1.0 0.7777267435
Cu  Cu9  1  0.85366000  0.14634000  0.09340000  1.0 0.7777267435
Cu  Cu10  1  0.70732000  0.85366000  0.59340000  1.0 0.7777267435
Cu  Cu11  1  0.85366000  0.70732000  0.09340000  1.0 0.7777267435
Cu  Cu12  1  0.14634000  0.85366000  0.59340000  1.0 0.7777267435
H  H1  1  0.40840000  0.02180000  0.96060000  1.0 0.0899631388
H  H2  1  0.38660000  0.40840000  0.46060000  1.0 0.0899631388
H  H3  1  0.97820000  0.38660000  0.96060000  1.0 0.0899631388
H  H4  1  0.59160000  0.97820000  0.46060000  1.0 0.0899631388
H  H5  1  0.61340000  0.59160000  0.96060000  1.0 0.0899631388
H  H6  1  0.02180000  0.61340000  0.46060000  1.0 0.0899631388
H  H7  1  0.61340000  0.02180000  0.96060000  1.0 0.0899631388
H  H8  1  0.02180000  0.40840000  0.46060000  1.0 0.0899631388
H  H9  1  0.40840000  0.38660000  0.96060000  1.0 0.0899631388
H  H10  1  0.38660000  0.97820000  0.46060000  1.0 0.0899631388
H  H11  1  0.97820000  0.59160000  0.96060000  1.0 0.0899631388
H  H12  1  0.59160000  0.61340000  0.46060000  1.0 0.0899631388
H  H13  1  0.22490000  0.98030000  0.42860000  1.0 0.1194392904
H  H14  1  0.24460000  0.22490000  0.92860000  1.0 0.1194392904
H  H15  1  0.01970000  0.24460000  0.42860000  1.0 0.1194392904
H  H16  1  0.77510000  0.01970000  0.92860000  1.0 0.1194392904
H  H17  1  0.75540000  0.77510000  0.42860000  1.0 0.1194392904
H  H18  1  0.98030000  0.75540000  0.92860000  1.0 0.1194392904
H  H19  1  0.75540000  0.98030000  0.42860000  1.0 0.1194392904
H  H20  1  0.98030000  0.22490000  0.92860000  1.0 0.1194392904
H  H21  1  0.22490000  0.24460000  0.42860000  1.0 0.1194392904
H  H22  1  0.24460000  0.01970000  0.92860000  1.0 0.1194392904
H  H23  1  0.01970000  0.77510000  0.42860000  1.0 0.1194392904
H  H24  1  0.77510000  0.75540000  0.92860000  1.0 0.1194392904
H  H25  1  0.10030000  0.89960000  0.17510000  1.0 0.1397340734
H  H26  1  0.20070000  0.10030000  0.67510000  1.0 0.1397340734
H  H27  1  0.10040000  0.20070000  0.17510000  1.0 0.1397340734
H  H28  1  0.89970000  0.10040000  0.67510000  1.0 0.1397340734
H  H29  1  0.79930000  0.89970000  0.17510000  1.0 0.1397340734
H  H30  1  0.89960000  0.79930000  0.67510000  1.0 0.1397340734
H  H31  1  0.56860000  0.13730000  0.17900000  1.0 0.1503626644
H  H32  1  0.43130000  0.56860000  0.67900000  1.0 0.1503626644
H  H33  1  0.86270000  0.43130000  0.17900000  1.0 0.1503626644
H  H34  1  0.43140000  0.86270000  0.67900000  1.0 0.1503626644
H  H35  1  0.56870000  0.43140000  0.17900000  1.0 0.1503626644
H  H36  1  0.13730000  0.56870000  0.67900000  1.0 0.1503626644
H  H37  1  0.57100000  0.14200000  0.17440000  1.0 0.1503626644
H  H38  1  0.42900000  0.57100000  0.67440000  1.0 0.1503626644
H  H39  1  0.85800000  0.42900000  0.17440000  1.0 0.1503626644
H  H40  1  0.42900000  0.85800000  0.67440000  1.0 0.1503626644
H  H41  1  0.57100000  0.42900000  0.17440000  1.0 0.1503626644
H  H42  1  0.14200000  0.57100000  0.67440000  1.0 0.1503626644
H  H43  1  0.42880000  0.06380000  0.93620000  1.0 0.0899631388
H  H44  1  0.36500000  0.42880000  0.43620000  1.0 0.0899631388
H  H45  1  0.93620000  0.36500000  0.93620000  1.0 0.0899631388
H  H46  1  0.57120000  0.93620000  0.43620000  1.0 0.0899631388
H  H47  1  0.63500000  0.57120000  0.93620000  1.0 0.0899631388
H  H48  1  0.06380000  0.63500000  0.43620000  1.0 0.0899631388
H  H49  1  0.63500000  0.06380000  0.93620000  1.0 0.0899631388
H  H50  1  0.06380000  0.42880000  0.43620000  1.0 0.0899631388
H  H51  1  0.42880000  0.36500000  0.93620000  1.0 0.0899631388
H  H52  1  0.36500000  0.93620000  0.43620000  1.0 0.0899631388
H  H53  1  0.93620000  0.57120000  0.93620000  1.0 0.0899631388
H  H54  1  0.57120000  0.63500000  0.43620000  1.0 0.0899631388
C  C1  1  0.45920000  0.03890000  0.98870000  1.0 0.0463466538
C  C2  1  0.42030000  0.45920000  0.48870000  1.0 0.0463466538
C  C3  1  0.96110000  0.42030000  0.98870000  1.0 0.0463466538
C  C4  1  0.54080000  0.96110000  0.48870000  1.0 0.0463466538
C  C5  1  0.57970000  0.54080000  0.98870000  1.0 0.0463466538
C  C6  1  0.03890000  0.57970000  0.48870000  1.0 0.0463466538
C  C7  1  0.57970000  0.03890000  0.98870000  1.0 0.0447417784
C  C8  1  0.03890000  0.45920000  0.48870000  1.0 0.0463466538
C  C9  1  0.45920000  0.42030000  0.98870000  1.0 0.0463466538
C  C10  1  0.42030000  0.96110000  0.48870000  1.0 0.0463466538
C  C11  1  0.96110000  0.54080000  0.98870000  1.0 0.0463466538
C  C12  1  0.54080000  0.57970000  0.48870000  1.0 0.0463466538
C  C13  1  0.48200000  0.08920000  0.06940000  1.0 -0.0182037329
C  C14  1  0.39280000  0.48200000  0.56940000  1.0 -0.0182037329
C  C15  1  0.91080000  0.39280000  0.06940000  1.0 -0.0182037329
C  C16  1  0.51800000  0.91080000  0.56940000  1.0 -0.0182037329
C  C17  1  0.60720000  0.51800000  0.06940000  1.0 -0.0182037329
C  C18  1  0.08920000  0.60720000  0.56940000  1.0 -0.0182037329
C  C19  1  0.60720000  0.08920000  0.06940000  1.0 -0.0182037329
C  C20  1  0.08920000  0.48200000  0.56940000  1.0 -0.0182037329
C  C21  1  0.48200000  0.39280000  0.06940000  1.0 -0.0182037329
C  C22  1  0.39280000  0.91080000  0.56940000  1.0 -0.0182037329
C  C23  1  0.91080000  0.51800000  0.06940000  1.0 -0.0182037329
C  C24  1  0.51800000  0.60720000  0.56940000  1.0 -0.0182037329
C  C25  1  0.55620000  0.11200000  0.11560000  1.0 -0.1355038052
C  C26  1  0.44420000  0.55620000  0.61560000  1.0 -0.1355038052
C  C27  1  0.88800000  0.44420000  0.11560000  1.0 -0.1355038052
C  C28  1  0.44380000  0.88800000  0.61560000  1.0 -0.1355038052
C  C29  1  0.55580000  0.44380000  0.11560000  1.0 -0.1355038052
C  C30  1  0.11200000  0.55580000  0.61560000  1.0 -0.1355038052
C  C31  1  0.42850000  0.11950000  0.11180000  1.0 0.4417630175
C  C32  1  0.30900000  0.42850000  0.61180000  1.0 0.4417630175
C  C33  1  0.88050000  0.30900000  0.11180000  1.0 0.4417630175
C  C34  1  0.57150000  0.88050000  0.61180000  1.0 0.4417630175
C  C35  1  0.69100000  0.57150000  0.11180000  1.0 0.4417630175
C  C36  1  0.11950000  0.69100000  0.61180000  1.0 0.4417630175
C  C37  1  0.69100000  0.11950000  0.11180000  1.0 0.4417630175
C  C38  1  0.11950000  0.42850000  0.61180000  1.0 0.4417630175
C  C39  1  0.42850000  0.30900000  0.11180000  1.0 0.4417630175
C  C40  1  0.30900000  0.88050000  0.61180000  1.0 0.4417630175
C  C41  1  0.88050000  0.57150000  0.11180000  1.0 0.4417630175
C  C42  1  0.57150000  0.69100000  0.61180000  1.0 0.4417630175
C  C43  1  0.17950000  0.94140000  0.39450000  1.0 0.0799131891
C  C44  1  0.23810000  0.17950000  0.89450000  1.0 0.0799131891
C  C45  1  0.05860000  0.23810000  0.39450000  1.0 0.0799131891
C  C46  1  0.82050000  0.05860000  0.89450000  1.0 0.0799131891
C  C47  1  0.76190000  0.82050000  0.39450000  1.0 0.0799131891
C  C48  1  0.94140000  0.76190000  0.89450000  1.0 0.0799131891
C  C49  1  0.76190000  0.94140000  0.39450000  1.0 0.0799131891
C  C50  1  0.94140000  0.17950000  0.89450000  1.0 0.0799131891
C  C51  1  0.17950000  0.23810000  0.39450000  1.0 0.0799131891
C  C52  1  0.23810000  0.05860000  0.89450000  1.0 0.0799131891
C  C53  1  0.05860000  0.82050000  0.39450000  1.0 0.0799131891
C  C54  1  0.82050000  0.76190000  0.89450000  1.0 0.0799131891
C  C55  1  0.17340000  0.95350000  0.29410000  1.0 -0.0684185385
C  C56  1  0.21990000  0.17340000  0.79410000  1.0 -0.0684185385
C  C57  1  0.04650000  0.21990000  0.29410000  1.0 -0.0684185385
C  C58  1  0.82660000  0.04650000  0.79410000  1.0 -0.0684185385
C  C59  1  0.78010000  0.82660000  0.29410000  1.0 -0.0684185385
C  C60  1  0.95350000  0.78010000  0.79410000  1.0 -0.0684185385
C  C61  1  0.78010000  0.95350000  0.29410000  1.0 -0.0684185385
C  C62  1  0.95350000  0.17340000  0.79410000  1.0 -0.0684185385
C  C63  1  0.17340000  0.21990000  0.29410000  1.0 -0.0684185385
C  C64  1  0.21990000  0.04650000  0.79410000  1.0 -0.0684185385
C  C65  1  0.04650000  0.82660000  0.29410000  1.0 -0.0684185385
C  C66  1  0.82660000  0.78010000  0.79410000  1.0 -0.0684185385
C  C67  1  0.10580000  0.89420000  0.24290000  1.0 -0.0684185385
C  C68  1  0.21160000  0.10580000  0.74290000  1.0 -0.0684185385
C  C69  1  0.10580000  0.21160000  0.24290000  1.0 -0.0684185385
C  C70  1  0.89420000  0.10580000  0.74290000  1.0 -0.0684185385
C  C71  1  0.78840000  0.89420000  0.24290000  1.0 -0.0684185385
C  C72  1  0.89420000  0.78840000  0.74290000  1.0 -0.0684185385
C  C73  1  0.23620000  0.02900000  0.24490000  1.0 0.5691605546
C  C74  1  0.20720000  0.23620000  0.74490000  1.0 0.5691605546
C  C75  1  0.97100000  0.20720000  0.24490000  1.0 0.5691605546
C  C76  1  0.76380000  0.97100000  0.74490000  1.0 0.5691605546
C  C77  1  0.79280000  0.76380000  0.24490000  1.0 0.5691605546
C  C78  1  0.02900000  0.79280000  0.74490000  1.0 0.5691605546
C  C79  1  0.79280000  0.02900000  0.24490000  1.0 0.5691605546
C  C80  1  0.02900000  0.23620000  0.74490000  1.0 0.5691605546
C  C81  1  0.23620000  0.20720000  0.24490000  1.0 0.5691605546
C  C82  1  0.20720000  0.97100000  0.74490000  1.0 0.5691605546
C  C83  1  0.97100000  0.76380000  0.24490000  1.0 0.5691605546
C  C84  1  0.76380000  0.79280000  0.74490000  1.0 0.5691605546
C  C85  1  0.49030000  0.10500000  0.06400000  1.0 -0.0134957838
C  C86  1  0.38530000  0.49030000  0.56400000  1.0 -0.0182037329
C  C87  1  0.89500000  0.38530000  0.06400000  1.0 -0.0134957838
C  C88  1  0.50970000  0.89500000  0.56400000  1.0 -0.0134957838
C  C89  1  0.61470000  0.50970000  0.06400000  1.0 -0.0134957838
C  C90  1  0.10500000  0.61470000  0.56400000  1.0 -0.0134957838
C  C91  1  0.61470000  0.10500000  0.06400000  1.0 -0.0134957838
C  C92  1  0.10500000  0.49030000  0.56400000  1.0 -0.0182037329
C  C93  1  0.49030000  0.38530000  0.06400000  1.0 -0.0134957838
C  C94  1  0.38530000  0.89500000  0.56400000  1.0 -0.0182037329
C  C95  1  0.89500000  0.50970000  0.06400000  1.0 -0.0134957838
C  C96  1  0.50970000  0.61470000  0.56400000  1.0 -0.0182037329
C  C97  1  0.56000000  0.11900000  0.11400000  1.0 -0.1355038052
C  C98  1  0.44100000  0.56000000  0.61400000  1.0 -0.1355038052
C  C99  1  0.88100000  0.44100000  0.11400000  1.0 -0.1307610785
C  C100  1  0.44000000  0.88100000  0.61400000  1.0 -0.1355038052
C  C101  1  0.55900000  0.44000000  0.11400000  1.0 -0.1355038052
C  C102  1  0.11900000  0.55900000  0.61400000  1.0 -0.1355038052
C  C103  1  0.47610000  0.07420000  0.96920000  1.0 0.0342913265
C  C104  1  0.40190000  0.47610000  0.46920000  1.0 0.0342913265
C  C105  1  0.92580000  0.40190000  0.96920000  1.0 0.0342913265
C  C106  1  0.52390000  0.92580000  0.46920000  1.0 0.0342913265
C  C107  1  0.59810000  0.52390000  0.96920000  1.0 0.0342913265
C  C108  1  0.07420000  0.59810000  0.46920000  1.0 0.0342913265
C  C109  1  0.59810000  0.07420000  0.96920000  1.0 0.0342913265
C  C110  1  0.07420000  0.47610000  0.46920000  1.0 0.0342913265
C  C111  1  0.47610000  0.40190000  0.96920000  1.0 0.0342913265
C  C112  1  0.40190000  0.92580000  0.46920000  1.0 0.0342913265
C  C113  1  0.92580000  0.52390000  0.96920000  1.0 0.0342913265
C  C114  1  0.52390000  0.59810000  0.46920000  1.0 0.0342913265
N  N1  1  0.50650000  0.01310000  0.94860000  1.0 -0.1142136883
N  N2  1  0.49340000  0.50650000  0.44860000  1.0 -0.1142136883
N  N3  1  0.98690000  0.49340000  0.94860000  1.0 -0.1142136883
N  N4  1  0.49350000  0.98690000  0.44860000  1.0 -0.1158406075
N  N5  1  0.50660000  0.49350000  0.94860000  1.0 -0.1142136883
N  N6  1  0.01310000  0.50660000  0.44860000  1.0 -0.1142136883
N  N7  1  0.12350000  0.87656000  0.44550000  1.0 -0.2240583424
N  N8  1  0.24694000  0.12350000  0.94550000  1.0 -0.2252946209
N  N9  1  0.12344000  0.24694000  0.44550000  1.0 -0.2240583424
N  N10  1  0.87650000  0.12344000  0.94550000  1.0 -0.2240583424
N  N11  1  0.75306000  0.87650000  0.44550000  1.0 -0.2240583424
N  N12  1  0.87656000  0.75306000  0.94550000  1.0 -0.2252946209
N  N13  1  0.52950000  0.05900000  0.92400000  1.0 -0.1307610785
N  N14  1  0.47050000  0.52950000  0.42400000  1.0 -0.1307610785
N  N15  1  0.94100000  0.47050000  0.92400000  1.0 -0.1307610785
N  N16  1  0.47050000  0.94100000  0.42400000  1.0 -0.1307610785
N  N17  1  0.52950000  0.47050000  0.92400000  1.0 -0.1307610785
N  N18  1  0.05900000  0.52950000  0.42400000  1.0 -0.1307610785
O  O1  1  0.44430000  0.15000000  0.19760000  1.0 -0.4738912147
O  O2  1  0.29430000  0.44430000  0.69760000  1.0 -0.4755070884
O  O3  1  0.85000000  0.29430000  0.19760000  1.0 -0.4755070884
O  O4  1  0.55570000  0.85000000  0.69760000  1.0 -0.4755070884
O  O5  1  0.70570000  0.55570000  0.19760000  1.0 -0.4755070884
O  O6  1  0.15000000  0.70570000  0.69760000  1.0 -0.4755070884
O  O7  1  0.70570000  0.15000000  0.19760000  1.0 -0.4755070884
O  O8  1  0.15000000  0.44430000  0.69760000  1.0 -0.4755070884
O  O9  1  0.44430000  0.29430000  0.19760000  1.0 -0.4755070884
O  O10  1  0.29430000  0.85000000  0.69760000  1.0 -0.4755070884
O  O11  1  0.85000000  0.55570000  0.19760000  1.0 -0.4755070884
O  O12  1  0.55570000  0.70570000  0.69760000  1.0 -0.4755070884
O  O13  1  0.37110000  0.11220000  0.05730000  1.0 -0.4862979587
O  O14  1  0.25890000  0.37110000  0.55730000  1.0 -0.4862979587
O  O15  1  0.88780000  0.25890000  0.05730000  1.0 -0.4862979587
O  O16  1  0.62890000  0.88780000  0.55730000  1.0 -0.4862979587
O  O17  1  0.74110000  0.62890000  0.05730000  1.0 -0.4862979587
O  O18  1  0.11220000  0.74110000  0.55730000  1.0 -0.4862979587
O  O19  1  0.74110000  0.11220000  0.05730000  1.0 -0.4862979587
O  O20  1  0.11220000  0.37110000  0.55730000  1.0 -0.4862979587
O  O21  1  0.37110000  0.25890000  0.05730000  1.0 -0.4862979587
O  O22  1  0.25890000  0.88780000  0.55730000  1.0 -0.4862979587
O  O23  1  0.88780000  0.62890000  0.05730000  1.0 -0.4862979587
O  O24  1  0.62890000  0.74110000  0.55730000  1.0 -0.4862979587
O  O25  1  0.29620000  0.07660000  0.29770000  1.0 -0.5218663227
O  O26  1  0.21960000  0.29620000  0.79770000  1.0 -0.5218663227
O  O27  1  0.92340000  0.21960000  0.29770000  1.0 -0.5218663227
O  O28  1  0.70380000  0.92340000  0.79770000  1.0 -0.5218663227
O  O29  1  0.78040000  0.70380000  0.29770000  1.0 -0.5218663227
O  O30  1  0.07660000  0.78040000  0.79770000  1.0 -0.5218663227
O  O31  1  0.78040000  0.07660000  0.29770000  1.0 -0.5218663227
O  O32  1  0.07660000  0.29620000  0.79770000  1.0 -0.5218663227
O  O33  1  0.29620000  0.21960000  0.29770000  1.0 -0.5218663227
O  O34  1  0.21960000  0.92340000  0.79770000  1.0 -0.5218663227
O  O35  1  0.92340000  0.70380000  0.29770000  1.0 -0.5218663227
O  O36  1  0.70380000  0.78040000  0.79770000  1.0 -0.5218663227
O  O37  1  0.22420000  0.03980000  0.15660000  1.0 -0.5004085711
O  O38  1  0.18440000  0.22420000  0.65660000  1.0 -0.5004085711
O  O39  1  0.96020000  0.18440000  0.15660000  1.0 -0.5004085711
O  O40  1  0.77580000  0.96020000  0.65660000  1.0 -0.5004085711
O  O41  1  0.81560000  0.77580000  0.15660000  1.0 -0.5004085711
O  O42  1  0.03980000  0.81560000  0.65660000  1.0 -0.5004085711
O  O43  1  0.81560000  0.03980000  0.15660000  1.0 -0.5004085711
O  O44  1  0.03980000  0.22420000  0.65660000  1.0 -0.5004085711
O  O45  1  0.22420000  0.18440000  0.15660000  1.0 -0.5004085711
O  O46  1  0.18440000  0.96020000  0.65660000  1.0 -0.5004085711
O  O47  1  0.96020000  0.77580000  0.15660000  1.0 -0.5004085711
O  O48  1  0.77580000  0.81560000  0.65660000  1.0 -0.5004085711
