# DDEC6 charges by PACMAN v1.1 (https://github.com/mtap-research/PACMAN-charge/)
data_KAPHOB_ASR_pacman
_symmetry_space_group_name_H-M   'P 1'
_cell_length_a   11.65080000
_cell_length_b   16.20790000
_cell_length_c   17.83300000
_cell_angle_alpha   90.00000000
_cell_angle_beta   90.00000000
_cell_angle_gamma   90.00000000
_symmetry_Int_Tables_number   1
_chemical_formula_structural   Mn5H24(C7N3)6
_chemical_formula_sum   'Mn10 H48 C84 N36'
_cell_volume   3367.49457854
_cell_formula_units_Z   2
loop_
 _symmetry_equiv_pos_site_id
 _symmetry_equiv_pos_as_xyz
  1  'x, y, z'
loop_
 _atom_site_type_symbol
 _atom_site_label
 _atom_site_symmetry_multiplicity
 _atom_site_fract_x
 _atom_site_fract_y
 _atom_site_fract_z
 _atom_site_occupancy
 _atom_site_charge
Mn  Mn1  1  0.00000000  0.19940000  0.39971000  1.0 0.126599562
Mn  Mn2  1  0.00000000  0.80060000  0.60029000  1.0 0.126599562
Mn  Mn3  1  0.00000000  0.69940000  0.10029000  1.0 0.126599562
Mn  Mn4  1  0.00000000  0.30060000  0.89971000  1.0 0.1184231054
Mn  Mn5  1  0.00000000  0.50000000  0.50000000  1.0 0.7527255561
Mn  Mn6  1  0.00000000  0.00000000  0.00000000  1.0 0.7527255561
Mn  Mn7  1  0.00000000  0.38922000  0.17837000  1.0 0.7930034246
Mn  Mn8  1  0.00000000  0.61078000  0.82163000  1.0 0.7930034246
Mn  Mn9  1  0.00000000  0.88922000  0.32163000  1.0 0.7930034246
Mn  Mn10  1  0.00000000  0.11078000  0.67837000  1.0 0.7930034246
H  H1  1  0.78416000  0.42964000  0.41305000  1.0 0.1184231054
H  H2  1  0.78416000  0.57036000  0.58695000  1.0 0.1184231054
H  H3  1  0.21584000  0.92964000  0.08695000  1.0 0.1184231054
H  H4  1  0.21584000  0.07036000  0.91305000  1.0 0.1184231054
H  H5  1  0.21584000  0.57036000  0.58695000  1.0 0.1184231054
H  H6  1  0.21584000  0.42964000  0.41305000  1.0 0.1184231054
H  H7  1  0.78416000  0.07036000  0.91305000  1.0 0.1184231054
H  H8  1  0.78416000  0.92964000  0.08695000  1.0 0.1184231054
H  H9  1  0.58903000  0.42870000  0.41013000  1.0 0.140987977
H  H10  1  0.58903000  0.57130000  0.58987000  1.0 0.140987977
H  H11  1  0.41097000  0.92870000  0.08987000  1.0 0.140987977
H  H12  1  0.41097000  0.07130000  0.91013000  1.0 0.140987977
H  H13  1  0.41097000  0.57130000  0.58987000  1.0 0.140987977
H  H14  1  0.41097000  0.42870000  0.41013000  1.0 0.140987977
H  H15  1  0.58903000  0.07130000  0.91013000  1.0 0.140987977
H  H16  1  0.58903000  0.92870000  0.08987000  1.0 0.140987977
H  H17  1  0.78587000  0.46055000  0.09198000  1.0 0.126599562
H  H18  1  0.78587000  0.53945000  0.90802000  1.0 0.126599562
H  H19  1  0.21413000  0.96055000  0.40802000  1.0 0.126599562
H  H20  1  0.21413000  0.03945000  0.59198000  1.0 0.126599562
H  H21  1  0.21413000  0.53945000  0.90802000  1.0 0.126599562
H  H22  1  0.21413000  0.46055000  0.09198000  1.0 0.126599562
H  H23  1  0.78587000  0.03945000  0.59198000  1.0 0.126599562
H  H24  1  0.78587000  0.96055000  0.40802000  1.0 0.126599562
H  H25  1  0.58951000  0.46821000  0.09249000  1.0 0.1457699831
H  H26  1  0.58951000  0.53179000  0.90751000  1.0 0.1457699831
H  H27  1  0.41049000  0.96821000  0.40751000  1.0 0.1457699831
H  H28  1  0.41049000  0.03179000  0.59249000  1.0 0.1457699831
H  H29  1  0.41049000  0.53179000  0.90751000  1.0 0.1457699831
H  H30  1  0.41049000  0.46821000  0.09249000  1.0 0.1457699831
H  H31  1  0.58951000  0.03179000  0.59249000  1.0 0.1457699831
H  H32  1  0.58951000  0.96821000  0.40751000  1.0 0.1457699831
H  H33  1  0.58771000  0.33311000  0.27884000  1.0 0.140987977
H  H34  1  0.58771000  0.66689000  0.72116000  1.0 0.140987977
H  H35  1  0.41229000  0.83311000  0.22116000  1.0 0.140987977
H  H36  1  0.41229000  0.16689000  0.77884000  1.0 0.140987977
H  H37  1  0.41229000  0.66689000  0.72116000  1.0 0.140987977
H  H38  1  0.41229000  0.33311000  0.27884000  1.0 0.140987977
H  H39  1  0.58771000  0.16689000  0.77884000  1.0 0.140987977
H  H40  1  0.58771000  0.83311000  0.22116000  1.0 0.140987977
H  H41  1  0.78383000  0.32829000  0.27298000  1.0 0.1184231054
H  H42  1  0.78383000  0.67171000  0.72702000  1.0 0.1123280067
H  H43  1  0.21617000  0.82829000  0.22702000  1.0 0.1123280067
H  H44  1  0.21617000  0.17171000  0.77298000  1.0 0.1123280067
H  H45  1  0.21617000  0.67171000  0.72702000  1.0 0.1123280067
H  H46  1  0.21617000  0.32829000  0.27298000  1.0 0.1123280067
H  H47  1  0.78383000  0.17171000  0.77298000  1.0 0.1123280067
H  H48  1  0.78383000  0.82829000  0.22702000  1.0 0.1123280067
C  C1  1  0.00000000  0.08840000  0.36889000  1.0 0.1123280067
C  C2  1  0.00000000  0.91160000  0.63111000  1.0 0.1123280067
C  C3  1  0.00000000  0.58840000  0.13111000  1.0 0.1123280067
C  C4  1  0.00000000  0.41160000  0.86889000  1.0 0.1123280067
C  C5  1  0.00000000  0.16670000  0.50120000  1.0 0.1123280067
C  C6  1  0.00000000  0.83330000  0.49880000  1.0 0.1123280067
C  C7  1  0.00000000  0.66666667  0.99880000  1.0 0.1123280067
C  C8  1  0.00000000  0.33333333  0.00120000  1.0 0.1123280067
C  C9  1  0.83570000  0.19890000  0.39990000  1.0 -0.0395798413
C  C10  1  0.83570000  0.80110000  0.60010000  1.0 -0.0395798413
C  C11  1  0.16430000  0.69890000  0.10010000  1.0 -0.0395798413
C  C12  1  0.16430000  0.30110000  0.89990000  1.0 -0.0395798413
C  C13  1  0.16430000  0.80110000  0.60010000  1.0 -0.0395798413
C  C14  1  0.16430000  0.19890000  0.39990000  1.0 -0.0395798413
C  C15  1  0.83570000  0.30110000  0.89990000  1.0 -0.0395798413
C  C16  1  0.83570000  0.69890000  0.10010000  1.0 -0.0395798413
C  C17  1  0.00000000  0.23850000  0.29980000  1.0 0.1021233505
C  C18  1  0.00000000  0.76150000  0.70020000  1.0 0.1021233505
C  C19  1  0.00000000  0.73850000  0.20020000  1.0 0.1021233505
C  C20  1  0.00000000  0.26150000  0.79980000  1.0 0.1021233505
C  C21  1  0.00000000  0.30980000  0.43146000  1.0 0.1123280067
C  C22  1  0.00000000  0.69020000  0.56854000  1.0 0.1021233505
C  C23  1  0.00000000  0.80980000  0.06854000  1.0 0.1021233505
C  C24  1  0.00000000  0.19020000  0.93146000  1.0 0.1021233505
C  C25  1  0.74460000  0.45930000  0.44950000  1.0 0.08397036
C  C26  1  0.74460000  0.54070000  0.55050000  1.0 0.08397036
C  C27  1  0.25540000  0.95930000  0.05050000  1.0 0.08397036
C  C28  1  0.25540000  0.04070000  0.94950000  1.0 0.08397036
C  C29  1  0.25540000  0.54070000  0.55050000  1.0 0.08397036
C  C30  1  0.25540000  0.45930000  0.44950000  1.0 0.08397036
C  C31  1  0.74460000  0.04070000  0.94950000  1.0 0.08397036
C  C32  1  0.74460000  0.95930000  0.05050000  1.0 0.08397036
C  C33  1  0.62660000  0.45820000  0.44750000  1.0 -0.1933008884
C  C34  1  0.62660000  0.54180000  0.55250000  1.0 -0.1933008884
C  C35  1  0.37340000  0.95820000  0.05250000  1.0 -0.1933008884
C  C36  1  0.37340000  0.04180000  0.94750000  1.0 -0.1933008884
C  C37  1  0.37340000  0.54180000  0.55250000  1.0 -0.1933008884
C  C38  1  0.37340000  0.45820000  0.44750000  1.0 -0.1933008884
C  C39  1  0.62660000  0.04180000  0.94750000  1.0 -0.1933008884
C  C40  1  0.62660000  0.95820000  0.05250000  1.0 -0.1933008884
C  C41  1  0.56400000  0.50000000  0.50000000  1.0 0.1184231054
C  C42  1  0.43600000  0.00000000  0.00000000  1.0 0.1184231054
C  C43  1  0.43600000  0.50000000  0.50000000  1.0 0.1184231054
C  C44  1  0.56400000  0.00000000  0.00000000  1.0 0.1184231054
C  C45  1  0.74570000  0.43390000  0.13000000  1.0 0.1123280067
C  C46  1  0.74570000  0.56610000  0.87000000  1.0 0.1123280067
C  C47  1  0.25430000  0.93390000  0.37000000  1.0 0.1123280067
C  C48  1  0.25430000  0.06610000  0.63000000  1.0 0.1123280067
C  C49  1  0.25430000  0.56610000  0.87000000  1.0 0.1123280067
C  C50  1  0.25430000  0.43390000  0.13000000  1.0 0.1123280067
C  C51  1  0.74570000  0.06610000  0.63000000  1.0 0.1123280067
C  C52  1  0.74570000  0.93390000  0.37000000  1.0 0.1123280067
C  C53  1  0.62690000  0.43880000  0.13000000  1.0 -0.1798696401
C  C54  1  0.62690000  0.56120000  0.87000000  1.0 -0.1798696401
C  C55  1  0.37310000  0.93880000  0.37000000  1.0 -0.1798696401
C  C56  1  0.37310000  0.06120000  0.63000000  1.0 -0.1798696401
C  C57  1  0.37310000  0.56120000  0.87000000  1.0 -0.1798696401
C  C58  1  0.37310000  0.43880000  0.13000000  1.0 -0.1798696401
C  C59  1  0.62690000  0.06120000  0.63000000  1.0 -0.1798696401
C  C60  1  0.62690000  0.93880000  0.37000000  1.0 -0.1798696401
C  C61  1  0.56370000  0.40016000  0.18545000  1.0 0.1123280067
C  C62  1  0.56370000  0.59984000  0.81455000  1.0 0.1123280067
C  C63  1  0.43630000  0.90016000  0.31455000  1.0 0.1123280067
C  C64  1  0.43630000  0.09984000  0.68545000  1.0 0.1123280067
C  C65  1  0.43630000  0.59984000  0.81455000  1.0 0.1123280067
C  C66  1  0.43630000  0.40016000  0.18545000  1.0 0.1123280067
C  C67  1  0.56370000  0.09984000  0.68545000  1.0 0.1123280067
C  C68  1  0.56370000  0.90016000  0.31455000  1.0 0.1123280067
C  C69  1  0.62560000  0.35920000  0.23957000  1.0 -0.1798696401
C  C70  1  0.62560000  0.64080000  0.76043000  1.0 -0.1798696401
C  C71  1  0.37440000  0.85920000  0.26043000  1.0 -0.1798696401
C  C72  1  0.37440000  0.14080000  0.73957000  1.0 -0.1798696401
C  C73  1  0.37440000  0.64080000  0.76043000  1.0 -0.1798696401
C  C74  1  0.37440000  0.35920000  0.23957000  1.0 -0.1798696401
C  C75  1  0.62560000  0.14080000  0.73957000  1.0 -0.1798696401
C  C76  1  0.62560000  0.85920000  0.26043000  1.0 -0.1798696401
C  C77  1  0.74440000  0.35670000  0.23576000  1.0 0.0932919714
C  C78  1  0.74440000  0.64330000  0.76424000  1.0 0.0932919714
C  C79  1  0.25560000  0.85670000  0.26424000  1.0 0.0932919714
C  C80  1  0.25560000  0.14330000  0.73576000  1.0 0.0932919714
C  C81  1  0.25560000  0.64330000  0.76424000  1.0 0.0932919714
C  C82  1  0.25560000  0.35670000  0.23576000  1.0 0.0932919714
C  C83  1  0.74440000  0.14330000  0.73576000  1.0 0.0932919714
C  C84  1  0.74440000  0.85670000  0.26424000  1.0 0.0932919714
N  N1  1  0.00000000  0.02051000  0.35099000  1.0 -0.4037863169
N  N2  1  0.00000000  0.97949000  0.64901000  1.0 -0.4037863169
N  N3  1  0.00000000  0.52051000  0.14901000  1.0 -0.4037863169
N  N4  1  0.00000000  0.47949000  0.85099000  1.0 -0.4037863169
N  N5  1  0.00000000  0.15060000  0.56365000  1.0 -0.3878596206
N  N6  1  0.00000000  0.84940000  0.43635000  1.0 -0.3878596206
N  N7  1  0.00000000  0.65060000  0.93635000  1.0 -0.3878596206
N  N8  1  0.00000000  0.34940000  0.06365000  1.0 -0.3878596206
N  N9  1  0.73670000  0.20029000  0.40081000  1.0 -0.3878596206
N  N10  1  0.73670000  0.79971000  0.59919000  1.0 -0.3878596206
N  N11  1  0.26330000  0.70029000  0.09919000  1.0 -0.3878596206
N  N12  1  0.26330000  0.29971000  0.90081000  1.0 -0.3878596206
N  N13  1  0.26330000  0.79971000  0.59919000  1.0 -0.3878596206
N  N14  1  0.26330000  0.20029000  0.40081000  1.0 -0.3878596206
N  N15  1  0.73670000  0.29971000  0.90081000  1.0 -0.3878596206
N  N16  1  0.73670000  0.70029000  0.09919000  1.0 -0.3878596206
N  N17  1  0.00000000  0.27124000  0.24251000  1.0 -0.4122520615
N  N18  1  0.00000000  0.72876000  0.75749000  1.0 -0.4122520615
N  N19  1  0.00000000  0.77124000  0.25749000  1.0 -0.4122520615
N  N20  1  0.00000000  0.22876000  0.74251000  1.0 -0.4122520615
N  N21  1  0.00000000  0.37788000  0.44824000  1.0 -0.4258965705
N  N22  1  0.00000000  0.62212000  0.55176000  1.0 -0.4233798637
N  N23  1  0.00000000  0.87788000  0.05176000  1.0 -0.4233798637
N  N24  1  0.00000000  0.12212000  0.94824000  1.0 -0.4233798637
N  N25  1  0.80510000  0.50000000  0.50000000  1.0 -0.2101620067
N  N26  1  0.19490000  0.00000000  0.00000000  1.0 -0.2101620067
N  N27  1  0.19490000  0.50000000  0.50000000  1.0 -0.2101620067
N  N28  1  0.80510000  0.00000000  0.00000000  1.0 -0.2101620067
N  N29  1  0.80501000  0.39288000  0.18172000  1.0 -0.2101620067
N  N30  1  0.80501000  0.60712000  0.81828000  1.0 -0.2101620067
N  N31  1  0.19499000  0.89288000  0.31828000  1.0 -0.2101620067
N  N32  1  0.19499000  0.10712000  0.68172000  1.0 -0.2101620067
N  N33  1  0.19499000  0.60712000  0.81828000  1.0 -0.2101620067
N  N34  1  0.19499000  0.39288000  0.18172000  1.0 -0.2101620067
N  N35  1  0.80501000  0.10712000  0.68172000  1.0 -0.2101620067
N  N36  1  0.80501000  0.89288000  0.31828000  1.0 -0.2101620067
