# DDEC6 charges by PACMAN v1.1 (https://github.com/mtap-research/PACMAN-charge/)
data_KAPHUH_FSR_pacman
_symmetry_space_group_name_H-M   'P 1'
_cell_length_a   11.55800000
_cell_length_b   16.03900000
_cell_length_c   17.85100000
_cell_angle_alpha   90.00000000
_cell_angle_beta   90.00000000
_cell_angle_gamma   90.00000000
_symmetry_Int_Tables_number   1
_chemical_formula_structural   Mn5H28C42(N9O)2
_chemical_formula_sum   'Mn10 H56 C84 N36 O4'
_cell_volume   3309.19628046
_cell_formula_units_Z   2
loop_
 _symmetry_equiv_pos_site_id
 _symmetry_equiv_pos_as_xyz
  1  'x, y, z'
loop_
 _atom_site_type_symbol
 _atom_site_label
 _atom_site_symmetry_multiplicity
 _atom_site_fract_x
 _atom_site_fract_y
 _atom_site_fract_z
 _atom_site_occupancy
 _atom_site_charge
Mn  Mn1  1  0.00000000  0.19965000  0.39083000  1.0 0.2247039746
Mn  Mn2  1  0.00000000  0.80035000  0.60917000  1.0 0.2247039746
Mn  Mn3  1  0.00000000  0.69965000  0.10917000  1.0 0.2247039746
Mn  Mn4  1  0.00000000  0.30035000  0.89083000  1.0 0.2247039746
Mn  Mn5  1  0.00000000  0.50000000  0.50000000  1.0 0.8627162944
Mn  Mn6  1  0.00000000  0.00000000  0.00000000  1.0 0.8627162944
Mn  Mn7  1  0.00000000  0.39321000  0.16858000  1.0 0.8135609797
Mn  Mn8  1  0.00000000  0.60679000  0.83142000  1.0 0.815111376
Mn  Mn9  1  0.00000000  0.89321000  0.33142000  1.0 0.8135609797
Mn  Mn10  1  0.00000000  0.10679000  0.66858000  1.0 0.8135609797
H  H1  1  0.21497000  0.43011000  0.41459000  1.0 0.1196921432
H  H2  1  0.21497000  0.56989000  0.58541000  1.0 0.1196921432
H  H3  1  0.78503000  0.93011000  0.08541000  1.0 0.1196921432
H  H4  1  0.78503000  0.06989000  0.91459000  1.0 0.1196921432
H  H5  1  0.78503000  0.56989000  0.58541000  1.0 0.1196921432
H  H6  1  0.78503000  0.43011000  0.41459000  1.0 0.1196921432
H  H7  1  0.21497000  0.06989000  0.91459000  1.0 0.1196921432
H  H8  1  0.21497000  0.93011000  0.08541000  1.0 0.1196921432
H  H9  1  0.40752000  0.43012000  0.40895000  1.0 0.1442114763
H  H10  1  0.40752000  0.56988000  0.59105000  1.0 0.1442114763
H  H11  1  0.59248000  0.93012000  0.09105000  1.0 0.1442114763
H  H12  1  0.59248000  0.06988000  0.90895000  1.0 0.1442114763
H  H13  1  0.59248000  0.56988000  0.59105000  1.0 0.1442114763
H  H14  1  0.59248000  0.43012000  0.40895000  1.0 0.1442114763
H  H15  1  0.40752000  0.06988000  0.90895000  1.0 0.1442114763
H  H16  1  0.40752000  0.93012000  0.09105000  1.0 0.1442114763
H  H17  1  0.21539000  0.47336000  0.09552000  1.0 0.129780456
H  H18  1  0.21539000  0.52664000  0.90448000  1.0 0.129780456
H  H19  1  0.78461000  0.97336000  0.40448000  1.0 0.129780456
H  H20  1  0.78461000  0.02664000  0.59552000  1.0 0.129780456
H  H21  1  0.78461000  0.52664000  0.90448000  1.0 0.129780456
H  H22  1  0.78461000  0.47336000  0.09552000  1.0 0.129780456
H  H23  1  0.21539000  0.02664000  0.59552000  1.0 0.129780456
H  H24  1  0.21539000  0.97336000  0.40448000  1.0 0.129780456
H  H25  1  0.40807000  0.48289000  0.09617000  1.0 0.1515427302
H  H26  1  0.40807000  0.51711000  0.90383000  1.0 0.1515427302
H  H27  1  0.59193000  0.98289000  0.40383000  1.0 0.1515427302
H  H28  1  0.59193000  0.01711000  0.59617000  1.0 0.1515427302
H  H29  1  0.59193000  0.51711000  0.90383000  1.0 0.1515427302
H  H30  1  0.59193000  0.48289000  0.09617000  1.0 0.1515427302
H  H31  1  0.40807000  0.01711000  0.59617000  1.0 0.1515427302
H  H32  1  0.40807000  0.98289000  0.40383000  1.0 0.1515427302
H  H33  1  0.41345000  0.33909000  0.27500000  1.0 0.1442114763
H  H34  1  0.41345000  0.66091000  0.72500000  1.0 0.1442114763
H  H35  1  0.58655000  0.83909000  0.22500000  1.0 0.1442114763
H  H36  1  0.58655000  0.16091000  0.77500000  1.0 0.1442114763
H  H37  1  0.58655000  0.66091000  0.72500000  1.0 0.1442114763
H  H38  1  0.58655000  0.33909000  0.27500000  1.0 0.1442114763
H  H39  1  0.41345000  0.16091000  0.77500000  1.0 0.1442114763
H  H40  1  0.41345000  0.83909000  0.22500000  1.0 0.1442114763
H  H41  1  0.21587000  0.33403000  0.26887000  1.0 0.1196921432
H  H42  1  0.21587000  0.66597000  0.73113000  1.0 0.1196921432
H  H43  1  0.78413000  0.83403000  0.23113000  1.0 0.1196921432
H  H44  1  0.78413000  0.16597000  0.76887000  1.0 0.1196921432
H  H45  1  0.78413000  0.66597000  0.73113000  1.0 0.1196921432
H  H46  1  0.78413000  0.33403000  0.26887000  1.0 0.1196921432
H  H47  1  0.21587000  0.16597000  0.76887000  1.0 0.1196921432
H  H48  1  0.21587000  0.83403000  0.23113000  1.0 0.1196921432
H  H49  1  0.07598000  0.40788000  0.61457000  1.0 0.4102596115
H  H50  1  0.07598000  0.59212000  0.38543000  1.0 0.4102596115
H  H51  1  0.92402000  0.90788000  0.88543000  1.0 0.4102596115
H  H52  1  0.92402000  0.09212000  0.11457000  1.0 0.4102596115
H  H53  1  0.92402000  0.59212000  0.38543000  1.0 0.4102596115
H  H54  1  0.92402000  0.40788000  0.61457000  1.0 0.4102596115
H  H55  1  0.07598000  0.09212000  0.11457000  1.0 0.4102596115
H  H56  1  0.07598000  0.90788000  0.88543000  1.0 0.4102596115
C  C1  1  0.00000000  0.08590000  0.34830000  1.0 0.0618317663
C  C2  1  0.00000000  0.91410000  0.65170000  1.0 0.0618317663
C  C3  1  0.00000000  0.58590000  0.15170000  1.0 0.0618317663
C  C4  1  0.00000000  0.41410000  0.84830000  1.0 0.0618317663
C  C5  1  0.00000000  0.15690000  0.49820000  1.0 0.0822002485
C  C6  1  0.00000000  0.84310000  0.50180000  1.0 0.0822002485
C  C7  1  0.00000000  0.65690000  0.00180000  1.0 0.0822002485
C  C8  1  0.00000000  0.34310000  0.99820000  1.0 0.0822002485
C  C9  1  0.82150000  0.20010000  0.39240000  1.0 -0.0989396297
C  C10  1  0.82150000  0.79990000  0.60760000  1.0 -0.0989396297
C  C11  1  0.17850000  0.70010000  0.10760000  1.0 -0.0989396297
C  C12  1  0.17850000  0.29990000  0.89240000  1.0 -0.0989396297
C  C13  1  0.17850000  0.79990000  0.60760000  1.0 -0.0989396297
C  C14  1  0.17850000  0.20010000  0.39240000  1.0 -0.0989396297
C  C15  1  0.82150000  0.29990000  0.89240000  1.0 -0.0989396297
C  C16  1  0.82150000  0.70010000  0.10760000  1.0 -0.0989396297
C  C17  1  0.00000000  0.25190000  0.28950000  1.0 0.0822002485
C  C18  1  0.00000000  0.74810000  0.71050000  1.0 0.0710624561
C  C19  1  0.00000000  0.75190000  0.21050000  1.0 0.0710624561
C  C20  1  0.00000000  0.24810000  0.78950000  1.0 0.0710624561
C  C21  1  0.00000000  0.31590000  0.43160000  1.0 0.0822002485
C  C22  1  0.00000000  0.68410000  0.56840000  1.0 0.0822002485
C  C23  1  0.00000000  0.81590000  0.06840000  1.0 0.0822002485
C  C24  1  0.00000000  0.18410000  0.93160000  1.0 0.0822002485
C  C25  1  0.25540000  0.46020000  0.45060000  1.0 0.0822002485
C  C26  1  0.25540000  0.53980000  0.54940000  1.0 0.0822002485
C  C27  1  0.74460000  0.96020000  0.04940000  1.0 0.0822002485
C  C28  1  0.74460000  0.03980000  0.95060000  1.0 0.0822002485
C  C29  1  0.74460000  0.53980000  0.54940000  1.0 0.0822002485
C  C30  1  0.74460000  0.46020000  0.45060000  1.0 0.0822002485
C  C31  1  0.25540000  0.03980000  0.95060000  1.0 0.0822002485
C  C32  1  0.25540000  0.96020000  0.04940000  1.0 0.0822002485
C  C33  1  0.37160000  0.45920000  0.44760000  1.0 -0.201718396
C  C34  1  0.37160000  0.54080000  0.55240000  1.0 -0.201718396
C  C35  1  0.62840000  0.95920000  0.05240000  1.0 -0.201718396
C  C36  1  0.62840000  0.04080000  0.94760000  1.0 -0.201718396
C  C37  1  0.62840000  0.54080000  0.55240000  1.0 -0.201718396
C  C38  1  0.62840000  0.45920000  0.44760000  1.0 -0.201718396
C  C39  1  0.37160000  0.04080000  0.94760000  1.0 -0.201718396
C  C40  1  0.37160000  0.95920000  0.05240000  1.0 -0.201718396
C  C41  1  0.44020000  0.50000000  0.50000000  1.0 0.1196921432
C  C42  1  0.55980000  0.00000000  0.00000000  1.0 0.1196921432
C  C43  1  0.55980000  0.50000000  0.50000000  1.0 0.1196921432
C  C44  1  0.44020000  0.00000000  0.00000000  1.0 0.1196921432
C  C45  1  0.25530000  0.44350000  0.13190000  1.0 0.1086322475
C  C46  1  0.25530000  0.55650000  0.86810000  1.0 0.1086322475
C  C47  1  0.74470000  0.94350000  0.36810000  1.0 0.1086322475
C  C48  1  0.74470000  0.05650000  0.63190000  1.0 0.1086322475
C  C49  1  0.74470000  0.55650000  0.86810000  1.0 0.1086322475
C  C50  1  0.74470000  0.44350000  0.13190000  1.0 0.1086322475
C  C51  1  0.25530000  0.05650000  0.63190000  1.0 0.1086322475
C  C52  1  0.25530000  0.94350000  0.36810000  1.0 0.1086322475
C  C53  1  0.37150000  0.44960000  0.13160000  1.0 -0.1870204475
C  C54  1  0.37150000  0.55040000  0.86840000  1.0 -0.1870204475
C  C55  1  0.62850000  0.94960000  0.36840000  1.0 -0.1870204475
C  C56  1  0.62850000  0.05040000  0.63160000  1.0 -0.1870204475
C  C57  1  0.62850000  0.55040000  0.86840000  1.0 -0.1870204475
C  C58  1  0.62850000  0.44960000  0.13160000  1.0 -0.1870204475
C  C59  1  0.37150000  0.05040000  0.63160000  1.0 -0.1870204475
C  C60  1  0.37150000  0.94960000  0.36840000  1.0 -0.1870204475
C  C61  1  0.43570000  0.40720000  0.18320000  1.0 0.1196921432
C  C62  1  0.43570000  0.59280000  0.81680000  1.0 0.1196921432
C  C63  1  0.56430000  0.90720000  0.31680000  1.0 0.1196921432
C  C64  1  0.56430000  0.09280000  0.68320000  1.0 0.1196921432
C  C65  1  0.56430000  0.59280000  0.81680000  1.0 0.1196921432
C  C66  1  0.56430000  0.40720000  0.18320000  1.0 0.1196921432
C  C67  1  0.43570000  0.09280000  0.68320000  1.0 0.1196921432
C  C68  1  0.43570000  0.90720000  0.31680000  1.0 0.1196921432
C  C69  1  0.37500000  0.36580000  0.23600000  1.0 -0.1725617297
C  C70  1  0.37500000  0.63420000  0.76400000  1.0 -0.1725617297
C  C71  1  0.62500000  0.86580000  0.26400000  1.0 -0.1725617297
C  C72  1  0.62500000  0.13420000  0.73600000  1.0 -0.1725617297
C  C73  1  0.62500000  0.63420000  0.76400000  1.0 -0.1725617297
C  C74  1  0.62500000  0.36580000  0.23600000  1.0 -0.1725617297
C  C75  1  0.37500000  0.13420000  0.73600000  1.0 -0.1725617297
C  C76  1  0.37500000  0.86580000  0.26400000  1.0 -0.1725617297
C  C77  1  0.25590000  0.36310000  0.23200000  1.0 0.0710624561
C  C78  1  0.25590000  0.63690000  0.76800000  1.0 0.0710624561
C  C79  1  0.74410000  0.86310000  0.26800000  1.0 0.0710624561
C  C80  1  0.74410000  0.13690000  0.73200000  1.0 0.0710624561
C  C81  1  0.74410000  0.63690000  0.76800000  1.0 0.0710624561
C  C82  1  0.74410000  0.36310000  0.23200000  1.0 0.0710624561
C  C83  1  0.25590000  0.13690000  0.73200000  1.0 0.0710624561
C  C84  1  0.25590000  0.86310000  0.26800000  1.0 0.0710624561
N  N1  1  0.00000000  0.02020000  0.32200000  1.0 -0.3835922633
N  N2  1  0.00000000  0.97980000  0.67800000  1.0 -0.3835922633
N  N3  1  0.00000000  0.52020000  0.17800000  1.0 -0.3835922633
N  N4  1  0.00000000  0.47980000  0.82200000  1.0 -0.3835922633
N  N5  1  0.00000000  0.13080000  0.55710000  1.0 -0.3922902176
N  N6  1  0.00000000  0.86920000  0.44290000  1.0 -0.3922902176
N  N7  1  0.00000000  0.63080000  0.94290000  1.0 -0.4022420972
N  N8  1  0.00000000  0.36920000  0.05710000  1.0 -0.3922902176
N  N9  1  0.72170000  0.20310000  0.39160000  1.0 -0.3734810431
N  N10  1  0.72170000  0.79690000  0.60840000  1.0 -0.3734810431
N  N11  1  0.27830000  0.70310000  0.10840000  1.0 -0.3734810431
N  N12  1  0.27830000  0.29690000  0.89160000  1.0 -0.3734810431
N  N13  1  0.27830000  0.79690000  0.60840000  1.0 -0.3734810431
N  N14  1  0.27830000  0.20310000  0.39160000  1.0 -0.3734810431
N  N15  1  0.72170000  0.29690000  0.89160000  1.0 -0.3734810431
N  N16  1  0.72170000  0.70310000  0.10840000  1.0 -0.3734810431
N  N17  1  0.00000000  0.29330000  0.23560000  1.0 -0.4022420972
N  N18  1  0.00000000  0.70670000  0.76440000  1.0 -0.4022420972
N  N19  1  0.00000000  0.79330000  0.26440000  1.0 -0.4022420972
N  N20  1  0.00000000  0.20670000  0.73560000  1.0 -0.4022420972
N  N21  1  0.00000000  0.38190000  0.44720000  1.0 -0.4022420972
N  N22  1  0.00000000  0.61810000  0.55280000  1.0 -0.4022420972
N  N23  1  0.00000000  0.88190000  0.05280000  1.0 -0.4022420972
N  N24  1  0.00000000  0.11810000  0.94720000  1.0 -0.4022420972
N  N25  1  0.19680000  0.50000000  0.50000000  1.0 -0.2541616191
N  N26  1  0.80320000  0.00000000  0.00000000  1.0 -0.2541616191
N  N27  1  0.80320000  0.50000000  0.50000000  1.0 -0.2541616191
N  N28  1  0.19680000  0.00000000  0.00000000  1.0 -0.2541616191
N  N29  1  0.19490000  0.40040000  0.17770000  1.0 -0.2230771039
N  N30  1  0.19490000  0.59960000  0.82230000  1.0 -0.2230771039
N  N31  1  0.80510000  0.90040000  0.32230000  1.0 -0.2230771039
N  N32  1  0.80510000  0.09960000  0.67770000  1.0 -0.2230771039
N  N33  1  0.80510000  0.59960000  0.82230000  1.0 -0.2230771039
N  N34  1  0.80510000  0.40040000  0.17770000  1.0 -0.2230771039
N  N35  1  0.19490000  0.09960000  0.67770000  1.0 -0.2230771039
N  N36  1  0.19490000  0.90040000  0.32230000  1.0 -0.2230771039
O  O1  1  0.00000000  0.43120000  0.60700000  1.0 -0.7411233116
O  O2  1  0.00000000  0.56880000  0.39300000  1.0 -0.7411233116
O  O3  1  0.00000000  0.93120000  0.89300000  1.0 -0.7411233116
O  O4  1  0.00000000  0.06880000  0.10700000  1.0 -0.7411233116
