# DDEC6 charges by PACMAN v1.1 (https://github.com/mtap-research/PACMAN-charge/)
data_KATJIC_FSR_pacman
_chemical_formula_sum              "O26 C120 H72 V6 N12"
_cell_length_a       16.799
_cell_length_b       16.799
_cell_length_c       20.706
_cell_angle_alpha    90
_cell_angle_beta     90
_cell_angle_gamma    120

_symmetry_space_group_name_H-M    "P 1"
_symmetry_Int_Tables_number       1

loop_
  _symmetry_equiv_pos_as_xyz
  'x, y, z'

loop_
  _atom_site_type_symbol
  _atom_site_label
  _atom_site_symmetry_multiplicity
  _atom_site_fract_x
  _atom_site_fract_y
  _atom_site_fract_z
  _atom_site_occupancy
 _atom_site_charge
O   O1        1.0  0.82230  0.47710  0.31930  1.0000 -0.4987968542
C   C1        1.0  0.93050  0.53370  0.42690  1.0000 -0.1253178965
H   H1        1.0  0.89570  0.55570  0.40700  1.0000 0.1290909175
C   C2        1.0  0.98800  0.60100  0.47180  1.0000 -0.0957107768
H   H2        1.0  0.00850  0.66300  0.47840  1.0000 0.0902597067
O   O2        1.0  0.52290  0.34520  0.31930  1.0000 -0.4987968542
C   C3        1.0  0.46630  0.39680  0.42690  1.0000 -0.1241865503
H   H3        1.0  0.44430  0.34000  0.40700  1.0000 0.1290909175
C   C4        1.0  0.39900  0.38700  0.47180  1.0000 -0.0957107768
H   H4        1.0  0.33700  0.34550  0.47840  1.0000 0.0902597067
O   O3        1.0  0.65480  0.17770  0.31930  1.0000 -0.4987968542
C   C5        1.0  0.60320  0.06950  0.42690  1.0000 -0.1241865503
H   H5        1.0  0.66000  0.10430  0.40700  1.0000 0.1290909175
C   C6        1.0  0.61300  0.01200  0.47180  1.0000 -0.0957107768
H   H6        1.0  0.65450  0.99150  0.47840  1.0000 0.0902597067
O   O4        1.0  0.17770  0.52290  0.81930  1.0000 -0.4987968542
C   C7        1.0  0.06950  0.46630  0.92690  1.0000 -0.1253178965
H   H7        1.0  0.10430  0.44430  0.90700  1.0000 0.1290909175
C   C8        1.0  0.01200  0.39900  0.97180  1.0000 -0.094717371
H   H8        1.0  0.99150  0.33700  0.97840  1.0000 0.0902597067
O   O5        1.0  0.47710  0.65480  0.81930  1.0000 -0.4987968542
C   C9        1.0  0.53370  0.60320  0.92690  1.0000 -0.1253178965
H   H9        1.0  0.55570  0.66000  0.90700  1.0000 0.1290909175
C   C10       1.0  0.60100  0.61300  0.97180  1.0000 -0.094717371
H   H10       1.0  0.66300  0.65450  0.97840  1.0000 0.0902597067
O   O6        1.0  0.34520  0.82230  0.81930  1.0000 -0.4987968542
C   C11       1.0  0.39680  0.93050  0.92690  1.0000 -0.1253178965
H   H11       1.0  0.34000  0.89570  0.90700  1.0000 0.1290909175
C   C12       1.0  0.38700  0.98800  0.97180  1.0000 -0.0957107768
H   H12       1.0  0.34550  0.00850  0.97840  1.0000 0.0902597067
O   O7        1.0  0.47710  0.82230  0.68070  1.0000 -0.4987968542
C   C13       1.0  0.53370  0.93050  0.57310  1.0000 -0.1241865503
H   H13       1.0  0.55570  0.89570  0.59300  1.0000 0.1290909175
C   C14       1.0  0.60100  0.98800  0.52820  1.0000 -0.0957107768
H   H14       1.0  0.66300  0.00850  0.52160  1.0000 0.0902597067
O   O8        1.0  0.34520  0.52290  0.68070  1.0000 -0.4987968542
C   C15       1.0  0.39680  0.46630  0.57310  1.0000 -0.1241865503
H   H15       1.0  0.34000  0.44430  0.59300  1.0000 0.1290909175
C   C16       1.0  0.38700  0.39900  0.52820  1.0000 -0.0957107768
H   H16       1.0  0.34550  0.33700  0.52160  1.0000 0.0902597067
O   O9        1.0  0.17770  0.65480  0.68070  1.0000 -0.4987968542
C   C17       1.0  0.06950  0.60320  0.57310  1.0000 -0.1253178965
H   H17       1.0  0.10430  0.66000  0.59300  1.0000 0.1290909175
C   C18       1.0  0.01200  0.61300  0.52820  1.0000 -0.094717371
H   H18       1.0  0.99150  0.65450  0.52160  1.0000 0.0902597067
O   O10       1.0  0.52290  0.17770  0.18070  1.0000 -0.4987968542
C   C19       1.0  0.46630  0.06950  0.07310  1.0000 -0.1241865503
H   H19       1.0  0.44430  0.10430  0.09300  1.0000 0.1290909175
C   C20       1.0  0.39900  0.01200  0.02820  1.0000 -0.0957107768
H   H20       1.0  0.33700  0.99150  0.02160  1.0000 0.0902597067
O   O11       1.0  0.65480  0.47710  0.18070  1.0000 -0.4987968542
C   C21       1.0  0.60320  0.53370  0.07310  1.0000 -0.1253178965
H   H21       1.0  0.66000  0.55570  0.09300  1.0000 0.1290909175
C   C22       1.0  0.61300  0.60100  0.02820  1.0000 -0.0957107768
H   H22       1.0  0.65450  0.66300  0.02160  1.0000 0.0902597067
O   O12       1.0  0.82230  0.34520  0.18070  1.0000 -0.4987968542
C   C23       1.0  0.93050  0.39680  0.07310  1.0000 -0.1253178965
H   H23       1.0  0.89570  0.34000  0.09300  1.0000 0.1290909175
C   C24       1.0  0.98800  0.38700  0.02820  1.0000 -0.0957107768
H   H24       1.0  0.00850  0.34550  0.02160  1.0000 0.0902597067
O   O13       1.0  0.17770  0.52290  0.68070  1.0000 -0.4987968542
C   C25       1.0  0.06950  0.46630  0.57310  1.0000 -0.1253178965
H   H25       1.0  0.10430  0.44430  0.59300  1.0000 0.1290909175
C   C26       1.0  0.01200  0.39900  0.52820  1.0000 -0.094717371
H   H26       1.0  0.99150  0.33700  0.52160  1.0000 0.0902597067
O   O14       1.0  0.47710  0.65480  0.68070  1.0000 -0.4987968542
C   C27       1.0  0.53370  0.60320  0.57310  1.0000 -0.1253178965
H   H27       1.0  0.55570  0.66000  0.59300  1.0000 0.1290909175
C   C28       1.0  0.60100  0.61300  0.52820  1.0000 -0.0957107768
H   H28       1.0  0.66300  0.65450  0.52160  1.0000 0.0902597067
O   O15       1.0  0.34520  0.82230  0.68070  1.0000 -0.4987968542
C   C29       1.0  0.39680  0.93050  0.57310  1.0000 -0.1253178965
H   H29       1.0  0.34000  0.89570  0.59300  1.0000 0.1290909175
C   C30       1.0  0.38700  0.98800  0.52820  1.0000 -0.0957107768
H   H30       1.0  0.34550  0.00850  0.52160  1.0000 0.0902597067
O   O16       1.0  0.82230  0.47710  0.18070  1.0000 -0.4987968542
C   C31       1.0  0.93050  0.53370  0.07310  1.0000 -0.1253178965
H   H31       1.0  0.89570  0.55570  0.09300  1.0000 0.1290909175
C   C32       1.0  0.98800  0.60100  0.02820  1.0000 -0.0957107768
H   H32       1.0  0.00850  0.66300  0.02160  1.0000 0.0902597067
O   O17       1.0  0.52290  0.34520  0.18070  1.0000 -0.4987968542
C   C33       1.0  0.46630  0.39680  0.07310  1.0000 -0.1253178965
H   H33       1.0  0.44430  0.34000  0.09300  1.0000 0.1290909175
C   C34       1.0  0.39900  0.38700  0.02820  1.0000 -0.0957107768
H   H34       1.0  0.33700  0.34550  0.02160  1.0000 0.0902597067
O   O18       1.0  0.65480  0.17770  0.18070  1.0000 -0.4987968542
C   C35       1.0  0.60320  0.06950  0.07310  1.0000 -0.1241865503
H   H35       1.0  0.66000  0.10430  0.09300  1.0000 0.1290909175
C   C36       1.0  0.61300  0.01200  0.02820  1.0000 -0.0957107768
H   H36       1.0  0.65450  0.99150  0.02160  1.0000 0.0902597067
O   O19       1.0  0.52290  0.17770  0.31930  1.0000 -0.4987968542
C   C37       1.0  0.46630  0.06950  0.42690  1.0000 -0.1241865503
H   H37       1.0  0.44430  0.10430  0.40700  1.0000 0.1290909175
C   C38       1.0  0.39900  0.01200  0.47180  1.0000 -0.0957107768
H   H38       1.0  0.33700  0.99150  0.47840  1.0000 0.0902597067
O   O20       1.0  0.65480  0.47710  0.31930  1.0000 -0.4987968542
C   C39       1.0  0.60320  0.53370  0.42690  1.0000 -0.1253178965
H   H39       1.0  0.66000  0.55570  0.40700  1.0000 0.1290909175
C   C40       1.0  0.61300  0.60100  0.47180  1.0000 -0.0957107768
H   H40       1.0  0.65450  0.66300  0.47840  1.0000 0.0902597067
O   O21       1.0  0.82230  0.34520  0.31930  1.0000 -0.4987968542
C   C41       1.0  0.93050  0.39680  0.42690  1.0000 -0.1253178965
H   H41       1.0  0.89570  0.34000  0.40700  1.0000 0.1290909175
C   C42       1.0  0.98800  0.38700  0.47180  1.0000 -0.0957107768
H   H42       1.0  0.00850  0.34550  0.47840  1.0000 0.0902597067
O   O22       1.0  0.47710  0.82230  0.81930  1.0000 -0.4987968542
C   C43       1.0  0.53370  0.93050  0.92690  1.0000 -0.1253178965
H   H43       1.0  0.55570  0.89570  0.90700  1.0000 0.1290909175
C   C44       1.0  0.60100  0.98800  0.97180  1.0000 -0.0957107768
H   H44       1.0  0.66300  0.00850  0.97840  1.0000 0.0902597067
O   O23       1.0  0.34520  0.52290  0.81930  1.0000 -0.4987968542
C   C45       1.0  0.39680  0.46630  0.92690  1.0000 -0.1253178965
H   H45       1.0  0.34000  0.44430  0.90700  1.0000 0.1290909175
C   C46       1.0  0.38700  0.39900  0.97180  1.0000 -0.094717371
H   H46       1.0  0.34550  0.33700  0.97840  1.0000 0.0902597067
O   O24       1.0  0.17770  0.65480  0.81930  1.0000 -0.4987968542
C   C47       1.0  0.06950  0.60320  0.92690  1.0000 -0.1253178965
H   H47       1.0  0.10430  0.66000  0.90700  1.0000 0.1290909175
C   C48       1.0  0.01200  0.61300  0.97180  1.0000 -0.094717371
H   H48       1.0  0.99150  0.65450  0.97840  1.0000 0.0902597067
V   V1        1.0  0.73396  0.46793  0.25000  1.0000 1.0478246783
N   N1        1.0  0.80925  0.61850  0.25000  1.0000 -0.2037959199
C   C49       1.0  0.90470  0.80940  0.25000  1.0000 0.0471464786
C   C50       1.0  0.95510  0.91020  0.25000  1.0000 0.3812124903
V   V2        1.0  0.53207  0.26603  0.25000  1.0000 1.0478246783
N   N2        1.0  0.38150  0.19075  0.25000  1.0000 -0.2037959199
C   C51       1.0  0.19060  0.09530  0.25000  1.0000 0.0471464786
C   C52       1.0  0.08980  0.04490  0.25000  1.0000 0.3812124903
V   V3        1.0  0.73397  0.26603  0.25000  1.0000 1.0478246783
N   N3        1.0  0.80925  0.19075  0.25000  1.0000 -0.2037959199
C   C53       1.0  0.90470  0.09530  0.25000  1.0000 0.0471464786
C   C54       1.0  0.95510  0.04490  0.25000  1.0000 0.3812124903
V   V4        1.0  0.26603  0.53207  0.75000  1.0000 1.0478246783
N   N4        1.0  0.19075  0.38150  0.75000  1.0000 -0.2037959199
C   C55       1.0  0.09530  0.19060  0.75000  1.0000 0.0471464786
C   C56       1.0  0.04490  0.08980  0.75000  1.0000 0.3812124903
V   V5        1.0  0.46793  0.73397  0.75000  1.0000 1.0478246783
N   N5        1.0  0.61850  0.80925  0.75000  1.0000 -0.2037959199
C   C57       1.0  0.80940  0.90470  0.75000  1.0000 0.0471464786
C   C58       1.0  0.91020  0.95510  0.75000  1.0000 0.3812124903
V   V6        1.0  0.26603  0.73397  0.75000  1.0000 1.0478246783
N   N6        1.0  0.19075  0.80925  0.75000  1.0000 -0.2037959199
C   C59       1.0  0.09530  0.90470  0.75000  1.0000 0.0471464786
C   C60       1.0  0.04490  0.95510  0.75000  1.0000 0.3812124903
O   O25       1.0  0.66667  0.33333  0.25000  1.0000 -0.829476061
O   O26       1.0  0.33333  0.66667  0.75000  1.0000 -0.829476061
N   N7        1.0  0.04690  0.95310  0.25000  1.0000 -0.4097141202
N   N8        1.0  0.04690  0.09380  0.25000  1.0000 -0.4097141202
N   N9        1.0  0.90620  0.95310  0.25000  1.0000 -0.4097141202
N   N10       1.0  0.95310  0.04690  0.75000  1.0000 -0.4097141202
N   N11       1.0  0.95310  0.90620  0.75000  1.0000 -0.4097141202
N   N12       1.0  0.09380  0.04690  0.75000  1.0000 -0.4097141202
C   C61       1.0  0.84420  0.42210  0.34130  1.0000 0.5828658714
C   C62       1.0  0.90510  0.45255  0.40120  1.0000 -0.0724663015
C   C63       1.0  0.57790  0.42210  0.34130  1.0000 0.5828658714
C   C64       1.0  0.54745  0.45255  0.40120  1.0000 -0.0724663015
C   C65       1.0  0.57790  0.15580  0.34130  1.0000 0.5828658714
C   C66       1.0  0.54745  0.09490  0.40120  1.0000 -0.0724663015
C   C67       1.0  0.15580  0.57790  0.84130  1.0000 0.5828658714
C   C68       1.0  0.09490  0.54745  0.90120  1.0000 -0.0724663015
C   C69       1.0  0.42210  0.57790  0.84130  1.0000 0.5828658714
C   C70       1.0  0.45255  0.54745  0.90120  1.0000 -0.0724663015
C   C71       1.0  0.42210  0.84420  0.84130  1.0000 0.5828658714
C   C72       1.0  0.45255  0.90510  0.90120  1.0000 -0.0724663015
C   C73       1.0  0.42210  0.84420  0.65870  1.0000 0.5828658714
C   C74       1.0  0.45255  0.90510  0.59880  1.0000 -0.0724663015
C   C75       1.0  0.42210  0.57790  0.65870  1.0000 0.5828658714
C   C76       1.0  0.45255  0.54745  0.59880  1.0000 -0.0724663015
C   C77       1.0  0.15580  0.57790  0.65870  1.0000 0.5828658714
C   C78       1.0  0.09490  0.54745  0.59880  1.0000 -0.0724663015
C   C79       1.0  0.57790  0.15580  0.15870  1.0000 0.5828658714
C   C80       1.0  0.54745  0.09490  0.09880  1.0000 -0.0724663015
C   C81       1.0  0.57790  0.42210  0.15870  1.0000 0.5828658714
C   C82       1.0  0.54745  0.45255  0.09880  1.0000 -0.0724663015
C   C83       1.0  0.84420  0.42210  0.15870  1.0000 0.5828658714
C   C84       1.0  0.90510  0.45255  0.09880  1.0000 -0.0724663015
C   C85       1.0  0.00000  0.53820  0.50000  1.0000 0.0348335405
C   C86       1.0  0.46180  0.46180  0.50000  1.0000 0.0362773512
C   C87       1.0  0.53820  0.00000  0.50000  1.0000 0.0348335405
C   C88       1.0  0.00000  0.46180  0.00000  1.0000 0.0348335405
C   C89       1.0  0.53820  0.53820  0.00000  1.0000 0.0362773512
C   C90       1.0  0.46180  0.00000  0.00000  1.0000 0.0362773512
C   C91       1.0  0.00000  0.46180  0.50000  1.0000 0.0348335405
C   C92       1.0  0.53820  0.53820  0.50000  1.0000 0.0362773512
C   C93       1.0  0.46180  0.00000  0.50000  1.0000 0.0348335405
C   C94       1.0  0.00000  0.53820  0.00000  1.0000 0.0348335405
C   C95       1.0  0.46180  0.46180  0.00000  1.0000 0.0362773512
C   C96       1.0  0.53820  0.00000  0.00000  1.0000 0.0362773512
C   C97       1.0  0.76620  0.66560  0.25000  1.0000 0.0902597067
H   H49       1.0  0.70230  0.63340  0.25000  1.0000 0.1090110515
C   C98       1.0  0.81070  0.75960  0.25000  1.0000 -0.1767718271
H   H50       1.0  0.77690  0.78970  0.25000  1.0000 0.1382484113
C   C99       1.0  0.33440  0.10060  0.25000  1.0000 0.0902597067
H   H51       1.0  0.36660  0.06890  0.25000  1.0000 0.1090110515
C   C100      1.0  0.24040  0.05110  0.25000  1.0000 -0.1767718271
H   H52       1.0  0.21030  0.98720  0.25000  1.0000 0.1382484113
C   C101      1.0  0.89940  0.23380  0.25000  1.0000 0.0902597067
H   H53       1.0  0.93110  0.29770  0.25000  1.0000 0.1090110515
C   C102      1.0  0.94890  0.18930  0.25000  1.0000 -0.1767718271
H   H54       1.0  0.01280  0.22310  0.25000  1.0000 0.1382484113
C   C103      1.0  0.23380  0.33440  0.75000  1.0000 0.0902597067
H   H55       1.0  0.29770  0.36660  0.75000  1.0000 0.1090110515
C   C104      1.0  0.18930  0.24040  0.75000  1.0000 -0.1767718271
H   H56       1.0  0.22310  0.21030  0.75000  1.0000 0.1382484113
C   C105      1.0  0.66560  0.89940  0.75000  1.0000 0.0902597067
H   H57       1.0  0.63340  0.93110  0.75000  1.0000 0.1090110515
C   C106      1.0  0.75960  0.94890  0.75000  1.0000 -0.1767718271
H   H58       1.0  0.78970  0.01280  0.75000  1.0000 0.1382484113
C   C107      1.0  0.10060  0.76620  0.75000  1.0000 0.0902597067
H   H59       1.0  0.06890  0.70230  0.75000  1.0000 0.1090110515
C   C108      1.0  0.05110  0.81070  0.75000  1.0000 -0.1767718271
H   H60       1.0  0.98720  0.77690  0.75000  1.0000 0.1382484113
C   C109      1.0  0.66560  0.76620  0.75000  1.0000 0.0902597067
H   H61       1.0  0.63340  0.70230  0.75000  1.0000 0.1090110515
C   C110      1.0  0.75960  0.81070  0.75000  1.0000 -0.1767718271
H   H62       1.0  0.78970  0.77690  0.75000  1.0000 0.1382484113
C   C111      1.0  0.10060  0.33440  0.75000  1.0000 0.0902597067
H   H63       1.0  0.06890  0.36660  0.75000  1.0000 0.1090110515
C   C112      1.0  0.05110  0.24040  0.75000  1.0000 -0.1767718271
H   H64       1.0  0.98720  0.21030  0.75000  1.0000 0.1382484113
C   C113      1.0  0.23380  0.89940  0.75000  1.0000 0.0902597067
H   H65       1.0  0.29770  0.93110  0.75000  1.0000 0.1090110515
C   C114      1.0  0.18930  0.94890  0.75000  1.0000 -0.1767718271
H   H66       1.0  0.22310  0.01280  0.75000  1.0000 0.1382484113
C   C115      1.0  0.33440  0.23380  0.25000  1.0000 0.0902597067
H   H67       1.0  0.36660  0.29770  0.25000  1.0000 0.1090110515
C   C116      1.0  0.24040  0.18930  0.25000  1.0000 -0.1767718271
H   H68       1.0  0.21030  0.22310  0.25000  1.0000 0.1382484113
C   C117      1.0  0.89940  0.66560  0.25000  1.0000 0.0902597067
H   H69       1.0  0.93110  0.63340  0.25000  1.0000 0.1090110515
C   C118      1.0  0.94890  0.75960  0.25000  1.0000 -0.1767718271
H   H70       1.0  0.01280  0.78970  0.25000  1.0000 0.1382484113
C   C119      1.0  0.76620  0.10060  0.25000  1.0000 0.0902597067
H   H71       1.0  0.70230  0.06890  0.25000  1.0000 0.1090110515
C   C120      1.0  0.81070  0.05110  0.25000  1.0000 -0.1767718271
H   H72       1.0  0.77690  0.98720  0.25000  1.0000 0.1382484113
  Co  Co1       1.0  0.73396  0.46793  0.25000  1.0000
  Co  Co2       1.0  0.53207  0.26603  0.25000  1.0000
  Co  Co3       1.0  0.73397  0.26603  0.25000  1.0000
  Co  Co4       1.0  0.26603  0.53207  0.75000  1.0000
  Co  Co5       1.0  0.46793  0.73397  0.75000  1.0000
  Co  Co6       1.0  0.26603  0.73397  0.75000  1.0000
