# DDEC6 charges by PACMAN v1.1 (https://github.com/mtap-research/PACMAN-charge/)
data_KATJEY_FSR_pacman
_chemical_formula_sum              "O50 C150 V6 N12 H30"
_cell_length_a       20.918
_cell_length_b       20.918
_cell_length_c       16.08
_cell_angle_alpha    90
_cell_angle_beta     90
_cell_angle_gamma    120

_symmetry_space_group_name_H-M    "P 1"
_symmetry_Int_Tables_number       1

loop_
  _symmetry_equiv_pos_as_xyz
  'x, y, z'

loop_
  _atom_site_type_symbol
  _atom_site_label
  _atom_site_symmetry_multiplicity
  _atom_site_fract_x
  _atom_site_fract_y
  _atom_site_fract_z
  _atom_site_occupancy
 _atom_site_charge
O   O1        1.0  0.20780  0.55090  0.16140  1.0000 -0.4853641758
C   C1        1.0  0.08580  0.48270  0.06160  1.0000 0.0211683533
C   C2        1.0  0.02600  0.42740  0.01330  1.0000 -0.0101120867
O   O2        1.0  0.99370  0.17240  0.20810  1.0000 -0.1178062745
C   C3        1.0  0.04920  0.16470  0.21450  1.0000 0.1201927302
O   O3        1.0  0.44910  0.65690  0.16140  1.0000 -0.4853641758
C   C4        1.0  0.51730  0.60310  0.06160  1.0000 0.0211683533
C   C5        1.0  0.57260  0.59860  0.01330  1.0000 -0.0101120867
O   O4        1.0  0.82760  0.82130  0.20810  1.0000 -0.1178062745
C   C6        1.0  0.83530  0.88450  0.21450  1.0000 0.1201927302
O   O5        1.0  0.34310  0.79220  0.16140  1.0000 -0.4853641758
C   C7        1.0  0.39690  0.91420  0.06160  1.0000 0.0211683533
C   C8        1.0  0.40140  0.97400  0.01330  1.0000 -0.0101120867
O   O6        1.0  0.17870  0.00630  0.20810  1.0000 -0.1178062745
C   C9        1.0  0.11550  0.95080  0.21450  1.0000 0.1201927302
O   O7        1.0  0.79220  0.44910  0.66140  1.0000 -0.4836043069
C   C10       1.0  0.91420  0.51730  0.56160  1.0000 0.0211683533
C   C11       1.0  0.97400  0.57260  0.51330  1.0000 -0.0101120867
O   O8        1.0  0.00630  0.82760  0.70810  1.0000 -0.1178062745
C   C12       1.0  0.95080  0.83530  0.71450  1.0000 0.1201927302
O   O9        1.0  0.55090  0.34310  0.66140  1.0000 -0.4836043069
C   C13       1.0  0.48270  0.39690  0.56160  1.0000 0.0211683533
C   C14       1.0  0.42740  0.40140  0.51330  1.0000 -0.0101120867
O   O10       1.0  0.17240  0.17870  0.70810  1.0000 -0.1178062745
C   C15       1.0  0.16470  0.11550  0.71450  1.0000 0.1145740875
O   O11       1.0  0.65690  0.20780  0.66140  1.0000 -0.4836043069
C   C16       1.0  0.60310  0.08580  0.56160  1.0000 0.0211683533
C   C17       1.0  0.59860  0.02600  0.51330  1.0000 -0.0101120867
O   O12       1.0  0.82130  0.99370  0.70810  1.0000 -0.1178062745
C   C18       1.0  0.88450  0.04920  0.71450  1.0000 0.1201927302
O   O13       1.0  0.55090  0.20780  0.83860  1.0000 -0.4836043069
C   C19       1.0  0.48270  0.08580  0.93840  1.0000 0.0211683533
C   C20       1.0  0.42740  0.02600  0.98670  1.0000 -0.0101120867
O   O14       1.0  0.17240  0.99370  0.79190  1.0000 -0.1178062745
C   C21       1.0  0.16470  0.04920  0.78550  1.0000 0.1201927302
O   O15       1.0  0.65690  0.44910  0.83860  1.0000 -0.4853641758
C   C22       1.0  0.60310  0.51730  0.93840  1.0000 0.0211683533
C   C23       1.0  0.59860  0.57260  0.98670  1.0000 -0.0101120867
O   O16       1.0  0.82130  0.82760  0.79190  1.0000 -0.1178062745
C   C24       1.0  0.88450  0.83530  0.78550  1.0000 0.1201927302
O   O17       1.0  0.79220  0.34310  0.83860  1.0000 -0.4836043069
C   C25       1.0  0.91420  0.39690  0.93840  1.0000 0.0211683533
C   C26       1.0  0.97400  0.40140  0.98670  1.0000 -0.0101120867
O   O18       1.0  0.00630  0.17870  0.79190  1.0000 -0.1178062745
C   C27       1.0  0.95080  0.11550  0.78550  1.0000 0.1201927302
O   O19       1.0  0.44910  0.79220  0.33860  1.0000 -0.4853641758
C   C28       1.0  0.51730  0.91420  0.43840  1.0000 0.0211683533
C   C29       1.0  0.57260  0.97400  0.48670  1.0000 -0.0101120867
O   O20       1.0  0.82760  0.00630  0.29190  1.0000 -0.1178062745
C   C30       1.0  0.83530  0.95080  0.28550  1.0000 0.1201927302
O   O21       1.0  0.34310  0.55090  0.33860  1.0000 -0.4853641758
C   C31       1.0  0.39690  0.48270  0.43840  1.0000 0.0211683533
C   C32       1.0  0.40140  0.42740  0.48670  1.0000 -0.0101120867
O   O22       1.0  0.17870  0.17240  0.29190  1.0000 -0.1178062745
C   C33       1.0  0.11550  0.16470  0.28550  1.0000 0.1201927302
O   O23       1.0  0.20780  0.65690  0.33860  1.0000 -0.4853641758
C   C34       1.0  0.08580  0.60310  0.43840  1.0000 0.0211683533
C   C35       1.0  0.02600  0.59860  0.48670  1.0000 -0.0101120867
O   O24       1.0  0.99370  0.82130  0.29190  1.0000 -0.1178062745
C   C36       1.0  0.04920  0.88450  0.28550  1.0000 0.1201927302
O   O25       1.0  0.79220  0.44910  0.83860  1.0000 -0.4836043069
C   C37       1.0  0.91420  0.51730  0.93840  1.0000 0.0211683533
C   C38       1.0  0.97400  0.57260  0.98670  1.0000 -0.0101120867
O   O26       1.0  0.00630  0.82760  0.79190  1.0000 -0.1178062745
C   C39       1.0  0.95080  0.83530  0.78550  1.0000 0.1201927302
O   O27       1.0  0.55090  0.34310  0.83860  1.0000 -0.4836043069
C   C40       1.0  0.48270  0.39690  0.93840  1.0000 0.0211683533
C   C41       1.0  0.42740  0.40140  0.98670  1.0000 -0.0101120867
O   O28       1.0  0.17240  0.17870  0.79190  1.0000 -0.1178062745
C   C42       1.0  0.16470  0.11550  0.78550  1.0000 0.1145740875
O   O29       1.0  0.65690  0.20780  0.83860  1.0000 -0.4836043069
C   C43       1.0  0.60310  0.08580  0.93840  1.0000 0.0211683533
C   C44       1.0  0.59860  0.02600  0.98670  1.0000 -0.0101120867
O   O30       1.0  0.82130  0.99370  0.79190  1.0000 -0.1178062745
C   C45       1.0  0.88450  0.04920  0.78550  1.0000 0.1201927302
O   O31       1.0  0.20780  0.55090  0.33860  1.0000 -0.4853641758
C   C46       1.0  0.08580  0.48270  0.43840  1.0000 0.0211683533
C   C47       1.0  0.02600  0.42740  0.48670  1.0000 -0.0101120867
O   O32       1.0  0.99370  0.17240  0.29190  1.0000 -0.1178062745
C   C48       1.0  0.04920  0.16470  0.28550  1.0000 0.1201927302
O   O33       1.0  0.44910  0.65690  0.33860  1.0000 -0.4853641758
C   C49       1.0  0.51730  0.60310  0.43840  1.0000 0.0211683533
C   C50       1.0  0.57260  0.59860  0.48670  1.0000 -0.0101120867
O   O34       1.0  0.82760  0.82130  0.29190  1.0000 -0.1178062745
C   C51       1.0  0.83530  0.88450  0.28550  1.0000 0.1201927302
O   O35       1.0  0.34310  0.79220  0.33860  1.0000 -0.4853641758
C   C52       1.0  0.39690  0.91420  0.43840  1.0000 0.0211683533
C   C53       1.0  0.40140  0.97400  0.48670  1.0000 -0.0101120867
O   O36       1.0  0.17870  0.00630  0.29190  1.0000 -0.1178062745
C   C54       1.0  0.11550  0.95080  0.28550  1.0000 0.1201927302
O   O37       1.0  0.44910  0.79220  0.16140  1.0000 -0.4853641758
C   C55       1.0  0.51730  0.91420  0.06160  1.0000 0.0211683533
C   C56       1.0  0.57260  0.97400  0.01330  1.0000 -0.0101120867
O   O38       1.0  0.82760  0.00630  0.20810  1.0000 -0.1178062745
C   C57       1.0  0.83530  0.95080  0.21450  1.0000 0.1201927302
O   O39       1.0  0.34310  0.55090  0.16140  1.0000 -0.4853641758
C   C58       1.0  0.39690  0.48270  0.06160  1.0000 0.0211683533
C   C59       1.0  0.40140  0.42740  0.01330  1.0000 -0.0101120867
O   O40       1.0  0.17870  0.17240  0.20810  1.0000 -0.1178062745
C   C60       1.0  0.11550  0.16470  0.21450  1.0000 0.1201927302
O   O41       1.0  0.20780  0.65690  0.16140  1.0000 -0.4853641758
C   C61       1.0  0.08580  0.60310  0.06160  1.0000 0.0211683533
C   C62       1.0  0.02600  0.59860  0.01330  1.0000 -0.0101120867
O   O42       1.0  0.99370  0.82130  0.20810  1.0000 -0.1178062745
C   C63       1.0  0.04920  0.88450  0.21450  1.0000 0.1201927302
O   O43       1.0  0.55090  0.20780  0.66140  1.0000 -0.4836043069
C   C64       1.0  0.48270  0.08580  0.56160  1.0000 0.0211683533
C   C65       1.0  0.42740  0.02600  0.51330  1.0000 -0.0101120867
O   O44       1.0  0.17240  0.99370  0.70810  1.0000 -0.1178062745
C   C66       1.0  0.16470  0.04920  0.71450  1.0000 0.1201927302
O   O45       1.0  0.65690  0.44910  0.66140  1.0000 -0.4853641758
C   C67       1.0  0.60310  0.51730  0.56160  1.0000 0.0211683533
C   C68       1.0  0.59860  0.57260  0.51330  1.0000 -0.0101120867
O   O46       1.0  0.82130  0.82760  0.70810  1.0000 -0.1178062745
C   C69       1.0  0.88450  0.83530  0.71450  1.0000 0.1201927302
O   O47       1.0  0.79220  0.34310  0.66140  1.0000 -0.4836043069
C   C70       1.0  0.91420  0.39690  0.56160  1.0000 0.0211683533
C   C71       1.0  0.97400  0.40140  0.51330  1.0000 -0.0101120867
O   O48       1.0  0.00630  0.17870  0.70810  1.0000 -0.1178062745
C   C72       1.0  0.95080  0.11550  0.71450  1.0000 0.1201927302
V   V1        1.0  0.27858  0.55715  0.25000  1.0000 1.068785432
N   N1        1.0  0.21815  0.43630  0.25000  1.0000 -0.1836186368
N   N2        1.0  0.10380  0.20760  0.25000  1.0000 -0.0185454137
C   C73       1.0  0.14055  0.28110  0.25000  1.0000 0.1361547789
C   C74       1.0  0.03800  0.07600  0.25000  1.0000 0.0393752141
V   V2        1.0  0.44285  0.72142  0.25000  1.0000 1.068785432
N   N3        1.0  0.56370  0.78185  0.25000  1.0000 -0.1836186368
N   N4        1.0  0.79240  0.89620  0.25000  1.0000 -0.0185454137
C   C75       1.0  0.71890  0.85945  0.25000  1.0000 0.1361547789
C   C76       1.0  0.92400  0.96200  0.25000  1.0000 0.0393752141
V   V3        1.0  0.27858  0.72142  0.25000  1.0000 1.068785432
N   N5        1.0  0.21815  0.78185  0.25000  1.0000 -0.1836186368
N   N6        1.0  0.10380  0.89620  0.25000  1.0000 -0.0185454137
C   C77       1.0  0.14055  0.85945  0.25000  1.0000 0.1361547789
C   C78       1.0  0.03800  0.96200  0.25000  1.0000 0.0393752141
V   V4        1.0  0.72142  0.44285  0.75000  1.0000 1.068785432
N   N7        1.0  0.78185  0.56370  0.75000  1.0000 -0.1836186368
N   N8        1.0  0.89620  0.79240  0.75000  1.0000 -0.0101120867
C   C79       1.0  0.85945  0.71890  0.75000  1.0000 0.1361547789
C   C80       1.0  0.96200  0.92400  0.75000  1.0000 0.0393752141
V   V5        1.0  0.55715  0.27858  0.75000  1.0000 1.068785432
N   N9        1.0  0.43630  0.21815  0.75000  1.0000 -0.1836186368
N   N10       1.0  0.20760  0.10380  0.75000  1.0000 -0.0101120867
C   C81       1.0  0.28110  0.14055  0.75000  1.0000 0.1361547789
C   C82       1.0  0.07600  0.03800  0.75000  1.0000 0.0342870174
V   V6        1.0  0.72142  0.27858  0.75000  1.0000 1.068785432
N   N11       1.0  0.78185  0.21815  0.75000  1.0000 -0.1836186368
N   N12       1.0  0.89620  0.10380  0.75000  1.0000 -0.0101120867
C   C83       1.0  0.85945  0.14055  0.75000  1.0000 0.1349953344
C   C84       1.0  0.96200  0.03800  0.75000  1.0000 0.0393752141
O   O49       1.0  0.33333  0.66667  0.25000  1.0000 -0.8509725103
O   O50       1.0  0.66667  0.33333  0.75000  1.0000 -0.8509725103
C   C85       1.0  0.18320  0.59160  0.14070  1.0000 0.5935144505
C   C86       1.0  0.11290  0.55645  0.08640  1.0000 -0.1286513291
C   C87       1.0  0.40840  0.59160  0.14070  1.0000 0.5935144505
C   C88       1.0  0.44355  0.55645  0.08640  1.0000 -0.1286513291
C   C89       1.0  0.40840  0.81680  0.14070  1.0000 0.5935144505
C   C90       1.0  0.44355  0.88710  0.08640  1.0000 -0.1286513291
C   C91       1.0  0.81680  0.40840  0.64070  1.0000 0.5935144505
C   C92       1.0  0.88710  0.44355  0.58640  1.0000 -0.1286513291
C   C93       1.0  0.59160  0.40840  0.64070  1.0000 0.5935144505
C   C94       1.0  0.55645  0.44355  0.58640  1.0000 -0.1286513291
C   C95       1.0  0.59160  0.18320  0.64070  1.0000 0.5935144505
C   C96       1.0  0.55645  0.11290  0.58640  1.0000 -0.1286513291
C   C97       1.0  0.59160  0.18320  0.85930  1.0000 0.5935144505
C   C98       1.0  0.55645  0.11290  0.91360  1.0000 -0.1286513291
C   C99       1.0  0.59160  0.40840  0.85930  1.0000 0.5935144505
C   C100      1.0  0.55645  0.44355  0.91360  1.0000 -0.1286513291
C   C101      1.0  0.81680  0.40840  0.85930  1.0000 0.5935144505
C   C102      1.0  0.88710  0.44355  0.91360  1.0000 -0.1286513291
C   C103      1.0  0.40840  0.81680  0.35930  1.0000 0.5935144505
C   C104      1.0  0.44355  0.88710  0.41360  1.0000 -0.1286513291
C   C105      1.0  0.40840  0.59160  0.35930  1.0000 0.5935144505
C   C106      1.0  0.44355  0.55645  0.41360  1.0000 -0.1286513291
C   C107      1.0  0.18320  0.59160  0.35930  1.0000 0.5935144505
C   C108      1.0  0.11290  0.55645  0.41360  1.0000 -0.1286513291
C   C109      1.0  0.00000  0.46990  0.00000  1.0000 -0.0323883537
C   C110      1.0  0.53010  0.53010  0.00000  1.0000 -0.0323883537
C   C111      1.0  0.46990  0.00000  0.00000  1.0000 -0.0323883537
C   C112      1.0  0.00000  0.53010  0.50000  1.0000 -0.0323883537
C   C113      1.0  0.46990  0.46990  0.50000  1.0000 -0.0365906178
C   C114      1.0  0.53010  0.00000  0.50000  1.0000 -0.0323883537
C   C115      1.0  0.00000  0.53010  0.00000  1.0000 -0.0323883537
C   C116      1.0  0.46990  0.46990  0.00000  1.0000 -0.0323883537
C   C117      1.0  0.53010  0.00000  0.00000  1.0000 -0.0323883537
C   C118      1.0  0.00000  0.46990  0.50000  1.0000 -0.0365906178
C   C119      1.0  0.53010  0.53010  0.50000  1.0000 -0.0365906178
C   C120      1.0  0.46990  0.00000  0.50000  1.0000 -0.0323883537
C   C121      1.0  0.25090  0.39740  0.25000  1.0000 0.0913684355
H   H1        1.0  0.30220  0.42270  0.25000  1.0000 0.1145740875
C   C122      1.0  0.21500  0.32160  0.25000  1.0000 -0.2289072766
H   H2        1.0  0.24240  0.29770  0.25000  1.0000 0.1349953344
C   C123      1.0  0.60260  0.85350  0.25000  1.0000 0.0913684355
H   H3        1.0  0.57730  0.87950  0.25000  1.0000 0.1145740875
C   C124      1.0  0.67840  0.89340  0.25000  1.0000 -0.2289072766
H   H4        1.0  0.70230  0.94470  0.25000  1.0000 0.1361547789
C   C125      1.0  0.14650  0.74910  0.25000  1.0000 0.0913684355
H   H5        1.0  0.12050  0.69780  0.25000  1.0000 0.1145740875
C   C126      1.0  0.10660  0.78500  0.25000  1.0000 -0.2289072766
H   H6        1.0  0.05530  0.75760  0.25000  1.0000 0.1361547789
C   C127      1.0  0.74910  0.60260  0.75000  1.0000 0.0913684355
H   H7        1.0  0.69780  0.57730  0.75000  1.0000 0.1145740875
C   C128      1.0  0.78500  0.67840  0.75000  1.0000 -0.2289072766
H   H8        1.0  0.75760  0.70230  0.75000  1.0000 0.1349953344
C   C129      1.0  0.39740  0.14650  0.75000  1.0000 0.0913684355
H   H9        1.0  0.42270  0.12050  0.75000  1.0000 0.1145740875
C   C130      1.0  0.32160  0.10660  0.75000  1.0000 -0.2289072766
H   H10       1.0  0.29770  0.05530  0.75000  1.0000 0.1349953344
C   C131      1.0  0.85350  0.25090  0.75000  1.0000 0.0913684355
H   H11       1.0  0.87950  0.30220  0.75000  1.0000 0.1145740875
C   C132      1.0  0.89340  0.21500  0.75000  1.0000 -0.2289072766
H   H12       1.0  0.94470  0.24240  0.75000  1.0000 0.1349953344
C   C133      1.0  0.39740  0.25090  0.75000  1.0000 0.0913684355
H   H13       1.0  0.42270  0.30220  0.75000  1.0000 0.1145740875
C   C134      1.0  0.32160  0.21500  0.75000  1.0000 -0.2289072766
H   H14       1.0  0.29770  0.24240  0.75000  1.0000 0.1349953344
C   C135      1.0  0.85350  0.60260  0.75000  1.0000 0.0913684355
H   H15       1.0  0.87950  0.57730  0.75000  1.0000 0.1145740875
C   C136      1.0  0.89340  0.67840  0.75000  1.0000 -0.2289072766
H   H16       1.0  0.94470  0.70230  0.75000  1.0000 0.1361547789
C   C137      1.0  0.74910  0.14650  0.75000  1.0000 0.0913684355
H   H17       1.0  0.69780  0.12050  0.75000  1.0000 0.1145740875
C   C138      1.0  0.78500  0.10660  0.75000  1.0000 -0.2289072766
H   H18       1.0  0.75760  0.05530  0.75000  1.0000 0.1349953344
C   C139      1.0  0.60260  0.74910  0.25000  1.0000 0.0913684355
H   H19       1.0  0.57730  0.69780  0.25000  1.0000 0.1145740875
C   C140      1.0  0.67840  0.78500  0.25000  1.0000 -0.2289072766
H   H20       1.0  0.70230  0.75760  0.25000  1.0000 0.1349953344
C   C141      1.0  0.14650  0.39740  0.25000  1.0000 0.0913684355
H   H21       1.0  0.12050  0.42270  0.25000  1.0000 0.1145740875
C   C142      1.0  0.10660  0.32160  0.25000  1.0000 -0.2289072766
H   H22       1.0  0.05530  0.29770  0.25000  1.0000 0.1361547789
C   C143      1.0  0.25090  0.85350  0.25000  1.0000 0.0913684355
H   H23       1.0  0.30220  0.87950  0.25000  1.0000 0.1145740875
C   C144      1.0  0.21500  0.89340  0.25000  1.0000 -0.2289072766
H   H24       1.0  0.24240  0.94470  0.25000  1.0000 0.1361547789
C   C145      1.0  0.07440  0.03720  0.25000  1.0000 -0.1570996959
H   H25       1.0  0.12570  0.06285  0.25000  1.0000 0.1988916254
C   C146      1.0  0.96280  0.03720  0.25000  1.0000 -0.1570996959
H   H26       1.0  0.93715  0.06285  0.25000  1.0000 0.191824556
C   C147      1.0  0.96280  0.92560  0.25000  1.0000 -0.1570996959
H   H27       1.0  0.93715  0.87430  0.25000  1.0000 0.191824556
C   C148      1.0  0.92560  0.96280  0.75000  1.0000 -0.1570996959
H   H28       1.0  0.87430  0.93715  0.75000  1.0000 0.191824556
C   C149      1.0  0.03720  0.96280  0.75000  1.0000 -0.1570996959
H   H29       1.0  0.06285  0.93715  0.75000  1.0000 0.191824556
C   C150      1.0  0.03720  0.07440  0.75000  1.0000 -0.1570996959
H   H30       1.0  0.06285  0.12570  0.75000  1.0000 0.1988916254
  Co  Co1       1.0  0.27858  0.55715  0.25000  1.0000
  Co  Co2       1.0  0.44285  0.72142  0.25000  1.0000
  Co  Co3       1.0  0.27858  0.72142  0.25000  1.0000
  Co  Co4       1.0  0.72142  0.44285  0.75000  1.0000
  Co  Co5       1.0  0.55715  0.27858  0.75000  1.0000
  Co  Co6       1.0  0.72142  0.27858  0.75000  1.0000
