# DDEC6 charges by PACMAN v1.1 (https://github.com/mtap-research/PACMAN-charge/)
data_KATTUX_ASR_pacman
_symmetry_space_group_name_H-M   'P 1'
_cell_length_a   16.40710000
_cell_length_b   16.40710000
_cell_length_c   10.03240000
_cell_angle_alpha   84.54340000
_cell_angle_beta   95.45660000
_cell_angle_gamma   99.33390000
_symmetry_Int_Tables_number   1
_chemical_formula_structural   LiZnH6(C5O2)4
_chemical_formula_sum   'Li4 Zn4 H24 C80 O32'
_cell_volume   2644.07874712
_cell_formula_units_Z   4
loop_
 _symmetry_equiv_pos_site_id
 _symmetry_equiv_pos_as_xyz
  1  'x, y, z'
loop_
 _atom_site_type_symbol
 _atom_site_label
 _atom_site_symmetry_multiplicity
 _atom_site_fract_x
 _atom_site_fract_y
 _atom_site_fract_z
 _atom_site_occupancy
 _atom_site_charge
Li  Li1  1  0.52650000  0.10350000  0.61430000  1.0 0.8364816065
Li  Li2  1  0.10350000  0.52650000  0.38570000  1.0 0.8364816065
Li  Li3  1  0.47350000  0.89650000  0.38570000  1.0 0.8364816065
Li  Li4  1  0.89650000  0.47350000  0.61430000  1.0 0.8364816065
Zn  Zn1  1  0.37681000  0.08529000  0.76305000  1.0 0.9214659687
Zn  Zn2  1  0.08529000  0.37681000  0.23695000  1.0 0.9214659687
Zn  Zn3  1  0.62319000  0.91471000  0.23695000  1.0 0.9214659687
Zn  Zn4  1  0.91471000  0.62319000  0.76305000  1.0 0.9214659687
H  H1  1  0.53030000  0.05030000  0.14570000  1.0 0.1376262934
H  H2  1  0.05030000  0.53030000  0.85430000  1.0 0.1376262934
H  H3  1  0.46970000  0.94970000  0.85430000  1.0 0.1376262934
H  H4  1  0.94970000  0.46970000  0.14570000  1.0 0.1376262934
H  H5  1  0.73460000  0.15840000  0.46730000  1.0 0.1376262934
H  H6  1  0.15840000  0.73460000  0.53270000  1.0 0.1376262934
H  H7  1  0.26540000  0.84160000  0.53270000  1.0 0.1376262934
H  H8  1  0.84160000  0.26540000  0.46730000  1.0 0.1376262934
H  H9  1  0.65200000  0.24040000  0.81940000  1.0 0.1304795738
H  H10  1  0.24040000  0.65200000  0.18060000  1.0 0.1304795738
H  H11  1  0.34800000  0.75960000  0.18060000  1.0 0.1304795738
H  H12  1  0.75960000  0.34800000  0.81940000  1.0 0.1304795738
H  H13  1  0.29050000  0.29050000  0.50000000  1.0 0.1450735088
H  H14  1  0.70950000  0.70950000  0.50000000  1.0 0.1450735088
H  H15  1  0.56820000  0.32440000  0.66480000  1.0 0.1304795738
H  H16  1  0.32440000  0.56820000  0.33520000  1.0 0.1304795738
H  H17  1  0.43180000  0.67560000  0.33520000  1.0 0.1304795738
H  H18  1  0.67560000  0.43180000  0.66480000  1.0 0.1304795738
H  H19  1  0.12090000  0.87910000  0.70960000  1.0 0.1304795738
H  H20  1  0.87910000  0.12090000  0.29040000  1.0 0.1304795738
H  H21  1  0.18800000  0.12140000  0.93170000  1.0 0.1376262934
H  H22  1  0.12140000  0.18800000  0.06830000  1.0 0.1376262934
H  H23  1  0.81200000  0.87860000  0.06830000  1.0 0.1376262934
H  H24  1  0.87860000  0.81200000  0.93170000  1.0 0.1376262934
C  C1  1  0.54010000  0.11598000  0.90150000  1.0 0.6093444582
C  C2  1  0.11598000  0.54010000  0.09850000  1.0 0.6093444582
C  C3  1  0.45990000  0.88402000  0.09850000  1.0 0.6093444582
C  C4  1  0.88402000  0.45990000  0.90150000  1.0 0.6093444582
C  C5  1  0.59487000  0.13865000  0.02480000  1.0 -0.0284905406
C  C6  1  0.13865000  0.59487000  0.97520000  1.0 -0.0284905406
C  C7  1  0.40513000  0.86135000  0.97520000  1.0 -0.0284905406
C  C8  1  0.86135000  0.40513000  0.02480000  1.0 -0.0284905406
C  C9  1  0.57706000  0.09280000  0.14480000  1.0 -0.1326353569
C  C10  1  0.09280000  0.57706000  0.85520000  1.0 -0.1326353569
C  C11  1  0.42294000  0.90720000  0.85520000  1.0 -0.1326353569
C  C12  1  0.90720000  0.42294000  0.14480000  1.0 -0.1326353569
C  C13  1  0.62548000  0.10736000  0.26310000  1.0 -0.0568645709
C  C14  1  0.10736000  0.62548000  0.73690000  1.0 -0.0568645709
C  C15  1  0.37452000  0.89264000  0.73690000  1.0 -0.0568645709
C  C16  1  0.89264000  0.37452000  0.26310000  1.0 -0.0568645709
C  C17  1  0.60018000  0.05260000  0.38520000  1.0 0.6421192642
C  C18  1  0.05260000  0.60018000  0.61480000  1.0 0.6421192642
C  C19  1  0.39982000  0.94740000  0.61480000  1.0 0.6421192642
C  C20  1  0.94740000  0.39982000  0.38520000  1.0 0.6421192642
C  C21  1  0.69316000  0.17276000  0.26600000  1.0 0.0752094145
C  C22  1  0.17276000  0.69316000  0.73400000  1.0 0.0752094145
C  C23  1  0.30684000  0.82724000  0.73400000  1.0 0.0752094145
C  C24  1  0.82724000  0.30684000  0.26600000  1.0 0.0752094145
C  C25  1  0.74518000  0.19154000  0.38600000  1.0 -0.0997985794
C  C26  1  0.19154000  0.74518000  0.61400000  1.0 -0.0997985794
C  C27  1  0.25482000  0.80846000  0.61400000  1.0 -0.0997985794
C  C28  1  0.80846000  0.25482000  0.38600000  1.0 -0.0997985794
C  C29  1  0.68380000  0.25226000  0.90140000  1.0 -0.1116877633
C  C30  1  0.25226000  0.68380000  0.09860000  1.0 -0.1116877633
C  C31  1  0.31620000  0.74774000  0.09860000  1.0 -0.1116877633
C  C32  1  0.74774000  0.31620000  0.90140000  1.0 -0.1116877633
C  C33  1  0.66335000  0.20275000  0.02100000  1.0 0.0684070102
C  C34  1  0.20275000  0.66335000  0.97900000  1.0 0.0684070102
C  C35  1  0.33665000  0.79725000  0.97900000  1.0 0.0684070102
C  C36  1  0.79725000  0.33665000  0.02100000  1.0 0.0684070102
C  C37  1  0.71164000  0.22036000  0.14370000  1.0 0.0024630378
C  C38  1  0.22036000  0.71164000  0.85630000  1.0 0.0024630378
C  C39  1  0.28836000  0.77964000  0.85630000  1.0 0.0024630378
C  C40  1  0.77964000  0.28836000  0.14370000  1.0 0.0024630378
C  C41  1  0.42195000  0.23443000  0.61130000  1.0 0.6041296776
C  C42  1  0.23443000  0.42195000  0.38870000  1.0 0.6041296776
C  C43  1  0.57805000  0.76557000  0.38870000  1.0 0.6041296776
C  C44  1  0.76557000  0.57805000  0.61130000  1.0 0.6041296776
C  C45  1  0.41213000  0.32147000  0.55690000  1.0 -0.0410257886
C  C46  1  0.32147000  0.41213000  0.44310000  1.0 -0.0410257886
C  C47  1  0.58787000  0.67853000  0.44310000  1.0 -0.0410257886
C  C48  1  0.67853000  0.58787000  0.55690000  1.0 -0.0410257886
C  C49  1  0.33520000  0.33520000  0.50000000  1.0 -0.0997985794
C  C50  1  0.66480000  0.66480000  0.50000000  1.0 -0.0997985794
C  C51  1  0.55935000  0.37681000  0.62190000  1.0 -0.1116877633
C  C52  1  0.37681000  0.55935000  0.37810000  1.0 -0.1116877633
C  C53  1  0.44065000  0.62319000  0.37810000  1.0 -0.1116877633
C  C54  1  0.62319000  0.44065000  0.62190000  1.0 -0.1116877633
C  C55  1  0.47904000  0.38626000  0.55910000  1.0 0.0684070102
C  C56  1  0.38626000  0.47904000  0.44090000  1.0 0.0684070102
C  C57  1  0.52096000  0.61374000  0.44090000  1.0 0.0684070102
C  C58  1  0.61374000  0.52096000  0.55910000  1.0 0.0684070102
C  C59  1  0.46630000  0.46630000  0.50000000  1.0 0.0194075759
C  C60  1  0.53370000  0.53370000  0.50000000  1.0 0.0194075759
C  C61  1  0.21883000  0.01331000  0.76840000  1.0 0.5651076789
C  C62  1  0.01331000  0.21883000  0.23160000  1.0 0.5651076789
C  C63  1  0.78117000  0.98669000  0.23160000  1.0 0.5651076789
C  C64  1  0.98669000  0.78117000  0.76840000  1.0 0.5648161526
C  C65  1  0.13686000  0.97728000  0.82160000  1.0 -0.0284905406
C  C66  1  0.97728000  0.13686000  0.17840000  1.0 -0.0284905406
C  C67  1  0.86314000  0.02272000  0.17840000  1.0 -0.0284905406
C  C68  1  0.02272000  0.86314000  0.82160000  1.0 -0.0284905406
C  C69  1  0.09670000  0.90330000  0.77550000  1.0 -0.11990113
C  C70  1  0.90330000  0.09670000  0.22450000  1.0 -0.11990113
C  C71  1  0.13525000  0.09627000  0.95900000  1.0 -0.1116877633
C  C72  1  0.09627000  0.13525000  0.04100000  1.0 -0.1116877633
C  C73  1  0.86475000  0.90373000  0.04100000  1.0 -0.1116877633
C  C74  1  0.90373000  0.86475000  0.95900000  1.0 -0.1116877633
C  C75  1  0.09860000  0.01812000  0.91270000  1.0 0.0684070102
C  C76  1  0.01812000  0.09860000  0.08730000  1.0 0.0684070102
C  C77  1  0.90140000  0.98188000  0.08730000  1.0 0.0684070102
C  C78  1  0.98188000  0.90140000  0.91270000  1.0 0.0684070102
C  C79  1  0.02020000  0.97980000  0.95510000  1.0 0.0194075759
C  C80  1  0.97980000  0.02020000  0.04490000  1.0 0.0194075759
O  O1  1  0.46284000  0.10714000  0.91270000  1.0 -0.5415725504
O  O2  1  0.10714000  0.46284000  0.08730000  1.0 -0.5415725504
O  O3  1  0.53716000  0.89286000  0.08730000  1.0 -0.5415725504
O  O4  1  0.89286000  0.53716000  0.91270000  1.0 -0.5415725504
O  O5  1  0.57228000  0.10406000  0.79830000  1.0 -0.6167932991
O  O6  1  0.10406000  0.57228000  0.20170000  1.0 -0.6167932991
O  O7  1  0.42772000  0.89594000  0.20170000  1.0 -0.6167932991
O  O8  1  0.89594000  0.42772000  0.79830000  1.0 -0.6167932991
O  O9  1  0.57867000  0.97489000  0.36890000  1.0 -0.6378895585
O  O10  1  0.97489000  0.57867000  0.63110000  1.0 -0.6378895585
O  O11  1  0.42133000  0.02511000  0.63110000  1.0 -0.6378895585
O  O12  1  0.02511000  0.42133000  0.36890000  1.0 -0.6378895585
O  O13  1  0.59712000  0.08200000  0.49330000  1.0 -0.576607937
O  O14  1  0.08200000  0.59712000  0.50670000  1.0 -0.576607937
O  O15  1  0.40288000  0.91800000  0.50670000  1.0 -0.576607937
O  O16  1  0.91800000  0.40288000  0.49330000  1.0 -0.576607937
O  O17  1  0.36240000  0.19510000  0.67630000  1.0 -0.5167089645
O  O18  1  0.19510000  0.36240000  0.32370000  1.0 -0.5167089645
O  O19  1  0.63760000  0.80490000  0.32370000  1.0 -0.5167089645
O  O20  1  0.80490000  0.63760000  0.67630000  1.0 -0.5167089645
O  O21  1  0.48368000  0.20550000  0.59030000  1.0 -0.5885042493
O  O22  1  0.20550000  0.48368000  0.40970000  1.0 -0.5885042493
O  O23  1  0.51632000  0.79450000  0.40970000  1.0 -0.5885042493
O  O24  1  0.79450000  0.51632000  0.59030000  1.0 -0.5885042493
O  O25  1  0.27796000  0.03836000  0.85380000  1.0 -0.5130753163
O  O26  1  0.03836000  0.27796000  0.14620000  1.0 -0.5130753163
O  O27  1  0.72204000  0.96164000  0.14620000  1.0 -0.5130753163
O  O28  1  0.96164000  0.72204000  0.85380000  1.0 -0.5130753163
O  O29  1  0.22636000  0.01600000  0.64690000  1.0 -0.4691210036
O  O30  1  0.01600000  0.22636000  0.35310000  1.0 -0.4691210036
O  O31  1  0.77364000  0.98400000  0.35310000  1.0 -0.4691210036
O  O32  1  0.98400000  0.77364000  0.64690000  1.0 -0.4691210036
