# DDEC6 charges by PACMAN v1.1 (https://github.com/mtap-research/PACMAN-charge/)
data_KAVTUY_ASR_pacman
_symmetry_space_group_name_H-M   'P 1'
_cell_length_a   4.82180000
_cell_length_b   19.89110000
_cell_length_c   18.50250000
_cell_angle_alpha   90.00000000
_cell_angle_beta   99.96810000
_cell_angle_gamma   90.00000000
_symmetry_Int_Tables_number   1
_chemical_formula_structural   Cu4P3H9C9O10
_chemical_formula_sum   'Cu16 P12 H36 C36 O40'
_cell_volume   1747.80280223
_cell_formula_units_Z   4
loop_
 _symmetry_equiv_pos_site_id
 _symmetry_equiv_pos_as_xyz
  1  'x, y, z'
loop_
 _atom_site_type_symbol
 _atom_site_label
 _atom_site_symmetry_multiplicity
 _atom_site_fract_x
 _atom_site_fract_y
 _atom_site_fract_z
 _atom_site_occupancy
 _atom_site_charge
Cu  Cu1  1  0.81962000  0.70356000  0.79760000  1.0 0.8093276391
Cu  Cu2  1  0.18038000  0.20356000  0.70240000  1.0 0.8093276391
Cu  Cu3  1  0.18038000  0.29644000  0.20240000  1.0 0.8093276391
Cu  Cu4  1  0.81962000  0.79644000  0.29760000  1.0 0.8093276391
Cu  Cu5  1  0.32840000  0.84259000  0.74874000  1.0 0.9903242806
Cu  Cu6  1  0.67160000  0.34259000  0.75126000  1.0 0.9903242806
Cu  Cu7  1  0.67160000  0.15741000  0.25126000  1.0 0.9903242806
Cu  Cu8  1  0.32840000  0.65741000  0.24874000  1.0 0.9903242806
Cu  Cu9  1  0.81080000  0.97000000  0.70350000  1.0 0.7377420137
Cu  Cu10  1  0.18920000  0.47000000  0.79650000  1.0 0.7377420137
Cu  Cu11  1  0.18920000  0.03000000  0.29650000  1.0 0.7377420137
Cu  Cu12  1  0.81080000  0.53000000  0.20350000  1.0 0.7377420137
Cu  Cu13  1  0.17030000  0.46330000  0.76550000  1.0 0.6673281262
Cu  Cu14  1  0.82970000  0.96330000  0.73450000  1.0 0.6673281262
Cu  Cu15  1  0.82970000  0.53670000  0.23450000  1.0 0.6673281262
Cu  Cu16  1  0.17030000  0.03670000  0.26550000  1.0 0.6673281262
P  P1  1  0.72863000  0.82540000  0.65153000  1.0 1.3131001064
P  P2  1  0.27137000  0.32540000  0.84847000  1.0 1.3131001064
P  P3  1  0.27137000  0.17460000  0.34847000  1.0 1.3131001064
P  P4  1  0.72863000  0.67460000  0.15153000  1.0 1.3131001064
P  P5  1  0.65920000  0.55722000  0.73160000  1.0 1.3378244409
P  P6  1  0.34080000  0.05722000  0.76840000  1.0 1.3378244409
P  P7  1  0.34080000  0.44278000  0.26840000  1.0 1.3378244409
P  P8  1  0.65920000  0.94278000  0.23160000  1.0 1.3378244409
P  P9  1  0.92289000  0.64722000  0.34679000  1.0 1.3131001064
P  P10  1  0.07711000  0.14722000  0.15321000  1.0 1.3131001064
P  P11  1  0.07711000  0.35278000  0.65321000  1.0 1.3131001064
P  P12  1  0.92289000  0.85278000  0.84679000  1.0 1.3131001064
H  H1  1  0.42870000  0.68210000  0.62500000  1.0 0.1443931977
H  H2  1  0.57130000  0.18210000  0.87500000  1.0 0.1443931977
H  H3  1  0.57130000  0.31790000  0.37500000  1.0 0.1443931977
H  H4  1  0.42870000  0.81790000  0.12500000  1.0 0.1443931977
H  H5  1  0.82630000  0.54040000  0.52970000  1.0 0.1194982598
H  H6  1  0.17370000  0.04040000  0.97030000  1.0 0.1194982598
H  H7  1  0.17370000  0.45960000  0.47030000  1.0 0.1194982598
H  H8  1  0.82630000  0.95960000  0.02970000  1.0 0.1194982598
H  H9  1  0.92250000  0.73290000  0.48100000  1.0 0.1274298909
H  H10  1  0.07750000  0.23290000  0.01900000  1.0 0.1274298909
H  H11  1  0.07750000  0.26710000  0.51900000  1.0 0.1274298909
H  H12  1  0.92250000  0.76710000  0.98100000  1.0 0.1274298909
H  H13  1  0.66070000  0.81810000  0.52600000  1.0 0.1603503669
H  H14  1  0.33930000  0.31810000  0.97400000  1.0 0.1603503669
H  H15  1  0.33930000  0.18190000  0.47400000  1.0 0.1603503669
H  H16  1  0.66070000  0.68190000  0.02600000  1.0 0.1603503669
H  H17  1  0.38500000  0.79740000  0.55430000  1.0 0.1724680955
H  H18  1  0.61500000  0.29740000  0.94570000  1.0 0.1724680955
H  H19  1  0.61500000  0.20260000  0.44570000  1.0 0.1724680955
H  H20  1  0.38500000  0.70260000  0.05430000  1.0 0.1724680955
H  H21  1  0.30870000  0.55440000  0.63000000  1.0 0.1603503669
H  H22  1  0.69130000  0.05440000  0.87000000  1.0 0.1603503669
H  H23  1  0.69130000  0.44560000  0.37000000  1.0 0.1603503669
H  H24  1  0.30870000  0.94560000  0.13000000  1.0 0.1603503669
H  H25  1  0.55410000  0.50620000  0.61860000  1.0 0.1603503669
H  H26  1  0.44590000  0.00620000  0.88140000  1.0 0.1603503669
H  H27  1  0.44590000  0.49380000  0.38140000  1.0 0.1603503669
H  H28  1  0.55410000  0.99380000  0.11860000  1.0 0.1603503669
H  H29  1  0.25290000  0.62790000  0.44990000  1.0 0.1724680955
H  H30  1  0.74710000  0.12790000  0.05010000  1.0 0.1724680955
H  H31  1  0.74710000  0.37210000  0.55010000  1.0 0.1724680955
H  H32  1  0.25290000  0.87210000  0.94990000  1.0 0.1724680955
H  H33  1  0.06170000  0.56430000  0.43160000  1.0 0.1603503669
H  H34  1  0.93830000  0.06430000  0.06840000  1.0 0.1603503669
H  H35  1  0.93830000  0.43570000  0.56840000  1.0 0.1603503669
H  H36  1  0.06170000  0.93570000  0.93160000  1.0 0.1603503669
C  C1  1  0.65720000  0.71880000  0.55380000  1.0 0.1882141749
C  C2  1  0.34280000  0.21880000  0.94620000  1.0 0.1882141749
C  C3  1  0.34280000  0.28120000  0.44620000  1.0 0.1882141749
C  C4  1  0.65720000  0.78120000  0.05380000  1.0 0.1882141749
C  C5  1  0.55010000  0.66980000  0.59330000  1.0 -0.2343114471
C  C6  1  0.44990000  0.16980000  0.90670000  1.0 -0.2343114471
C  C7  1  0.44990000  0.33020000  0.40670000  1.0 -0.2343114471
C  C8  1  0.55010000  0.83020000  0.09330000  1.0 -0.2343114471
C  C9  1  0.61740000  0.60260000  0.58750000  1.0 0.1840478251
C  C10  1  0.38260000  0.10260000  0.91250000  1.0 0.1840478251
C  C11  1  0.38260000  0.39740000  0.41250000  1.0 0.1840478251
C  C12  1  0.61740000  0.89740000  0.08750000  1.0 0.1840478251
C  C13  1  0.78530000  0.58550000  0.53600000  1.0 -0.2565309932
C  C14  1  0.21470000  0.08550000  0.96400000  1.0 -0.2565309932
C  C15  1  0.21470000  0.41450000  0.46400000  1.0 -0.2565309932
C  C16  1  0.78530000  0.91450000  0.03600000  1.0 -0.2565309932
C  C17  1  0.89250000  0.63290000  0.49420000  1.0 0.1882141749
C  C18  1  0.10750000  0.13290000  0.00580000  1.0 0.1882141749
C  C19  1  0.10750000  0.36710000  0.50580000  1.0 0.1882141749
C  C20  1  0.89250000  0.86710000  0.99420000  1.0 0.1882141749
C  C21  1  0.83830000  0.69990000  0.50560000  1.0 -0.2373284926
C  C22  1  0.16170000  0.19990000  0.99440000  1.0 -0.2373284926
C  C23  1  0.16170000  0.30010000  0.49440000  1.0 -0.2373284926
C  C24  1  0.83830000  0.80010000  0.00560000  1.0 -0.2373284926
C  C25  1  0.58810000  0.79210000  0.56300000  1.0 -0.5308641126
C  C26  1  0.41190000  0.29210000  0.93700000  1.0 -0.5308641126
C  C27  1  0.41190000  0.20790000  0.43700000  1.0 -0.5308641126
C  C28  1  0.58810000  0.70790000  0.06300000  1.0 -0.5308641126
C  C29  1  0.51180000  0.55050000  0.63560000  1.0 -0.5629177322
C  C30  1  0.48820000  0.05050000  0.86440000  1.0 -0.5629177322
C  C31  1  0.48820000  0.44950000  0.36440000  1.0 -0.5629177322
C  C32  1  0.51180000  0.94950000  0.13560000  1.0 -0.5629177322
C  C33  1  0.05970000  0.61300000  0.43520000  1.0 -0.5308641126
C  C34  1  0.94030000  0.11300000  0.06480000  1.0 -0.5308641126
C  C35  1  0.94030000  0.38700000  0.56480000  1.0 -0.5308641126
C  C36  1  0.05970000  0.88700000  0.93520000  1.0 -0.5308641126
O  O1  1  0.59930000  0.78672000  0.70920000  1.0 -0.7772625616
O  O2  1  0.40070000  0.28672000  0.79080000  1.0 -0.7772625616
O  O3  1  0.40070000  0.21328000  0.29080000  1.0 -0.7772625616
O  O4  1  0.59930000  0.71328000  0.20920000  1.0 -0.7772625616
O  O5  1  0.04720000  0.81674000  0.66330000  1.0 -0.7062215289
O  O6  1  0.95280000  0.31674000  0.83670000  1.0 -0.7062215289
O  O7  1  0.95280000  0.18326000  0.33670000  1.0 -0.7062215289
O  O8  1  0.04720000  0.68326000  0.16330000  1.0 -0.7062215289
O  O9  1  0.63970000  0.89870000  0.65240000  1.0 -0.643326067
O  O10  1  0.36030000  0.39870000  0.84760000  1.0 -0.643326067
O  O11  1  0.36030000  0.10130000  0.34760000  1.0 -0.643326067
O  O12  1  0.63970000  0.60130000  0.15240000  1.0 -0.643326067
O  O13  1  0.59260000  0.62747000  0.75700000  1.0 -0.7242572536
O  O14  1  0.40740000  0.12747000  0.74300000  1.0 -0.7242572536
O  O15  1  0.40740000  0.37253000  0.24300000  1.0 -0.7250931492
O  O16  1  0.59260000  0.87253000  0.25700000  1.0 -0.7242572536
O  O17  1  0.97710000  0.54588000  0.74330000  1.0 -0.6697647502
O  O18  1  0.02290000  0.04588000  0.75670000  1.0 -0.6697647502
O  O19  1  0.02290000  0.45412000  0.25670000  1.0 -0.6697647502
O  O20  1  0.97710000  0.95412000  0.24330000  1.0 -0.6697647502
O  O21  1  0.52560000  0.50290000  0.77240000  1.0 -0.6486457666
O  O22  1  0.47440000  0.00290000  0.72760000  1.0 -0.6486457666
O  O23  1  0.47440000  0.49710000  0.22760000  1.0 -0.6486457666
O  O24  1  0.52560000  0.99710000  0.27240000  1.0 -0.6486457666
O  O25  1  0.03116000  0.71906000  0.34366000  1.0 -0.7704014411
O  O26  1  0.96884000  0.21906000  0.15634000  1.0 -0.7704014411
O  O27  1  0.96884000  0.28094000  0.65634000  1.0 -0.7704014411
O  O28  1  0.03116000  0.78094000  0.84366000  1.0 -0.7704014411
O  O29  1  0.05003000  0.60497000  0.28933000  1.0 -0.7558314433
O  O30  1  0.94997000  0.10497000  0.21067000  1.0 -0.7558314433
O  O31  1  0.94997000  0.39503000  0.71067000  1.0 -0.7558314433
O  O32  1  0.05003000  0.89503000  0.78933000  1.0 -0.7558314433
O  O33  1  0.60395000  0.64022000  0.33485000  1.0 -0.7486332586
O  O34  1  0.39605000  0.14022000  0.16515000  1.0 -0.7486332586
O  O35  1  0.39605000  0.35978000  0.66515000  1.0 -0.7486332586
O  O36  1  0.60395000  0.85978000  0.83485000  1.0 -0.7486332586
O  O37  1  0.06820000  0.96410000  0.62860000  1.0 -0.3095119601
O  O38  1  0.93180000  0.46410000  0.87140000  1.0 -0.3095119601
O  O39  1  0.93180000  0.03590000  0.37140000  1.0 -0.3095119601
O  O40  1  0.06820000  0.53590000  0.12860000  1.0 -0.3095119601
