# DDEC6 charges by PACMAN v1.1 (https://github.com/mtap-research/PACMAN-charge/)
data_KAVXAI_ASR_pacman
_symmetry_space_group_name_H-M   'P 1'
_cell_length_a   17.59540000
_cell_length_b   17.59540000
_cell_length_c   17.59540000
_cell_angle_alpha   128.03500000
_cell_angle_beta   128.03500000
_cell_angle_gamma   76.56760000
_symmetry_Int_Tables_number   1
_chemical_formula_structural   CoH12C29NO4
_chemical_formula_sum   'Co4 H48 C116 N4 O16'
_cell_volume   3282.76705563
_cell_formula_units_Z   4
loop_
 _symmetry_equiv_pos_site_id
 _symmetry_equiv_pos_as_xyz
  1  'x, y, z'
loop_
 _atom_site_type_symbol
 _atom_site_label
 _atom_site_symmetry_multiplicity
 _atom_site_fract_x
 _atom_site_fract_y
 _atom_site_fract_z
 _atom_site_occupancy
 _atom_site_charge
Co  Co1  1  0.20158000  0.20158000  0.00000000  1.0 0.8109118157
Co  Co2  1  0.29842000  0.29842000  0.00000000  1.0 0.8109118157
Co  Co3  1  0.79842000  0.79842000  0.00000000  1.0 0.8109118157
Co  Co4  1  0.70158000  0.70158000  0.00000000  1.0 0.8109118157
H  H1  1  0.51720000  0.27160000  0.42520000  1.0 0.1253539287
H  H2  1  0.27160000  0.84640000  0.75440000  1.0 0.1253539287
H  H3  1  0.84640000  0.09200000  0.57480000  1.0 0.1253539287
H  H4  1  0.09200000  0.51720000  0.24560000  1.0 0.1253539287
H  H5  1  0.98280000  0.40800000  0.75440000  1.0 0.1253539287
H  H6  1  0.65360000  0.22840000  0.24560000  1.0 0.1253539287
H  H7  1  0.40800000  0.65360000  0.42520000  1.0 0.1253539287
H  H8  1  0.22840000  0.98280000  0.57480000  1.0 0.1253539287
H  H9  1  0.48280000  0.72840000  0.57480000  1.0 0.1253539287
H  H10  1  0.72840000  0.15360000  0.24560000  1.0 0.1253539287
H  H11  1  0.15360000  0.90800000  0.42520000  1.0 0.1253539287
H  H12  1  0.90800000  0.48280000  0.75440000  1.0 0.1253539287
H  H13  1  0.01720000  0.59200000  0.24560000  1.0 0.1253539287
H  H14  1  0.34640000  0.77160000  0.75440000  1.0 0.1253539287
H  H15  1  0.59200000  0.34640000  0.57480000  1.0 0.1253539287
H  H16  1  0.77160000  0.01720000  0.42520000  1.0 0.1253539287
H  H17  1  0.49630000  0.25970000  0.31560000  1.0 0.1247058772
H  H18  1  0.25970000  0.94410000  0.76340000  1.0 0.1247058772
H  H19  1  0.94410000  0.18070000  0.68440000  1.0 0.1247058772
H  H20  1  0.18070000  0.49630000  0.23660000  1.0 0.1253539287
H  H21  1  0.00370000  0.31930000  0.76340000  1.0 0.1247058772
H  H22  1  0.55590000  0.24030000  0.23660000  1.0 0.1247058772
H  H23  1  0.31930000  0.55590000  0.31560000  1.0 0.1247058772
H  H24  1  0.24030000  0.00370000  0.68440000  1.0 0.1247058772
H  H25  1  0.50370000  0.74030000  0.68440000  1.0 0.1247058772
H  H26  1  0.74030000  0.05590000  0.23660000  1.0 0.1247058772
H  H27  1  0.05590000  0.81930000  0.31560000  1.0 0.1247058772
H  H28  1  0.81930000  0.50370000  0.76340000  1.0 0.1247058772
H  H29  1  0.99630000  0.68070000  0.23660000  1.0 0.1247058772
H  H30  1  0.44410000  0.75970000  0.76340000  1.0 0.1247058772
H  H31  1  0.68070000  0.44410000  0.68440000  1.0 0.1247058772
H  H32  1  0.75970000  0.99630000  0.31560000  1.0 0.1253539287
H  H33  1  0.40600000  0.25370000  0.31430000  1.0 0.1359719374
H  H34  1  0.25370000  0.93940000  0.84770000  1.0 0.1359719374
H  H35  1  0.93940000  0.09170000  0.68570000  1.0 0.1359719374
H  H36  1  0.09170000  0.40600000  0.15230000  1.0 0.1359719374
H  H37  1  0.09400000  0.40830000  0.84770000  1.0 0.1359719374
H  H38  1  0.56060000  0.24630000  0.15230000  1.0 0.1359719374
H  H39  1  0.40830000  0.56060000  0.31430000  1.0 0.1359719374
H  H40  1  0.24630000  0.09400000  0.68570000  1.0 0.1359719374
H  H41  1  0.59400000  0.74630000  0.68570000  1.0 0.1359719374
H  H42  1  0.74630000  0.06060000  0.15230000  1.0 0.1359719374
H  H43  1  0.06060000  0.90830000  0.31430000  1.0 0.1359719374
H  H44  1  0.90830000  0.59400000  0.84770000  1.0 0.1359719374
H  H45  1  0.90600000  0.59170000  0.15230000  1.0 0.1359719374
H  H46  1  0.43940000  0.75370000  0.84770000  1.0 0.1359719374
H  H47  1  0.59170000  0.43940000  0.68570000  1.0 0.1359719374
H  H48  1  0.75370000  0.90600000  0.31430000  1.0 0.1359719374
C  C1  1  0.36809000  0.36809000  0.23618000  1.0 0.5673182943
C  C2  1  0.36809000  0.13191000  0.00000000  1.0 0.5673182943
C  C3  1  0.13191000  0.13191000  0.76382000  1.0 0.5673182943
C  C4  1  0.13191000  0.36809000  0.00000000  1.0 0.5673182943
C  C5  1  0.63191000  0.63191000  0.76382000  1.0 0.5673182943
C  C6  1  0.63191000  0.86809000  0.00000000  1.0 0.5673182943
C  C7  1  0.86809000  0.86809000  0.23618000  1.0 0.5673182943
C  C8  1  0.86809000  0.63191000  0.00000000  1.0 0.5673182943
C  C9  1  0.43687000  0.43687000  0.37374000  1.0 -0.1046588308
C  C10  1  0.43687000  0.06313000  0.00000000  1.0 -0.1046588308
C  C11  1  0.06313000  0.06313000  0.62626000  1.0 -0.1046588308
C  C12  1  0.06313000  0.43687000  0.00000000  1.0 -0.1046588308
C  C13  1  0.56313000  0.56313000  0.62626000  1.0 -0.1046588308
C  C14  1  0.56313000  0.93687000  0.00000000  1.0 -0.1046588308
C  C15  1  0.93687000  0.93687000  0.37374000  1.0 -0.1046588308
C  C16  1  0.93687000  0.56313000  0.00000000  1.0 -0.1046588308
C  C17  1  0.48784000  0.39589000  0.43513000  1.0 0.0882705851
C  C18  1  0.39589000  0.96076000  0.90805000  1.0 0.0882705851
C  C19  1  0.96076000  0.05271000  0.56487000  1.0 0.0882705851
C  C20  1  0.05271000  0.48784000  0.09195000  1.0 0.0882705851
C  C21  1  0.01216000  0.44729000  0.90805000  1.0 0.0882705851
C  C22  1  0.53924000  0.10411000  0.09195000  1.0 0.0882705851
C  C23  1  0.44729000  0.53924000  0.43513000  1.0 0.0882705851
C  C24  1  0.10411000  0.01216000  0.56487000  1.0 0.0882705851
C  C25  1  0.51216000  0.60411000  0.56487000  1.0 0.0882705851
C  C26  1  0.60411000  0.03924000  0.09195000  1.0 0.0882705851
C  C27  1  0.03924000  0.94729000  0.43513000  1.0 0.0882705851
C  C28  1  0.94729000  0.51216000  0.90805000  1.0 0.0882705851
C  C29  1  0.98784000  0.55271000  0.09195000  1.0 0.0882705851
C  C30  1  0.46076000  0.89589000  0.90805000  1.0 0.0882705851
C  C31  1  0.55271000  0.46076000  0.56487000  1.0 0.0882705851
C  C32  1  0.89589000  0.98784000  0.43513000  1.0 0.0882705851
C  C33  1  0.47582000  0.28567000  0.36665000  1.0 -0.4471878148
C  C34  1  0.28567000  0.91902000  0.80985000  1.0 -0.4471878148
C  C35  1  0.91902000  0.10917000  0.63335000  1.0 -0.4471878148
C  C36  1  0.10917000  0.47582000  0.19015000  1.0 -0.4471878148
C  C37  1  0.02418000  0.39083000  0.80985000  1.0 -0.4471878148
C  C38  1  0.58098000  0.21433000  0.19015000  1.0 -0.4471878148
C  C39  1  0.39083000  0.58098000  0.36665000  1.0 -0.4471878148
C  C40  1  0.21433000  0.02418000  0.63335000  1.0 -0.4471878148
C  C41  1  0.52418000  0.71433000  0.63335000  1.0 -0.4471878148
C  C42  1  0.71433000  0.08098000  0.19015000  1.0 -0.4471878148
C  C43  1  0.08098000  0.89083000  0.36665000  1.0 -0.4471878148
C  C44  1  0.89083000  0.52418000  0.80985000  1.0 -0.4471878148
C  C45  1  0.97582000  0.60917000  0.19015000  1.0 -0.4471878148
C  C46  1  0.41902000  0.78567000  0.80985000  1.0 -0.4471878148
C  C47  1  0.60917000  0.41902000  0.63335000  1.0 -0.4471878148
C  C48  1  0.78567000  0.97582000  0.36665000  1.0 -0.4471878148
C  C49  1  0.02610000  0.02610000  0.00000000  1.0 0.0134045213
C  C50  1  0.47390000  0.47390000  0.00000000  1.0 0.0134045213
C  C51  1  0.97390000  0.97390000  0.00000000  1.0 0.0134045213
C  C52  1  0.52610000  0.52610000  0.00000000  1.0 0.0134045213
C  C53  1  0.10830000  0.99090000  0.99700000  1.0 -0.0021328291
C  C54  1  0.99090000  0.99390000  0.88260000  1.0 -0.0021328291
C  C55  1  0.99390000  0.11130000  0.00300000  1.0 0.0003191592
C  C56  1  0.11130000  0.10830000  0.11740000  1.0 -0.0021328291
C  C57  1  0.39170000  0.38870000  0.88260000  1.0 -0.0021328291
C  C58  1  0.50610000  0.50910000  0.11740000  1.0 -0.0021328291
C  C59  1  0.38870000  0.50610000  0.99700000  1.0 -0.0021328291
C  C60  1  0.50910000  0.39170000  0.00300000  1.0 -0.0021328291
C  C61  1  0.89170000  0.00910000  0.00300000  1.0 0.0003191592
C  C62  1  0.00910000  0.00610000  0.11740000  1.0 -0.0021328291
C  C63  1  0.00610000  0.88870000  0.99700000  1.0 -0.0021328291
C  C64  1  0.88870000  0.89170000  0.88260000  1.0 -0.0021328291
C  C65  1  0.60830000  0.61130000  0.11740000  1.0 -0.0021328291
C  C66  1  0.49390000  0.49090000  0.88260000  1.0 -0.0021328291
C  C67  1  0.61130000  0.49390000  0.00300000  1.0 0.0003191592
C  C68  1  0.49090000  0.60830000  0.99700000  1.0 -0.0021328291
C  C69  1  0.18450000  0.09300000  0.06730000  1.0 0.0220312555
C  C70  1  0.09300000  0.02570000  0.90850000  1.0 0.0220312555
C  C71  1  0.02570000  0.11720000  0.93270000  1.0 0.0220312555
C  C72  1  0.11720000  0.18450000  0.09150000  1.0 0.0220312555
C  C73  1  0.31550000  0.38280000  0.90850000  1.0 0.0220312555
C  C74  1  0.47430000  0.40700000  0.09150000  1.0 0.0220312555
C  C75  1  0.38280000  0.47430000  0.06730000  1.0 0.0220312555
C  C76  1  0.40700000  0.31550000  0.93270000  1.0 0.0220312555
C  C77  1  0.81550000  0.90700000  0.93270000  1.0 0.0220312555
C  C78  1  0.90700000  0.97430000  0.09150000  1.0 0.0220312555
C  C79  1  0.97430000  0.88280000  0.06730000  1.0 0.0220312555
C  C80  1  0.88280000  0.81550000  0.90850000  1.0 0.0220312555
C  C81  1  0.68450000  0.61720000  0.09150000  1.0 0.0220312555
C  C82  1  0.52570000  0.59300000  0.90850000  1.0 0.0220312555
C  C83  1  0.61720000  0.52570000  0.93270000  1.0 0.0220312555
C  C84  1  0.59300000  0.68450000  0.06730000  1.0 0.0220312555
C  C85  1  0.16600000  0.14380000  0.10280000  1.0 0.0357598732
C  C86  1  0.14380000  0.04100000  0.97780000  1.0 0.0339235412
C  C87  1  0.04100000  0.06320000  0.89720000  1.0 0.0339235412
C  C88  1  0.06320000  0.16600000  0.02220000  1.0 0.0357598732
C  C89  1  0.33400000  0.43680000  0.97780000  1.0 0.0339235412
C  C90  1  0.45900000  0.35620000  0.02220000  1.0 0.0339235412
C  C91  1  0.43680000  0.45900000  0.10280000  1.0 0.0357598732
C  C92  1  0.35620000  0.33400000  0.89720000  1.0 0.0339235412
C  C93  1  0.83400000  0.85620000  0.89720000  1.0 0.0339235412
C  C94  1  0.85620000  0.95900000  0.02220000  1.0 0.0357598732
C  C95  1  0.95900000  0.93680000  0.10280000  1.0 0.0357598732
C  C96  1  0.93680000  0.83400000  0.97780000  1.0 0.0339235412
C  C97  1  0.66600000  0.56320000  0.02220000  1.0 0.0357598732
C  C98  1  0.54100000  0.64380000  0.97780000  1.0 0.0339235412
C  C99  1  0.56320000  0.54100000  0.89720000  1.0 0.0339235412
C  C100  1  0.64380000  0.66600000  0.10280000  1.0 0.0357598732
C  C101  1  0.95060000  0.86940000  0.92560000  1.0 0.0220312555
C  C102  1  0.86940000  0.94380000  0.91880000  1.0 0.0220312555
C  C103  1  0.94380000  0.02500000  0.07440000  1.0 0.0220312555
C  C104  1  0.02500000  0.95060000  0.08120000  1.0 0.0220312555
C  C105  1  0.54940000  0.47500000  0.91880000  1.0 0.0220312555
C  C106  1  0.55620000  0.63060000  0.08120000  1.0 0.0220312555
C  C107  1  0.47500000  0.55620000  0.92560000  1.0 0.0220312555
C  C108  1  0.63060000  0.54940000  0.07440000  1.0 0.0220312555
C  C109  1  0.04940000  0.13060000  0.07440000  1.0 0.0220312555
C  C110  1  0.13060000  0.05620000  0.08120000  1.0 0.0220312555
C  C111  1  0.05620000  0.97500000  0.92560000  1.0 0.0220312555
C  C112  1  0.97500000  0.04940000  0.91880000  1.0 0.0220312555
C  C113  1  0.45060000  0.52500000  0.08120000  1.0 0.0220312555
C  C114  1  0.44380000  0.36940000  0.91880000  1.0 0.0220312555
C  C115  1  0.52500000  0.44380000  0.07440000  1.0 0.0220312555
C  C116  1  0.36940000  0.45060000  0.92560000  1.0 0.0220312555
N  N1  1  0.12780000  0.12780000  0.00000000  1.0 -0.108498033
N  N2  1  0.37220000  0.37220000  0.00000000  1.0 -0.108498033
N  N3  1  0.87220000  0.87220000  0.00000000  1.0 -0.108498033
N  N4  1  0.62780000  0.62780000  0.00000000  1.0 -0.108498033
O  O1  1  0.28880000  0.31623000  0.18305000  1.0 -0.515636105
O  O2  1  0.31623000  0.13318000  0.02743000  1.0 -0.5144476352
O  O3  1  0.13318000  0.10575000  0.81695000  1.0 -0.5144476352
O  O4  1  0.10575000  0.28880000  0.97257000  1.0 -0.5144476352
O  O5  1  0.21120000  0.39425000  0.02743000  1.0 -0.5144476352
O  O6  1  0.36682000  0.18377000  0.97257000  1.0 -0.5144476352
O  O7  1  0.39425000  0.36682000  0.18305000  1.0 -0.515636105
O  O8  1  0.18377000  0.21120000  0.81695000  1.0 -0.5144476352
O  O9  1  0.71120000  0.68377000  0.81695000  1.0 -0.5144476352
O  O10  1  0.68377000  0.86682000  0.97257000  1.0 -0.5144476352
O  O11  1  0.86682000  0.89425000  0.18305000  1.0 -0.5144476352
O  O12  1  0.89425000  0.71120000  0.02743000  1.0 -0.5144476352
O  O13  1  0.78880000  0.60575000  0.97257000  1.0 -0.5144476352
O  O14  1  0.63318000  0.81623000  0.02743000  1.0 -0.5144476352
O  O15  1  0.60575000  0.63318000  0.81695000  1.0 -0.5144476352
O  O16  1  0.81623000  0.78880000  0.18305000  1.0 -0.5144476352
