# DDEC6 charges by PACMAN v1.1 (https://github.com/mtap-research/PACMAN-charge/)
data_KAXCUK_ASR_pacman
_symmetry_space_group_name_H-M   'P 1'
_cell_length_a   10.16440000
_cell_length_b   15.84030000
_cell_length_c   33.74850000
_cell_angle_alpha   101.56700000
_cell_angle_beta   94.61000000
_cell_angle_gamma   95.15300000
_symmetry_Int_Tables_number   1
_chemical_formula_structural   MnH13C20Br(NO)4
_chemical_formula_sum   'Mn8 H104 C160 Br8 N32 O32'
_cell_volume   5274.86042454
_cell_formula_units_Z   8
loop_
 _symmetry_equiv_pos_site_id
 _symmetry_equiv_pos_as_xyz
  1  'x, y, z'
loop_
 _atom_site_type_symbol
 _atom_site_label
 _atom_site_symmetry_multiplicity
 _atom_site_fract_x
 _atom_site_fract_y
 _atom_site_fract_z
 _atom_site_occupancy
 _atom_site_charge
Mn  Mn1  1  0.28863000  0.60195000  0.16574000  1.0 0.8511216236
Mn  Mn2  1  0.96809000  0.60267000  0.08681000  1.0 0.8582555943
Mn  Mn3  1  0.52324000  0.37945000  0.40778000  1.0 0.8582555943
Mn  Mn4  1  0.20724000  0.38178000  0.32878000  1.0 0.8582555943
Mn  Mn5  1  0.71137000  0.39805000  0.83426000  1.0 0.8511216236
Mn  Mn6  1  0.03191000  0.39733000  0.91319000  1.0 0.8582555943
Mn  Mn7  1  0.47676000  0.62055000  0.59222000  1.0 0.8582555943
Mn  Mn8  1  0.79276000  0.61822000  0.67122000  1.0 0.8582555943
H  H1  1  0.15760000  0.46610000  0.21210000  1.0 0.117911336
H  H2  1  0.32660000  0.27520000  0.11280000  1.0 0.1307953675
H  H3  1  0.90220000  0.30200000  0.12240000  1.0 0.1307953675
H  H4  1  0.33610000  0.42130000  0.11230000  1.0 0.1008312308
H  H5  1  0.75800000  0.60980000  0.16570000  1.0 0.1307953675
H  H6  1  0.89490000  0.44590000  0.12720000  1.0 0.1008312308
H  H7  1  0.01620000  0.62750000  0.26570000  1.0 0.1307953675
H  H8  1  0.12880000  0.32290000  0.21350000  1.0 0.148094338
H  H9  1  0.50110000  0.57770000  0.08470000  1.0 0.1377614943
H  H10  1  0.62060000  0.61970000  0.27590000  1.0 0.1377614943
H  H11  1  0.05630000  0.44240000  0.02570000  1.0 0.117911336
H  H12  1  0.07940000  0.76420000  0.05280000  1.0 0.1112477731
H  H13  1  0.17180000  0.92320000  0.18540000  1.0 0.1307953675
H  H14  1  0.07750000  0.29720000  0.01750000  1.0 0.1377614943
H  H15  1  0.25510000  0.64000000  0.99630000  1.0 0.1307953675
H  H16  1  0.64640000  0.62790000  0.98250000  1.0 0.1307953675
H  H17  1  0.16800000  0.78490000  0.19680000  1.0 0.1112477731
H  H18  1  0.15120000  0.17300000  0.18340000  1.0 0.1008312308
H  H19  1  0.45370000  0.73230000  0.12650000  1.0 0.1112477731
H  H20  1  0.85800000  0.76340000  0.14200000  1.0 0.117911336
H  H21  1  0.06810000  0.90840000  0.05640000  1.0 0.1377614943
H  H22  1  0.03760000  0.15900000  0.04120000  1.0 0.1112477731
H  H23  1  0.84280000  0.90930000  0.14960000  1.0 0.1377614943
H  H24  1  0.90470000  0.05010000  0.13010000  1.0 0.1112477731
H  H25  1  0.39060000  0.01700000  0.12260000  1.0 0.1112477731
H  H26  1  0.47050000  0.87090000  0.11420000  1.0 0.1377614943
H  H27  1  0.45200000  0.53930000  0.47180000  1.0 0.117911336
H  H28  1  0.58180000  0.68560000  0.37340000  1.0 0.1307953675
H  H29  1  0.59420000  0.53780000  0.36580000  1.0 0.1008312308
H  H30  1  0.29650000  0.52810000  0.28330000  1.0 0.1112477731
H  H31  1  0.99300000  0.38740000  0.40810000  1.0 0.1377614943
H  H32  1  0.48450000  0.38590000  0.23060000  1.0 0.1377614943
H  H33  1  0.44010000  0.68630000  0.48240000  1.0 0.1377614943
H  H34  1  0.18770000  0.55360000  0.39450000  1.0 0.1008312308
H  H35  1  0.29870000  0.67650000  0.28640000  1.0 0.148094338
H  H36  1  0.18440000  0.70190000  0.40050000  1.0 0.117911336
H  H37  1  0.24980000  0.39380000  0.50750000  1.0 0.1307953675
H  H38  1  0.87940000  0.38710000  0.22080000  1.0 0.1307953675
H  H39  1  0.85480000  0.39270000  0.51830000  1.0 0.1307953675
H  H40  1  0.47410000  0.82770000  0.45890000  1.0 0.1112477731
H  H41  1  0.18150000  0.07400000  0.36510000  1.0 0.1307953675
H  H42  1  0.56610000  0.21130000  0.34250000  1.0 0.117911336
H  H43  1  0.73670000  0.37570000  0.32910000  1.0 0.1307953675
H  H44  1  0.55070000  0.92870000  0.36240000  1.0 0.1112477731
H  H45  1  0.57510000  0.06340000  0.33570000  1.0 0.1377614943
H  H46  1  0.26030000  0.21950000  0.26170000  1.0 0.1112477731
H  H47  1  0.26690000  0.93470000  0.27450000  1.0 0.1008312308
H  H48  1  0.28390000  0.07440000  0.25070000  1.0 0.1307953675
H  H49  1  0.20760000  0.83020000  0.37250000  1.0 0.1112477731
H  H50  1  0.43430000  0.22580000  0.45030000  1.0 0.1112477731
H  H51  1  0.15640000  0.22160000  0.37160000  1.0 0.1112477731
H  H52  1  0.45080000  0.08060000  0.44750000  1.0 0.1377614943
H  H53  1  0.84240000  0.53390000  0.78790000  1.0 0.117911336
H  H54  1  0.67340000  0.72480000  0.88720000  1.0 0.1307953675
H  H55  1  0.09780000  0.69800000  0.87760000  1.0 0.1307953675
H  H56  1  0.66390000  0.57870000  0.88770000  1.0 0.1008312308
H  H57  1  0.24200000  0.39020000  0.83430000  1.0 0.1307953675
H  H58  1  0.10510000  0.55410000  0.87280000  1.0 0.1008312308
H  H59  1  0.98380000  0.37250000  0.73430000  1.0 0.1307953675
H  H60  1  0.87120000  0.67710000  0.78650000  1.0 0.148094338
H  H61  1  0.49890000  0.42230000  0.91530000  1.0 0.1307953675
H  H62  1  0.37940000  0.38030000  0.72410000  1.0 0.1377614943
H  H63  1  0.94370000  0.55760000  0.97430000  1.0 0.117911336
H  H64  1  0.92060000  0.23580000  0.94720000  1.0 0.1112477731
H  H65  1  0.82820000  0.07680000  0.81460000  1.0 0.1307953675
H  H66  1  0.92250000  0.70280000  0.98250000  1.0 0.1377614943
H  H67  1  0.74490000  0.36000000  0.00370000  1.0 0.1307953675
H  H68  1  0.35360000  0.37210000  0.01750000  1.0 0.1307953675
H  H69  1  0.83200000  0.21510000  0.80320000  1.0 0.1112477731
H  H70  1  0.84880000  0.82700000  0.81660000  1.0 0.1008312308
H  H71  1  0.54630000  0.26770000  0.87350000  1.0 0.1112477731
H  H72  1  0.14200000  0.23660000  0.85800000  1.0 0.117911336
H  H73  1  0.93190000  0.09160000  0.94360000  1.0 0.1377614943
H  H74  1  0.96240000  0.84100000  0.95880000  1.0 0.1112477731
H  H75  1  0.15720000  0.09070000  0.85040000  1.0 0.1377614943
H  H76  1  0.09530000  0.94990000  0.86990000  1.0 0.1112477731
H  H77  1  0.60940000  0.98300000  0.87740000  1.0 0.1112477731
H  H78  1  0.52950000  0.12910000  0.88580000  1.0 0.1377614943
H  H79  1  0.54800000  0.46070000  0.52820000  1.0 0.117911336
H  H80  1  0.41820000  0.31440000  0.62660000  1.0 0.1307953675
H  H81  1  0.40580000  0.46220000  0.63420000  1.0 0.1008312308
H  H82  1  0.70350000  0.47190000  0.71670000  1.0 0.1112477731
H  H83  1  0.00700000  0.61260000  0.59190000  1.0 0.1377614943
H  H84  1  0.51550000  0.61410000  0.76940000  1.0 0.1377614943
H  H85  1  0.55990000  0.31370000  0.51760000  1.0 0.1377614943
H  H86  1  0.81230000  0.44640000  0.60550000  1.0 0.1008312308
H  H87  1  0.70130000  0.32350000  0.71360000  1.0 0.148094338
H  H88  1  0.81560000  0.29810000  0.59950000  1.0 0.117911336
H  H89  1  0.75020000  0.60620000  0.49250000  1.0 0.1307953675
H  H90  1  0.12060000  0.61290000  0.77920000  1.0 0.1307953675
H  H91  1  0.14520000  0.60730000  0.48170000  1.0 0.1307953675
H  H92  1  0.52590000  0.17230000  0.54110000  1.0 0.1112477731
H  H93  1  0.81850000  0.92600000  0.63490000  1.0 0.1307953675
H  H94  1  0.43390000  0.78870000  0.65750000  1.0 0.117911336
H  H95  1  0.26330000  0.62430000  0.67090000  1.0 0.1307953675
H  H96  1  0.44930000  0.07130000  0.63760000  1.0 0.1112477731
H  H97  1  0.42490000  0.93660000  0.66430000  1.0 0.1377614943
H  H98  1  0.73970000  0.78050000  0.73830000  1.0 0.1112477731
H  H99  1  0.73310000  0.06530000  0.72550000  1.0 0.1008312308
H  H100  1  0.71610000  0.92560000  0.74930000  1.0 0.1307953675
H  H101  1  0.79240000  0.16980000  0.62750000  1.0 0.1112477731
H  H102  1  0.56570000  0.77420000  0.54970000  1.0 0.1112477731
H  H103  1  0.84360000  0.77840000  0.62840000  1.0 0.1112477731
H  H104  1  0.54920000  0.91940000  0.55250000  1.0 0.1377614943
C  C1  1  0.52920000  0.61000000  0.19930000  1.0 0.5378900511
C  C2  1  0.19010000  0.42600000  0.19130000  1.0 0.0800960043
C  C3  1  0.24440000  0.59460000  0.06800000  1.0 0.5662337733
C  C4  1  0.28890000  0.31330000  0.13310000  1.0 -0.1809634408
C  C5  1  0.22480000  0.28130000  0.16340000  1.0 0.117911336
C  C6  1  0.93590000  0.32950000  0.10220000  1.0 -0.1716805579
C  C7  1  0.02180000  0.61840000  0.18700000  1.0 0.5602558447
C  C8  1  0.29610000  0.40050000  0.13350000  1.0 0.0800960043
C  C9  1  0.77440000  0.61380000  0.19415000  1.0 -0.1478679584
C  C10  1  0.90440000  0.61820000  0.21250000  1.0 -0.0090735754
C  C11  1  0.93170000  0.41450000  0.10450000  1.0 0.0495646409
C  C12  1  0.92780000  0.62390000  0.25340000  1.0 -0.1620722519
C  C13  1  0.17420000  0.34150000  0.19270000  1.0 -0.1716805579
C  C14  1  0.99170000  0.28120000  0.06870000  1.0 0.117911336
C  C15  1  0.66870000  0.61550000  0.21870000  1.0 -0.0027174776
C  C16  1  0.48740000  0.59220000  0.05880000  1.0 -0.1382052856
C  C17  1  0.69250000  0.61980000  0.25960000  1.0 -0.1620722519
C  C18  1  0.36080000  0.60380000  0.04370000  1.0 -0.0090735754
C  C19  1  0.02630000  0.41300000  0.04580000  1.0 0.1008312308
C  C20  1  0.03060000  0.79460000  0.07290000  1.0 0.0800960043
C  C21  1  0.82150000  0.62430000  0.27710000  1.0 0.1112477731
C  C22  1  0.23130000  0.88540000  0.17300000  1.0 -0.1809634408
C  C23  1  0.03820000  0.32630000  0.04030000  1.0 -0.1899728037
C  C24  1  0.32070000  0.91290000  0.14850000  1.0 0.117911336
C  C25  1  0.34070000  0.62920000  0.00630000  1.0 -0.1716805579
C  C26  1  0.59320000  0.60150000  0.03650000  1.0 0.0026593689
C  C27  1  0.57440000  0.62330000  0.99850000  1.0 -0.1809634408
C  C28  1  0.73130000  0.59490000  0.05380000  1.0 0.5378900511
C  C29  1  0.22930000  0.80260000  0.17950000  1.0 0.0800960043
C  C30  1  0.21400000  0.19220000  0.16680000  1.0 0.0301514108
C  C31  1  0.39630000  0.77180000  0.13870000  1.0 0.089632201
C  C32  1  0.90280000  0.79410000  0.12470000  1.0 0.0800960043
C  C33  1  0.02430000  0.88050000  0.07480000  1.0 -0.1809634408
C  C34  1  0.00160000  0.18920000  0.06440000  1.0 0.0301514108
C  C35  1  0.89220000  0.88090000  0.12920000  1.0 -0.2006873576
C  C36  1  0.95450000  0.92780000  0.10350000  1.0 0.117911336
C  C37  1  0.94240000  0.01940000  0.10740000  1.0 0.0301514108
C  C38  1  0.33100000  0.00100000  0.14080000  1.0 0.0301514108
C  C39  1  0.40660000  0.85410000  0.13100000  1.0 -0.2006873576
C  C40  1  0.44760000  0.63800000  0.98460000  1.0 0.1112477731
C  C41  1  0.47870000  0.56970000  0.45170000  1.0 0.089632201
C  C42  1  0.55490000  0.65690000  0.39400000  1.0 -0.1716805579
C  C43  1  0.56150000  0.56850000  0.38950000  1.0 0.0800960043
C  C44  1  0.25220000  0.38500000  0.42880000  1.0 0.5662337733
C  C45  1  0.47660000  0.37680000  0.30780000  1.0 0.5602558447
C  C46  1  0.67900000  0.38880000  0.22050000  1.0 0.1112477731
C  C47  1  0.59250000  0.38070000  0.28380000  1.0 -0.0231152842
C  C48  1  0.90360000  0.38900000  0.46050000  1.0 0.0095021013
C  C49  1  0.96780000  0.37910000  0.29580000  1.0 0.5378900511
C  C50  1  0.27280000  0.56410000  0.30710000  1.0 0.089632201
C  C51  1  0.13680000  0.38830000  0.45390000  1.0 -0.0090735754
C  C52  1  0.76180000  0.38500000  0.44220000  1.0 0.5378900511
C  C53  1  0.00890000  0.38810000  0.43630000  1.0 -0.1382052856
C  C54  1  0.57180000  0.38520000  0.24290000  1.0 -0.1716805579
C  C55  1  0.47100000  0.65700000  0.45810000  1.0 -0.1899728037
C  C56  1  0.20870000  0.57900000  0.37230000  1.0 0.0800960043
C  C57  1  0.50930000  0.70340000  0.42850000  1.0 0.1112477731
C  C58  1  0.27370000  0.65260000  0.30870000  1.0 -0.1620722519
C  C59  1  0.20660000  0.66730000  0.37600000  1.0 -0.210162762
C  C60  1  0.16180000  0.39240000  0.49540000  1.0 -0.1620722519
C  C61  1  0.80730000  0.38600000  0.23700000  1.0 -0.1716805579
C  C62  1  0.23760000  0.70590000  0.34320000  1.0 0.1112477731
C  C63  1  0.92640000  0.39220000  0.50190000  1.0 -0.1716805579
C  C64  1  0.49860000  0.79640000  0.43400000  1.0 0.0373275621
C  C65  1  0.19720000  0.10240000  0.34340000  1.0 -0.1716805579
C  C66  1  0.54190000  0.18420000  0.36400000  1.0 0.1008312308
C  C67  1  0.72170000  0.37880000  0.30130000  1.0 -0.1478679584
C  C68  1  0.52700000  0.96140000  0.38710000  1.0 0.0495646409
C  C69  1  0.05550000  0.39450000  0.51870000  1.0 0.1112477731
C  C70  1  0.82850000  0.38140000  0.27770000  1.0 0.0095021013
C  C71  1  0.54860000  0.09620000  0.36000000  1.0 -0.2006873576
C  C72  1  0.24420000  0.18970000  0.28290000  1.0 0.089632201
C  C73  1  0.51670000  0.05580000  0.39130000  1.0 0.117911336
C  C74  1  0.24930000  0.96580000  0.30030000  1.0 0.0095021013
C  C75  1  0.25820000  0.10330000  0.27590000  1.0 -0.210162762
C  C76  1  0.23380000  0.05780000  0.30700000  1.0 0.1112477731
C  C77  1  0.23080000  0.79790000  0.34770000  1.0 0.0495646409
C  C78  1  0.46630000  0.19240000  0.42720000  1.0 0.0704200087
C  C79  1  0.18420000  0.19100000  0.34710000  1.0 0.089632201
C  C80  1  0.47420000  0.10600000  0.42550000  1.0 -0.1809634408
C  C81  1  0.47080000  0.39000000  0.80070000  1.0 0.5378900511
C  C82  1  0.80990000  0.57400000  0.80870000  1.0 0.0800960043
C  C83  1  0.75560000  0.40540000  0.93200000  1.0 0.5662337733
C  C84  1  0.71110000  0.68670000  0.86690000  1.0 -0.1809634408
C  C85  1  0.77520000  0.71870000  0.83660000  1.0 0.117911336
C  C86  1  0.06410000  0.67050000  0.89780000  1.0 -0.1716805579
C  C87  1  0.97820000  0.38160000  0.81300000  1.0 0.5602558447
C  C88  1  0.70390000  0.59950000  0.86650000  1.0 0.0800960043
C  C89  1  0.22560000  0.38620000  0.80585000  1.0 -0.1478679584
C  C90  1  0.09560000  0.38180000  0.78750000  1.0 -0.0090735754
C  C91  1  0.06830000  0.58550000  0.89550000  1.0 0.0495646409
C  C92  1  0.07220000  0.37610000  0.74660000  1.0 -0.1620722519
C  C93  1  0.82580000  0.65850000  0.80730000  1.0 -0.1716805579
C  C94  1  0.00830000  0.71880000  0.93130000  1.0 0.117911336
C  C95  1  0.33130000  0.38450000  0.78130000  1.0 -0.0027174776
C  C96  1  0.51260000  0.40780000  0.94120000  1.0 -0.1382052856
C  C97  1  0.30750000  0.38020000  0.74040000  1.0 -0.1620722519
C  C98  1  0.63920000  0.39620000  0.95630000  1.0 -0.0090735754
C  C99  1  0.97370000  0.58700000  0.95420000  1.0 0.1008312308
C  C100  1  0.96940000  0.20540000  0.92710000  1.0 0.0800960043
C  C101  1  0.17850000  0.37570000  0.72290000  1.0 0.1112477731
C  C102  1  0.76870000  0.11460000  0.82700000  1.0 -0.1809634408
C  C103  1  0.96180000  0.67370000  0.95970000  1.0 -0.1899728037
C  C104  1  0.67930000  0.08710000  0.85150000  1.0 0.117911336
C  C105  1  0.65930000  0.37080000  0.99370000  1.0 -0.1716805579
C  C106  1  0.40680000  0.39850000  0.96350000  1.0 0.0026593689
C  C107  1  0.42560000  0.37670000  0.00150000  1.0 -0.1809634408
C  C108  1  0.26870000  0.40510000  0.94620000  1.0 0.5378900511
C  C109  1  0.77070000  0.19740000  0.82050000  1.0 0.0800960043
C  C110  1  0.78600000  0.80780000  0.83320000  1.0 0.0301514108
C  C111  1  0.60370000  0.22820000  0.86130000  1.0 0.089632201
C  C112  1  0.09720000  0.20590000  0.87530000  1.0 0.0800960043
C  C113  1  0.97570000  0.11950000  0.92520000  1.0 -0.1809634408
C  C114  1  0.99840000  0.81080000  0.93560000  1.0 0.0301514108
C  C115  1  0.10780000  0.11910000  0.87080000  1.0 -0.2006873576
C  C116  1  0.04550000  0.07220000  0.89650000  1.0 0.117911336
C  C117  1  0.05760000  0.98060000  0.89260000  1.0 0.0301514108
C  C118  1  0.66900000  0.99900000  0.85920000  1.0 0.0301514108
C  C119  1  0.59340000  0.14590000  0.86900000  1.0 -0.2006873576
C  C120  1  0.55240000  0.36200000  0.01540000  1.0 0.1112477731
C  C121  1  0.52130000  0.43030000  0.54830000  1.0 0.089632201
C  C122  1  0.44510000  0.34310000  0.60600000  1.0 -0.1716805579
C  C123  1  0.43850000  0.43150000  0.61050000  1.0 0.0800960043
C  C124  1  0.74780000  0.61500000  0.57120000  1.0 0.5662337733
C  C125  1  0.52340000  0.62320000  0.69220000  1.0 0.5602558447
C  C126  1  0.32100000  0.61120000  0.77950000  1.0 0.1112477731
C  C127  1  0.40750000  0.61930000  0.71620000  1.0 -0.0231152842
C  C128  1  0.09640000  0.61100000  0.53950000  1.0 0.0095021013
C  C129  1  0.03220000  0.62090000  0.70420000  1.0 0.5378900511
C  C130  1  0.72720000  0.43590000  0.69290000  1.0 0.089632201
C  C131  1  0.86320000  0.61170000  0.54610000  1.0 -0.0090735754
C  C132  1  0.23820000  0.61500000  0.55780000  1.0 0.5378900511
C  C133  1  0.99110000  0.61190000  0.56370000  1.0 -0.1382052856
C  C134  1  0.42820000  0.61480000  0.75710000  1.0 -0.1716805579
C  C135  1  0.52900000  0.34300000  0.54190000  1.0 -0.1899728037
C  C136  1  0.79130000  0.42100000  0.62770000  1.0 0.0800960043
C  C137  1  0.49070000  0.29660000  0.57150000  1.0 0.1112477731
C  C138  1  0.72630000  0.34740000  0.69130000  1.0 -0.1620722519
C  C139  1  0.79340000  0.33270000  0.62400000  1.0 -0.210162762
C  C140  1  0.83820000  0.60760000  0.50460000  1.0 -0.1620722519
C  C141  1  0.19270000  0.61400000  0.76300000  1.0 -0.1716805579
C  C142  1  0.76240000  0.29410000  0.65680000  1.0 0.1112477731
C  C143  1  0.07360000  0.60780000  0.49810000  1.0 -0.1716805579
C  C144  1  0.50140000  0.20360000  0.56600000  1.0 0.0373275621
C  C145  1  0.80280000  0.89760000  0.65660000  1.0 -0.1716805579
C  C146  1  0.45810000  0.81580000  0.63600000  1.0 0.1008312308
C  C147  1  0.27830000  0.62120000  0.69870000  1.0 -0.1478679584
C  C148  1  0.47300000  0.03860000  0.61290000  1.0 0.0495646409
C  C149  1  0.94450000  0.60550000  0.48130000  1.0 0.1112477731
C  C150  1  0.17150000  0.61860000  0.72230000  1.0 0.0095021013
C  C151  1  0.45140000  0.90380000  0.64000000  1.0 -0.2006873576
C  C152  1  0.75580000  0.81030000  0.71710000  1.0 0.089632201
C  C153  1  0.48330000  0.94420000  0.60870000  1.0 0.117911336
C  C154  1  0.75070000  0.03420000  0.69970000  1.0 0.0095021013
C  C155  1  0.74180000  0.89670000  0.72410000  1.0 -0.210162762
C  C156  1  0.76620000  0.94220000  0.69300000  1.0 0.1112477731
C  C157  1  0.76920000  0.20210000  0.65230000  1.0 0.0495646409
C  C158  1  0.53370000  0.80760000  0.57280000  1.0 0.0704200087
C  C159  1  0.81580000  0.80900000  0.65290000  1.0 0.089632201
C  C160  1  0.52580000  0.89400000  0.57450000  1.0 -0.1809634408
Br  Br1  1  0.85492000  0.63324000  0.33358000  1.0 -0.0699395048
Br  Br2  1  0.42331000  0.67358000  0.93438000  1.0 -0.0585536815
Br  Br3  1  0.64887000  0.39142000  0.16483000  1.0 -0.0585536815
Br  Br4  1  0.09001000  0.40280000  0.57529000  1.0 -0.0585536815
Br  Br5  1  0.14508000  0.36676000  0.66642000  1.0 -0.0699395048
Br  Br6  1  0.57669000  0.32642000  0.06562000  1.0 -0.0585536815
Br  Br7  1  0.35113000  0.60858000  0.83517000  1.0 -0.0585536815
Br  Br8  1  0.90999000  0.59720000  0.42471000  1.0 -0.0585536815
N  N1  1  0.97560000  0.45930000  0.07726000  1.0 -0.2321385818
N  N2  1  0.24940000  0.45710000  0.16215000  1.0 -0.2321385818
N  N3  1  0.97230000  0.75060000  0.09751000  1.0 -0.220037173
N  N4  1  0.30920000  0.74430000  0.16266000  1.0 -0.2321385818
N  N5  1  0.96300000  0.14740000  0.09100000  1.0 -0.1809634408
N  N6  1  0.28610000  0.13720000  0.14830000  1.0 -0.1809634408
N  N7  1  0.98240000  0.05940000  0.08030000  1.0 -0.1809634408
N  N8  1  0.25930000  0.05590000  0.15870000  1.0 -0.1899728037
N  N9  1  0.52300000  0.52490000  0.41774000  1.0 -0.2446718546
N  N10  1  0.23970000  0.52800000  0.33815000  1.0 -0.2321385818
N  N11  1  0.50220000  0.23220000  0.39722000  1.0 -0.220037173
N  N12  1  0.20920000  0.23530000  0.31763000  1.0 -0.2321385818
N  N13  1  0.25490000  0.83630000  0.31940000  1.0 -0.1809634408
N  N14  1  0.52190000  0.83470000  0.40570000  1.0 -0.1809634408
N  N15  1  0.23840000  0.92730000  0.33060000  1.0 -0.1809634408
N  N16  1  0.50420000  0.92370000  0.41640000  1.0 -0.2006873576
N  N17  1  0.02440000  0.54070000  0.92274000  1.0 -0.2321385818
N  N18  1  0.75060000  0.54290000  0.83785000  1.0 -0.2321385818
N  N19  1  0.02770000  0.24940000  0.90249000  1.0 -0.220037173
N  N20  1  0.69080000  0.25570000  0.83734000  1.0 -0.2321385818
N  N21  1  0.03700000  0.85260000  0.90900000  1.0 -0.1809634408
N  N22  1  0.71390000  0.86280000  0.85170000  1.0 -0.1809634408
N  N23  1  0.01760000  0.94060000  0.91970000  1.0 -0.1809634408
N  N24  1  0.74070000  0.94410000  0.84130000  1.0 -0.1899728037
N  N25  1  0.47700000  0.47510000  0.58226000  1.0 -0.2446718546
N  N26  1  0.76030000  0.47200000  0.66185000  1.0 -0.2321385818
N  N27  1  0.49780000  0.76780000  0.60278000  1.0 -0.220037173
N  N28  1  0.79080000  0.76470000  0.68237000  1.0 -0.2321385818
N  N29  1  0.74510000  0.16370000  0.68060000  1.0 -0.1809634408
N  N30  1  0.47810000  0.16530000  0.59430000  1.0 -0.1809634408
N  N31  1  0.76160000  0.07270000  0.66940000  1.0 -0.1809634408
N  N32  1  0.49580000  0.07630000  0.58360000  1.0 -0.2006873576
O  O1  1  0.26180000  0.57170000  0.10118000  1.0 -0.5612629311
O  O2  1  0.13590000  0.61600000  0.05420000  1.0 -0.5482599692
O  O3  1  0.99870000  0.61580000  0.15025000  1.0 -0.5482599692
O  O4  1  0.50610000  0.60040000  0.16194000  1.0 -0.5282511818
O  O5  1  0.13330000  0.62140000  0.20539000  1.0 -0.5198733466
O  O6  1  0.74990000  0.58850000  0.09025000  1.0 -0.5282511818
O  O7  1  0.82450000  0.59960000  0.03169000  1.0 -0.5482599692
O  O8  1  0.43620000  0.61730000  0.22263000  1.0 -0.5482599692
O  O9  1  0.49430000  0.36950000  0.34415000  1.0 -0.5612629311
O  O10  1  0.36270000  0.37520000  0.44491000  1.0 -0.5415542828
O  O11  1  0.36310000  0.37880000  0.29016000  1.0 -0.5415542828
O  O12  1  0.23200000  0.39450000  0.39228000  1.0 -0.5741703616
O  O13  1  0.06130000  0.38930000  0.27506000  1.0 -0.5415542828
O  O14  1  0.67160000  0.39570000  0.46486000  1.0 -0.5415542828
O  O15  1  0.73990000  0.36890000  0.40354000  1.0 -0.5415542828
O  O16  1  0.98640000  0.36720000  0.33154000  1.0 -0.5198733466
O  O17  1  0.73820000  0.42830000  0.89882000  1.0 -0.5612629311
O  O18  1  0.86410000  0.38400000  0.94580000  1.0 -0.5482599692
O  O19  1  0.00130000  0.38420000  0.84975000  1.0 -0.5482599692
O  O20  1  0.49390000  0.39960000  0.83806000  1.0 -0.5282511818
O  O21  1  0.86670000  0.37860000  0.79461000  1.0 -0.5198733466
O  O22  1  0.25010000  0.41150000  0.90975000  1.0 -0.5282511818
O  O23  1  0.17550000  0.40040000  0.96831000  1.0 -0.5482599692
O  O24  1  0.56380000  0.38270000  0.77737000  1.0 -0.5482599692
O  O25  1  0.50570000  0.63050000  0.65585000  1.0 -0.5612629311
O  O26  1  0.63730000  0.62480000  0.55509000  1.0 -0.5415542828
O  O27  1  0.63690000  0.62120000  0.70984000  1.0 -0.5415542828
O  O28  1  0.76800000  0.60550000  0.60772000  1.0 -0.5741703616
O  O29  1  0.93870000  0.61070000  0.72494000  1.0 -0.5415542828
O  O30  1  0.32840000  0.60430000  0.53514000  1.0 -0.5415542828
O  O31  1  0.26010000  0.63110000  0.59646000  1.0 -0.5415542828
O  O32  1  0.01360000  0.63280000  0.66846000  1.0 -0.5198733466
