# DDEC6 charges by PACMAN v1.1 (https://github.com/mtap-research/PACMAN-charge/)
data_KAXYIV_ASR_pacman
_symmetry_space_group_name_H-M   'P 1'
_cell_length_a   12.59800000
_cell_length_b   6.65700000
_cell_length_c   19.41190000
_cell_angle_alpha   90.00000000
_cell_angle_beta   116.48500000
_cell_angle_gamma   90.00000000
_symmetry_Int_Tables_number   1
_chemical_formula_structural   CaH4(C2O)4
_chemical_formula_sum   'Ca4 H16 C32 O16'
_cell_volume   1457.12248186
_cell_formula_units_Z   4
loop_
 _symmetry_equiv_pos_site_id
 _symmetry_equiv_pos_as_xyz
  1  'x, y, z'
loop_
 _atom_site_type_symbol
 _atom_site_label
 _atom_site_symmetry_multiplicity
 _atom_site_fract_x
 _atom_site_fract_y
 _atom_site_fract_z
 _atom_site_occupancy
 _atom_site_charge
Ca  Ca1  1  0.55770000  0.46853000  0.22536000  1.0 1.3689344001
Ca  Ca2  1  0.44230000  0.96853000  0.27464000  1.0 1.3689344001
Ca  Ca3  1  0.44230000  0.53147000  0.77464000  1.0 1.3689344001
Ca  Ca4  1  0.55770000  0.03147000  0.72536000  1.0 1.3689344001
H  H1  1  0.57040000  0.70802000  0.07110000  1.0 0.1042584085
H  H2  1  0.44049000  0.26757000  0.05077000  1.0 0.1115309904
H  H3  1  0.93106000  0.19150000  0.44196000  1.0 0.1115309904
H  H4  1  0.10577000  0.21041000  0.55442000  1.0 0.1115309904
H  H5  1  0.42960000  0.20802000  0.42890000  1.0 0.1042584085
H  H6  1  0.55951000  0.76757000  0.44923000  1.0 0.1115309904
H  H7  1  0.06894000  0.69150000  0.05804000  1.0 0.1115309904
H  H8  1  0.89423000  0.71041000  0.94558000  1.0 0.1115309904
H  H9  1  0.42960000  0.29198000  0.92890000  1.0 0.1042584085
H  H10  1  0.55951000  0.73243000  0.94923000  1.0 0.1115309904
H  H11  1  0.06894000  0.80850000  0.55804000  1.0 0.1115309904
H  H12  1  0.89423000  0.78959000  0.44558000  1.0 0.1115309904
H  H13  1  0.57040000  0.79198000  0.57110000  1.0 0.1042584085
H  H14  1  0.44049000  0.23243000  0.55077000  1.0 0.1115309904
H  H15  1  0.93106000  0.30850000  0.94196000  1.0 0.1115309904
H  H16  1  0.10577000  0.28959000  0.05442000  1.0 0.1115309904
C  C1  1  0.50675000  0.98600000  0.07356000  1.0 -0.0271316601
C  C2  1  0.54221000  0.82520000  0.04266000  1.0 -0.110428557
C  C3  1  0.46448000  0.16010000  0.03047000  1.0 -0.110428557
C  C4  1  0.51481000  0.97110000  0.15309000  1.0 0.6084935141
C  C5  1  0.89512000  0.48920000  0.43188000  1.0 -0.0107109847
C  C6  1  0.95873000  0.31550000  0.46512000  1.0 -0.110428557
C  C7  1  0.06321000  0.32690000  0.53266000  1.0 -0.110428557
C  C8  1  0.78261000  0.47800000  0.35819000  1.0 0.5364478601
C  C9  1  0.49325000  0.48600000  0.42644000  1.0 -0.0271316601
C  C10  1  0.45779000  0.32520000  0.45734000  1.0 -0.110428557
C  C11  1  0.53552000  0.66010000  0.46953000  1.0 -0.110428557
C  C12  1  0.48519000  0.47110000  0.34691000  1.0 0.6084935141
C  C13  1  0.10488000  0.98920000  0.06812000  1.0 -0.0107109847
C  C14  1  0.04127000  0.81550000  0.03488000  1.0 -0.110428557
C  C15  1  0.93679000  0.82690000  0.96734000  1.0 -0.110428557
C  C16  1  0.21739000  0.97800000  0.14181000  1.0 0.5364478601
C  C17  1  0.49325000  0.01400000  0.92644000  1.0 -0.0271316601
C  C18  1  0.45779000  0.17480000  0.95734000  1.0 -0.110428557
C  C19  1  0.53552000  0.83990000  0.96953000  1.0 -0.110428557
C  C20  1  0.48519000  0.02890000  0.84691000  1.0 0.6084935141
C  C21  1  0.10488000  0.51080000  0.56812000  1.0 -0.0107109847
C  C22  1  0.04127000  0.68450000  0.53488000  1.0 -0.110428557
C  C23  1  0.93679000  0.67310000  0.46734000  1.0 -0.110428557
C  C24  1  0.21739000  0.52200000  0.64181000  1.0 0.5364478601
C  C25  1  0.50675000  0.51400000  0.57356000  1.0 -0.0271316601
C  C26  1  0.54221000  0.67480000  0.54266000  1.0 -0.110428557
C  C27  1  0.46448000  0.33990000  0.53047000  1.0 -0.110428557
C  C28  1  0.51481000  0.52890000  0.65309000  1.0 0.6084935141
C  C29  1  0.89512000  0.01080000  0.93188000  1.0 -0.0107109847
C  C30  1  0.95873000  0.18450000  0.96512000  1.0 -0.110428557
C  C31  1  0.06321000  0.17310000  0.03266000  1.0 -0.110428557
C  C32  1  0.78261000  0.02200000  0.85819000  1.0 0.5364478601
O  O1  1  0.51896000  0.80270000  0.18216000  1.0 -0.6418777036
O  O2  1  0.51111000  0.13061000  0.18673000  1.0 -0.6690066832
O  O3  1  0.73640000  0.63790000  0.32449000  1.0 -0.5811429473
O  O4  1  0.73843000  0.31070000  0.33211000  1.0 -0.5811429473
O  O5  1  0.48104000  0.30270000  0.31784000  1.0 -0.6418777036
O  O6  1  0.48889000  0.63061000  0.31327000  1.0 -0.6690066832
O  O7  1  0.26360000  0.13790000  0.17551000  1.0 -0.5811429473
O  O8  1  0.26157000  0.81070000  0.16789000  1.0 -0.5811429473
O  O9  1  0.48104000  0.19730000  0.81784000  1.0 -0.6418777036
O  O10  1  0.48889000  0.86939000  0.81327000  1.0 -0.6690066832
O  O11  1  0.26360000  0.36210000  0.67551000  1.0 -0.5811429473
O  O12  1  0.26157000  0.68930000  0.66789000  1.0 -0.5811429473
O  O13  1  0.51896000  0.69730000  0.68216000  1.0 -0.6418777036
O  O14  1  0.51111000  0.36939000  0.68673000  1.0 -0.6690066832
O  O15  1  0.73640000  0.86210000  0.82449000  1.0 -0.5811429473
O  O16  1  0.73843000  0.18930000  0.83211000  1.0 -0.5811429473
