# DDEC6 charges by PACMAN v1.1 (https://github.com/mtap-research/PACMAN-charge/)
data_KAZXIW_ASR_pacman
_symmetry_space_group_name_H-M   'P 1'
_cell_length_a   18.53330000
_cell_length_b   18.53330000
_cell_length_c   18.53330000
_cell_angle_alpha   60.00000000
_cell_angle_beta   60.00000000
_cell_angle_gamma   60.00000000
_symmetry_Int_Tables_number   1
_chemical_formula_structural   CuH2(C3O2)2
_chemical_formula_sum   'Cu12 H24 C72 O48'
_cell_volume   4501.35504615
_cell_formula_units_Z   12
loop_
 _symmetry_equiv_pos_site_id
 _symmetry_equiv_pos_as_xyz
  1  'x, y, z'
loop_
 _atom_site_type_symbol
 _atom_site_label
 _atom_site_symmetry_multiplicity
 _atom_site_fract_x
 _atom_site_fract_y
 _atom_site_fract_z
 _atom_site_occupancy
 _atom_site_charge
Cu  Cu1  1  0.57080000  0.42920000  0.00000000  1.0 0.8501045941
Cu  Cu2  1  0.42920000  0.57080000  0.00000000  1.0 0.8501045941
Cu  Cu3  1  0.00000000  0.00000000  0.57080000  1.0 0.8501045941
Cu  Cu4  1  0.00000000  0.00000000  0.42920000  1.0 0.8501045941
Cu  Cu5  1  0.00000000  0.57080000  0.42920000  1.0 0.8501045941
Cu  Cu6  1  0.00000000  0.42920000  0.57080000  1.0 0.8501045941
Cu  Cu7  1  0.57080000  0.00000000  0.00000000  1.0 0.8501045941
Cu  Cu8  1  0.42920000  0.00000000  0.00000000  1.0 0.8501045941
Cu  Cu9  1  0.42920000  0.00000000  0.57080000  1.0 0.8501045941
Cu  Cu10  1  0.57080000  0.00000000  0.42920000  1.0 0.8501045941
Cu  Cu11  1  0.00000000  0.57080000  0.00000000  1.0 0.8501045941
Cu  Cu12  1  0.00000000  0.42920000  0.00000000  1.0 0.8501045941
H  H1  1  0.51326000  0.72934000  0.02806000  1.0 0.1373302688
H  H2  1  0.72934000  0.51326000  0.72934000  1.0 0.1373302688
H  H3  1  0.02806000  0.72934000  0.51326000  1.0 0.1373302688
H  H4  1  0.72934000  0.02806000  0.72934000  1.0 0.1373302688
H  H5  1  0.02806000  0.51326000  0.72934000  1.0 0.1373302688
H  H6  1  0.72934000  0.72934000  0.51326000  1.0 0.1373302688
H  H7  1  0.51326000  0.02806000  0.72934000  1.0 0.1373302688
H  H8  1  0.72934000  0.72934000  0.02806000  1.0 0.1373302688
H  H9  1  0.72934000  0.02806000  0.51326000  1.0 0.1373302688
H  H10  1  0.51326000  0.72934000  0.72934000  1.0 0.1373302688
H  H11  1  0.72934000  0.51326000  0.02806000  1.0 0.1373302688
H  H12  1  0.02806000  0.72934000  0.72934000  1.0 0.1373302688
H  H13  1  0.48674000  0.27066000  0.27066000  1.0 0.1373302688
H  H14  1  0.27066000  0.48674000  0.97194000  1.0 0.1373302688
H  H15  1  0.97194000  0.27066000  0.27066000  1.0 0.1373302688
H  H16  1  0.27066000  0.97194000  0.48674000  1.0 0.1373302688
H  H17  1  0.97194000  0.48674000  0.27066000  1.0 0.1373302688
H  H18  1  0.27066000  0.27066000  0.97194000  1.0 0.1373302688
H  H19  1  0.48674000  0.97194000  0.27066000  1.0 0.1373302688
H  H20  1  0.27066000  0.27066000  0.48674000  1.0 0.1373302688
H  H21  1  0.27066000  0.97194000  0.27066000  1.0 0.1373302688
H  H22  1  0.48674000  0.27066000  0.97194000  1.0 0.1373302688
H  H23  1  0.27066000  0.48674000  0.27066000  1.0 0.1373302688
H  H24  1  0.97194000  0.27066000  0.48674000  1.0 0.1373302688
C  C1  1  0.56910000  0.56910000  0.02330000  1.0 0.5757205133
C  C2  1  0.61260000  0.61260000  0.03180000  1.0 -0.0342882539
C  C3  1  0.56910000  0.56910000  0.83850000  1.0 0.5757205133
C  C4  1  0.61260000  0.61260000  0.74300000  1.0 -0.0354637565
C  C5  1  0.02330000  0.83850000  0.56910000  1.0 0.5757205133
C  C6  1  0.03180000  0.74300000  0.61260000  1.0 -0.0342882539
C  C7  1  0.83850000  0.02330000  0.56910000  1.0 0.5757205133
C  C8  1  0.74300000  0.03180000  0.61260000  1.0 -0.0354637565
C  C9  1  0.02330000  0.56910000  0.56910000  1.0 0.5757205133
C  C10  1  0.03180000  0.61260000  0.61260000  1.0 -0.0354637565
C  C11  1  0.83850000  0.56910000  0.56910000  1.0 0.5757205133
C  C12  1  0.74300000  0.61260000  0.61260000  1.0 -0.0342882539
C  C13  1  0.56910000  0.02330000  0.83850000  1.0 0.5757205133
C  C14  1  0.61260000  0.03180000  0.74300000  1.0 -0.0354637565
C  C15  1  0.56910000  0.83850000  0.02330000  1.0 0.5748967616
C  C16  1  0.61260000  0.74300000  0.03180000  1.0 -0.0342882539
C  C17  1  0.56910000  0.02330000  0.56910000  1.0 0.5757205133
C  C18  1  0.61260000  0.03180000  0.61260000  1.0 -0.0354637565
C  C19  1  0.56910000  0.83850000  0.56910000  1.0 0.5757205133
C  C20  1  0.61260000  0.74300000  0.61260000  1.0 -0.0354637565
C  C21  1  0.83850000  0.56910000  0.02330000  1.0 0.5757205133
C  C22  1  0.74300000  0.61260000  0.03180000  1.0 -0.0342882539
C  C23  1  0.02330000  0.56910000  0.83850000  1.0 0.5757205133
C  C24  1  0.03180000  0.61260000  0.74300000  1.0 -0.0354637565
C  C25  1  0.43090000  0.43090000  0.16150000  1.0 0.5757205133
C  C26  1  0.38740000  0.38740000  0.25700000  1.0 -0.0342882539
C  C27  1  0.43090000  0.43090000  0.97670000  1.0 0.5757205133
C  C28  1  0.38740000  0.38740000  0.96820000  1.0 -0.0354637565
C  C29  1  0.97670000  0.16150000  0.43090000  1.0 0.5757205133
C  C30  1  0.96820000  0.25700000  0.38740000  1.0 -0.0342882539
C  C31  1  0.16150000  0.97670000  0.43090000  1.0 0.5757205133
C  C32  1  0.25700000  0.96820000  0.38740000  1.0 -0.0354637565
C  C33  1  0.97670000  0.43090000  0.16150000  1.0 0.5757205133
C  C34  1  0.96820000  0.38740000  0.25700000  1.0 -0.0342882539
C  C35  1  0.16150000  0.43090000  0.97670000  1.0 0.5757205133
C  C36  1  0.25700000  0.38740000  0.96820000  1.0 -0.0342882539
C  C37  1  0.43090000  0.97670000  0.43090000  1.0 0.5757205133
C  C38  1  0.38740000  0.96820000  0.38740000  1.0 -0.0354637565
C  C39  1  0.43090000  0.16150000  0.43090000  1.0 0.5757205133
C  C40  1  0.38740000  0.25700000  0.38740000  1.0 -0.0342882539
C  C41  1  0.43090000  0.97670000  0.16150000  1.0 0.5757205133
C  C42  1  0.38740000  0.96820000  0.25700000  1.0 -0.0354637565
C  C43  1  0.43090000  0.16150000  0.97670000  1.0 0.5757205133
C  C44  1  0.38740000  0.25700000  0.96820000  1.0 -0.0342882539
C  C45  1  0.16150000  0.43090000  0.43090000  1.0 0.5757205133
C  C46  1  0.25700000  0.38740000  0.38740000  1.0 -0.0342882539
C  C47  1  0.97670000  0.43090000  0.43090000  1.0 0.5757205133
C  C48  1  0.96820000  0.38740000  0.38740000  1.0 -0.0342882539
C  C49  1  0.57100000  0.69940000  0.03020000  1.0 -0.0834409532
C  C50  1  0.69940000  0.57100000  0.69940000  1.0 -0.0834409532
C  C51  1  0.03020000  0.69940000  0.57100000  1.0 -0.0834409532
C  C52  1  0.69940000  0.03020000  0.69940000  1.0 -0.0834409532
C  C53  1  0.03020000  0.57100000  0.69940000  1.0 -0.0834409532
C  C54  1  0.69940000  0.69940000  0.57100000  1.0 -0.0834409532
C  C55  1  0.57100000  0.03020000  0.69940000  1.0 -0.0834409532
C  C56  1  0.69940000  0.69940000  0.03020000  1.0 -0.0834409532
C  C57  1  0.69940000  0.03020000  0.57100000  1.0 -0.0834409532
C  C58  1  0.57100000  0.69940000  0.69940000  1.0 -0.0834409532
C  C59  1  0.69940000  0.57100000  0.03020000  1.0 -0.0834409532
C  C60  1  0.03020000  0.69940000  0.69940000  1.0 -0.0834409532
C  C61  1  0.42900000  0.30060000  0.30060000  1.0 -0.0834409532
C  C62  1  0.30060000  0.42900000  0.96980000  1.0 -0.0834409532
C  C63  1  0.96980000  0.30060000  0.30060000  1.0 -0.0834409532
C  C64  1  0.30060000  0.96980000  0.42900000  1.0 -0.0834409532
C  C65  1  0.96980000  0.42900000  0.30060000  1.0 -0.0834409532
C  C66  1  0.30060000  0.30060000  0.96980000  1.0 -0.0834409532
C  C67  1  0.42900000  0.96980000  0.30060000  1.0 -0.0834409532
C  C68  1  0.30060000  0.30060000  0.42900000  1.0 -0.0834409532
C  C69  1  0.30060000  0.96980000  0.30060000  1.0 -0.0834409532
C  C70  1  0.42900000  0.30060000  0.96980000  1.0 -0.0834409532
C  C71  1  0.30060000  0.42900000  0.30060000  1.0 -0.0834409532
C  C72  1  0.96980000  0.30060000  0.42900000  1.0 -0.0834409532
O  O1  1  0.61238000  0.49256000  0.02108000  1.0 -0.5099003885
O  O2  1  0.49256000  0.61238000  0.87398000  1.0 -0.5099003885
O  O3  1  0.02108000  0.87398000  0.61238000  1.0 -0.5099003885
O  O4  1  0.87398000  0.02108000  0.49256000  1.0 -0.5099003885
O  O5  1  0.02108000  0.61238000  0.49256000  1.0 -0.5099003885
O  O6  1  0.87398000  0.49256000  0.61238000  1.0 -0.5099003885
O  O7  1  0.61238000  0.02108000  0.87398000  1.0 -0.5099003885
O  O8  1  0.49256000  0.87398000  0.02108000  1.0 -0.5099003885
O  O9  1  0.49256000  0.02108000  0.61238000  1.0 -0.5099003885
O  O10  1  0.61238000  0.87398000  0.49256000  1.0 -0.5099003885
O  O11  1  0.87398000  0.61238000  0.02108000  1.0 -0.5099003885
O  O12  1  0.02108000  0.49256000  0.87398000  1.0 -0.5099003885
O  O13  1  0.38762000  0.50744000  0.12602000  1.0 -0.5099003885
O  O14  1  0.50744000  0.38762000  0.97892000  1.0 -0.5099003885
O  O15  1  0.97892000  0.12602000  0.50744000  1.0 -0.5099003885
O  O16  1  0.12602000  0.97892000  0.38762000  1.0 -0.5099003885
O  O17  1  0.97892000  0.38762000  0.12602000  1.0 -0.5099003885
O  O18  1  0.12602000  0.50744000  0.97892000  1.0 -0.5099003885
O  O19  1  0.38762000  0.97892000  0.50744000  1.0 -0.5099003885
O  O20  1  0.50744000  0.12602000  0.38762000  1.0 -0.5099003885
O  O21  1  0.50744000  0.97892000  0.12602000  1.0 -0.5099003885
O  O22  1  0.38762000  0.12602000  0.97892000  1.0 -0.5099003885
O  O23  1  0.12602000  0.38762000  0.50744000  1.0 -0.5099003885
O  O24  1  0.97892000  0.50744000  0.38762000  1.0 -0.5099003885
O  O25  1  0.38762000  0.50744000  0.97892000  1.0 -0.5099003885
O  O26  1  0.50744000  0.38762000  0.12602000  1.0 -0.5099003885
O  O27  1  0.97892000  0.12602000  0.38762000  1.0 -0.5099003885
O  O28  1  0.12602000  0.97892000  0.50744000  1.0 -0.5099003885
O  O29  1  0.97892000  0.38762000  0.50744000  1.0 -0.5099003885
O  O30  1  0.12602000  0.50744000  0.38762000  1.0 -0.5099003885
O  O31  1  0.38762000  0.97892000  0.12602000  1.0 -0.5099003885
O  O32  1  0.50744000  0.12602000  0.97892000  1.0 -0.5099003885
O  O33  1  0.50744000  0.97892000  0.38762000  1.0 -0.5099003885
O  O34  1  0.38762000  0.12602000  0.50744000  1.0 -0.5099003885
O  O35  1  0.12602000  0.38762000  0.97892000  1.0 -0.5099003885
O  O36  1  0.97892000  0.50744000  0.12602000  1.0 -0.5099003885
O  O37  1  0.61238000  0.49256000  0.87398000  1.0 -0.5099003885
O  O38  1  0.49256000  0.61238000  0.02108000  1.0 -0.5099003885
O  O39  1  0.02108000  0.87398000  0.49256000  1.0 -0.5099003885
O  O40  1  0.87398000  0.02108000  0.61238000  1.0 -0.5099003885
O  O41  1  0.02108000  0.61238000  0.87398000  1.0 -0.5099003885
O  O42  1  0.87398000  0.49256000  0.02108000  1.0 -0.5099003885
O  O43  1  0.61238000  0.02108000  0.49256000  1.0 -0.5099003885
O  O44  1  0.49256000  0.87398000  0.61238000  1.0 -0.5099003885
O  O45  1  0.49256000  0.02108000  0.87398000  1.0 -0.5099003885
O  O46  1  0.61238000  0.87398000  0.02108000  1.0 -0.5099003885
O  O47  1  0.87398000  0.61238000  0.49256000  1.0 -0.5099003885
O  O48  1  0.02108000  0.49256000  0.61238000  1.0 -0.5099003885
