# DDEC6 charges by PACMAN v1.1 (https://github.com/mtap-research/PACMAN-charge/)
data_KEBFII_ion_pacman
_symmetry_space_group_name_H-M   'P 1'
_cell_length_a   7.76300000
_cell_length_b   19.38920000
_cell_length_c   17.86340000
_cell_angle_alpha   90.00000000
_cell_angle_beta   100.46600000
_cell_angle_gamma   90.00000000
_symmetry_Int_Tables_number   1
_chemical_formula_structural   TbAgH22C16N4O13
_chemical_formula_sum   'Tb4 Ag4 H88 C64 N16 O52'
_cell_volume   2644.03626834
_cell_formula_units_Z   4
loop_
 _symmetry_equiv_pos_site_id
 _symmetry_equiv_pos_as_xyz
  1  'x, y, z'
loop_
 _atom_site_type_symbol
 _atom_site_label
 _atom_site_symmetry_multiplicity
 _atom_site_fract_x
 _atom_site_fract_y
 _atom_site_fract_z
 _atom_site_occupancy
 _atom_site_charge
Tb  Tb1  1  0.74548000  0.53074000  0.98529000  1.0 2.0100423097
Tb  Tb2  1  0.25452000  0.03074000  0.51471000  1.0 2.0100423097
Tb  Tb3  1  0.25452000  0.46926000  0.01471000  1.0 2.0100423097
Tb  Tb4  1  0.74548000  0.96926000  0.48529000  1.0 2.0100423097
Ag  Ag1  1  0.69789000  0.99408000  0.97508000  1.0 0.2514915317
Ag  Ag2  1  0.30211000  0.49408000  0.52492000  1.0 0.2514915317
Ag  Ag3  1  0.30211000  0.00592000  0.02492000  1.0 0.2514915317
Ag  Ag4  1  0.69789000  0.50592000  0.47508000  1.0 0.2514915317
H  H1  1  0.46420000  0.03070000  0.82140000  1.0 0.1021569185
H  H2  1  0.53580000  0.53070000  0.67860000  1.0 0.1021569185
H  H3  1  0.53580000  0.96930000  0.17860000  1.0 0.1021569185
H  H4  1  0.46420000  0.46930000  0.32140000  1.0 0.1021569185
H  H5  1  0.38750000  0.12340000  0.74350000  1.0 0.1218243576
H  H6  1  0.61250000  0.62340000  0.75650000  1.0 0.1218243576
H  H7  1  0.61250000  0.87660000  0.25650000  1.0 0.1218243576
H  H8  1  0.38750000  0.37660000  0.24350000  1.0 0.1218243576
H  H9  1  0.48540000  0.23240000  0.78340000  1.0 0.1218243576
H  H10  1  0.51460000  0.73240000  0.71660000  1.0 0.1218243576
H  H11  1  0.51460000  0.76760000  0.21660000  1.0 0.1218243576
H  H12  1  0.48540000  0.26760000  0.28340000  1.0 0.1218243576
H  H13  1  0.73370000  0.14990000  0.97680000  1.0 0.1097597733
H  H14  1  0.26630000  0.64990000  0.52320000  1.0 0.1097597733
H  H15  1  0.26630000  0.85010000  0.02320000  1.0 0.1097597733
H  H16  1  0.73370000  0.35010000  0.47680000  1.0 0.1097597733
H  H17  1  0.78470000  0.26590000  0.95750000  1.0 0.1097597733
H  H18  1  0.21530000  0.76590000  0.54250000  1.0 0.1097597733
H  H19  1  0.21530000  0.73410000  0.04250000  1.0 0.1097597733
H  H20  1  0.78470000  0.23410000  0.45750000  1.0 0.1097597733
H  H21  1  0.74540000  0.29410000  0.87380000  1.0 0.1218243576
H  H22  1  0.25460000  0.79410000  0.62620000  1.0 0.1218243576
H  H23  1  0.25460000  0.70590000  0.12620000  1.0 0.1218243576
H  H24  1  0.74540000  0.20590000  0.37380000  1.0 0.1218243576
H  H25  1  0.50320000  0.29710000  0.97450000  1.0 0.1300416092
H  H26  1  0.49680000  0.79710000  0.52550000  1.0 0.1300416092
H  H27  1  0.49680000  0.70290000  0.02550000  1.0 0.1300416092
H  H28  1  0.50320000  0.20290000  0.47450000  1.0 0.1300416092
H  H29  1  0.45720000  0.32240000  0.89000000  1.0 0.1480102241
H  H30  1  0.54280000  0.82240000  0.61000000  1.0 0.1480102241
H  H31  1  0.54280000  0.67760000  0.11000000  1.0 0.1480102241
H  H32  1  0.45720000  0.17760000  0.39000000  1.0 0.1480102241
H  H33  1  0.27030000  0.33480000  0.50650000  1.0 0.1097597733
H  H34  1  0.72970000  0.83480000  0.99350000  1.0 0.1097597733
H  H35  1  0.72970000  0.66520000  0.49350000  1.0 0.1097597733
H  H36  1  0.27030000  0.16520000  0.00650000  1.0 0.1097597733
H  H37  1  0.15050000  0.25430000  0.41900000  1.0 0.1300416092
H  H38  1  0.84950000  0.75430000  0.08100000  1.0 0.1300416092
H  H39  1  0.84950000  0.74570000  0.58100000  1.0 0.1300416092
H  H40  1  0.15050000  0.24570000  0.91900000  1.0 0.1300416092
H  H41  1  0.98280000  0.28970000  0.30470000  1.0 0.1300416092
H  H42  1  0.01720000  0.78970000  0.19530000  1.0 0.1300416092
H  H43  1  0.01720000  0.71030000  0.69530000  1.0 0.1300416092
H  H44  1  0.98280000  0.21030000  0.80470000  1.0 0.1300416092
H  H45  1  0.05240000  0.48370000  0.37630000  1.0 0.1097597733
H  H46  1  0.94760000  0.98370000  0.12370000  1.0 0.1097597733
H  H47  1  0.94760000  0.51630000  0.62370000  1.0 0.1097597733
H  H48  1  0.05240000  0.01630000  0.87630000  1.0 0.1097597733
H  H49  1  0.79930000  0.38700000  0.23540000  1.0 0.1097597733
H  H50  1  0.20070000  0.88700000  0.26460000  1.0 0.1097597733
H  H51  1  0.20070000  0.61300000  0.76460000  1.0 0.1097597733
H  H52  1  0.79930000  0.11300000  0.73540000  1.0 0.1097597733
H  H53  1  0.83930000  0.46280000  0.26440000  1.0 0.1021569185
H  H54  1  0.16070000  0.96280000  0.23560000  1.0 0.1021569185
H  H55  1  0.16070000  0.53720000  0.73560000  1.0 0.1021569185
H  H56  1  0.83930000  0.03720000  0.76440000  1.0 0.1021569185
H  H57  1  0.05390000  0.38470000  0.18440000  1.0 0.1396590248
H  H58  1  0.94610000  0.88470000  0.31560000  1.0 0.1396590248
H  H59  1  0.94610000  0.61530000  0.81560000  1.0 0.1396590248
H  H60  1  0.05390000  0.11530000  0.68440000  1.0 0.1396590248
H  H61  1  0.10760000  0.45770000  0.21830000  1.0 0.1396590248
H  H62  1  0.89240000  0.95770000  0.28170000  1.0 0.1396590248
H  H63  1  0.89240000  0.54230000  0.78170000  1.0 0.1396590248
H  H64  1  0.10760000  0.04230000  0.71830000  1.0 0.1396590248
H  H65  1  0.00000000  0.61800000  0.06800000  1.0 0.2834211439
H  H66  1  0.00000000  0.11800000  0.43200000  1.0 0.2834211439
H  H67  1  0.00000000  0.38200000  0.93200000  1.0 0.2834211439
H  H68  1  0.00000000  0.88200000  0.56800000  1.0 0.2834211439
H  H69  1  0.90300000  0.61700000  0.11400000  1.0 0.2609087862
H  H70  1  0.09700000  0.11700000  0.38600000  1.0 0.2609087862
H  H71  1  0.09700000  0.38300000  0.88600000  1.0 0.2609087862
H  H72  1  0.90300000  0.88300000  0.61400000  1.0 0.2609087862
H  H73  1  0.47900000  0.52400000  0.85700000  1.0 0.2997870743
H  H74  1  0.52100000  0.02400000  0.64300000  1.0 0.2997870743
H  H75  1  0.52100000  0.47600000  0.14300000  1.0 0.2997870743
H  H76  1  0.47900000  0.97600000  0.35700000  1.0 0.2997870743
H  H77  1  0.59400000  0.49400000  0.84400000  1.0 0.2609087862
H  H78  1  0.40600000  0.99400000  0.65600000  1.0 0.2609087862
H  H79  1  0.40600000  0.50600000  0.15600000  1.0 0.2609087862
H  H80  1  0.59400000  0.00600000  0.34400000  1.0 0.2609087862
H  H81  1  0.77200000  0.66300000  0.91800000  1.0 0.2514915317
H  H82  1  0.22800000  0.16300000  0.58200000  1.0 0.2514915317
H  H83  1  0.22800000  0.33700000  0.08200000  1.0 0.2514915317
H  H84  1  0.77200000  0.83700000  0.41800000  1.0 0.2514915317
H  H85  1  0.62000000  0.66200000  0.90800000  1.0 0.2688336969
H  H86  1  0.38000000  0.16200000  0.59200000  1.0 0.2688336969
H  H87  1  0.38000000  0.33800000  0.09200000  1.0 0.2688336969
H  H88  1  0.62000000  0.83800000  0.40800000  1.0 0.2688336969
C  C1  1  0.50450000  0.07434000  0.83776000  1.0 0.0364995291
C  C2  1  0.49550000  0.57434000  0.66224000  1.0 0.0364995291
C  C3  1  0.49550000  0.92566000  0.16224000  1.0 0.0364995291
C  C4  1  0.50450000  0.42566000  0.33776000  1.0 0.0364995291
C  C5  1  0.45810000  0.12950000  0.79097000  1.0 -0.1308850795
C  C6  1  0.54190000  0.62950000  0.70903000  1.0 -0.1308850795
C  C7  1  0.54190000  0.87050000  0.20903000  1.0 -0.1308850795
C  C8  1  0.45810000  0.37050000  0.29097000  1.0 -0.1308850795
C  C9  1  0.51680000  0.19441000  0.81468000  1.0 -0.0996101881
C  C10  1  0.48320000  0.69441000  0.68532000  1.0 -0.0996101881
C  C11  1  0.48320000  0.80559000  0.18532000  1.0 -0.0996101881
C  C12  1  0.51680000  0.30559000  0.31468000  1.0 -0.0996101881
C  C13  1  0.62240000  0.20273000  0.88520000  1.0 0.0842775703
C  C14  1  0.37760000  0.70273000  0.61480000  1.0 0.0842775703
C  C15  1  0.37760000  0.79727000  0.11480000  1.0 0.0842775703
C  C16  1  0.62240000  0.29727000  0.38520000  1.0 0.0842775703
C  C17  1  0.66330000  0.14491000  0.92909000  1.0 -0.0190762478
C  C18  1  0.33670000  0.64491000  0.57091000  1.0 -0.0190762478
C  C19  1  0.33670000  0.85509000  0.07091000  1.0 -0.0190762478
C  C20  1  0.66330000  0.35509000  0.42909000  1.0 -0.0190762478
C  C21  1  0.69340000  0.27205000  0.91310000  1.0 -0.1880967617
C  C22  1  0.30660000  0.77205000  0.58690000  1.0 -0.1880967617
C  C23  1  0.30660000  0.72795000  0.08690000  1.0 -0.1880967617
C  C24  1  0.69340000  0.22795000  0.41310000  1.0 -0.1880967617
C  C25  1  0.55110000  0.31855000  0.93372000  1.0 -0.3390090791
C  C26  1  0.44890000  0.81855000  0.56628000  1.0 -0.3390090791
C  C27  1  0.44890000  0.68145000  0.06628000  1.0 -0.3390090791
C  C28  1  0.55110000  0.18145000  0.43372000  1.0 -0.3390090791
C  C29  1  0.61340000  0.38908000  0.95814000  1.0 0.6705246568
C  C30  1  0.38660000  0.88908000  0.54186000  1.0 0.6705246568
C  C31  1  0.38660000  0.61092000  0.04186000  1.0 0.6705246568
C  C32  1  0.61340000  0.11092000  0.45814000  1.0 0.6705246568
C  C33  1  0.20060000  0.34936000  0.46139000  1.0 0.0338023678
C  C34  1  0.79940000  0.84936000  0.03861000  1.0 0.0338023678
C  C35  1  0.79940000  0.65064000  0.53861000  1.0 0.0338023678
C  C36  1  0.20060000  0.15064000  0.96139000  1.0 0.0338023678
C  C37  1  0.13030000  0.30096000  0.40907000  1.0 -0.1249178797
C  C38  1  0.86970000  0.80096000  0.09093000  1.0 -0.1249178797
C  C39  1  0.86970000  0.69904000  0.59093000  1.0 -0.1249178797
C  C40  1  0.13030000  0.19904000  0.90907000  1.0 -0.1249178797
C  C41  1  0.02920000  0.32201000  0.34133000  1.0 -0.0996101881
C  C42  1  0.97080000  0.82201000  0.15867000  1.0 -0.0996101881
C  C43  1  0.97080000  0.67799000  0.65867000  1.0 -0.0996101881
C  C44  1  0.02920000  0.17799000  0.84133000  1.0 -0.0996101881
C  C45  1  0.99720000  0.39175000  0.32818000  1.0 0.0875880271
C  C46  1  0.00280000  0.89175000  0.17182000  1.0 0.0875880271
C  C47  1  0.00280000  0.60825000  0.67182000  1.0 0.0875880271
C  C48  1  0.99720000  0.10825000  0.82818000  1.0 0.0875880271
C  C49  1  0.07250000  0.43680000  0.38446000  1.0 -0.0190762478
C  C50  1  0.92750000  0.93680000  0.11554000  1.0 -0.0190762478
C  C51  1  0.92750000  0.56320000  0.61554000  1.0 -0.0190762478
C  C52  1  0.07250000  0.06320000  0.88446000  1.0 -0.0190762478
C  C53  1  0.89250000  0.41915000  0.25483000  1.0 -0.195618771
C  C54  1  0.10750000  0.91915000  0.24517000  1.0 -0.195618771
C  C55  1  0.10750000  0.58085000  0.74517000  1.0 -0.195618771
C  C56  1  0.89250000  0.08085000  0.75483000  1.0 -0.195618771
C  C57  1  0.00850000  0.42931000  0.19605000  1.0 -0.3390090791
C  C58  1  0.99150000  0.92931000  0.30395000  1.0 -0.3390090791
C  C59  1  0.99150000  0.57069000  0.80395000  1.0 -0.3390090791
C  C60  1  0.00850000  0.07069000  0.69605000  1.0 -0.3390090791
C  C61  1  0.92090000  0.46195000  0.12329000  1.0 0.6798603535
C  C62  1  0.07910000  0.96195000  0.37671000  1.0 0.6798603535
C  C63  1  0.07910000  0.53805000  0.87671000  1.0 0.6798603535
C  C64  1  0.92090000  0.03805000  0.62329000  1.0 0.6798603535
N  N1  1  0.60620000  0.08103000  0.90648000  1.0 -0.1803931296
N  N2  1  0.39380000  0.58103000  0.59352000  1.0 -0.1803931296
N  N3  1  0.39380000  0.91897000  0.09352000  1.0 -0.1803931296
N  N4  1  0.60620000  0.41897000  0.40648000  1.0 -0.1803931296
N  N5  1  0.17260000  0.41719000  0.44998000  1.0 -0.1803931296
N  N6  1  0.82740000  0.91719000  0.05002000  1.0 -0.1803931296
N  N7  1  0.82740000  0.58281000  0.55002000  1.0 -0.1803931296
N  N8  1  0.17260000  0.08281000  0.94998000  1.0 -0.1803931296
N  N9  1  0.90520000  0.88110000  0.76620000  1.0 0.6271962822
N  N10  1  0.09480000  0.38110000  0.73380000  1.0 0.6271962822
N  N11  1  0.09480000  0.11890000  0.23380000  1.0 0.6271962822
N  N12  1  0.90520000  0.61890000  0.26620000  1.0 0.6271962822
N  N13  1  0.36440000  0.75390000  0.36540000  1.0 0.6385621429
N  N14  1  0.63560000  0.25390000  0.13460000  1.0 0.6385621429
N  N15  1  0.63560000  0.24610000  0.63460000  1.0 0.6385621429
N  N16  1  0.36440000  0.74610000  0.86540000  1.0 0.6385621429
O  O1  1  0.51040000  0.43090000  0.98199000  1.0 -0.7601428777
O  O2  1  0.48960000  0.93090000  0.51801000  1.0 -0.7601428777
O  O3  1  0.48960000  0.56910000  0.01801000  1.0 -0.7601428777
O  O4  1  0.51040000  0.06910000  0.48199000  1.0 -0.7601428777
O  O5  1  0.76470000  0.40900000  0.95354000  1.0 -0.6014305949
O  O6  1  0.23530000  0.90900000  0.54646000  1.0 -0.6014305949
O  O7  1  0.23530000  0.59100000  0.04646000  1.0 -0.6014305949
O  O8  1  0.76470000  0.09100000  0.45354000  1.0 -0.6014305949
O  O9  1  0.76480000  0.48121000  0.11276000  1.0 -0.609238863
O  O10  1  0.23520000  0.98121000  0.38724000  1.0 -0.609238863
O  O11  1  0.23520000  0.51879000  0.88724000  1.0 -0.609238863
O  O12  1  0.76480000  0.01879000  0.61276000  1.0 -0.609238863
O  O13  1  0.00960000  0.47160000  0.07091000  1.0 -0.7664074898
O  O14  1  0.99040000  0.97160000  0.42909000  1.0 -0.7664074898
O  O15  1  0.99040000  0.52840000  0.92909000  1.0 -0.7664074898
O  O16  1  0.00960000  0.02840000  0.57091000  1.0 -0.7664074898
O  O17  1  0.90210000  0.61561000  0.07125000  1.0 -0.6877150237
O  O18  1  0.09790000  0.11561000  0.42875000  1.0 -0.6877150237
O  O19  1  0.09790000  0.38439000  0.92875000  1.0 -0.6877150237
O  O20  1  0.90210000  0.88439000  0.57125000  1.0 -0.6877150237
O  O21  1  0.57480000  0.51860000  0.85885000  1.0 -0.5767178535
O  O22  1  0.42520000  0.01860000  0.64115000  1.0 -0.5767178535
O  O23  1  0.42520000  0.48140000  0.14115000  1.0 -0.5767178535
O  O24  1  0.57480000  0.98140000  0.35885000  1.0 -0.5767178535
O  O25  1  0.71420000  0.64083000  0.92399000  1.0 -0.6389582157
O  O26  1  0.28580000  0.14083000  0.57601000  1.0 -0.6389582157
O  O27  1  0.28580000  0.35917000  0.07601000  1.0 -0.6389582157
O  O28  1  0.71420000  0.85917000  0.42399000  1.0 -0.6389582157
O  O29  1  0.90090000  0.88970000  0.83390000  1.0 -0.3805308789
O  O30  1  0.02200000  0.90620000  0.74060000  1.0 -0.3390090791
O  O31  1  0.80190000  0.85130000  0.72600000  1.0 -0.3122437894
O  O32  1  0.09910000  0.38970000  0.66610000  1.0 -0.3805308789
O  O33  1  0.97800000  0.40620000  0.75940000  1.0 -0.3390090791
O  O34  1  0.19810000  0.35130000  0.77400000  1.0 -0.3122437894
O  O35  1  0.09910000  0.11030000  0.16610000  1.0 -0.3805308789
O  O36  1  0.97800000  0.09380000  0.25940000  1.0 -0.3390090791
O  O37  1  0.19810000  0.14870000  0.27400000  1.0 -0.3122437894
O  O38  1  0.90090000  0.61030000  0.33390000  1.0 -0.3805308789
O  O39  1  0.02200000  0.59380000  0.24060000  1.0 -0.33472839
O  O40  1  0.80190000  0.64870000  0.22600000  1.0 -0.3122437894
O  O41  1  0.34780000  0.81380000  0.37650000  1.0 -0.3513944149
O  O42  1  0.50710000  0.72790000  0.38140000  1.0 -0.3805308789
O  O43  1  0.24490000  0.72110000  0.33020000  1.0 -0.3622891009
O  O44  1  0.65220000  0.31380000  0.12350000  1.0 -0.3513944149
O  O45  1  0.49290000  0.22790000  0.11860000  1.0 -0.3805308789
O  O46  1  0.75510000  0.22110000  0.16980000  1.0 -0.3622891009
O  O47  1  0.65220000  0.18620000  0.62350000  1.0 -0.3513944149
O  O48  1  0.49290000  0.27210000  0.61860000  1.0 -0.3805308789
O  O49  1  0.75510000  0.27890000  0.66980000  1.0 -0.3622891009
O  O50  1  0.34780000  0.68620000  0.87650000  1.0 -0.3513944149
O  O51  1  0.50710000  0.77210000  0.88140000  1.0 -0.3805308789
O  O52  1  0.24490000  0.77890000  0.83020000  1.0 -0.3622891009
