# DDEC6 charges by PACMAN v1.1 (https://github.com/mtap-research/PACMAN-charge/)
data_KECRAL12_FSR_pacman
_symmetry_space_group_name_H-M   'P 1'
_cell_length_a   8.69400000
_cell_length_b   16.90800000
_cell_length_c   21.15700000
_cell_angle_alpha   90.00000000
_cell_angle_beta   90.00000000
_cell_angle_gamma   90.00000000
_symmetry_Int_Tables_number   1
_chemical_formula_structural   Cd3C6(N3O)2
_chemical_formula_sum   'Cd12 C24 N24 O8'
_cell_volume   3110.03990186
_cell_formula_units_Z   4
loop_
 _symmetry_equiv_pos_site_id
 _symmetry_equiv_pos_as_xyz
  1  'x, y, z'
loop_
 _atom_site_type_symbol
 _atom_site_label
 _atom_site_symmetry_multiplicity
 _atom_site_fract_x
 _atom_site_fract_y
 _atom_site_fract_z
 _atom_site_occupancy
 _atom_site_charge
Cd  Cd1  1  0.01046000  0.12374000  0.25000000  1.0 1.215092542
Cd  Cd2  1  0.98954000  0.62374000  0.25000000  1.0 1.2135012172
Cd  Cd3  1  0.01046000  0.37626000  0.75000000  1.0 1.215092542
Cd  Cd4  1  0.98954000  0.87626000  0.75000000  1.0 1.2135012172
Cd  Cd5  1  0.51049000  0.12496000  0.41498000  1.0 0.54725676
Cd  Cd6  1  0.51049000  0.12496000  0.08502000  1.0 0.54725676
Cd  Cd7  1  0.48951000  0.62496000  0.41498000  1.0 0.54725676
Cd  Cd8  1  0.51049000  0.37504000  0.91498000  1.0 0.54725676
Cd  Cd9  1  0.48951000  0.87504000  0.58502000  1.0 0.5447790645
Cd  Cd10  1  0.48951000  0.87504000  0.91498000  1.0 0.5447790645
Cd  Cd11  1  0.51049000  0.37504000  0.58502000  1.0 0.54725676
Cd  Cd12  1  0.48951000  0.62496000  0.08502000  1.0 0.54725676
C  C1  1  0.72020000  0.11800000  0.35750000  1.0 0.1626881914
C  C2  1  0.72020000  0.11800000  0.14250000  1.0 0.1626881914
C  C3  1  0.27980000  0.61800000  0.35750000  1.0 0.1626881914
C  C4  1  0.72020000  0.38200000  0.85750000  1.0 0.1626881914
C  C5  1  0.27980000  0.88200000  0.64250000  1.0 0.1626881914
C  C6  1  0.27980000  0.88200000  0.85750000  1.0 0.1626881914
C  C7  1  0.72020000  0.38200000  0.64250000  1.0 0.1626881914
C  C8  1  0.27980000  0.61800000  0.14250000  1.0 0.1626881914
C  C9  1  0.30050000  0.13220000  0.35760000  1.0 0.1626881914
C  C10  1  0.30050000  0.13220000  0.14240000  1.0 0.1626881914
C  C11  1  0.69950000  0.63220000  0.35760000  1.0 0.1626881914
C  C12  1  0.30050000  0.36780000  0.85760000  1.0 0.1626881914
C  C13  1  0.69950000  0.86780000  0.64240000  1.0 0.1626881914
C  C14  1  0.69950000  0.86780000  0.85760000  1.0 0.1626881914
C  C15  1  0.30050000  0.36780000  0.64240000  1.0 0.1626881914
C  C16  1  0.69950000  0.63220000  0.14240000  1.0 0.1626881914
C  C17  1  0.52170000  0.22480000  0.48160000  1.0 -0.1259756354
C  C18  1  0.52170000  0.22480000  0.01840000  1.0 -0.1259756354
C  C19  1  0.47830000  0.72480000  0.48160000  1.0 -0.1259756354
C  C20  1  0.52170000  0.27520000  0.98160000  1.0 -0.1259756354
C  C21  1  0.47830000  0.77520000  0.51840000  1.0 -0.1259756354
C  C22  1  0.47830000  0.77520000  0.98160000  1.0 -0.1259756354
C  C23  1  0.52170000  0.27520000  0.51840000  1.0 -0.1259756354
C  C24  1  0.47830000  0.72480000  0.01840000  1.0 -0.1245571353
N  N1  1  0.82420000  0.11280000  0.32640000  1.0 -0.4366369775
N  N2  1  0.82420000  0.11280000  0.17360000  1.0 -0.4366369775
N  N3  1  0.17580000  0.61280000  0.32640000  1.0 -0.4366369775
N  N4  1  0.82420000  0.38720000  0.82640000  1.0 -0.4334624785
N  N5  1  0.17580000  0.88720000  0.67360000  1.0 -0.4334624785
N  N6  1  0.17580000  0.88720000  0.82640000  1.0 -0.4334624785
N  N7  1  0.82420000  0.38720000  0.67360000  1.0 -0.4366369775
N  N8  1  0.17580000  0.61280000  0.17360000  1.0 -0.4366369775
N  N9  1  0.19660000  0.13440000  0.32570000  1.0 -0.4366369775
N  N10  1  0.19660000  0.13440000  0.17430000  1.0 -0.4366369775
N  N11  1  0.80340000  0.63440000  0.32570000  1.0 -0.4366369775
N  N12  1  0.19660000  0.36560000  0.82570000  1.0 -0.4366369775
N  N13  1  0.80340000  0.86560000  0.67430000  1.0 -0.4366369775
N  N14  1  0.80340000  0.86560000  0.82570000  1.0 -0.4366369775
N  N15  1  0.19660000  0.36560000  0.67430000  1.0 -0.4366369775
N  N16  1  0.80340000  0.63440000  0.17430000  1.0 -0.4366369775
N  N17  1  0.50140000  0.02480000  0.48170000  1.0 -0.0128740267
N  N18  1  0.50140000  0.02480000  0.01830000  1.0 -0.0128740267
N  N19  1  0.49860000  0.52480000  0.48170000  1.0 -0.0128740267
N  N20  1  0.50140000  0.47520000  0.98170000  1.0 -0.0128740267
N  N21  1  0.49860000  0.97520000  0.51830000  1.0 -0.0128740267
N  N22  1  0.49860000  0.97520000  0.98170000  1.0 -0.0128740267
N  N23  1  0.50140000  0.47520000  0.51830000  1.0 -0.0128740267
N  N24  1  0.49860000  0.52480000  0.01830000  1.0 -0.0128740267
O  O1  1  0.04950000  0.98840000  0.25000000  1.0 -0.4795444064
O  O2  1  0.95050000  0.48840000  0.25000000  1.0 -0.4795444064
O  O3  1  0.04950000  0.51160000  0.75000000  1.0 -0.4795444064
O  O4  1  0.95050000  0.01160000  0.75000000  1.0 -0.4795444064
O  O5  1  0.97030000  0.25990000  0.25000000  1.0 -0.4572681762
O  O6  1  0.02970000  0.75990000  0.25000000  1.0 -0.4572681762
O  O7  1  0.97030000  0.24010000  0.75000000  1.0 -0.4572681762
O  O8  1  0.02970000  0.74010000  0.75000000  1.0 -0.4572681762
