# DDEC6 charges by PACMAN v1.1 (https://github.com/mtap-research/PACMAN-charge/)
data_KECRAL11_ASR_pacman
_symmetry_space_group_name_H-M   'P 1'
_cell_length_a   11.37920000
_cell_length_b   11.37920000
_cell_length_c   8.69500000
_cell_angle_alpha   90.00000000
_cell_angle_beta   90.00000000
_cell_angle_gamma   135.87700000
_symmetry_Int_Tables_number   1
_chemical_formula_structural   Cd3C22(N4O3)2
_chemical_formula_sum   'Cd3 C22 N8 O6'
_cell_volume   783.84050085
_cell_formula_units_Z   1
loop_
 _symmetry_equiv_pos_site_id
 _symmetry_equiv_pos_as_xyz
  1  'x, y, z'
loop_
 _atom_site_type_symbol
 _atom_site_label
 _atom_site_symmetry_multiplicity
 _atom_site_fract_x
 _atom_site_fract_y
 _atom_site_fract_z
 _atom_site_occupancy
 _atom_site_charge
Cd  Cd1  1  0.00000000  0.00000000  0.00000000  1.0 0.8079746217
Cd  Cd2  1  0.16603000  0.83397000  0.50000000  1.0 0.4576774091
Cd  Cd3  1  0.83397000  0.16603000  0.50000000  1.0 0.4576774091
C  C1  1  0.10840000  0.89160000  0.28950000  1.0 0.0221539363
C  C2  1  0.89160000  0.10840000  0.28950000  1.0 0.0221539363
C  C3  1  0.89160000  0.10840000  0.71050000  1.0 0.0221539363
C  C4  1  0.10840000  0.89160000  0.71050000  1.0 0.0221539363
C  C5  1  0.06220000  0.58180000  0.50000000  1.0 -0.150979165
C  C6  1  0.93780000  0.41820000  0.50000000  1.0 -0.150979165
C  C7  1  0.58180000  0.06220000  0.50000000  1.0 -0.150979165
C  C8  1  0.41820000  0.93780000  0.50000000  1.0 -0.150979165
C  C9  1  0.50000000  0.50000000  0.46500000  1.0 0.0254513994
C  C10  1  0.50000000  0.50000000  0.53500000  1.0 0.0254513994
C  C11  1  0.56860000  0.43140000  0.52400000  1.0 -0.0378254615
C  C12  1  0.43140000  0.56860000  0.52400000  1.0 -0.0378254615
C  C13  1  0.43140000  0.56860000  0.47600000  1.0 -0.0378254615
C  C14  1  0.56860000  0.43140000  0.47600000  1.0 -0.0378254615
C  C15  1  0.61120000  0.68200000  0.52400000  1.0 -0.0298999958
C  C16  1  0.38880000  0.31800000  0.52400000  1.0 -0.0298999958
C  C17  1  0.68200000  0.61120000  0.47600000  1.0 -0.0298999958
C  C18  1  0.31800000  0.38880000  0.47600000  1.0 -0.0298999958
C  C19  1  0.38880000  0.31800000  0.47600000  1.0 -0.0298999958
C  C20  1  0.61120000  0.68200000  0.47600000  1.0 -0.0298999958
C  C21  1  0.31800000  0.38880000  0.52400000  1.0 -0.0298999958
C  C22  1  0.68200000  0.61120000  0.52400000  1.0 -0.0298999958
N  N1  1  0.07610000  0.92390000  0.18760000  1.0 -0.3162662337
N  N2  1  0.92390000  0.07610000  0.18760000  1.0 -0.3145664185
N  N3  1  0.92390000  0.07610000  0.81240000  1.0 -0.3162662337
N  N4  1  0.07610000  0.92390000  0.81240000  1.0 -0.3162662337
N  N5  1  0.01250000  0.55750000  0.50000000  1.0 -0.0466823131
N  N6  1  0.98750000  0.44250000  0.50000000  1.0 -0.0466823131
N  N7  1  0.55750000  0.01250000  0.50000000  1.0 -0.0466823131
N  N8  1  0.44250000  0.98750000  0.50000000  1.0 -0.0466823131
O  O1  1  0.27230000  0.27230000  0.96380000  1.0 0.232421048
O  O2  1  0.72770000  0.72770000  0.96380000  1.0 0.232421048
O  O3  1  0.27230000  0.27230000  0.03620000  1.0 0.232421048
O  O4  1  0.72770000  0.72770000  0.03620000  1.0 0.232421048
O  O5  1  0.50000000  0.50000000  0.30000000  1.0 -0.1740096658
O  O6  1  0.50000000  0.50000000  0.70000000  1.0 -0.1740096658
