# DDEC6 charges by PACMAN v1.1 (https://github.com/mtap-research/PACMAN-charge/)
data_KEDNOY_ion_pacman
_symmetry_space_group_name_H-M   'P 1'
_cell_length_a   14.05630000
_cell_length_b   14.05630000
_cell_length_c   14.05630000
_cell_angle_alpha   90.00000000
_cell_angle_beta   90.00000000
_cell_angle_gamma   90.00000000
_symmetry_Int_Tables_number   1
_chemical_formula_structural   AlAgPH18C18N3(OF)6
_chemical_formula_sum   'Al4 Ag4 P4 H72 C72 N12 O24 F24'
_cell_volume   2777.23770543
_cell_formula_units_Z   4
loop_
 _symmetry_equiv_pos_site_id
 _symmetry_equiv_pos_as_xyz
  1  'x, y, z'
loop_
 _atom_site_type_symbol
 _atom_site_label
 _atom_site_symmetry_multiplicity
 _atom_site_fract_x
 _atom_site_fract_y
 _atom_site_fract_z
 _atom_site_occupancy
 _atom_site_charge
Al  Al1  1  0.77064000  0.27064000  0.22936000  1.0 1.5001958906
Al  Al2  1  0.72936000  0.72936000  0.72936000  1.0 1.5001958906
Al  Al3  1  0.22936000  0.77064000  0.27064000  1.0 1.5001958906
Al  Al4  1  0.27064000  0.22936000  0.77064000  1.0 1.5001958906
Ag  Ag1  1  0.12590000  0.37410000  0.62590000  1.0 0.5997662842
Ag  Ag2  1  0.37410000  0.62590000  0.12590000  1.0 0.5997662842
Ag  Ag3  1  0.87410000  0.87410000  0.87410000  1.0 0.5997662842
Ag  Ag4  1  0.62590000  0.12590000  0.37410000  1.0 0.5997662842
P  P1  1  0.45606000  0.95606000  0.54394000  1.0 1.6173799931
P  P2  1  0.04394000  0.04394000  0.04394000  1.0 1.6173799931
P  P3  1  0.54394000  0.45606000  0.95606000  1.0 1.6173799931
P  P4  1  0.95606000  0.54394000  0.45606000  1.0 1.6173799931
H  H1  1  0.83730000  0.31190000  0.56250000  1.0 0.170026501
H  H2  1  0.66270000  0.68810000  0.06250000  1.0 0.170026501
H  H3  1  0.16270000  0.81190000  0.93750000  1.0 0.170026501
H  H4  1  0.33730000  0.18810000  0.43750000  1.0 0.170026501
H  H5  1  0.56250000  0.83730000  0.31190000  1.0 0.170026501
H  H6  1  0.06250000  0.66270000  0.68810000  1.0 0.170026501
H  H7  1  0.93750000  0.16270000  0.81190000  1.0 0.170026501
H  H8  1  0.43750000  0.33730000  0.18810000  1.0 0.170026501
H  H9  1  0.31190000  0.56250000  0.83730000  1.0 0.170026501
H  H10  1  0.68810000  0.06250000  0.66270000  1.0 0.170026501
H  H11  1  0.81190000  0.93750000  0.16270000  1.0 0.170026501
H  H12  1  0.18810000  0.43750000  0.33730000  1.0 0.170026501
H  H13  1  0.80880000  0.20220000  0.55250000  1.0 0.170026501
H  H14  1  0.69120000  0.79780000  0.05250000  1.0 0.170026501
H  H15  1  0.19120000  0.70220000  0.94750000  1.0 0.170026501
H  H16  1  0.30880000  0.29780000  0.44750000  1.0 0.170026501
H  H17  1  0.55250000  0.80880000  0.20220000  1.0 0.170026501
H  H18  1  0.05250000  0.69120000  0.79780000  1.0 0.170026501
H  H19  1  0.94750000  0.19120000  0.70220000  1.0 0.170026501
H  H20  1  0.44750000  0.30880000  0.29780000  1.0 0.170026501
H  H21  1  0.20220000  0.55250000  0.80880000  1.0 0.170026501
H  H22  1  0.79780000  0.05250000  0.69120000  1.0 0.170026501
H  H23  1  0.70220000  0.94750000  0.19120000  1.0 0.170026501
H  H24  1  0.29780000  0.44750000  0.30880000  1.0 0.170026501
H  H25  1  0.73190000  0.28320000  0.53050000  1.0 0.170026501
H  H26  1  0.76810000  0.71680000  0.03050000  1.0 0.170026501
H  H27  1  0.26810000  0.78320000  0.96950000  1.0 0.170026501
H  H28  1  0.23190000  0.21680000  0.46950000  1.0 0.170026501
H  H29  1  0.53050000  0.73190000  0.28320000  1.0 0.170026501
H  H30  1  0.03050000  0.76810000  0.71680000  1.0 0.170026501
H  H31  1  0.96950000  0.26810000  0.78320000  1.0 0.170026501
H  H32  1  0.46950000  0.23190000  0.21680000  1.0 0.170026501
H  H33  1  0.28320000  0.53050000  0.73190000  1.0 0.170026501
H  H34  1  0.71680000  0.03050000  0.76810000  1.0 0.170026501
H  H35  1  0.78320000  0.96950000  0.26810000  1.0 0.170026501
H  H36  1  0.21680000  0.46950000  0.23190000  1.0 0.170026501
H  H37  1  0.10010000  0.26850000  0.34040000  1.0 0.16132408
H  H38  1  0.39990000  0.73150000  0.84040000  1.0 0.16132408
H  H39  1  0.89990000  0.76850000  0.15960000  1.0 0.16132408
H  H40  1  0.60010000  0.23150000  0.65960000  1.0 0.16132408
H  H41  1  0.34040000  0.10010000  0.26850000  1.0 0.16132408
H  H42  1  0.84040000  0.39990000  0.73150000  1.0 0.16132408
H  H43  1  0.15960000  0.89990000  0.76850000  1.0 0.16132408
H  H44  1  0.65960000  0.60010000  0.23150000  1.0 0.16132408
H  H45  1  0.26850000  0.34040000  0.10010000  1.0 0.16132408
H  H46  1  0.73150000  0.84040000  0.39990000  1.0 0.16132408
H  H47  1  0.76850000  0.15960000  0.89990000  1.0 0.16132408
H  H48  1  0.23150000  0.65960000  0.60010000  1.0 0.16132408
H  H49  1  0.07960000  0.32370000  0.24300000  1.0 0.1761603057
H  H50  1  0.42040000  0.67630000  0.74300000  1.0 0.1761603057
H  H51  1  0.92040000  0.82370000  0.25700000  1.0 0.1761603057
H  H52  1  0.57960000  0.17630000  0.75700000  1.0 0.1761603057
H  H53  1  0.24300000  0.07960000  0.32370000  1.0 0.1761603057
H  H54  1  0.74300000  0.42040000  0.67630000  1.0 0.1761603057
H  H55  1  0.25700000  0.92040000  0.82370000  1.0 0.1761603057
H  H56  1  0.75700000  0.57960000  0.17630000  1.0 0.1761603057
H  H57  1  0.32370000  0.24300000  0.07960000  1.0 0.1761603057
H  H58  1  0.67630000  0.74300000  0.42040000  1.0 0.1761603057
H  H59  1  0.82370000  0.25700000  0.92040000  1.0 0.1761603057
H  H60  1  0.17630000  0.75700000  0.57960000  1.0 0.1761603057
H  H61  1  0.07800000  0.20990000  0.24530000  1.0 0.1761603057
H  H62  1  0.42200000  0.79010000  0.74530000  1.0 0.1761603057
H  H63  1  0.92200000  0.70990000  0.25470000  1.0 0.1761603057
H  H64  1  0.57800000  0.29010000  0.75470000  1.0 0.1761603057
H  H65  1  0.24530000  0.07800000  0.20990000  1.0 0.1761603057
H  H66  1  0.74530000  0.42200000  0.79010000  1.0 0.1761603057
H  H67  1  0.25470000  0.92200000  0.70990000  1.0 0.1761603057
H  H68  1  0.75470000  0.57800000  0.29010000  1.0 0.1761603057
H  H69  1  0.20990000  0.24530000  0.07800000  1.0 0.1761603057
H  H70  1  0.79010000  0.74530000  0.42200000  1.0 0.1761603057
H  H71  1  0.70990000  0.25470000  0.92200000  1.0 0.1761603057
H  H72  1  0.29010000  0.75470000  0.57800000  1.0 0.1761603057
C  C1  1  0.79940000  0.26610000  0.52630000  1.0 -0.5533050943
C  C2  1  0.70060000  0.73390000  0.02630000  1.0 -0.5533050943
C  C3  1  0.20060000  0.76610000  0.97370000  1.0 -0.5533050943
C  C4  1  0.29940000  0.23390000  0.47370000  1.0 -0.5533050943
C  C5  1  0.52630000  0.79940000  0.26610000  1.0 -0.5533050943
C  C6  1  0.02630000  0.70060000  0.73390000  1.0 -0.5533050943
C  C7  1  0.97370000  0.20060000  0.76610000  1.0 -0.5533050943
C  C8  1  0.47370000  0.29940000  0.23390000  1.0 -0.5533050943
C  C9  1  0.26610000  0.52630000  0.79940000  1.0 -0.5533050943
C  C10  1  0.73390000  0.02630000  0.70060000  1.0 -0.5533050943
C  C11  1  0.76610000  0.97370000  0.20060000  1.0 -0.5533050943
C  C12  1  0.23390000  0.47370000  0.29940000  1.0 -0.5533050943
C  C13  1  0.82990000  0.26741000  0.42436000  1.0 0.5128573477
C  C14  1  0.67010000  0.73259000  0.92436000  1.0 0.5128573477
C  C15  1  0.17010000  0.76741000  0.07564000  1.0 0.5128573477
C  C16  1  0.32990000  0.23259000  0.57564000  1.0 0.5128573477
C  C17  1  0.42436000  0.82990000  0.26741000  1.0 0.5128573477
C  C18  1  0.92436000  0.67010000  0.73259000  1.0 0.5128573477
C  C19  1  0.07564000  0.17010000  0.76741000  1.0 0.5128573477
C  C20  1  0.57564000  0.32990000  0.23259000  1.0 0.5128573477
C  C21  1  0.26741000  0.42436000  0.82990000  1.0 0.5128573477
C  C22  1  0.73259000  0.92436000  0.67010000  1.0 0.5128573477
C  C23  1  0.76741000  0.07564000  0.17010000  1.0 0.5128573477
C  C24  1  0.23259000  0.57564000  0.32990000  1.0 0.5128573477
C  C25  1  0.92690000  0.26360000  0.39931000  1.0 -0.3140399655
C  C26  1  0.57310000  0.73640000  0.89931000  1.0 -0.3140399655
C  C27  1  0.07310000  0.76360000  0.10069000  1.0 -0.3140399655
C  C28  1  0.42690000  0.23640000  0.60069000  1.0 -0.31525594
C  C29  1  0.39931000  0.92690000  0.26360000  1.0 -0.3140399655
C  C30  1  0.89931000  0.57310000  0.73640000  1.0 -0.3140399655
C  C31  1  0.10069000  0.07310000  0.76360000  1.0 -0.3140399655
C  C32  1  0.60069000  0.42690000  0.23640000  1.0 -0.31525594
C  C33  1  0.26360000  0.39931000  0.92690000  1.0 -0.3140399655
C  C34  1  0.73640000  0.89931000  0.57310000  1.0 -0.3140399655
C  C35  1  0.76360000  0.10069000  0.07310000  1.0 -0.3140399655
C  C36  1  0.23640000  0.60069000  0.42690000  1.0 -0.31525594
C  C37  1  0.95929000  0.26973000  0.30430000  1.0 0.5173546572
C  C38  1  0.54071000  0.73027000  0.80430000  1.0 0.5173546572
C  C39  1  0.04071000  0.76973000  0.19570000  1.0 0.5173546572
C  C40  1  0.45929000  0.23027000  0.69570000  1.0 0.5173546572
C  C41  1  0.30430000  0.95929000  0.26973000  1.0 0.5173546572
C  C42  1  0.80430000  0.54071000  0.73027000  1.0 0.5173546572
C  C43  1  0.19570000  0.04071000  0.76973000  1.0 0.5173546572
C  C44  1  0.69570000  0.45929000  0.23027000  1.0 0.5173546572
C  C45  1  0.26973000  0.30430000  0.95929000  1.0 0.5173546572
C  C46  1  0.73027000  0.80430000  0.54071000  1.0 0.5173546572
C  C47  1  0.76973000  0.19570000  0.04071000  1.0 0.5173546572
C  C48  1  0.23027000  0.69570000  0.45929000  1.0 0.5173546572
C  C49  1  0.06320000  0.26780000  0.28130000  1.0 -0.5533050943
C  C50  1  0.43680000  0.73220000  0.78130000  1.0 -0.5552597941
C  C51  1  0.93680000  0.76780000  0.21870000  1.0 -0.5533050943
C  C52  1  0.56320000  0.23220000  0.71870000  1.0 -0.5533050943
C  C53  1  0.28130000  0.06320000  0.26780000  1.0 -0.5533050943
C  C54  1  0.78130000  0.43680000  0.73220000  1.0 -0.5552597941
C  C55  1  0.21870000  0.93680000  0.76780000  1.0 -0.5533050943
C  C56  1  0.71870000  0.56320000  0.23220000  1.0 -0.5552597941
C  C57  1  0.26780000  0.28130000  0.06320000  1.0 -0.5533050943
C  C58  1  0.73220000  0.78130000  0.43680000  1.0 -0.5552597941
C  C59  1  0.76780000  0.21870000  0.93680000  1.0 -0.5533050943
C  C60  1  0.23220000  0.71870000  0.56320000  1.0 -0.5552597941
C  C61  1  0.99490000  0.26260000  0.47450000  1.0 0.3286960969
C  C62  1  0.50510000  0.73740000  0.97450000  1.0 0.3286960969
C  C63  1  0.00510000  0.76260000  0.02550000  1.0 0.3286960969
C  C64  1  0.49490000  0.23740000  0.52550000  1.0 0.3286960969
C  C65  1  0.47450000  0.99490000  0.26260000  1.0 0.3286960969
C  C66  1  0.97450000  0.50510000  0.73740000  1.0 0.3286960969
C  C67  1  0.02550000  0.00510000  0.76260000  1.0 0.3286960969
C  C68  1  0.52550000  0.49490000  0.23740000  1.0 0.3286960969
C  C69  1  0.26260000  0.47450000  0.99490000  1.0 0.3286960969
C  C70  1  0.73740000  0.97450000  0.50510000  1.0 0.3286960969
C  C71  1  0.76260000  0.02550000  0.00510000  1.0 0.3286960969
C  C72  1  0.23740000  0.52550000  0.49490000  1.0 0.3286960969
N  N1  1  0.04734000  0.26340000  0.53684000  1.0 -0.3959659041
N  N2  1  0.45266000  0.73660000  0.03684000  1.0 -0.3905533517
N  N3  1  0.95266000  0.76340000  0.96316000  1.0 -0.3959659041
N  N4  1  0.54734000  0.23660000  0.46316000  1.0 -0.3959659041
N  N5  1  0.53684000  0.04734000  0.26340000  1.0 -0.3959659041
N  N6  1  0.03684000  0.45266000  0.73660000  1.0 -0.3959659041
N  N7  1  0.96316000  0.95266000  0.76340000  1.0 -0.3959659041
N  N8  1  0.46316000  0.54734000  0.23660000  1.0 -0.3959659041
N  N9  1  0.26340000  0.53684000  0.04734000  1.0 -0.3959659041
N  N10  1  0.73660000  0.03684000  0.45266000  1.0 -0.3959659041
N  N11  1  0.76340000  0.96316000  0.95266000  1.0 -0.3959659041
N  N12  1  0.23660000  0.46316000  0.54734000  1.0 -0.3959659041
O  O1  1  0.76405000  0.27206000  0.36247000  1.0 -0.5380548985
O  O2  1  0.73595000  0.72794000  0.86247000  1.0 -0.5380548985
O  O3  1  0.23595000  0.77206000  0.13753000  1.0 -0.5380548985
O  O4  1  0.26405000  0.22794000  0.63753000  1.0 -0.5380548985
O  O5  1  0.36247000  0.76405000  0.27206000  1.0 -0.5380548985
O  O6  1  0.86247000  0.73595000  0.72794000  1.0 -0.5380548985
O  O7  1  0.13753000  0.23595000  0.77206000  1.0 -0.5380548985
O  O8  1  0.63753000  0.26405000  0.22794000  1.0 -0.5380548985
O  O9  1  0.27206000  0.36247000  0.76405000  1.0 -0.5380548985
O  O10  1  0.72794000  0.86247000  0.73595000  1.0 -0.5380548985
O  O11  1  0.77206000  0.13753000  0.23595000  1.0 -0.5380548985
O  O12  1  0.22794000  0.63753000  0.26405000  1.0 -0.5380548985
O  O13  1  0.90284000  0.27724000  0.23452000  1.0 -0.4853012861
O  O14  1  0.59716000  0.72276000  0.73452000  1.0 -0.4853012861
O  O15  1  0.09716000  0.77724000  0.26548000  1.0 -0.4853012861
O  O16  1  0.40284000  0.22276000  0.76548000  1.0 -0.4853012861
O  O17  1  0.23452000  0.90284000  0.27724000  1.0 -0.4853012861
O  O18  1  0.73452000  0.59716000  0.72276000  1.0 -0.4853012861
O  O19  1  0.26548000  0.09716000  0.77724000  1.0 -0.4853012861
O  O20  1  0.76548000  0.40284000  0.22276000  1.0 -0.4853012861
O  O21  1  0.27724000  0.23452000  0.90284000  1.0 -0.4853012861
O  O22  1  0.72276000  0.73452000  0.59716000  1.0 -0.4853012861
O  O23  1  0.77724000  0.26548000  0.09716000  1.0 -0.4853012861
O  O24  1  0.22276000  0.76548000  0.40284000  1.0 -0.4853012861
F  F1  1  0.41883000  0.03175000  0.46826000  1.0 -0.3905533517
F  F2  1  0.53174000  0.91883000  0.46825000  1.0 -0.3905533517
F  F3  1  0.53175000  0.03174000  0.58117000  1.0 -0.3905533517
F  F4  1  0.38190000  0.99880000  0.61730000  1.0 -0.3905533517
F  F5  1  0.38270000  0.88190000  0.50120000  1.0 -0.3905533517
F  F6  1  0.49880000  0.88270000  0.61810000  1.0 -0.3905533517
F  F7  1  0.08117000  0.96825000  0.96826000  1.0 -0.3905533517
F  F8  1  0.96826000  0.08117000  0.96825000  1.0 -0.3905533517
F  F9  1  0.96825000  0.96826000  0.08117000  1.0 -0.3905533517
F  F10  1  0.11810000  0.00120000  0.11730000  1.0 -0.3905533517
F  F11  1  0.11730000  0.11810000  0.00120000  1.0 -0.3905533517
F  F12  1  0.00120000  0.11730000  0.11810000  1.0 -0.3905533517
F  F13  1  0.58117000  0.53175000  0.03174000  1.0 -0.3905533517
F  F14  1  0.46826000  0.41883000  0.03175000  1.0 -0.3905533517
F  F15  1  0.46825000  0.53174000  0.91883000  1.0 -0.3905533517
F  F16  1  0.61810000  0.49880000  0.88270000  1.0 -0.3905533517
F  F17  1  0.61730000  0.38190000  0.99880000  1.0 -0.3905533517
F  F18  1  0.50120000  0.38270000  0.88190000  1.0 -0.3905533517
F  F19  1  0.91883000  0.46825000  0.53174000  1.0 -0.3905533517
F  F20  1  0.03174000  0.58117000  0.53175000  1.0 -0.3905533517
F  F21  1  0.03175000  0.46826000  0.41883000  1.0 -0.3905533517
F  F22  1  0.88190000  0.50120000  0.38270000  1.0 -0.3905533517
F  F23  1  0.88270000  0.61810000  0.49880000  1.0 -0.3905533517
F  F24  1  0.99880000  0.61730000  0.38190000  1.0 -0.3905533517
