# DDEC6 charges by PACMAN v1.1 (https://github.com/mtap-research/PACMAN-charge/)
data_KEFBII_ASR_pacman
_symmetry_space_group_name_H-M   'P 1'
_cell_length_a   17.20890000
_cell_length_b   17.20890000
_cell_length_c   28.52300000
_cell_angle_alpha   90.00000000
_cell_angle_beta   90.00000000
_cell_angle_gamma   90.00000000
_symmetry_Int_Tables_number   1
_chemical_formula_structural   ZnH3C9O4
_chemical_formula_sum   'Zn16 H48 C144 O64'
_cell_volume   8446.97918099
_cell_formula_units_Z   16
loop_
 _symmetry_equiv_pos_site_id
 _symmetry_equiv_pos_as_xyz
  1  'x, y, z'
loop_
 _atom_site_type_symbol
 _atom_site_label
 _atom_site_symmetry_multiplicity
 _atom_site_fract_x
 _atom_site_fract_y
 _atom_site_fract_z
 _atom_site_occupancy
 _atom_site_charge
Zn  Zn1  1  0.41369000  0.00000000  0.00000000  1.0 0.9427148041
Zn  Zn2  1  0.58631000  0.00000000  0.00000000  1.0 0.9427148041
Zn  Zn3  1  0.50000000  0.91369000  0.50000000  1.0 0.9427148041
Zn  Zn4  1  0.50000000  0.08631000  0.50000000  1.0 0.9427148041
Zn  Zn5  1  0.08631000  0.50000000  0.50000000  1.0 0.9427148041
Zn  Zn6  1  0.91369000  0.50000000  0.50000000  1.0 0.9427148041
Zn  Zn7  1  0.00000000  0.58631000  0.00000000  1.0 0.9427148041
Zn  Zn8  1  0.00000000  0.41369000  0.00000000  1.0 0.9427148041
Zn  Zn9  1  0.20339000  0.79661000  0.21600000  1.0 0.9427148041
Zn  Zn10  1  0.79661000  0.20339000  0.21600000  1.0 0.9427148041
Zn  Zn11  1  0.70339000  0.70339000  0.71600000  1.0 0.9427148041
Zn  Zn12  1  0.29661000  0.29661000  0.71600000  1.0 0.9427148041
Zn  Zn13  1  0.79661000  0.79661000  0.78400000  1.0 0.9427148041
Zn  Zn14  1  0.20339000  0.20339000  0.78400000  1.0 0.9427148041
Zn  Zn15  1  0.29661000  0.70339000  0.28400000  1.0 0.9427148041
Zn  Zn16  1  0.70339000  0.29661000  0.28400000  1.0 0.9427148041
H  H1  1  0.61230000  0.79660000  0.08770000  1.0 0.1319569294
H  H2  1  0.38770000  0.20340000  0.08770000  1.0 0.1319569294
H  H3  1  0.70340000  0.11230000  0.58770000  1.0 0.1319569294
H  H4  1  0.29660000  0.88770000  0.58770000  1.0 0.1319569294
H  H5  1  0.38770000  0.79660000  0.91230000  1.0 0.1319569294
H  H6  1  0.61230000  0.20340000  0.91230000  1.0 0.1319569294
H  H7  1  0.29660000  0.11230000  0.41230000  1.0 0.1319569294
H  H8  1  0.70340000  0.88770000  0.41230000  1.0 0.1319569294
H  H9  1  0.88770000  0.70340000  0.41230000  1.0 0.1319569294
H  H10  1  0.11230000  0.29660000  0.41230000  1.0 0.1319569294
H  H11  1  0.79660000  0.38770000  0.91230000  1.0 0.1319569294
H  H12  1  0.20340000  0.61230000  0.91230000  1.0 0.1319569294
H  H13  1  0.11230000  0.70340000  0.58770000  1.0 0.1319569294
H  H14  1  0.88770000  0.29660000  0.58770000  1.0 0.1319569294
H  H15  1  0.20340000  0.38770000  0.08770000  1.0 0.1319569294
H  H16  1  0.79660000  0.61230000  0.08770000  1.0 0.1319569294
H  H17  1  0.39330000  0.86370000  0.12780000  1.0 0.1319569294
H  H18  1  0.60670000  0.13630000  0.12780000  1.0 0.1319569294
H  H19  1  0.63630000  0.89330000  0.62780000  1.0 0.1319569294
H  H20  1  0.36370000  0.10670000  0.62780000  1.0 0.1319569294
H  H21  1  0.60670000  0.86370000  0.87220000  1.0 0.1319569294
H  H22  1  0.39330000  0.13630000  0.87220000  1.0 0.1319569294
H  H23  1  0.36370000  0.89330000  0.37220000  1.0 0.1319569294
H  H24  1  0.63630000  0.10670000  0.37220000  1.0 0.1319569294
H  H25  1  0.10670000  0.63630000  0.37220000  1.0 0.1319569294
H  H26  1  0.89330000  0.36370000  0.37220000  1.0 0.1319569294
H  H27  1  0.86370000  0.60670000  0.87220000  1.0 0.1319569294
H  H28  1  0.13630000  0.39330000  0.87220000  1.0 0.1319569294
H  H29  1  0.89330000  0.63630000  0.62780000  1.0 0.1319569294
H  H30  1  0.10670000  0.36370000  0.62780000  1.0 0.1319569294
H  H31  1  0.13630000  0.60670000  0.12780000  1.0 0.1319569294
H  H32  1  0.86370000  0.39330000  0.12780000  1.0 0.1319569294
H  H33  1  0.50810000  0.69540000  0.20360000  1.0 0.1319569294
H  H34  1  0.49190000  0.30460000  0.20360000  1.0 0.1319569294
H  H35  1  0.80460000  0.00810000  0.70360000  1.0 0.1319569294
H  H36  1  0.19540000  0.99190000  0.70360000  1.0 0.1319569294
H  H37  1  0.49190000  0.69540000  0.79640000  1.0 0.1319569294
H  H38  1  0.50810000  0.30460000  0.79640000  1.0 0.1319569294
H  H39  1  0.19540000  0.00810000  0.29640000  1.0 0.1319569294
H  H40  1  0.80460000  0.99190000  0.29640000  1.0 0.1319569294
H  H41  1  0.99190000  0.80460000  0.29640000  1.0 0.1319569294
H  H42  1  0.00810000  0.19540000  0.29640000  1.0 0.1319569294
H  H43  1  0.69540000  0.49190000  0.79640000  1.0 0.1319569294
H  H44  1  0.30460000  0.50810000  0.79640000  1.0 0.1319569294
H  H45  1  0.00810000  0.80460000  0.70360000  1.0 0.1319569294
H  H46  1  0.99190000  0.19540000  0.70360000  1.0 0.1319569294
H  H47  1  0.30460000  0.49190000  0.20360000  1.0 0.1319569294
H  H48  1  0.69540000  0.50810000  0.20360000  1.0 0.1319569294
C  C1  1  0.57166000  0.73499000  0.14600000  1.0 0.1319569294
C  C2  1  0.42834000  0.26501000  0.14600000  1.0 0.1319569294
C  C3  1  0.76501000  0.07166000  0.64600000  1.0 0.1319569294
C  C4  1  0.23499000  0.92834000  0.64600000  1.0 0.1319569294
C  C5  1  0.42834000  0.73499000  0.85400000  1.0 0.1319569294
C  C6  1  0.57166000  0.26501000  0.85400000  1.0 0.1319569294
C  C7  1  0.23499000  0.07166000  0.35400000  1.0 0.1319569294
C  C8  1  0.76501000  0.92834000  0.35400000  1.0 0.1319569294
C  C9  1  0.92834000  0.76501000  0.35400000  1.0 0.1319569294
C  C10  1  0.07166000  0.23499000  0.35400000  1.0 0.1319569294
C  C11  1  0.73499000  0.42834000  0.85400000  1.0 0.1319569294
C  C12  1  0.26501000  0.57166000  0.85400000  1.0 0.1319569294
C  C13  1  0.07166000  0.76501000  0.64600000  1.0 0.1319569294
C  C14  1  0.92834000  0.23499000  0.64600000  1.0 0.1319569294
C  C15  1  0.26501000  0.42834000  0.14600000  1.0 0.1319569294
C  C16  1  0.73499000  0.57166000  0.14600000  1.0 0.1319569294
C  C17  1  0.57022000  0.79158000  0.10907000  1.0 -0.1206632976
C  C18  1  0.42978000  0.20842000  0.10907000  1.0 -0.1206632976
C  C19  1  0.70842000  0.07022000  0.60907000  1.0 -0.1206632976
C  C20  1  0.29158000  0.92978000  0.60907000  1.0 -0.1206632976
C  C21  1  0.42978000  0.79158000  0.89093000  1.0 -0.1206632976
C  C22  1  0.57022000  0.20842000  0.89093000  1.0 -0.1206632976
C  C23  1  0.29158000  0.07022000  0.39093000  1.0 -0.1206632976
C  C24  1  0.70842000  0.92978000  0.39093000  1.0 -0.1206632976
C  C25  1  0.92978000  0.70842000  0.39093000  1.0 -0.1206632976
C  C26  1  0.07022000  0.29158000  0.39093000  1.0 -0.1206632976
C  C27  1  0.79158000  0.42978000  0.89093000  1.0 -0.1206632976
C  C28  1  0.20842000  0.57022000  0.89093000  1.0 -0.1206632976
C  C29  1  0.07022000  0.70842000  0.60907000  1.0 -0.1206632976
C  C30  1  0.92978000  0.29158000  0.60907000  1.0 -0.1206632976
C  C31  1  0.20842000  0.42978000  0.10907000  1.0 -0.1206632976
C  C32  1  0.79158000  0.57022000  0.10907000  1.0 -0.1206632976
C  C33  1  0.50563000  0.83925000  0.10337000  1.0 -0.0381760982
C  C34  1  0.49437000  0.16075000  0.10337000  1.0 -0.0381760982
C  C35  1  0.66075000  0.00563000  0.60337000  1.0 -0.0381760982
C  C36  1  0.33925000  0.99437000  0.60337000  1.0 -0.0381760982
C  C37  1  0.49437000  0.83925000  0.89663000  1.0 -0.0381760982
C  C38  1  0.50563000  0.16075000  0.89663000  1.0 -0.0381760982
C  C39  1  0.33925000  0.00563000  0.39663000  1.0 -0.0381760982
C  C40  1  0.66075000  0.99437000  0.39663000  1.0 -0.0381760982
C  C41  1  0.99437000  0.66075000  0.39663000  1.0 -0.0381760982
C  C42  1  0.00563000  0.33925000  0.39663000  1.0 -0.0381760982
C  C43  1  0.83925000  0.49437000  0.89663000  1.0 -0.0381760982
C  C44  1  0.16075000  0.50563000  0.89663000  1.0 -0.0381760982
C  C45  1  0.00563000  0.66075000  0.60337000  1.0 -0.0381760982
C  C46  1  0.99437000  0.33925000  0.60337000  1.0 -0.0381760982
C  C47  1  0.16075000  0.49437000  0.10337000  1.0 -0.0381760982
C  C48  1  0.83925000  0.50563000  0.10337000  1.0 -0.0381760982
C  C49  1  0.44003000  0.83299000  0.13325000  1.0 -0.0925836142
C  C50  1  0.55997000  0.16701000  0.13325000  1.0 -0.0925836142
C  C51  1  0.66701000  0.94003000  0.63325000  1.0 -0.0925836142
C  C52  1  0.33299000  0.05997000  0.63325000  1.0 -0.0925836142
C  C53  1  0.55997000  0.83299000  0.86675000  1.0 -0.0925836142
C  C54  1  0.44003000  0.16701000  0.86675000  1.0 -0.0925836142
C  C55  1  0.33299000  0.94003000  0.36675000  1.0 -0.0925836142
C  C56  1  0.66701000  0.05997000  0.36675000  1.0 -0.0925836142
C  C57  1  0.05997000  0.66701000  0.36675000  1.0 -0.0925836142
C  C58  1  0.94003000  0.33299000  0.36675000  1.0 -0.0925836142
C  C59  1  0.83299000  0.55997000  0.86675000  1.0 -0.0925836142
C  C60  1  0.16701000  0.44003000  0.86675000  1.0 -0.0925836142
C  C61  1  0.94003000  0.66701000  0.63325000  1.0 -0.0925836142
C  C62  1  0.05997000  0.33299000  0.63325000  1.0 -0.0925836142
C  C63  1  0.16701000  0.55997000  0.13325000  1.0 -0.0925836142
C  C64  1  0.83299000  0.44003000  0.13325000  1.0 -0.0925836142
C  C65  1  0.44281000  0.77917000  0.16976000  1.0 -0.0274573117
C  C66  1  0.55719000  0.22083000  0.16976000  1.0 -0.0274573117
C  C67  1  0.72083000  0.94281000  0.66976000  1.0 -0.0274573117
C  C68  1  0.27917000  0.05719000  0.66976000  1.0 -0.0274573117
C  C69  1  0.55719000  0.77917000  0.83024000  1.0 -0.0274573117
C  C70  1  0.44281000  0.22083000  0.83024000  1.0 -0.0274573117
C  C71  1  0.27917000  0.94281000  0.33024000  1.0 -0.0274573117
C  C72  1  0.72083000  0.05719000  0.33024000  1.0 -0.0274573117
C  C73  1  0.05719000  0.72083000  0.33024000  1.0 -0.0274573117
C  C74  1  0.94281000  0.27917000  0.33024000  1.0 -0.0274573117
C  C75  1  0.77917000  0.55719000  0.83024000  1.0 -0.0274573117
C  C76  1  0.22083000  0.44281000  0.83024000  1.0 -0.0274573117
C  C77  1  0.94281000  0.72083000  0.66976000  1.0 -0.0274573117
C  C78  1  0.05719000  0.27917000  0.66976000  1.0 -0.0274573117
C  C79  1  0.22083000  0.55719000  0.16976000  1.0 -0.0274573117
C  C80  1  0.77917000  0.44281000  0.16976000  1.0 -0.0274573117
C  C81  1  0.50739000  0.73047000  0.17710000  1.0 -0.1273646133
C  C82  1  0.49261000  0.26953000  0.17710000  1.0 -0.1273646133
C  C83  1  0.76953000  0.00739000  0.67710000  1.0 -0.1273646133
C  C84  1  0.23047000  0.99261000  0.67710000  1.0 -0.1273646133
C  C85  1  0.49261000  0.73047000  0.82290000  1.0 -0.1273646133
C  C86  1  0.50739000  0.26953000  0.82290000  1.0 -0.1273646133
C  C87  1  0.23047000  0.00739000  0.32290000  1.0 -0.1273646133
C  C88  1  0.76953000  0.99261000  0.32290000  1.0 -0.1273646133
C  C89  1  0.99261000  0.76953000  0.32290000  1.0 -0.1273646133
C  C90  1  0.00739000  0.23047000  0.32290000  1.0 -0.1273646133
C  C91  1  0.73047000  0.49261000  0.82290000  1.0 -0.1273646133
C  C92  1  0.26953000  0.50739000  0.82290000  1.0 -0.1273646133
C  C93  1  0.00739000  0.76953000  0.67710000  1.0 -0.1273646133
C  C94  1  0.99261000  0.23047000  0.67710000  1.0 -0.1273646133
C  C95  1  0.26953000  0.49261000  0.17710000  1.0 -0.1273646133
C  C96  1  0.73047000  0.50739000  0.17710000  1.0 -0.1273646133
C  C97  1  0.50480000  0.89720000  0.06474000  1.0 0.5989882194
C  C98  1  0.49520000  0.10280000  0.06474000  1.0 0.5989882194
C  C99  1  0.60280000  0.00480000  0.56474000  1.0 0.5989882194
C  C100  1  0.39720000  0.99520000  0.56474000  1.0 0.5989882194
C  C101  1  0.49520000  0.89720000  0.93526000  1.0 0.5989882194
C  C102  1  0.50480000  0.10280000  0.93526000  1.0 0.5989882194
C  C103  1  0.39720000  0.00480000  0.43526000  1.0 0.5989882194
C  C104  1  0.60280000  0.99520000  0.43526000  1.0 0.5989882194
C  C105  1  0.99520000  0.60280000  0.43526000  1.0 0.5989882194
C  C106  1  0.00480000  0.39720000  0.43526000  1.0 0.5989882194
C  C107  1  0.89720000  0.49520000  0.93526000  1.0 0.5989882194
C  C108  1  0.10280000  0.50480000  0.93526000  1.0 0.5989882194
C  C109  1  0.00480000  0.60280000  0.56474000  1.0 0.5989882194
C  C110  1  0.99520000  0.39720000  0.56474000  1.0 0.5989882194
C  C111  1  0.10280000  0.49520000  0.06474000  1.0 0.5989882194
C  C112  1  0.89720000  0.50480000  0.06474000  1.0 0.5989882194
C  C113  1  0.37320000  0.77358000  0.20146000  1.0 0.5989882194
C  C114  1  0.62680000  0.22642000  0.20146000  1.0 0.5989882194
C  C115  1  0.72642000  0.87320000  0.70146000  1.0 0.5989882194
C  C116  1  0.27358000  0.12680000  0.70146000  1.0 0.5989882194
C  C117  1  0.62680000  0.77358000  0.79854000  1.0 0.5989882194
C  C118  1  0.37320000  0.22642000  0.79854000  1.0 0.5989882194
C  C119  1  0.27358000  0.87320000  0.29854000  1.0 0.5989882194
C  C120  1  0.72642000  0.12680000  0.29854000  1.0 0.5989882194
C  C121  1  0.12680000  0.72642000  0.29854000  1.0 0.5989882194
C  C122  1  0.87320000  0.27358000  0.29854000  1.0 0.5989882194
C  C123  1  0.77358000  0.62680000  0.79854000  1.0 0.5989882194
C  C124  1  0.22642000  0.37320000  0.79854000  1.0 0.5989882194
C  C125  1  0.87320000  0.72642000  0.70146000  1.0 0.5989882194
C  C126  1  0.12680000  0.27358000  0.70146000  1.0 0.5989882194
C  C127  1  0.22642000  0.62680000  0.20146000  1.0 0.5989882194
C  C128  1  0.77358000  0.37320000  0.20146000  1.0 0.5989882194
C  C129  1  0.63317000  0.68236000  0.14967000  1.0 -0.1044488993
C  C130  1  0.36683000  0.31764000  0.14967000  1.0 -0.1044488993
C  C131  1  0.81764000  0.13317000  0.64967000  1.0 -0.1044488993
C  C132  1  0.18236000  0.86683000  0.64967000  1.0 -0.1044488993
C  C133  1  0.36683000  0.68236000  0.85033000  1.0 -0.1044488993
C  C134  1  0.63317000  0.31764000  0.85033000  1.0 -0.1044488993
C  C135  1  0.18236000  0.13317000  0.35033000  1.0 -0.1044488993
C  C136  1  0.81764000  0.86683000  0.35033000  1.0 -0.1044488993
C  C137  1  0.86683000  0.81764000  0.35033000  1.0 -0.1044488993
C  C138  1  0.13317000  0.18236000  0.35033000  1.0 -0.1044488993
C  C139  1  0.68236000  0.36683000  0.85033000  1.0 -0.1044488993
C  C140  1  0.31764000  0.63317000  0.85033000  1.0 -0.1044488993
C  C141  1  0.13317000  0.81764000  0.64967000  1.0 -0.1044488993
C  C142  1  0.86683000  0.18236000  0.64967000  1.0 -0.1044488993
C  C143  1  0.31764000  0.36683000  0.14967000  1.0 -0.1044488993
C  C144  1  0.68236000  0.63317000  0.14967000  1.0 -0.1044488993
O  O1  1  0.44084000  0.93011000  0.05550000  1.0 -0.5394562816
O  O2  1  0.55916000  0.06989000  0.05550000  1.0 -0.5394562816
O  O3  1  0.56989000  0.94084000  0.55550000  1.0 -0.5394562816
O  O4  1  0.43011000  0.05916000  0.55550000  1.0 -0.5394562816
O  O5  1  0.55916000  0.93011000  0.94450000  1.0 -0.5394562816
O  O6  1  0.44084000  0.06989000  0.94450000  1.0 -0.5394562816
O  O7  1  0.43011000  0.94084000  0.44450000  1.0 -0.5394562816
O  O8  1  0.56989000  0.05916000  0.44450000  1.0 -0.5394562816
O  O9  1  0.05916000  0.56989000  0.44450000  1.0 -0.5394562816
O  O10  1  0.94084000  0.43011000  0.44450000  1.0 -0.5394562816
O  O11  1  0.93011000  0.55916000  0.94450000  1.0 -0.5394562816
O  O12  1  0.06989000  0.44084000  0.94450000  1.0 -0.5394562816
O  O13  1  0.94084000  0.56989000  0.55550000  1.0 -0.5394562816
O  O14  1  0.05916000  0.43011000  0.55550000  1.0 -0.5394562816
O  O15  1  0.06989000  0.55916000  0.05550000  1.0 -0.5394562816
O  O16  1  0.93011000  0.44084000  0.05550000  1.0 -0.5394562816
O  O17  1  0.56786000  0.90854000  0.04274000  1.0 -0.5394562816
O  O18  1  0.43214000  0.09146000  0.04274000  1.0 -0.5394562816
O  O19  1  0.59146000  0.06786000  0.54274000  1.0 -0.5394562816
O  O20  1  0.40854000  0.93214000  0.54274000  1.0 -0.5394562816
O  O21  1  0.43214000  0.90854000  0.95726000  1.0 -0.5394562816
O  O22  1  0.56786000  0.09146000  0.95726000  1.0 -0.5394562816
O  O23  1  0.40854000  0.06786000  0.45726000  1.0 -0.5394562816
O  O24  1  0.59146000  0.93214000  0.45726000  1.0 -0.5394562816
O  O25  1  0.93214000  0.59146000  0.45726000  1.0 -0.5394562816
O  O26  1  0.06786000  0.40854000  0.45726000  1.0 -0.5394562816
O  O27  1  0.90854000  0.43214000  0.95726000  1.0 -0.5394562816
O  O28  1  0.09146000  0.56786000  0.95726000  1.0 -0.5394562816
O  O29  1  0.06786000  0.59146000  0.54274000  1.0 -0.5394562816
O  O30  1  0.93214000  0.40854000  0.54274000  1.0 -0.5394562816
O  O31  1  0.09146000  0.43214000  0.04274000  1.0 -0.5394562816
O  O32  1  0.90854000  0.56786000  0.04274000  1.0 -0.5394562816
O  O33  1  0.31116000  0.80486000  0.18827000  1.0 -0.5394562816
O  O34  1  0.68884000  0.19514000  0.18827000  1.0 -0.5394562816
O  O35  1  0.69514000  0.81116000  0.68827000  1.0 -0.5394562816
O  O36  1  0.30486000  0.18884000  0.68827000  1.0 -0.5394562816
O  O37  1  0.68884000  0.80486000  0.81173000  1.0 -0.5394562816
O  O38  1  0.31116000  0.19514000  0.81173000  1.0 -0.5394562816
O  O39  1  0.30486000  0.81116000  0.31173000  1.0 -0.5394562816
O  O40  1  0.69514000  0.18884000  0.31173000  1.0 -0.5394562816
O  O41  1  0.18884000  0.69514000  0.31173000  1.0 -0.5394562816
O  O42  1  0.81116000  0.30486000  0.31173000  1.0 -0.5394562816
O  O43  1  0.80486000  0.68884000  0.81173000  1.0 -0.5394562816
O  O44  1  0.19514000  0.31116000  0.81173000  1.0 -0.5394562816
O  O45  1  0.81116000  0.69514000  0.68827000  1.0 -0.5394562816
O  O46  1  0.18884000  0.30486000  0.68827000  1.0 -0.5394562816
O  O47  1  0.19514000  0.68884000  0.18827000  1.0 -0.5394562816
O  O48  1  0.80486000  0.31116000  0.18827000  1.0 -0.5394562816
O  O49  1  0.38232000  0.73377000  0.23835000  1.0 -0.5394562816
O  O50  1  0.61768000  0.26623000  0.23835000  1.0 -0.5394562816
O  O51  1  0.76623000  0.88232000  0.73835000  1.0 -0.5394562816
O  O52  1  0.23377000  0.11768000  0.73835000  1.0 -0.5394562816
O  O53  1  0.61768000  0.73377000  0.76165000  1.0 -0.5394562816
O  O54  1  0.38232000  0.26623000  0.76165000  1.0 -0.5394562816
O  O55  1  0.23377000  0.88232000  0.26165000  1.0 -0.5394562816
O  O56  1  0.76623000  0.11768000  0.26165000  1.0 -0.5394562816
O  O57  1  0.11768000  0.76623000  0.26165000  1.0 -0.5394562816
O  O58  1  0.88232000  0.23377000  0.26165000  1.0 -0.5394562816
O  O59  1  0.73377000  0.61768000  0.76165000  1.0 -0.5394562816
O  O60  1  0.26623000  0.38232000  0.76165000  1.0 -0.5394562816
O  O61  1  0.88232000  0.76623000  0.73835000  1.0 -0.5394562816
O  O62  1  0.11768000  0.23377000  0.73835000  1.0 -0.5394562816
O  O63  1  0.26623000  0.61768000  0.23835000  1.0 -0.5394562816
O  O64  1  0.73377000  0.38232000  0.23835000  1.0 -0.5394562816
