# DDEC6 charges by PACMAN v1.1 (https://github.com/mtap-research/PACMAN-charge/)
data_KEHGAH_ion_pacman
_symmetry_space_group_name_H-M   'P 1'
_cell_length_a   18.56330000
_cell_length_b   18.56330000
_cell_length_c   14.39670000
_cell_angle_alpha   90.00000000
_cell_angle_beta   90.00000000
_cell_angle_gamma   120.00000000
_symmetry_Int_Tables_number   1
_chemical_formula_structural   Cd2H54C45N30Cl
_chemical_formula_sum   'Cd4 H108 C90 N60 Cl2'
_cell_volume   4296.39253397
_cell_formula_units_Z   2
loop_
 _symmetry_equiv_pos_site_id
 _symmetry_equiv_pos_as_xyz
  1  'x, y, z'
loop_
 _atom_site_type_symbol
 _atom_site_label
 _atom_site_symmetry_multiplicity
 _atom_site_fract_x
 _atom_site_fract_y
 _atom_site_fract_z
 _atom_site_occupancy
 _atom_site_charge
Cd  Cd1  1  0.66666667  0.33333333  0.60354000  1.0 0.6815225488
Cd  Cd2  1  0.33333333  0.66666667  0.10354000  1.0 0.6815225488
Cd  Cd3  1  0.33333333  0.66666667  0.39646000  1.0 0.6815225488
Cd  Cd4  1  0.66666667  0.33333333  0.89646000  1.0 0.6815225488
H  H1  1  0.57100000  0.24990000  0.38130000  1.0 0.1095747593
H  H2  1  0.42900000  0.75010000  0.88130000  1.0 0.1095747593
H  H3  1  0.75010000  0.32110000  0.38130000  1.0 0.1095747593
H  H4  1  0.67890000  0.42900000  0.38130000  1.0 0.1095747593
H  H5  1  0.32110000  0.57100000  0.88130000  1.0 0.1095747593
H  H6  1  0.24990000  0.67890000  0.88130000  1.0 0.1095747593
H  H7  1  0.42900000  0.75010000  0.61870000  1.0 0.1095747593
H  H8  1  0.57100000  0.24990000  0.11870000  1.0 0.1095747593
H  H9  1  0.24990000  0.67890000  0.61870000  1.0 0.1095747593
H  H10  1  0.32110000  0.57100000  0.61870000  1.0 0.1095747593
H  H11  1  0.67890000  0.42900000  0.11870000  1.0 0.1095747593
H  H12  1  0.75010000  0.32110000  0.11870000  1.0 0.1095747593
H  H13  1  0.38020000  0.08040000  0.52620000  1.0 0.1095747593
H  H14  1  0.61980000  0.91960000  0.02620000  1.0 0.1095747593
H  H15  1  0.91960000  0.29980000  0.52620000  1.0 0.1095747593
H  H16  1  0.70020000  0.61980000  0.52620000  1.0 0.1095747593
H  H17  1  0.29980000  0.38020000  0.02620000  1.0 0.1095747593
H  H18  1  0.08040000  0.70020000  0.02620000  1.0 0.1095747593
H  H19  1  0.61980000  0.91960000  0.47380000  1.0 0.1095747593
H  H20  1  0.38020000  0.08040000  0.97380000  1.0 0.1095747593
H  H21  1  0.08040000  0.70020000  0.47380000  1.0 0.1095747593
H  H22  1  0.29980000  0.38020000  0.47380000  1.0 0.1095747593
H  H23  1  0.70020000  0.61980000  0.97380000  1.0 0.1095747593
H  H24  1  0.91960000  0.29980000  0.97380000  1.0 0.1095747593
H  H25  1  0.35250000  0.85900000  0.38490000  1.0 0.1226712379
H  H26  1  0.64750000  0.14100000  0.88490000  1.0 0.1226712379
H  H27  1  0.14100000  0.49350000  0.38490000  1.0 0.1226712379
H  H28  1  0.50650000  0.64750000  0.38490000  1.0 0.1226712379
H  H29  1  0.49350000  0.35250000  0.88490000  1.0 0.1226712379
H  H30  1  0.85900000  0.50650000  0.88490000  1.0 0.1226712379
H  H31  1  0.64750000  0.14100000  0.61510000  1.0 0.1226712379
H  H32  1  0.35250000  0.85900000  0.11510000  1.0 0.1226712379
H  H33  1  0.85900000  0.50650000  0.61510000  1.0 0.1226712379
H  H34  1  0.49350000  0.35250000  0.61510000  1.0 0.1226712379
H  H35  1  0.50650000  0.64750000  0.11510000  1.0 0.1226712379
H  H36  1  0.14100000  0.49350000  0.11510000  1.0 0.1226712379
H  H37  1  0.38300000  0.98890000  0.39260000  1.0 0.1007890951
H  H38  1  0.61700000  0.01110000  0.89260000  1.0 0.1007890951
H  H39  1  0.01110000  0.39410000  0.39260000  1.0 0.1007890951
H  H40  1  0.60590000  0.61700000  0.39260000  1.0 0.1007890951
H  H41  1  0.39410000  0.38300000  0.89260000  1.0 0.1007890951
H  H42  1  0.98890000  0.60590000  0.89260000  1.0 0.1007890951
H  H43  1  0.61700000  0.01110000  0.60740000  1.0 0.1007890951
H  H44  1  0.38300000  0.98890000  0.10740000  1.0 0.1007890951
H  H45  1  0.98890000  0.60590000  0.60740000  1.0 0.1007890951
H  H46  1  0.39410000  0.38300000  0.60740000  1.0 0.1007890951
H  H47  1  0.60590000  0.61700000  0.10740000  1.0 0.1007890951
H  H48  1  0.01110000  0.39410000  0.10740000  1.0 0.1007890951
H  H49  1  0.46900000  0.02820000  0.33620000  1.0 0.1267586446
H  H50  1  0.53100000  0.97180000  0.83620000  1.0 0.1267586446
H  H51  1  0.97180000  0.44080000  0.33620000  1.0 0.1267586446
H  H52  1  0.55920000  0.53100000  0.33620000  1.0 0.1267586446
H  H53  1  0.44080000  0.46900000  0.83620000  1.0 0.1267586446
H  H54  1  0.02820000  0.55920000  0.83620000  1.0 0.1267586446
H  H55  1  0.53100000  0.97180000  0.66380000  1.0 0.1267586446
H  H56  1  0.46900000  0.02820000  0.16380000  1.0 0.1267586446
H  H57  1  0.02820000  0.55920000  0.66380000  1.0 0.1267586446
H  H58  1  0.44080000  0.46900000  0.66380000  1.0 0.1267586446
H  H59  1  0.55920000  0.53100000  0.16380000  1.0 0.1267586446
H  H60  1  0.97180000  0.44080000  0.16380000  1.0 0.1267586446
H  H61  1  0.29830000  0.06280000  0.38980000  1.0 0.1007890951
H  H62  1  0.70170000  0.93720000  0.88980000  1.0 0.1007890951
H  H63  1  0.93720000  0.23550000  0.38980000  1.0 0.1007890951
H  H64  1  0.76450000  0.70170000  0.38980000  1.0 0.1007890951
H  H65  1  0.23550000  0.29830000  0.88980000  1.0 0.1007890951
H  H66  1  0.06280000  0.76450000  0.88980000  1.0 0.1007890951
H  H67  1  0.70170000  0.93720000  0.61020000  1.0 0.1007890951
H  H68  1  0.29830000  0.06280000  0.11020000  1.0 0.1007890951
H  H69  1  0.06280000  0.76450000  0.61020000  1.0 0.1007890951
H  H70  1  0.23550000  0.29830000  0.61020000  1.0 0.1007890951
H  H71  1  0.76450000  0.70170000  0.11020000  1.0 0.1007890951
H  H72  1  0.93720000  0.23550000  0.11020000  1.0 0.1007890951
H  H73  1  0.33400000  0.14850000  0.33320000  1.0 0.1095747593
H  H74  1  0.66600000  0.85150000  0.83320000  1.0 0.1095747593
H  H75  1  0.85150000  0.18550000  0.33320000  1.0 0.1095747593
H  H76  1  0.81450000  0.66600000  0.33320000  1.0 0.1095747593
H  H77  1  0.18550000  0.33400000  0.83320000  1.0 0.1095747593
H  H78  1  0.14850000  0.81450000  0.83320000  1.0 0.1095747593
H  H79  1  0.66600000  0.85150000  0.66680000  1.0 0.1095747593
H  H80  1  0.33400000  0.14850000  0.16680000  1.0 0.1095747593
H  H81  1  0.14850000  0.81450000  0.66680000  1.0 0.1095747593
H  H82  1  0.18550000  0.33400000  0.66680000  1.0 0.1095747593
H  H83  1  0.81450000  0.66600000  0.16680000  1.0 0.1095747593
H  H84  1  0.85150000  0.18550000  0.16680000  1.0 0.1095747593
H  H85  1  0.47050000  0.21250000  0.25000000  1.0 0.1226712379
H  H86  1  0.52950000  0.78750000  0.75000000  1.0 0.1226712379
H  H87  1  0.78750000  0.25800000  0.25000000  1.0 0.1226712379
H  H88  1  0.74200000  0.52950000  0.25000000  1.0 0.1226712379
H  H89  1  0.25800000  0.47050000  0.75000000  1.0 0.1226712379
H  H90  1  0.21250000  0.74200000  0.75000000  1.0 0.1226712379
H  H91  1  0.52540000  0.16720000  0.25000000  1.0 0.1267586446
H  H92  1  0.47460000  0.83280000  0.75000000  1.0 0.1267586446
H  H93  1  0.83280000  0.35820000  0.25000000  1.0 0.1267586446
H  H94  1  0.64180000  0.47460000  0.25000000  1.0 0.1267586446
H  H95  1  0.35820000  0.52540000  0.75000000  1.0 0.1267586446
H  H96  1  0.16720000  0.64180000  0.75000000  1.0 0.1267586446
H  H97  1  0.24800000  0.93180000  0.19420000  1.0 0.1095747593
H  H98  1  0.75200000  0.06820000  0.69420000  1.0 0.1095747593
H  H99  1  0.06820000  0.31620000  0.19420000  1.0 0.1095747593
H  H100  1  0.68380000  0.75200000  0.19420000  1.0 0.1095747593
H  H101  1  0.31620000  0.24800000  0.69420000  1.0 0.1095747593
H  H102  1  0.93180000  0.68380000  0.69420000  1.0 0.1095747593
H  H103  1  0.75200000  0.06820000  0.80580000  1.0 0.1095747593
H  H104  1  0.24800000  0.93180000  0.30580000  1.0 0.1095747593
H  H105  1  0.93180000  0.68380000  0.80580000  1.0 0.1095747593
H  H106  1  0.31620000  0.24800000  0.80580000  1.0 0.1095747593
H  H107  1  0.68380000  0.75200000  0.30580000  1.0 0.1095747593
H  H108  1  0.06820000  0.31620000  0.30580000  1.0 0.1095747593
C  C1  1  0.53600000  0.21820000  0.43120000  1.0 0.0532496735
C  C2  1  0.46400000  0.78180000  0.93120000  1.0 0.0532496735
C  C3  1  0.78180000  0.31780000  0.43120000  1.0 0.0532496735
C  C4  1  0.68220000  0.46400000  0.43120000  1.0 0.0532496735
C  C5  1  0.31780000  0.53600000  0.93120000  1.0 0.0532496735
C  C6  1  0.21820000  0.68220000  0.93120000  1.0 0.0532496735
C  C7  1  0.46400000  0.78180000  0.56880000  1.0 0.0532496735
C  C8  1  0.53600000  0.21820000  0.06880000  1.0 0.0532496735
C  C9  1  0.21820000  0.68220000  0.56880000  1.0 0.0532496735
C  C10  1  0.31780000  0.53600000  0.56880000  1.0 0.0532496735
C  C11  1  0.68220000  0.46400000  0.06880000  1.0 0.0532496735
C  C12  1  0.78180000  0.31780000  0.06880000  1.0 0.0532496735
C  C13  1  0.43260000  0.12660000  0.50980000  1.0 0.0680653514
C  C14  1  0.56740000  0.87340000  0.00980000  1.0 0.0680653514
C  C15  1  0.87340000  0.30600000  0.50980000  1.0 0.0680653514
C  C16  1  0.69400000  0.56740000  0.50980000  1.0 0.0680653514
C  C17  1  0.30600000  0.43260000  0.00980000  1.0 0.0680653514
C  C18  1  0.12660000  0.69400000  0.00980000  1.0 0.0680653514
C  C19  1  0.56740000  0.87340000  0.49020000  1.0 0.0680653514
C  C20  1  0.43260000  0.12660000  0.99020000  1.0 0.0680653514
C  C21  1  0.12660000  0.69400000  0.49020000  1.0 0.0680653514
C  C22  1  0.30600000  0.43260000  0.49020000  1.0 0.0680653514
C  C23  1  0.69400000  0.56740000  0.99020000  1.0 0.0680653514
C  C24  1  0.87340000  0.30600000  0.99020000  1.0 0.0680653514
C  C25  1  0.35190000  0.84290000  0.32210000  1.0 0.1007890951
C  C26  1  0.64810000  0.15710000  0.82210000  1.0 0.1007890951
C  C27  1  0.15710000  0.50900000  0.32210000  1.0 0.1007890951
C  C28  1  0.49100000  0.64810000  0.32210000  1.0 0.1007890951
C  C29  1  0.50900000  0.35190000  0.82210000  1.0 0.1007890951
C  C30  1  0.84290000  0.49100000  0.82210000  1.0 0.1007890951
C  C31  1  0.64810000  0.15710000  0.67790000  1.0 0.1007890951
C  C32  1  0.35190000  0.84290000  0.17790000  1.0 0.1007890951
C  C33  1  0.84290000  0.49100000  0.67790000  1.0 0.1007890951
C  C34  1  0.50900000  0.35190000  0.67790000  1.0 0.1007890951
C  C35  1  0.49100000  0.64810000  0.17790000  1.0 0.1007890951
C  C36  1  0.15710000  0.50900000  0.17790000  1.0 0.1007890951
C  C37  1  0.41690000  0.10350000  0.33620000  1.0 0.231188335
C  C38  1  0.58310000  0.89650000  0.83620000  1.0 0.231188335
C  C39  1  0.89650000  0.31340000  0.33620000  1.0 0.231188335
C  C40  1  0.68660000  0.58310000  0.33620000  1.0 0.231188335
C  C41  1  0.31340000  0.41690000  0.83620000  1.0 0.231188335
C  C42  1  0.10350000  0.68660000  0.83620000  1.0 0.231188335
C  C43  1  0.58310000  0.89650000  0.66380000  1.0 0.231188335
C  C44  1  0.41690000  0.10350000  0.16380000  1.0 0.231188335
C  C45  1  0.10350000  0.68660000  0.66380000  1.0 0.231188335
C  C46  1  0.31340000  0.41690000  0.66380000  1.0 0.231188335
C  C47  1  0.68660000  0.58310000  0.16380000  1.0 0.231188335
C  C48  1  0.89650000  0.31340000  0.16380000  1.0 0.231188335
C  C49  1  0.41230000  0.02050000  0.33620000  1.0 -0.3825216189
C  C50  1  0.58770000  0.97950000  0.83620000  1.0 -0.3825216189
C  C51  1  0.97950000  0.39180000  0.33620000  1.0 -0.3825216189
C  C52  1  0.60820000  0.58770000  0.33620000  1.0 -0.3825216189
C  C53  1  0.39180000  0.41230000  0.83620000  1.0 -0.3825216189
C  C54  1  0.02050000  0.60820000  0.83620000  1.0 -0.3825216189
C  C55  1  0.58770000  0.97950000  0.66380000  1.0 -0.3825216189
C  C56  1  0.41230000  0.02050000  0.16380000  1.0 -0.3825216189
C  C57  1  0.02050000  0.60820000  0.66380000  1.0 -0.3825216189
C  C58  1  0.39180000  0.41230000  0.66380000  1.0 -0.3825216189
C  C59  1  0.60820000  0.58770000  0.16380000  1.0 -0.3825216189
C  C60  1  0.97950000  0.39180000  0.16380000  1.0 -0.3825216189
C  C61  1  0.36560000  0.97320000  0.25000000  1.0 0.2014175907
C  C62  1  0.63440000  0.02680000  0.75000000  1.0 0.2014175907
C  C63  1  0.02680000  0.39240000  0.25000000  1.0 0.2014175907
C  C64  1  0.60760000  0.63440000  0.25000000  1.0 0.2014175907
C  C65  1  0.39240000  0.36560000  0.75000000  1.0 0.2014175907
C  C66  1  0.97320000  0.60760000  0.75000000  1.0 0.2014175907
C  C67  1  0.32990000  0.09320000  0.33380000  1.0 -0.21748427
C  C68  1  0.67010000  0.90680000  0.83380000  1.0 -0.21748427
C  C69  1  0.90680000  0.23670000  0.33380000  1.0 -0.21748427
C  C70  1  0.76330000  0.67010000  0.33380000  1.0 -0.21748427
C  C71  1  0.23670000  0.32990000  0.83380000  1.0 -0.21748427
C  C72  1  0.09320000  0.76330000  0.83380000  1.0 -0.21748427
C  C73  1  0.67010000  0.90680000  0.66620000  1.0 -0.21748427
C  C74  1  0.32990000  0.09320000  0.16620000  1.0 -0.21748427
C  C75  1  0.09320000  0.76330000  0.66620000  1.0 -0.21748427
C  C76  1  0.23670000  0.32990000  0.66620000  1.0 -0.21748427
C  C77  1  0.76330000  0.67010000  0.16620000  1.0 -0.21748427
C  C78  1  0.90680000  0.23670000  0.16620000  1.0 -0.21748427
C  C79  1  0.46800000  0.15790000  0.25000000  1.0 -0.3629106278
C  C80  1  0.53200000  0.84210000  0.75000000  1.0 -0.3629106278
C  C81  1  0.84210000  0.31010000  0.25000000  1.0 -0.3629106278
C  C82  1  0.68990000  0.53200000  0.25000000  1.0 -0.3629106278
C  C83  1  0.31010000  0.46800000  0.75000000  1.0 -0.3629106278
C  C84  1  0.15790000  0.68990000  0.75000000  1.0 -0.3629106278
C  C85  1  0.27900000  0.96320000  0.25000000  1.0 -0.2260624016
C  C86  1  0.72100000  0.03680000  0.75000000  1.0 -0.2260624016
C  C87  1  0.03680000  0.31580000  0.25000000  1.0 -0.2260624016
C  C88  1  0.68420000  0.72100000  0.25000000  1.0 -0.21748427
C  C89  1  0.31580000  0.27900000  0.75000000  1.0 -0.21748427
C  C90  1  0.96320000  0.68420000  0.75000000  1.0 -0.2260624016
N  N1  1  0.55460000  0.23530000  0.51880000  1.0 -0.21748427
N  N2  1  0.44540000  0.76470000  0.01880000  1.0 -0.2146483655
N  N3  1  0.76470000  0.31930000  0.51880000  1.0 -0.2146483655
N  N4  1  0.68070000  0.44540000  0.51880000  1.0 -0.2146483655
N  N5  1  0.31930000  0.55460000  0.01880000  1.0 -0.21748427
N  N6  1  0.23530000  0.68070000  0.01880000  1.0 -0.2146483655
N  N7  1  0.44540000  0.76470000  0.48120000  1.0 -0.2146483655
N  N8  1  0.55460000  0.23530000  0.98120000  1.0 -0.21748427
N  N9  1  0.23530000  0.68070000  0.48120000  1.0 -0.2146483655
N  N10  1  0.31930000  0.55460000  0.48120000  1.0 -0.21748427
N  N11  1  0.68070000  0.44540000  0.98120000  1.0 -0.2146483655
N  N12  1  0.76470000  0.31930000  0.98120000  1.0 -0.2146483655
N  N13  1  0.48620000  0.17560000  0.57050000  1.0 -0.255314059
N  N14  1  0.51380000  0.82440000  0.07050000  1.0 -0.255314059
N  N15  1  0.82440000  0.31060000  0.57050000  1.0 -0.255314059
N  N16  1  0.68940000  0.51380000  0.57050000  1.0 -0.255314059
N  N17  1  0.31060000  0.48620000  0.07050000  1.0 -0.255314059
N  N18  1  0.17560000  0.68940000  0.07050000  1.0 -0.255314059
N  N19  1  0.51380000  0.82440000  0.42950000  1.0 -0.255314059
N  N20  1  0.48620000  0.17560000  0.92950000  1.0 -0.255314059
N  N21  1  0.17560000  0.68940000  0.42950000  1.0 -0.255314059
N  N22  1  0.31060000  0.48620000  0.42950000  1.0 -0.255314059
N  N23  1  0.68940000  0.51380000  0.92950000  1.0 -0.255314059
N  N24  1  0.82440000  0.31060000  0.92950000  1.0 -0.255314059
N  N25  1  0.45810000  0.14730000  0.42040000  1.0 -0.0987345335
N  N26  1  0.54190000  0.85270000  0.92040000  1.0 -0.0987345335
N  N27  1  0.85270000  0.31080000  0.42040000  1.0 -0.0987345335
N  N28  1  0.68920000  0.54190000  0.42040000  1.0 -0.0987345335
N  N29  1  0.31080000  0.45810000  0.92040000  1.0 -0.0987345335
N  N30  1  0.14730000  0.68920000  0.92040000  1.0 -0.0987345335
N  N31  1  0.54190000  0.85270000  0.57960000  1.0 -0.0987345335
N  N32  1  0.45810000  0.14730000  0.07960000  1.0 -0.0987345335
N  N33  1  0.14730000  0.68920000  0.57960000  1.0 -0.0987345335
N  N34  1  0.31080000  0.45810000  0.57960000  1.0 -0.0987345335
N  N35  1  0.68920000  0.54190000  0.07960000  1.0 -0.0987345335
N  N36  1  0.85270000  0.31080000  0.07960000  1.0 -0.0987345335
N  N37  1  0.34400000  0.77250000  0.29740000  1.0 -0.1682851011
N  N38  1  0.65600000  0.22750000  0.79740000  1.0 -0.1682851011
N  N39  1  0.22750000  0.57150000  0.29740000  1.0 -0.1682851011
N  N40  1  0.42850000  0.65600000  0.29740000  1.0 -0.1682851011
N  N41  1  0.57150000  0.34400000  0.79740000  1.0 -0.1682851011
N  N42  1  0.77250000  0.42850000  0.79740000  1.0 -0.1682851011
N  N43  1  0.65600000  0.22750000  0.70260000  1.0 -0.1682851011
N  N44  1  0.34400000  0.77250000  0.20260000  1.0 -0.1682851011
N  N45  1  0.77250000  0.42850000  0.70260000  1.0 -0.1682851011
N  N46  1  0.57150000  0.34400000  0.70260000  1.0 -0.1682851011
N  N47  1  0.42850000  0.65600000  0.20260000  1.0 -0.1682851011
N  N48  1  0.22750000  0.57150000  0.20260000  1.0 -0.1682851011
N  N49  1  0.35900000  0.88980000  0.25000000  1.0 -0.0613043048
N  N50  1  0.64100000  0.11020000  0.75000000  1.0 -0.0613043048
N  N51  1  0.11020000  0.46920000  0.25000000  1.0 -0.0613043048
N  N52  1  0.53080000  0.64100000  0.25000000  1.0 -0.0613043048
N  N53  1  0.46920000  0.35900000  0.75000000  1.0 -0.0613043048
N  N54  1  0.88980000  0.53080000  0.75000000  1.0 -0.0613043048
N  N55  1  0.28690000  0.04660000  0.25000000  1.0 -0.0337592977
N  N56  1  0.71310000  0.95340000  0.75000000  1.0 -0.0337592977
N  N57  1  0.95340000  0.24030000  0.25000000  1.0 -0.0337592977
N  N58  1  0.75970000  0.71310000  0.25000000  1.0 -0.0372109073
N  N59  1  0.24030000  0.28690000  0.75000000  1.0 -0.0337592977
N  N60  1  0.04660000  0.75970000  0.75000000  1.0 -0.0337592977
Cl  Cl1  1  0.33333333  0.66666667  0.75000000  1.0 -0.6983278389
Cl  Cl2  1  0.66666667  0.33333333  0.25000000  1.0 -0.6983278389
