# DDEC6 charges by PACMAN v1.1 (https://github.com/mtap-research/PACMAN-charge/)
data_KEHGOV_ASR_pacman
_symmetry_space_group_name_H-M   'P 1'
_cell_length_a   8.78090000
_cell_length_b   11.38330000
_cell_length_c   28.23330000
_cell_angle_alpha   90.00000000
_cell_angle_beta   90.00000000
_cell_angle_gamma   90.00000000
_symmetry_Int_Tables_number   1
_chemical_formula_structural   Cd3H40C36(N2Cl)12
_chemical_formula_sum   'Cd6 H80 C72 N48 Cl24'
_cell_volume   2822.07697707
_cell_formula_units_Z   2
loop_
 _symmetry_equiv_pos_site_id
 _symmetry_equiv_pos_as_xyz
  1  'x, y, z'
loop_
 _atom_site_type_symbol
 _atom_site_label
 _atom_site_symmetry_multiplicity
 _atom_site_fract_x
 _atom_site_fract_y
 _atom_site_fract_z
 _atom_site_occupancy
 _atom_site_charge
Cd  Cd1  1  0.27270000  0.50000000  0.61742000  1.0 0.5054437755
Cd  Cd2  1  0.72730000  0.50000000  0.38258000  1.0 0.5054437755
Cd  Cd3  1  0.77270000  0.00000000  0.88258000  1.0 0.5054437755
Cd  Cd4  1  0.22730000  0.00000000  0.11742000  1.0 0.5054437755
Cd  Cd5  1  0.50000000  0.50000000  0.50000000  1.0 0.5798322497
Cd  Cd6  1  0.00000000  0.00000000  0.00000000  1.0 0.5798322497
H  H1  1  0.68120000  0.00000000  0.76170000  1.0 0.0904082415
H  H2  1  0.31880000  0.00000000  0.23830000  1.0 0.0904082415
H  H3  1  0.18120000  0.50000000  0.73830000  1.0 0.0904082415
H  H4  1  0.81880000  0.50000000  0.26170000  1.0 0.0904082415
H  H5  1  0.11710000  0.00000000  0.73310000  1.0 0.0990869225
H  H6  1  0.88290000  0.00000000  0.26690000  1.0 0.0990869225
H  H7  1  0.61710000  0.50000000  0.76690000  1.0 0.0990869225
H  H8  1  0.38290000  0.50000000  0.23310000  1.0 0.0990869225
H  H9  1  0.49180000  0.24760000  0.65490000  1.0 0.0990869225
H  H10  1  0.50820000  0.24760000  0.34510000  1.0 0.0990869225
H  H11  1  0.99180000  0.25240000  0.84510000  1.0 0.0990869225
H  H12  1  0.00820000  0.25240000  0.15490000  1.0 0.0990869225
H  H13  1  0.50820000  0.75240000  0.34510000  1.0 0.0990869225
H  H14  1  0.49180000  0.75240000  0.65490000  1.0 0.0990869225
H  H15  1  0.00820000  0.74760000  0.15490000  1.0 0.0990869225
H  H16  1  0.99180000  0.74760000  0.84510000  1.0 0.0990869225
H  H17  1  0.70110000  0.25530000  0.53220000  1.0 0.0904082415
H  H18  1  0.29890000  0.25530000  0.46780000  1.0 0.0904082415
H  H19  1  0.20110000  0.24470000  0.96780000  1.0 0.0904082415
H  H20  1  0.79890000  0.24470000  0.03220000  1.0 0.0904082415
H  H21  1  0.29890000  0.74470000  0.46780000  1.0 0.0904082415
H  H22  1  0.70110000  0.74470000  0.53220000  1.0 0.0904082415
H  H23  1  0.79890000  0.75530000  0.03220000  1.0 0.0904082415
H  H24  1  0.20110000  0.75530000  0.96780000  1.0 0.0904082415
H  H25  1  0.16030000  0.17250000  0.56120000  1.0 0.0753268496
H  H26  1  0.83970000  0.17250000  0.43880000  1.0 0.0753268496
H  H27  1  0.66030000  0.32750000  0.93880000  1.0 0.0753268496
H  H28  1  0.33970000  0.32750000  0.06120000  1.0 0.0753268496
H  H29  1  0.83970000  0.82750000  0.43880000  1.0 0.0753268496
H  H30  1  0.16030000  0.82750000  0.56120000  1.0 0.0753268496
H  H31  1  0.33970000  0.67250000  0.06120000  1.0 0.0753268496
H  H32  1  0.66030000  0.67250000  0.93880000  1.0 0.0753268496
H  H33  1  0.81700000  0.18210000  0.67310000  1.0 0.0990869225
H  H34  1  0.18300000  0.18210000  0.32690000  1.0 0.0990869225
H  H35  1  0.31700000  0.31790000  0.82690000  1.0 0.0990869225
H  H36  1  0.68300000  0.31790000  0.17310000  1.0 0.0990869225
H  H37  1  0.18300000  0.81790000  0.32690000  1.0 0.0990869225
H  H38  1  0.81700000  0.81790000  0.67310000  1.0 0.0990869225
H  H39  1  0.68300000  0.68210000  0.17310000  1.0 0.0990869225
H  H40  1  0.31700000  0.68210000  0.82690000  1.0 0.0990869225
H  H41  1  0.66150000  0.11300000  0.68410000  1.0 0.0990869225
H  H42  1  0.33850000  0.11300000  0.31590000  1.0 0.0990869225
H  H43  1  0.16150000  0.38700000  0.81590000  1.0 0.0990869225
H  H44  1  0.83850000  0.38700000  0.18410000  1.0 0.0990869225
H  H45  1  0.33850000  0.88700000  0.31590000  1.0 0.0990869225
H  H46  1  0.66150000  0.88700000  0.68410000  1.0 0.0990869225
H  H47  1  0.83850000  0.61300000  0.18410000  1.0 0.0990869225
H  H48  1  0.16150000  0.61300000  0.81590000  1.0 0.0990869225
H  H49  1  0.84620000  0.10970000  0.54970000  1.0 0.1053983209
H  H50  1  0.15380000  0.10970000  0.45030000  1.0 0.1053983209
H  H51  1  0.34620000  0.39030000  0.95030000  1.0 0.1053983209
H  H52  1  0.65380000  0.39030000  0.04970000  1.0 0.1053983209
H  H53  1  0.15380000  0.89030000  0.45030000  1.0 0.1053983209
H  H54  1  0.84620000  0.89030000  0.54970000  1.0 0.1053983209
H  H55  1  0.65380000  0.60970000  0.04970000  1.0 0.1053983209
H  H56  1  0.34620000  0.60970000  0.95030000  1.0 0.1053983209
H  H57  1  0.92750000  0.18060000  0.59180000  1.0 0.0710175017
H  H58  1  0.07250000  0.18060000  0.40820000  1.0 0.0710175017
H  H59  1  0.42750000  0.31940000  0.90820000  1.0 0.0710175017
H  H60  1  0.57250000  0.31940000  0.09180000  1.0 0.0710175017
H  H61  1  0.07250000  0.81940000  0.40820000  1.0 0.0710175017
H  H62  1  0.92750000  0.81940000  0.59180000  1.0 0.0710175017
H  H63  1  0.57250000  0.68060000  0.09180000  1.0 0.0710175017
H  H64  1  0.42750000  0.68060000  0.90820000  1.0 0.0710175017
H  H65  1  0.06040000  0.07050000  0.65770000  1.0 0.0904082415
H  H66  1  0.93960000  0.07050000  0.34230000  1.0 0.0904082415
H  H67  1  0.56040000  0.42950000  0.84230000  1.0 0.0904082415
H  H68  1  0.43960000  0.42950000  0.15770000  1.0 0.0904082415
H  H69  1  0.93960000  0.92950000  0.34230000  1.0 0.0904082415
H  H70  1  0.06040000  0.92950000  0.65770000  1.0 0.0904082415
H  H71  1  0.43960000  0.57050000  0.15770000  1.0 0.0904082415
H  H72  1  0.56040000  0.57050000  0.84230000  1.0 0.0904082415
H  H73  1  0.52820000  0.00000000  0.61840000  1.0 0.0990869225
H  H74  1  0.47180000  0.00000000  0.38160000  1.0 0.0990869225
H  H75  1  0.02820000  0.50000000  0.88160000  1.0 0.0990869225
H  H76  1  0.97180000  0.50000000  0.11840000  1.0 0.0990869225
H  H77  1  0.59750000  0.00000000  0.56570000  1.0 0.1303100524
H  H78  1  0.40250000  0.00000000  0.43430000  1.0 0.1303100524
H  H79  1  0.09750000  0.50000000  0.93430000  1.0 0.1303100524
H  H80  1  0.90250000  0.50000000  0.06570000  1.0 0.1303100524
C  C1  1  0.78890000  0.00000000  0.76500000  1.0 0.0075428126
C  C2  1  0.21110000  0.00000000  0.23500000  1.0 0.0075428126
C  C3  1  0.28890000  0.50000000  0.73500000  1.0 0.0075428126
C  C4  1  0.71110000  0.50000000  0.26500000  1.0 0.0075428126
C  C5  1  0.02290000  0.00000000  0.74970000  1.0 0.0531716335
C  C6  1  0.97710000  0.00000000  0.25030000  1.0 0.0531716335
C  C7  1  0.52290000  0.50000000  0.75030000  1.0 0.0531716335
C  C8  1  0.47710000  0.50000000  0.24970000  1.0 0.0531716335
C  C9  1  0.52240000  0.26930000  0.62380000  1.0 0.0753268496
C  C10  1  0.47760000  0.26930000  0.37620000  1.0 0.0753268496
C  C11  1  0.02240000  0.23070000  0.87620000  1.0 0.0753268496
C  C12  1  0.97760000  0.23070000  0.12380000  1.0 0.0753268496
C  C13  1  0.47760000  0.73070000  0.37620000  1.0 0.0753268496
C  C14  1  0.52240000  0.73070000  0.62380000  1.0 0.0753268496
C  C15  1  0.97760000  0.76930000  0.12380000  1.0 0.0753268496
C  C16  1  0.02240000  0.76930000  0.87620000  1.0 0.0753268496
C  C17  1  0.63480000  0.27350000  0.55780000  1.0 0.0581408044
C  C18  1  0.36520000  0.27350000  0.44220000  1.0 0.0581408044
C  C19  1  0.13480000  0.22650000  0.94220000  1.0 0.0581408044
C  C20  1  0.86520000  0.22650000  0.05780000  1.0 0.0581408044
C  C21  1  0.36520000  0.72650000  0.44220000  1.0 0.0581408044
C  C22  1  0.63480000  0.72650000  0.55780000  1.0 0.0581408044
C  C23  1  0.86520000  0.77350000  0.05780000  1.0 0.0581408044
C  C24  1  0.13480000  0.77350000  0.94220000  1.0 0.0581408044
C  C25  1  0.18720000  0.09300000  0.55530000  1.0 0.0531716335
C  C26  1  0.81280000  0.09300000  0.44470000  1.0 0.0531716335
C  C27  1  0.68720000  0.40700000  0.94470000  1.0 0.0531716335
C  C28  1  0.31280000  0.40700000  0.05530000  1.0 0.0531716335
C  C29  1  0.81280000  0.90700000  0.44470000  1.0 0.0531716335
C  C30  1  0.18720000  0.90700000  0.55530000  1.0 0.0531716335
C  C31  1  0.31280000  0.59300000  0.05530000  1.0 0.0531716335
C  C32  1  0.68720000  0.59300000  0.94470000  1.0 0.0531716335
C  C33  1  0.84860000  0.00000000  0.67730000  1.0 0.2541976658
C  C34  1  0.15140000  0.00000000  0.32270000  1.0 0.2541976658
C  C35  1  0.34860000  0.50000000  0.82270000  1.0 0.2541976658
C  C36  1  0.65140000  0.50000000  0.17730000  1.0 0.2541976658
C  C37  1  0.75670000  0.11110000  0.66536000  1.0 -0.3699371392
C  C38  1  0.24330000  0.11110000  0.33464000  1.0 -0.3699371392
C  C39  1  0.25670000  0.38890000  0.83464000  1.0 -0.3699371392
C  C40  1  0.74330000  0.38890000  0.16536000  1.0 -0.3699371392
C  C41  1  0.24330000  0.88890000  0.33464000  1.0 -0.3699371392
C  C42  1  0.75670000  0.88890000  0.66536000  1.0 -0.3699371392
C  C43  1  0.74330000  0.61110000  0.16536000  1.0 -0.3699371392
C  C44  1  0.25670000  0.61110000  0.83464000  1.0 -0.3699371392
C  C45  1  0.71920000  0.10890000  0.61196000  1.0 0.262072259
C  C46  1  0.28080000  0.10890000  0.38804000  1.0 0.262072259
C  C47  1  0.21920000  0.39110000  0.88804000  1.0 0.262072259
C  C48  1  0.78080000  0.39110000  0.11196000  1.0 0.262072259
C  C49  1  0.28080000  0.89110000  0.38804000  1.0 0.262072259
C  C50  1  0.71920000  0.89110000  0.61196000  1.0 0.262072259
C  C51  1  0.78080000  0.60890000  0.11196000  1.0 0.262072259
C  C52  1  0.21920000  0.60890000  0.88804000  1.0 0.262072259
C  C53  1  0.86810000  0.10920000  0.58408000  1.0 -0.4019311058
C  C54  1  0.13190000  0.10920000  0.41592000  1.0 -0.4019311058
C  C55  1  0.36810000  0.39080000  0.91592000  1.0 -0.4019311058
C  C56  1  0.63190000  0.39080000  0.08408000  1.0 -0.4019311058
C  C57  1  0.13190000  0.89080000  0.41592000  1.0 -0.4019311058
C  C58  1  0.86810000  0.89080000  0.58408000  1.0 -0.4019311058
C  C59  1  0.63190000  0.60920000  0.08408000  1.0 -0.4019311058
C  C60  1  0.36810000  0.60920000  0.91592000  1.0 -0.4019311058
C  C61  1  0.96000000  0.00000000  0.59680000  1.0 0.262072259
C  C62  1  0.04000000  0.00000000  0.40320000  1.0 0.262072259
C  C63  1  0.46000000  0.50000000  0.90320000  1.0 0.262072259
C  C64  1  0.54000000  0.50000000  0.09680000  1.0 0.262072259
C  C65  1  0.99970000  0.00000000  0.64970000  1.0 -0.3699371392
C  C66  1  0.00030000  0.00000000  0.35030000  1.0 -0.3699371392
C  C67  1  0.49970000  0.50000000  0.85030000  1.0 -0.3699371392
C  C68  1  0.50030000  0.50000000  0.14970000  1.0 -0.3699371392
C  C69  1  0.62380000  0.00000000  0.59980000  1.0 -0.3699371392
C  C70  1  0.37620000  0.00000000  0.40020000  1.0 -0.3699371392
C  C71  1  0.12380000  0.50000000  0.90020000  1.0 -0.3699371392
C  C72  1  0.87620000  0.50000000  0.09980000  1.0 -0.3699371392
N  N1  1  0.85840000  0.00000000  0.80500000  1.0 -0.2176592188
N  N2  1  0.14160000  0.00000000  0.19500000  1.0 -0.2176592188
N  N3  1  0.35840000  0.50000000  0.69500000  1.0 -0.2176592188
N  N4  1  0.64160000  0.50000000  0.30500000  1.0 -0.2176592188
N  N5  1  0.00930000  0.00000000  0.79620000  1.0 -0.2291738594
N  N6  1  0.99070000  0.00000000  0.20380000  1.0 -0.2291738594
N  N7  1  0.50930000  0.50000000  0.70380000  1.0 -0.2291738594
N  N8  1  0.49070000  0.50000000  0.29620000  1.0 -0.2291738594
N  N9  1  0.88560000  0.00000000  0.72880000  1.0 -0.0775593002
N  N10  1  0.11440000  0.00000000  0.27120000  1.0 -0.0743842298
N  N11  1  0.38560000  0.50000000  0.77120000  1.0 -0.0743842298
N  N12  1  0.61440000  0.50000000  0.22880000  1.0 -0.0743842298
N  N13  1  0.46310000  0.35710000  0.60004000  1.0 -0.2291738594
N  N14  1  0.53690000  0.35710000  0.39996000  1.0 -0.2291738594
N  N15  1  0.96310000  0.14290000  0.89996000  1.0 -0.2291738594
N  N16  1  0.03690000  0.14290000  0.10004000  1.0 -0.2291738594
N  N17  1  0.53690000  0.64290000  0.39996000  1.0 -0.2291738594
N  N18  1  0.46310000  0.64290000  0.60004000  1.0 -0.2291738594
N  N19  1  0.03690000  0.85710000  0.10004000  1.0 -0.2291738594
N  N20  1  0.96310000  0.85710000  0.89996000  1.0 -0.2291738594
N  N21  1  0.53640000  0.35800000  0.55761000  1.0 -0.2291738594
N  N22  1  0.46360000  0.35800000  0.44239000  1.0 -0.2291738594
N  N23  1  0.03640000  0.14200000  0.94239000  1.0 -0.2291738594
N  N24  1  0.96360000  0.14200000  0.05761000  1.0 -0.2291738594
N  N25  1  0.46360000  0.64200000  0.44239000  1.0 -0.2291738594
N  N26  1  0.53640000  0.64200000  0.55761000  1.0 -0.2291738594
N  N27  1  0.96360000  0.85800000  0.05761000  1.0 -0.2291738594
N  N28  1  0.03640000  0.85800000  0.94239000  1.0 -0.2291738594
N  N29  1  0.63030000  0.21450000  0.59934000  1.0 -0.0775593002
N  N30  1  0.36970000  0.21450000  0.40066000  1.0 -0.0775593002
N  N31  1  0.13030000  0.28550000  0.90066000  1.0 -0.0775593002
N  N32  1  0.86970000  0.28550000  0.09934000  1.0 -0.0775593002
N  N33  1  0.36970000  0.78550000  0.40066000  1.0 -0.0775593002
N  N34  1  0.63030000  0.78550000  0.59934000  1.0 -0.0775593002
N  N35  1  0.86970000  0.71450000  0.09934000  1.0 -0.0775593002
N  N36  1  0.13030000  0.71450000  0.90066000  1.0 -0.0775593002
N  N37  1  0.30790000  0.06120000  0.53260000  1.0 -0.2448921563
N  N38  1  0.69210000  0.06120000  0.46740000  1.0 -0.2448921563
N  N39  1  0.80790000  0.43880000  0.96740000  1.0 -0.2448921563
N  N40  1  0.19210000  0.43880000  0.03260000  1.0 -0.2448921563
N  N41  1  0.69210000  0.93880000  0.46740000  1.0 -0.2448921563
N  N42  1  0.30790000  0.93880000  0.53260000  1.0 -0.2448921563
N  N43  1  0.19210000  0.56120000  0.03260000  1.0 -0.2448921563
N  N44  1  0.80790000  0.56120000  0.96740000  1.0 -0.2448921563
N  N45  1  0.10380000  0.00000000  0.56970000  1.0 -0.0775593002
N  N46  1  0.89620000  0.00000000  0.43030000  1.0 -0.0775593002
N  N47  1  0.60380000  0.50000000  0.93030000  1.0 -0.0775593002
N  N48  1  0.39620000  0.50000000  0.06970000  1.0 -0.0775593002
Cl  Cl1  1  0.21700000  0.46860000  0.52695000  1.0 0.0386112857
Cl  Cl2  1  0.78300000  0.46860000  0.47305000  1.0 0.0386112857
Cl  Cl3  1  0.71700000  0.03140000  0.97305000  1.0 0.0386112857
Cl  Cl4  1  0.28300000  0.03140000  0.02695000  1.0 0.0386112857
Cl  Cl5  1  0.78300000  0.53140000  0.47305000  1.0 0.0386112857
Cl  Cl6  1  0.21700000  0.53140000  0.52695000  1.0 0.0386112857
Cl  Cl7  1  0.28300000  0.96860000  0.02695000  1.0 0.0386112857
Cl  Cl8  1  0.71700000  0.96860000  0.97305000  1.0 0.0386112857
Cl  Cl9  1  0.09700000  0.33040000  0.64860000  1.0 0.0710175017
Cl  Cl10  1  0.90300000  0.33040000  0.35140000  1.0 0.0710175017
Cl  Cl11  1  0.59700000  0.16960000  0.85140000  1.0 0.0710175017
Cl  Cl12  1  0.40300000  0.16960000  0.14860000  1.0 0.0710175017
Cl  Cl13  1  0.90300000  0.66960000  0.35140000  1.0 0.0710175017
Cl  Cl14  1  0.09700000  0.66960000  0.64860000  1.0 0.0710175017
Cl  Cl15  1  0.40300000  0.83040000  0.14860000  1.0 0.0710175017
Cl  Cl16  1  0.59700000  0.83040000  0.85140000  1.0 0.0710175017
Cl  Cl17  1  0.57480000  0.14440000  0.87330000  1.0 0.0386112857
Cl  Cl18  1  0.42520000  0.14440000  0.12670000  1.0 0.0386112857
Cl  Cl19  1  0.07480000  0.35560000  0.62670000  1.0 0.0386112857
Cl  Cl20  1  0.92520000  0.35560000  0.37330000  1.0 0.0386112857
Cl  Cl21  1  0.42520000  0.85560000  0.12670000  1.0 0.0386112857
Cl  Cl22  1  0.57480000  0.85560000  0.87330000  1.0 0.0386112857
Cl  Cl23  1  0.92520000  0.64440000  0.37330000  1.0 0.0386112857
Cl  Cl24  1  0.07480000  0.64440000  0.62670000  1.0 0.0386112857
