# DDEC6 charges by PACMAN v1.1 (https://github.com/mtap-research/PACMAN-charge/)
data_KEJQAR01_FSR_pacman
_symmetry_space_group_name_H-M   'P 1'
_cell_length_a   14.52370000
_cell_length_b   14.52370000
_cell_length_c   14.52370000
_cell_angle_alpha   109.47100000
_cell_angle_beta   109.47100000
_cell_angle_gamma   109.47100000
_symmetry_Int_Tables_number   1
_chemical_formula_structural   Al3(PO4)4
_chemical_formula_sum   'Al9 P12 O48'
_cell_volume   2358.37827546
_cell_formula_units_Z   3
loop_
 _symmetry_equiv_pos_site_id
 _symmetry_equiv_pos_as_xyz
  1  'x, y, z'
loop_
 _atom_site_type_symbol
 _atom_site_label
 _atom_site_symmetry_multiplicity
 _atom_site_fract_x
 _atom_site_fract_y
 _atom_site_fract_z
 _atom_site_occupancy
 _atom_site_charge
Al  Al1  1  0.00000000  0.50000000  0.50000000  1.0 1.6799177406
Al  Al2  1  0.50000000  0.00000000  0.50000000  1.0 1.6799177406
Al  Al3  1  0.50000000  0.50000000  0.00000000  1.0 1.6799177406
Al  Al4  1  0.25000000  0.75000000  0.50000000  1.0 1.7513830541
Al  Al5  1  0.75000000  0.25000000  0.50000000  1.0 1.7513830541
Al  Al6  1  0.50000000  0.25000000  0.75000000  1.0 1.7513830541
Al  Al7  1  0.50000000  0.75000000  0.25000000  1.0 1.7513830541
Al  Al8  1  0.75000000  0.50000000  0.25000000  1.0 1.7513830541
Al  Al9  1  0.25000000  0.50000000  0.75000000  1.0 1.7513830541
P  P1  1  0.00000000  0.55637000  0.31017000  1.0 1.3177165552
P  P2  1  0.24620000  0.68983000  0.68983000  1.0 1.3177165552
P  P3  1  0.75380000  0.44363000  0.44363000  1.0 1.313254841
P  P4  1  0.00000000  0.31017000  0.55637000  1.0 1.3177165552
P  P5  1  0.31017000  0.00000000  0.55637000  1.0 1.313254841
P  P6  1  0.68983000  0.24620000  0.68983000  1.0 1.3177165552
P  P7  1  0.44363000  0.75380000  0.44363000  1.0 1.3177165552
P  P8  1  0.55637000  0.00000000  0.31017000  1.0 1.313254841
P  P9  1  0.55637000  0.31017000  0.00000000  1.0 1.3177165552
P  P10  1  0.68983000  0.68983000  0.24620000  1.0 1.313254841
P  P11  1  0.44363000  0.44363000  0.75380000  1.0 1.313254841
P  P12  1  0.31017000  0.55637000  0.00000000  1.0 1.3177165552
O  O1  1  0.00000000  0.49132000  0.20500000  1.0 -0.452191057
O  O2  1  0.28632000  0.79500000  0.79500000  1.0 -0.452191057
O  O3  1  0.71368000  0.50868000  0.50868000  1.0 -0.452191057
O  O4  1  0.00000000  0.20500000  0.49132000  1.0 -0.452191057
O  O5  1  0.20500000  0.00000000  0.49132000  1.0 -0.452191057
O  O6  1  0.79500000  0.28632000  0.79500000  1.0 -0.452191057
O  O7  1  0.50868000  0.71368000  0.50868000  1.0 -0.452191057
O  O8  1  0.49132000  0.00000000  0.20500000  1.0 -0.452191057
O  O9  1  0.49132000  0.20500000  0.00000000  1.0 -0.452191057
O  O10  1  0.79500000  0.79500000  0.28632000  1.0 -0.452191057
O  O11  1  0.50868000  0.50868000  0.71368000  1.0 -0.452191057
O  O12  1  0.20500000  0.49132000  0.00000000  1.0 -0.452191057
O  O13  1  0.10292000  0.67636000  0.38660000  1.0 -0.7098133668
O  O14  1  0.28976000  0.71632000  0.61340000  1.0 -0.7098133668
O  O15  1  0.71024000  0.32364000  0.42656000  1.0 -0.7098133668
O  O16  1  0.89708000  0.28368000  0.57344000  1.0 -0.7098133668
O  O17  1  0.38660000  0.10292000  0.67636000  1.0 -0.7098133668
O  O18  1  0.61340000  0.28976000  0.71632000  1.0 -0.7098133668
O  O19  1  0.42656000  0.71024000  0.32364000  1.0 -0.7098133668
O  O20  1  0.57344000  0.89708000  0.28368000  1.0 -0.7098133668
O  O21  1  0.67636000  0.38660000  0.10292000  1.0 -0.7098133668
O  O22  1  0.71632000  0.61340000  0.28976000  1.0 -0.7098133668
O  O23  1  0.32364000  0.42656000  0.71024000  1.0 -0.7098133668
O  O24  1  0.28368000  0.57344000  0.89708000  1.0 -0.7098133668
O  O25  1  0.67636000  0.10292000  0.38660000  1.0 -0.7098133668
O  O26  1  0.71632000  0.28976000  0.61340000  1.0 -0.7098133668
O  O27  1  0.32364000  0.71024000  0.42656000  1.0 -0.7180350345
O  O28  1  0.28368000  0.89708000  0.57344000  1.0 -0.7098133668
O  O29  1  0.10292000  0.38660000  0.67636000  1.0 -0.7098133668
O  O30  1  0.28976000  0.61340000  0.71632000  1.0 -0.7098133668
O  O31  1  0.71024000  0.42656000  0.32364000  1.0 -0.7098133668
O  O32  1  0.89708000  0.57344000  0.28368000  1.0 -0.7098133668
O  O33  1  0.38660000  0.67636000  0.10292000  1.0 -0.7098133668
O  O34  1  0.61340000  0.71632000  0.28976000  1.0 -0.7098133668
O  O35  1  0.42656000  0.32364000  0.71024000  1.0 -0.7098133668
O  O36  1  0.57344000  0.28368000  0.89708000  1.0 -0.7098133668
O  O37  1  0.00000000  0.49429000  0.37813000  1.0 -0.7384507308
O  O38  1  0.11616000  0.62187000  0.62187000  1.0 -0.7384507308
O  O39  1  0.88384000  0.50571000  0.50571000  1.0 -0.7384507308
O  O40  1  0.00000000  0.37813000  0.49429000  1.0 -0.7384507308
O  O41  1  0.37813000  0.00000000  0.49429000  1.0 -0.7384507308
O  O42  1  0.62187000  0.11616000  0.62187000  1.0 -0.7384507308
O  O43  1  0.50571000  0.88384000  0.50571000  1.0 -0.7384507308
O  O44  1  0.49429000  0.00000000  0.37813000  1.0 -0.7384507308
O  O45  1  0.49429000  0.37813000  0.00000000  1.0 -0.7453484457
O  O46  1  0.62187000  0.62187000  0.11616000  1.0 -0.7384507308
O  O47  1  0.50571000  0.50571000  0.88384000  1.0 -0.7384507308
O  O48  1  0.37813000  0.49429000  0.00000000  1.0 -0.7384507308
