# DDEC6 charges by PACMAN v1.1 (https://github.com/mtap-research/PACMAN-charge/)
data_KEQYOU_ASR_pacman
_symmetry_space_group_name_H-M   'P 1'
_cell_length_a   13.09230000
_cell_length_b   14.27170000
_cell_length_c   19.27710000
_cell_angle_alpha   90.00000000
_cell_angle_beta   132.47000000
_cell_angle_gamma   90.00000000
_symmetry_Int_Tables_number   1
_chemical_formula_structural   Zn14P10C7N5O42
_chemical_formula_sum   'Zn28 P20 C14 N10 O84'
_cell_volume   2656.88343726
_cell_formula_units_Z   2
loop_
 _symmetry_equiv_pos_site_id
 _symmetry_equiv_pos_as_xyz
  1  'x, y, z'
loop_
 _atom_site_type_symbol
 _atom_site_label
 _atom_site_symmetry_multiplicity
 _atom_site_fract_x
 _atom_site_fract_y
 _atom_site_fract_z
 _atom_site_occupancy
 _atom_site_charge
Zn  Zn1  1  0.08729000  0.53094000  0.33006000  1.0 1.1617349833
Zn  Zn2  1  0.08729000  0.46906000  0.83006000  1.0 1.1617349833
Zn  Zn3  1  0.37429000  0.02430000  0.83199000  1.0 1.1280795485
Zn  Zn4  1  0.37429000  0.97570000  0.33199000  1.0 1.1280795485
Zn  Zn5  1  0.66354000  0.98582000  0.07963000  1.0 1.1385276765
Zn  Zn6  1  0.66354000  0.01418000  0.57963000  1.0 1.1455729455
Zn  Zn7  1  0.58870000  0.62427000  0.92077000  1.0 1.1385276765
Zn  Zn8  1  0.58870000  0.37573000  0.42077000  1.0 1.1280795485
Zn  Zn9  1  0.13730000  0.87753000  0.48926000  1.0 1.121936056
Zn  Zn10  1  0.13730000  0.12247000  0.98926000  1.0 1.1280795485
Zn  Zn11  1  0.95558000  0.48421000  0.47738000  1.0 1.1109468788
Zn  Zn12  1  0.95558000  0.51579000  0.97738000  1.0 1.1109468788
Zn  Zn13  1  0.12809000  0.13159000  0.46070000  1.0 1.1991134733
Zn  Zn14  1  0.12809000  0.86841000  0.96070000  1.0 1.1991134733
Zn  Zn15  1  0.38442000  0.49608000  0.57685000  1.0 1.121936056
Zn  Zn16  1  0.38442000  0.50392000  0.07685000  1.0 1.121936056
Zn  Zn17  1  0.79254000  0.98799000  0.92959000  1.0 1.121936056
Zn  Zn18  1  0.79254000  0.01201000  0.42959000  1.0 1.121936056
Zn  Zn19  1  0.64846000  0.37248000  0.95307000  1.0 1.1904951781
Zn  Zn20  1  0.64846000  0.62752000  0.45307000  1.0 1.1904951781
Zn  Zn21  1  0.56890000  0.95620000  0.69810000  1.0 0.8217556626
Zn  Zn22  1  0.56890000  0.04380000  0.19810000  1.0 0.8217556626
Zn  Zn23  1  0.33170000  0.57150000  0.70720000  1.0 0.7534893006
Zn  Zn24  1  0.33170000  0.42850000  0.20720000  1.0 0.7534893006
Zn  Zn25  1  0.41100000  0.91620000  0.70130000  1.0 0.7973989397
Zn  Zn26  1  0.41100000  0.08380000  0.20130000  1.0 0.7973989397
Zn  Zn27  1  0.19120000  0.50400000  0.70950000  1.0 0.7557698935
Zn  Zn28  1  0.19120000  0.49600000  0.20950000  1.0 0.7557698935
P  P1  1  0.34840000  0.99750000  0.48810000  1.0 1.5485758036
P  P2  1  0.34840000  0.00250000  0.98810000  1.0 1.5485758036
P  P3  1  0.64580000  0.14210000  0.95350000  1.0 1.5569401949
P  P4  1  0.64580000  0.85790000  0.45350000  1.0 1.5569401949
P  P5  1  0.40680000  0.52360000  0.42480000  1.0 1.5418317367
P  P6  1  0.40680000  0.47640000  0.92480000  1.0 1.5418317367
P  P7  1  0.12350000  0.36020000  0.45180000  1.0 1.5665002913
P  P8  1  0.12350000  0.63980000  0.95180000  1.0 1.5665002913
P  P9  1  0.14700000  0.64520000  0.49740000  1.0 1.5418317367
P  P10  1  0.14700000  0.35480000  0.99740000  1.0 1.5418317367
P  P11  1  0.58040000  0.85560000  0.91150000  1.0 1.5569401949
P  P12  1  0.58040000  0.14440000  0.41150000  1.0 1.5569401949
P  P13  1  0.63030000  0.49880000  0.80680000  1.0 1.5418317367
P  P14  1  0.63030000  0.50120000  0.30680000  1.0 1.5418317367
P  P15  1  0.86890000  0.53120000  0.09770000  1.0 1.5418317367
P  P16  1  0.86890000  0.46880000  0.59770000  1.0 1.5485758036
P  P17  1  0.12370000  0.02750000  0.60280000  1.0 1.5569401949
P  P18  1  0.12370000  0.97250000  0.10280000  1.0 1.5485758036
P  P19  1  0.88010000  0.98420000  0.31310000  1.0 1.5418317367
P  P20  1  0.88010000  0.01580000  0.81310000  1.0 1.5418317367
C  C1  1  0.04310000  0.76220000  0.67260000  1.0 -0.1891576052
C  C2  1  0.04310000  0.23780000  0.17260000  1.0 -0.1891576052
C  C3  1  0.13530000  0.68190000  0.71370000  1.0 0.308771655
C  C4  1  0.13530000  0.31810000  0.21370000  1.0 0.308771655
C  C5  1  0.77040000  0.69340000  0.69380000  1.0 0.3364136964
C  C6  1  0.77040000  0.30660000  0.19380000  1.0 0.3364136964
C  C7  1  0.55540000  0.75210000  0.66380000  1.0 0.2179984003
C  C8  1  0.55540000  0.24790000  0.16380000  1.0 0.2179984003
C  C9  1  0.64640000  0.74640000  0.65890000  1.0 -0.0397656858
C  C10  1  0.64640000  0.25360000  0.15890000  1.0 -0.0397656858
C  C11  1  0.08780000  0.82240000  0.73940000  1.0 0.2963681668
C  C12  1  0.08780000  0.17760000  0.23940000  1.0 0.2963681668
C  C13  1  0.67340000  0.74810000  0.73890000  1.0 0.0552009176
C  C14  1  0.67340000  0.25190000  0.23890000  1.0 0.0540986191
N  N1  1  0.74930000  0.59590000  0.69570000  1.0 0.0137994997
N  N2  1  0.74930000  0.40410000  0.19570000  1.0 0.0206033673
N  N3  1  0.01700000  0.92620000  0.71370000  1.0 0.2179984003
N  N4  1  0.01700000  0.07380000  0.21370000  1.0 0.2109980136
N  N5  1  0.51740000  0.81700000  0.70280000  1.0 -0.3950021416
N  N6  1  0.51740000  0.18300000  0.20280000  1.0 -0.3942678124
N  N7  1  0.26130000  0.69360000  0.71720000  1.0 0.1343316957
N  N8  1  0.26130000  0.30640000  0.21720000  1.0 0.1351259723
N  N9  1  0.20830000  0.65640000  0.70950000  1.0 0.0206033673
N  N10  1  0.20830000  0.34360000  0.20950000  1.0 0.0206033673
O  O1  1  0.25070000  0.53070000  0.34730000  1.0 -0.7609038562
O  O2  1  0.25070000  0.46930000  0.84730000  1.0 -0.7609038562
O  O3  1  0.04370000  0.42320000  0.36530000  1.0 -0.7895872146
O  O4  1  0.04370000  0.57680000  0.86530000  1.0 -0.7895872146
O  O5  1  0.93430000  0.55280000  0.19730000  1.0 -0.7183467374
O  O6  1  0.93430000  0.44720000  0.69730000  1.0 -0.7183467374
O  O7  1  0.12440000  0.63640000  0.40990000  1.0 -0.7691938927
O  O8  1  0.12440000  0.36360000  0.90990000  1.0 -0.7691938927
O  O9  1  0.46080000  0.91800000  0.83020000  1.0 -0.7512262374
O  O10  1  0.46080000  0.08200000  0.33020000  1.0 -0.7512262374
O  O11  1  0.48770000  0.13860000  0.88950000  1.0 -0.7609038562
O  O12  1  0.48770000  0.86140000  0.38950000  1.0 -0.7609038562
O  O13  1  0.19900000  0.04560000  0.70660000  1.0 -0.7022516578
O  O14  1  0.19900000  0.95440000  0.20660000  1.0 -0.7022516578
O  O15  1  0.31070000  0.00640000  0.39620000  1.0 -0.7295339938
O  O16  1  0.31070000  0.99360000  0.89620000  1.0 -0.7295339938
O  O17  1  0.61320000  0.87700000  0.00260000  1.0 -0.7793027227
O  O18  1  0.61320000  0.12300000  0.50260000  1.0 -0.7793027227
O  O19  1  0.72270000  0.08720000  0.04720000  1.0 -0.7895872146
O  O20  1  0.72270000  0.91280000  0.54720000  1.0 -0.7959406525
O  O21  1  0.50670000  0.98540000  0.56940000  1.0 -0.7295339938
O  O22  1  0.50670000  0.01460000  0.06940000  1.0 -0.7295339938
O  O23  1  0.80890000  0.95800000  0.21180000  1.0 -0.7183467374
O  O24  1  0.80890000  0.04200000  0.71180000  1.0 -0.7183467374
O  O25  1  0.77170000  0.61200000  0.03450000  1.0 -0.7609038562
O  O26  1  0.77170000  0.38800000  0.53450000  1.0 -0.7609038562
O  O27  1  0.52950000  0.75290000  0.88430000  1.0 -0.7407603963
O  O28  1  0.52950000  0.24710000  0.38430000  1.0 -0.7407603963
O  O29  1  0.45360000  0.42660000  0.42110000  1.0 -0.7895872146
O  O30  1  0.45360000  0.57340000  0.92110000  1.0 -0.7793027227
O  O31  1  0.54040000  0.56920000  0.80840000  1.0 -0.7609038562
O  O32  1  0.54040000  0.43080000  0.30840000  1.0 -0.7609038562
O  O33  1  0.19820000  0.94720000  0.59880000  1.0 -0.7609038562
O  O34  1  0.19820000  0.05280000  0.09880000  1.0 -0.7609038562
O  O35  1  0.28280000  0.91110000  0.49010000  1.0 -0.7407603963
O  O36  1  0.28280000  0.08890000  0.99010000  1.0 -0.7407603963
O  O37  1  0.94750000  0.89820000  0.37580000  1.0 -0.7691938927
O  O38  1  0.94750000  0.10180000  0.87580000  1.0 -0.7691938927
O  O39  1  0.17490000  0.74820000  0.52980000  1.0 -0.7407603963
O  O40  1  0.17490000  0.25180000  0.02980000  1.0 -0.7407603963
O  O41  1  0.07060000  0.37760000  0.50310000  1.0 -0.7407603963
O  O42  1  0.07060000  0.62240000  0.00310000  1.0 -0.7407603963
O  O43  1  0.77080000  0.54050000  0.85560000  1.0 -0.7295339938
O  O44  1  0.77080000  0.45950000  0.35560000  1.0 -0.7295339938
O  O45  1  0.02280000  0.60900000  0.48150000  1.0 -0.7691938927
O  O46  1  0.02280000  0.39100000  0.98150000  1.0 -0.7691938927
O  O47  1  0.98180000  0.52360000  0.09140000  1.0 -0.7407603963
O  O48  1  0.98180000  0.47640000  0.59140000  1.0 -0.7407603963
O  O49  1  0.10170000  0.25780000  0.42140000  1.0 -0.7295339938
O  O50  1  0.10170000  0.74220000  0.92140000  1.0 -0.7295339938
O  O51  1  0.30700000  0.08780000  0.50770000  1.0 -0.7089652568
O  O52  1  0.30700000  0.91220000  0.00770000  1.0 -0.7089652568
O  O53  1  0.98850000  0.05930000  0.34600000  1.0 -0.7793027227
O  O54  1  0.98850000  0.94070000  0.84600000  1.0 -0.7793027227
O  O55  1  0.12600000  0.11770000  0.55960000  1.0 -0.7407603963
O  O56  1  0.12600000  0.88230000  0.05960000  1.0 -0.7512262374
O  O57  1  0.45310000  0.54030000  0.52170000  1.0 -0.7295339938
O  O58  1  0.45310000  0.45970000  0.02170000  1.0 -0.7295339938
O  O59  1  0.28050000  0.37990000  0.51790000  1.0 -0.7691938927
O  O60  1  0.28050000  0.62010000  0.01790000  1.0 -0.7691938927
O  O61  1  0.27840000  0.58920000  0.58100000  1.0 -0.7691938927
O  O62  1  0.27840000  0.41080000  0.08100000  1.0 -0.7691938927
O  O63  1  0.55820000  0.47930000  0.70550000  1.0 -0.68992953
O  O64  1  0.55820000  0.52070000  0.20550000  1.0 -0.68992953
O  O65  1  0.68240000  0.10000000  0.89960000  1.0 -0.7183467374
O  O66  1  0.68240000  0.90000000  0.39960000  1.0 -0.7183467374
O  O67  1  0.97460000  0.99940000  0.54990000  1.0 -0.7512262374
O  O68  1  0.97460000  0.00060000  0.04990000  1.0 -0.7512262374
O  O69  1  0.70880000  0.86910000  0.92360000  1.0 -0.7407603963
O  O70  1  0.70880000  0.13090000  0.42360000  1.0 -0.7407603963
O  O71  1  0.77340000  0.01990000  0.31610000  1.0 -0.7295339938
O  O72  1  0.77340000  0.98010000  0.81610000  1.0 -0.7295339938
O  O73  1  0.79010000  0.43920000  0.06820000  1.0 -0.7793027227
O  O74  1  0.79010000  0.56080000  0.56820000  1.0 -0.7793027227
O  O75  1  0.46550000  0.60180000  0.40630000  1.0 -0.7295339938
O  O76  1  0.46550000  0.39820000  0.90630000  1.0 -0.7295339938
O  O77  1  0.64260000  0.40730000  0.85280000  1.0 -0.7691938927
O  O78  1  0.64260000  0.59270000  0.35280000  1.0 -0.7691938927
O  O79  1  0.69660000  0.24220000  0.97830000  1.0 -0.7183467374
O  O80  1  0.69660000  0.75780000  0.47830000  1.0 -0.7183467374
O  O81  1  0.47680000  0.04550000  0.71040000  1.0 -0.5681358576
O  O82  1  0.47680000  0.95450000  0.21040000  1.0 -0.5681358576
O  O83  1  0.28300000  0.43430000  0.70320000  1.0 -0.5681358576
O  O84  1  0.28300000  0.56570000  0.20320000  1.0 -0.5681358576
