# DDEC6 charges by PACMAN v1.1 (https://github.com/mtap-research/PACMAN-charge/)
data_KESYOZ_FSR_pacman
_symmetry_space_group_name_H-M   'P 1'
_cell_length_a   14.27100000
_cell_length_b   25.47600000
_cell_length_c   14.72400000
_cell_angle_alpha   90.00000000
_cell_angle_beta   100.16800000
_cell_angle_gamma   90.00000000
_symmetry_Int_Tables_number   1
_chemical_formula_structural   CoPH21W9C18(N3O11)3
_chemical_formula_sum   'Co4 P4 H84 W36 C72 N36 O132'
_cell_volume   5269.10011621
_cell_formula_units_Z   4
loop_
 _symmetry_equiv_pos_site_id
 _symmetry_equiv_pos_as_xyz
  1  'x, y, z'
loop_
 _atom_site_type_symbol
 _atom_site_label
 _atom_site_symmetry_multiplicity
 _atom_site_fract_x
 _atom_site_fract_y
 _atom_site_fract_z
 _atom_site_occupancy
 _atom_site_charge
Co  Co1  1  0.67881000  0.46921000  0.20773000  1.0 0.8973535314
Co  Co2  1  0.32119000  0.96921000  0.79227000  1.0 0.8973535314
Co  Co3  1  0.32119000  0.53079000  0.79227000  1.0 0.8973535314
Co  Co4  1  0.67881000  0.03079000  0.20773000  1.0 0.8973535314
P  P1  1  0.84500000  0.75000000  0.02520000  1.0 1.4199133728
P  P2  1  0.64450000  0.75000000  0.18080000  1.0 1.4061813369
P  P3  1  0.15500000  0.25000000  0.97480000  1.0 1.4199133728
P  P4  1  0.35550000  0.25000000  0.81920000  1.0 1.4199133728
H  H1  1  0.94860000  0.53950000  0.88390000  1.0 0.1301250658
H  H2  1  0.94070000  0.58360000  0.80880000  1.0 0.1411755109
H  H3  1  0.71920000  0.39320000  0.84480000  1.0 0.1486405831
H  H4  1  0.61790000  0.41060000  0.79420000  1.0 0.1411755109
H  H5  1  0.57990000  0.53110000  0.02200000  1.0 0.1218630127
H  H6  1  0.13290000  0.56540000  0.86180000  1.0 0.1411755109
H  H7  1  0.67430000  0.55660000  0.37550000  1.0 0.1411755109
H  H8  1  0.72590000  0.40300000  0.02160000  1.0 0.1486405831
H  H9  1  0.68620000  0.40740000  0.39660000  1.0 0.1301250658
H  H10  1  0.67680000  0.58160000  0.55160000  1.0 0.1411755109
H  H11  1  0.58740000  0.54810000  0.56360000  1.0 0.1411755109
H  H12  1  0.93730000  0.46540000  0.90090000  1.0 0.1411755109
H  H13  1  0.88240000  0.41350000  0.86840000  1.0 0.1486405831
H  H14  1  0.84620000  0.45000000  0.94060000  1.0 0.1301250658
H  H15  1  0.53880000  0.48980000  0.61110000  1.0 0.1218630127
H  H16  1  0.52700000  0.47390000  0.71130000  1.0 0.1486405831
H  H17  1  0.56420000  0.43280000  0.64690000  1.0 0.1486405831
H  H18  1  0.79530000  0.60080000  0.59090000  1.0 0.1486405831
H  H19  1  0.89700000  0.57680000  0.62230000  1.0 0.1486405831
H  H20  1  0.85730000  0.61810000  0.68480000  1.0 0.16169694
H  H21  1  0.14160000  0.45460000  0.68740000  1.0 0.1411755109
H  H22  1  0.05140000  0.03950000  0.11610000  1.0 0.1301250658
H  H23  1  0.05930000  0.08360000  0.19120000  1.0 0.1411755109
H  H24  1  0.28080000  0.89320000  0.15520000  1.0 0.1486405831
H  H25  1  0.38210000  0.91060000  0.20580000  1.0 0.1411755109
H  H26  1  0.42010000  0.03110000  0.97800000  1.0 0.1218630127
H  H27  1  0.86710000  0.06540000  0.13820000  1.0 0.1411755109
H  H28  1  0.32570000  0.05660000  0.62450000  1.0 0.1411755109
H  H29  1  0.27410000  0.90300000  0.97840000  1.0 0.1486405831
H  H30  1  0.31380000  0.90740000  0.60340000  1.0 0.1301250658
H  H31  1  0.32320000  0.08160000  0.44840000  1.0 0.1411755109
H  H32  1  0.41260000  0.04810000  0.43640000  1.0 0.1411755109
H  H33  1  0.06270000  0.96540000  0.09910000  1.0 0.1411755109
H  H34  1  0.11760000  0.91350000  0.13160000  1.0 0.1486405831
H  H35  1  0.15380000  0.95000000  0.05940000  1.0 0.1301250658
H  H36  1  0.46120000  0.98980000  0.38890000  1.0 0.1218630127
H  H37  1  0.47300000  0.97390000  0.28870000  1.0 0.1486405831
H  H38  1  0.43580000  0.93280000  0.35310000  1.0 0.1486405831
H  H39  1  0.20470000  0.10080000  0.40910000  1.0 0.1486405831
H  H40  1  0.10300000  0.07680000  0.37770000  1.0 0.1486405831
H  H41  1  0.14270000  0.11810000  0.31520000  1.0 0.16169694
H  H42  1  0.85840000  0.95460000  0.31260000  1.0 0.1411755109
H  H43  1  0.05140000  0.46050000  0.11610000  1.0 0.1301250658
H  H44  1  0.05930000  0.41640000  0.19120000  1.0 0.1411755109
H  H45  1  0.28080000  0.60680000  0.15520000  1.0 0.1486405831
H  H46  1  0.38210000  0.58940000  0.20580000  1.0 0.1411755109
H  H47  1  0.42010000  0.46890000  0.97800000  1.0 0.1218630127
H  H48  1  0.86710000  0.43460000  0.13820000  1.0 0.1411755109
H  H49  1  0.32570000  0.44340000  0.62450000  1.0 0.1411755109
H  H50  1  0.27410000  0.59700000  0.97840000  1.0 0.1486405831
H  H51  1  0.31380000  0.59260000  0.60340000  1.0 0.1301250658
H  H52  1  0.32320000  0.41840000  0.44840000  1.0 0.1411755109
H  H53  1  0.41260000  0.45190000  0.43640000  1.0 0.1411755109
H  H54  1  0.06270000  0.53460000  0.09910000  1.0 0.1411755109
H  H55  1  0.11760000  0.58650000  0.13160000  1.0 0.1486405831
H  H56  1  0.15380000  0.55000000  0.05940000  1.0 0.1301250658
H  H57  1  0.46120000  0.51020000  0.38890000  1.0 0.1218630127
H  H58  1  0.47300000  0.52610000  0.28870000  1.0 0.1486405831
H  H59  1  0.43580000  0.56720000  0.35310000  1.0 0.1486405831
H  H60  1  0.20470000  0.39920000  0.40910000  1.0 0.1486405831
H  H61  1  0.10300000  0.42320000  0.37770000  1.0 0.1486405831
H  H62  1  0.14270000  0.38190000  0.31520000  1.0 0.16169694
H  H63  1  0.85840000  0.54540000  0.31260000  1.0 0.1411755109
H  H64  1  0.94860000  0.96050000  0.88390000  1.0 0.1301250658
H  H65  1  0.94070000  0.91640000  0.80880000  1.0 0.1411755109
H  H66  1  0.71920000  0.10680000  0.84480000  1.0 0.1486405831
H  H67  1  0.61790000  0.08940000  0.79420000  1.0 0.1411755109
H  H68  1  0.57990000  0.96890000  0.02200000  1.0 0.1218630127
H  H69  1  0.13290000  0.93460000  0.86180000  1.0 0.1411755109
H  H70  1  0.67430000  0.94340000  0.37550000  1.0 0.1411755109
H  H71  1  0.72590000  0.09700000  0.02160000  1.0 0.1486405831
H  H72  1  0.68620000  0.09260000  0.39660000  1.0 0.1301250658
H  H73  1  0.67680000  0.91840000  0.55160000  1.0 0.1411755109
H  H74  1  0.58740000  0.95190000  0.56360000  1.0 0.1411755109
H  H75  1  0.93730000  0.03460000  0.90090000  1.0 0.1411755109
H  H76  1  0.88240000  0.08650000  0.86840000  1.0 0.1486405831
H  H77  1  0.84620000  0.05000000  0.94060000  1.0 0.1301250658
H  H78  1  0.53880000  0.01020000  0.61110000  1.0 0.1218630127
H  H79  1  0.52700000  0.02610000  0.71130000  1.0 0.1486405831
H  H80  1  0.56420000  0.06720000  0.64690000  1.0 0.1486405831
H  H81  1  0.79530000  0.89920000  0.59090000  1.0 0.1486405831
H  H82  1  0.89700000  0.92320000  0.62230000  1.0 0.1486405831
H  H83  1  0.85730000  0.88190000  0.68480000  1.0 0.16169694
H  H84  1  0.14160000  0.04540000  0.68740000  1.0 0.1411755109
W  W1  1  0.64416000  0.61391000  0.16927000  1.0 2.4120262279
W  W2  1  0.80489000  0.68428000  0.35177000  1.0 2.4475947633
W  W3  1  0.83496000  0.61213000  0.02387000  1.0 2.3961560741
W  W4  1  0.54446000  0.68377000  0.35038000  1.0 2.439619334
W  W5  1  0.99414000  0.68391000  0.20440000  1.0 2.4475947633
W  W6  1  0.68970000  0.67759000  0.85857000  1.0 2.439619334
W  W7  1  0.04209000  0.68389000  0.96591000  1.0 2.424081923
W  W8  1  0.49890000  0.67824000  0.00400000  1.0 2.424081923
W  W9  1  0.35584000  0.11391000  0.83073000  1.0 2.4120262279
W  W10  1  0.19511000  0.18428000  0.64823000  1.0 2.4475947633
W  W11  1  0.16504000  0.11213000  0.97613000  1.0 2.3961560741
W  W12  1  0.45554000  0.18377000  0.64962000  1.0 2.439619334
W  W13  1  0.00586000  0.18391000  0.79560000  1.0 2.4475947633
W  W14  1  0.31030000  0.17759000  0.14143000  1.0 2.439619334
W  W15  1  0.95791000  0.18389000  0.03409000  1.0 2.424081923
W  W16  1  0.50110000  0.17824000  0.99600000  1.0 2.430948696
W  W17  1  0.35584000  0.38609000  0.83073000  1.0 2.4120262279
W  W18  1  0.19511000  0.31572000  0.64823000  1.0 2.4475947633
W  W19  1  0.16504000  0.38787000  0.97613000  1.0 2.3961560741
W  W20  1  0.45554000  0.31623000  0.64962000  1.0 2.439619334
W  W21  1  0.00586000  0.31609000  0.79560000  1.0 2.4475947633
W  W22  1  0.31030000  0.32241000  0.14143000  1.0 2.439619334
W  W23  1  0.95791000  0.31611000  0.03409000  1.0 2.424081923
W  W24  1  0.50110000  0.32176000  0.99600000  1.0 2.424081923
W  W25  1  0.64416000  0.88609000  0.16927000  1.0 2.4120262279
W  W26  1  0.80489000  0.81572000  0.35177000  1.0 2.4475947633
W  W27  1  0.83496000  0.88787000  0.02387000  1.0 2.3961560741
W  W28  1  0.54446000  0.81623000  0.35038000  1.0 2.439619334
W  W29  1  0.99414000  0.81609000  0.20440000  1.0 2.4475947633
W  W30  1  0.68970000  0.82241000  0.85857000  1.0 2.439619334
W  W31  1  0.04209000  0.81611000  0.96591000  1.0 2.424081923
W  W32  1  0.49890000  0.82176000  0.00400000  1.0 2.424081923
W  W33  1  0.89476000  0.75000000  0.79876000  1.0 2.430948696
W  W34  1  0.39709000  0.75000000  0.18249000  1.0 2.424081923
W  W35  1  0.10524000  0.25000000  0.20124000  1.0 2.430948696
W  W36  1  0.60291000  0.25000000  0.81751000  1.0 2.424081923
C  C1  1  0.70780000  0.52580000  0.65270000  1.0 0.0009801045
C  C2  1  0.94290000  0.54590000  0.81830000  1.0 -0.1609833636
C  C3  1  0.67690000  0.42300000  0.83100000  1.0 -0.1493760234
C  C4  1  0.60980000  0.50190000  0.00190000  1.0 0.1486405831
C  C5  1  0.81480000  0.47880000  0.80970000  1.0 0.0978351352
C  C6  1  0.66680000  0.48640000  0.70020000  1.0 0.0978351352
C  C7  1  0.11570000  0.53960000  0.81750000  1.0 0.1095627859
C  C8  1  0.85110000  0.52230000  0.76930000  1.0 0.0070471667
C  C9  1  0.79910000  0.54600000  0.69100000  1.0 0.090839352
C  C10  1  0.67560000  0.52290000  0.39970000  1.0 0.1095627859
C  C11  1  0.68900000  0.43250000  0.00330000  1.0 0.1301250658
C  C12  1  0.72190000  0.46300000  0.77680000  1.0 -0.002353047
C  C13  1  0.68200000  0.44270000  0.41140000  1.0 0.1690065262
C  C14  1  0.65490000  0.54640000  0.56180000  1.0 -0.1493760234
C  C15  1  0.87570000  0.44920000  0.88690000  1.0 -0.4417250858
C  C16  1  0.56480000  0.46910000  0.66400000  1.0 -0.4417250858
C  C17  1  0.84090000  0.58930000  0.64300000  1.0 -0.4112555221
C  C18  1  0.11920000  0.47970000  0.72420000  1.0 0.1690065262
C  C19  1  0.29220000  0.02580000  0.34730000  1.0 0.0009801045
C  C20  1  0.05710000  0.04590000  0.18170000  1.0 -0.1609833636
C  C21  1  0.32310000  0.92300000  0.16900000  1.0 -0.1493760234
C  C22  1  0.39020000  0.00190000  0.99810000  1.0 0.1486405831
C  C23  1  0.18520000  0.97880000  0.19030000  1.0 0.0978351352
C  C24  1  0.33320000  0.98640000  0.29980000  1.0 0.0978351352
C  C25  1  0.88430000  0.03960000  0.18250000  1.0 0.1095627859
C  C26  1  0.14890000  0.02230000  0.23070000  1.0 0.0070471667
C  C27  1  0.20090000  0.04600000  0.30900000  1.0 0.090839352
C  C28  1  0.32440000  0.02290000  0.60030000  1.0 0.1095627859
C  C29  1  0.31100000  0.93250000  0.99670000  1.0 0.1301250658
C  C30  1  0.27810000  0.96300000  0.22320000  1.0 -0.002353047
C  C31  1  0.31800000  0.94270000  0.58860000  1.0 0.1690065262
C  C32  1  0.34510000  0.04640000  0.43820000  1.0 -0.1493760234
C  C33  1  0.12430000  0.94920000  0.11310000  1.0 -0.4417250858
C  C34  1  0.43520000  0.96910000  0.33600000  1.0 -0.4417250858
C  C35  1  0.15910000  0.08930000  0.35700000  1.0 -0.4112555221
C  C36  1  0.88080000  0.97970000  0.27580000  1.0 0.1690065262
C  C37  1  0.29220000  0.47420000  0.34730000  1.0 0.0009801045
C  C38  1  0.05710000  0.45410000  0.18170000  1.0 -0.1609833636
C  C39  1  0.32310000  0.57700000  0.16900000  1.0 -0.1493760234
C  C40  1  0.39020000  0.49810000  0.99810000  1.0 0.1486405831
C  C41  1  0.18520000  0.52120000  0.19030000  1.0 0.0978351352
C  C42  1  0.33320000  0.51360000  0.29980000  1.0 0.0978351352
C  C43  1  0.88430000  0.46040000  0.18250000  1.0 0.1095627859
C  C44  1  0.14890000  0.47770000  0.23070000  1.0 0.0070471667
C  C45  1  0.20090000  0.45400000  0.30900000  1.0 0.090839352
C  C46  1  0.32440000  0.47710000  0.60030000  1.0 0.1095627859
C  C47  1  0.31100000  0.56750000  0.99670000  1.0 0.1301250658
C  C48  1  0.27810000  0.53700000  0.22320000  1.0 -0.002353047
C  C49  1  0.31800000  0.55730000  0.58860000  1.0 0.1690065262
C  C50  1  0.34510000  0.45360000  0.43820000  1.0 -0.1493760234
C  C51  1  0.12430000  0.55080000  0.11310000  1.0 -0.4417250858
C  C52  1  0.43520000  0.53090000  0.33600000  1.0 -0.4417250858
C  C53  1  0.15910000  0.41070000  0.35700000  1.0 -0.4112555221
C  C54  1  0.88080000  0.52030000  0.27580000  1.0 0.1690065262
C  C55  1  0.70780000  0.97420000  0.65270000  1.0 0.0009801045
C  C56  1  0.94290000  0.95410000  0.81830000  1.0 -0.1609833636
C  C57  1  0.67690000  0.07700000  0.83100000  1.0 -0.1493760234
C  C58  1  0.60980000  0.99810000  0.00190000  1.0 0.1486405831
C  C59  1  0.81480000  0.02120000  0.80970000  1.0 0.0978351352
C  C60  1  0.66680000  0.01360000  0.70020000  1.0 0.0978351352
C  C61  1  0.11570000  0.96040000  0.81750000  1.0 0.1095627859
C  C62  1  0.85110000  0.97770000  0.76930000  1.0 0.0070471667
C  C63  1  0.79910000  0.95400000  0.69100000  1.0 0.090839352
C  C64  1  0.67560000  0.97710000  0.39970000  1.0 0.1095627859
C  C65  1  0.68900000  0.06750000  0.00330000  1.0 0.1301250658
C  C66  1  0.72190000  0.03700000  0.77680000  1.0 -0.002353047
C  C67  1  0.68200000  0.05730000  0.41140000  1.0 0.1690065262
C  C68  1  0.65490000  0.95360000  0.56180000  1.0 -0.1493760234
C  C69  1  0.87570000  0.05080000  0.88690000  1.0 -0.4417250858
C  C70  1  0.56480000  0.03090000  0.66400000  1.0 -0.4417250858
C  C71  1  0.84090000  0.91070000  0.64300000  1.0 -0.4112555221
C  C72  1  0.11920000  0.02030000  0.72420000  1.0 0.1690065262
N  N1  1  0.67040000  0.51250000  0.48650000  1.0 0.1486405831
N  N2  1  0.02830000  0.52460000  0.78640000  1.0 0.1838528677
N  N3  1  0.65760000  0.44580000  0.91720000  1.0 0.16169694
N  N4  1  0.60660000  0.49080000  0.91490000  1.0 -0.1493760234
N  N5  1  0.67300000  0.45890000  0.49500000  1.0 -0.2201385931
N  N6  1  0.68270000  0.48040000  0.35140000  1.0 -0.2871859059
N  N7  1  0.66100000  0.46680000  0.06050000  1.0 -0.3003734634
N  N8  1  0.03060000  0.48490000  0.72780000  1.0 -0.2110018753
N  N9  1  0.17640000  0.51280000  0.77690000  1.0 -0.3168326155
N  N10  1  0.32960000  0.01250000  0.51350000  1.0 0.1486405831
N  N11  1  0.97170000  0.02460000  0.21360000  1.0 0.1838528677
N  N12  1  0.34240000  0.94580000  0.08280000  1.0 0.16169694
N  N13  1  0.39340000  0.99080000  0.08510000  1.0 -0.1493760234
N  N14  1  0.32700000  0.95890000  0.50500000  1.0 -0.2201385931
N  N15  1  0.31730000  0.98040000  0.64860000  1.0 -0.2871859059
N  N16  1  0.33900000  0.96680000  0.93950000  1.0 -0.3003734634
N  N17  1  0.96940000  0.98490000  0.27220000  1.0 -0.2110018753
N  N18  1  0.82360000  0.01280000  0.22310000  1.0 -0.3168326155
N  N19  1  0.32960000  0.48750000  0.51350000  1.0 0.1486405831
N  N20  1  0.97170000  0.47540000  0.21360000  1.0 0.1838528677
N  N21  1  0.34240000  0.55420000  0.08280000  1.0 0.1690065262
N  N22  1  0.39340000  0.50920000  0.08510000  1.0 -0.1493760234
N  N23  1  0.32700000  0.54110000  0.50500000  1.0 -0.2201385931
N  N24  1  0.31730000  0.51960000  0.64860000  1.0 -0.2871859059
N  N25  1  0.33900000  0.53320000  0.93950000  1.0 -0.3003734634
N  N26  1  0.96940000  0.51510000  0.27220000  1.0 -0.2110018753
N  N27  1  0.82360000  0.48720000  0.22310000  1.0 -0.3168326155
N  N28  1  0.67040000  0.98750000  0.48650000  1.0 0.1486405831
N  N29  1  0.02830000  0.97540000  0.78640000  1.0 0.1838528677
N  N30  1  0.65760000  0.05420000  0.91720000  1.0 0.16169694
N  N31  1  0.60660000  0.00920000  0.91490000  1.0 -0.1493760234
N  N32  1  0.67300000  0.04110000  0.49500000  1.0 -0.2201385931
N  N33  1  0.68270000  0.01960000  0.35140000  1.0 -0.2871859059
N  N34  1  0.66100000  0.03320000  0.06050000  1.0 -0.3003734634
N  N35  1  0.03060000  0.01510000  0.72780000  1.0 -0.2110018753
N  N36  1  0.17640000  0.98720000  0.77690000  1.0 -0.3168326155
O  O1  1  0.90970000  0.69090000  0.29100000  1.0 -0.8795847096
O  O2  1  0.67900000  0.68830000  0.38280000  1.0 -0.9003139363
O  O3  1  0.75410000  0.61530000  0.90700000  1.0 -0.8215929256
O  O4  1  0.59800000  0.66730000  0.93550000  1.0 -0.859567302
O  O5  1  0.63020000  0.70040000  0.12150000  1.0 -0.8515569228
O  O6  1  0.42970000  0.69950000  0.09790000  1.0 -0.8894157992
O  O7  1  0.42050000  0.69850000  0.27920000  1.0 -0.859567302
O  O8  1  0.90540000  0.63730000  0.13700000  1.0 -0.859567302
O  O9  1  0.63910000  0.54830000  0.19600000  1.0 -0.7255253182
O  O10  1  0.78620000  0.70000000  0.00150000  1.0 -0.859567302
O  O11  1  0.86440000  0.54700000  0.02900000  1.0 -0.6591402278
O  O12  1  0.13180000  0.64240000  0.95280000  1.0 -0.6390943886
O  O13  1  0.56630000  0.63760000  0.25480000  1.0 -0.8795847096
O  O14  1  0.40480000  0.65690000  0.92520000  1.0 -0.5377993122
O  O15  1  0.72550000  0.60890000  0.08310000  1.0 -0.8515569228
O  O16  1  0.53620000  0.61590000  0.07290000  1.0 -0.840070887
O  O17  1  0.05030000  0.68800000  0.09520000  1.0 -0.8894157992
O  O18  1  0.93850000  0.63780000  0.96940000  1.0 -0.8795847096
O  O19  1  0.62730000  0.65420000  0.75760000  1.0 -0.5831385687
O  O20  1  0.80130000  0.80070000  0.81230000  1.0 -0.9003139363
O  O21  1  0.99150000  0.69810000  0.83880000  1.0 -0.8795847096
O  O22  1  0.51560000  0.64190000  0.43160000  1.0 -0.6390943886
O  O23  1  0.74820000  0.63740000  0.25660000  1.0 -0.8686527496
O  O24  1  0.85230000  0.64140000  0.43640000  1.0 -0.6287982747
O  O25  1  0.07460000  0.64290000  0.26600000  1.0 -0.5928464965
O  O26  1  0.71270000  0.38890000  0.22190000  1.0 -0.4337368295
O  O27  1  0.53240000  0.44450000  0.19480000  1.0 -0.2756411792
O  O28  1  0.09030000  0.19090000  0.70900000  1.0 -0.8795847096
O  O29  1  0.32100000  0.18830000  0.61720000  1.0 -0.9003139363
O  O30  1  0.24590000  0.11530000  0.09300000  1.0 -0.8215929256
O  O31  1  0.40200000  0.16730000  0.06450000  1.0 -0.8515569228
O  O32  1  0.36980000  0.20040000  0.87850000  1.0 -0.8515569228
O  O33  1  0.57030000  0.19950000  0.90210000  1.0 -0.8894157992
O  O34  1  0.57950000  0.19850000  0.72080000  1.0 -0.859567302
O  O35  1  0.09460000  0.13730000  0.86300000  1.0 -0.859567302
O  O36  1  0.36090000  0.04830000  0.80400000  1.0 -0.7241519079
O  O37  1  0.21380000  0.20000000  0.99850000  1.0 -0.859567302
O  O38  1  0.13560000  0.04700000  0.97100000  1.0 -0.6591402278
O  O39  1  0.86820000  0.14240000  0.04720000  1.0 -0.6390943886
O  O40  1  0.43370000  0.13760000  0.74520000  1.0 -0.8795847096
O  O41  1  0.59520000  0.15690000  0.07480000  1.0 -0.5377993122
O  O42  1  0.27450000  0.10890000  0.91690000  1.0 -0.8515569228
O  O43  1  0.46380000  0.11590000  0.92710000  1.0 -0.840070887
O  O44  1  0.94970000  0.18800000  0.90480000  1.0 -0.8894157992
O  O45  1  0.06150000  0.13780000  0.03060000  1.0 -0.8795847096
O  O46  1  0.37270000  0.15420000  0.24240000  1.0 -0.5831385687
O  O47  1  0.19870000  0.30070000  0.18770000  1.0 -0.9003139363
O  O48  1  0.00850000  0.19810000  0.16120000  1.0 -0.8795847096
O  O49  1  0.48440000  0.14190000  0.56840000  1.0 -0.6390943886
O  O50  1  0.25180000  0.13740000  0.74340000  1.0 -0.8686527496
O  O51  1  0.14770000  0.14140000  0.56360000  1.0 -0.6287982747
O  O52  1  0.92540000  0.14290000  0.73400000  1.0 -0.5928464965
O  O53  1  0.28730000  0.88890000  0.77810000  1.0 -0.4417250858
O  O54  1  0.46760000  0.94450000  0.80520000  1.0 -0.2756411792
O  O55  1  0.09030000  0.30910000  0.70900000  1.0 -0.8795847096
O  O56  1  0.32100000  0.31170000  0.61720000  1.0 -0.9003139363
O  O57  1  0.24590000  0.38470000  0.09300000  1.0 -0.8215929256
O  O58  1  0.40200000  0.33270000  0.06450000  1.0 -0.8515569228
O  O59  1  0.36980000  0.29960000  0.87850000  1.0 -0.8515569228
O  O60  1  0.57030000  0.30050000  0.90210000  1.0 -0.8894157992
O  O61  1  0.57950000  0.30150000  0.72080000  1.0 -0.859567302
O  O62  1  0.09460000  0.36270000  0.86300000  1.0 -0.859567302
O  O63  1  0.36090000  0.45170000  0.80400000  1.0 -0.7255253182
O  O64  1  0.21380000  0.30000000  0.99850000  1.0 -0.859567302
O  O65  1  0.13560000  0.45300000  0.97100000  1.0 -0.6591402278
O  O66  1  0.86820000  0.35760000  0.04720000  1.0 -0.6390943886
O  O67  1  0.43370000  0.36240000  0.74520000  1.0 -0.8795847096
O  O68  1  0.59520000  0.34310000  0.07480000  1.0 -0.5377993122
O  O69  1  0.27450000  0.39110000  0.91690000  1.0 -0.8515569228
O  O70  1  0.46380000  0.38410000  0.92710000  1.0 -0.840070887
O  O71  1  0.94970000  0.31200000  0.90480000  1.0 -0.8894157992
O  O72  1  0.06150000  0.36220000  0.03060000  1.0 -0.8795847096
O  O73  1  0.37270000  0.34580000  0.24240000  1.0 -0.5831385687
O  O74  1  0.19870000  0.19930000  0.18770000  1.0 -0.9003139363
O  O75  1  0.00850000  0.30190000  0.16120000  1.0 -0.8795847096
O  O76  1  0.48440000  0.35810000  0.56840000  1.0 -0.6390943886
O  O77  1  0.25180000  0.36260000  0.74340000  1.0 -0.8686527496
O  O78  1  0.14770000  0.35860000  0.56360000  1.0 -0.6287982747
O  O79  1  0.92540000  0.35710000  0.73400000  1.0 -0.5928464965
O  O80  1  0.28730000  0.61110000  0.77810000  1.0 -0.4417250858
O  O81  1  0.46760000  0.55550000  0.80520000  1.0 -0.2756411792
O  O82  1  0.90970000  0.80910000  0.29100000  1.0 -0.8795847096
O  O83  1  0.67900000  0.81170000  0.38280000  1.0 -0.9003139363
O  O84  1  0.75410000  0.88470000  0.90700000  1.0 -0.8215929256
O  O85  1  0.59800000  0.83270000  0.93550000  1.0 -0.8515569228
O  O86  1  0.63020000  0.79960000  0.12150000  1.0 -0.8515569228
O  O87  1  0.42970000  0.80050000  0.09790000  1.0 -0.8894157992
O  O88  1  0.42050000  0.80150000  0.27920000  1.0 -0.859567302
O  O89  1  0.90540000  0.86270000  0.13700000  1.0 -0.859567302
O  O90  1  0.63910000  0.95170000  0.19600000  1.0 -0.7255253182
O  O91  1  0.78620000  0.80000000  0.00150000  1.0 -0.859567302
O  O92  1  0.86440000  0.95300000  0.02900000  1.0 -0.6591402278
O  O93  1  0.13180000  0.85760000  0.95280000  1.0 -0.6390943886
O  O94  1  0.56630000  0.86240000  0.25480000  1.0 -0.8795847096
O  O95  1  0.40480000  0.84310000  0.92520000  1.0 -0.5377993122
O  O96  1  0.72550000  0.89110000  0.08310000  1.0 -0.8515569228
O  O97  1  0.53620000  0.88410000  0.07290000  1.0 -0.840070887
O  O98  1  0.05030000  0.81200000  0.09520000  1.0 -0.8894157992
O  O99  1  0.93850000  0.86220000  0.96940000  1.0 -0.8795847096
O  O100  1  0.62730000  0.84580000  0.75760000  1.0 -0.5831385687
O  O101  1  0.80130000  0.69930000  0.81230000  1.0 -0.9003139363
O  O102  1  0.99150000  0.80190000  0.83880000  1.0 -0.8795847096
O  O103  1  0.51560000  0.85810000  0.43160000  1.0 -0.6390943886
O  O104  1  0.74820000  0.86260000  0.25660000  1.0 -0.8686527496
O  O105  1  0.85230000  0.85860000  0.43640000  1.0 -0.6287982747
O  O106  1  0.07460000  0.85710000  0.26600000  1.0 -0.5928464965
O  O107  1  0.71270000  0.11110000  0.22190000  1.0 -0.4337368295
O  O108  1  0.53240000  0.05550000  0.19480000  1.0 -0.2756411792
O  O109  1  0.56510000  0.75000000  0.24250000  1.0 -0.9707270697
O  O110  1  0.50290000  0.75000000  0.97390000  1.0 -0.859567302
O  O111  1  0.53420000  0.75000000  0.41100000  1.0 -0.8894157992
O  O112  1  0.83100000  0.75000000  0.41270000  1.0 -0.840070887
O  O113  1  0.74130000  0.75000000  0.24570000  1.0 -0.859567302
O  O114  1  0.10730000  0.75000000  0.96750000  1.0 -0.840070887
O  O115  1  0.04960000  0.75000000  0.24560000  1.0 -0.8686527496
O  O116  1  0.27590000  0.75000000  0.15700000  1.0 -0.6180510506
O  O117  1  0.89330000  0.75000000  0.68270000  1.0 -0.607922642
O  O118  1  0.92450000  0.75000000  0.96360000  1.0 -0.9707270697
O  O119  1  0.65730000  0.75000000  0.85470000  1.0 -0.9003139363
O  O120  1  0.89530000  0.75000000  0.12520000  1.0 -0.859567302
O  O121  1  0.43490000  0.25000000  0.75750000  1.0 -0.9707270697
O  O122  1  0.49710000  0.25000000  0.02610000  1.0 -0.859567302
O  O123  1  0.46580000  0.25000000  0.58900000  1.0 -0.8894157992
O  O124  1  0.16900000  0.25000000  0.58730000  1.0 -0.840070887
O  O125  1  0.25870000  0.25000000  0.75430000  1.0 -0.859567302
O  O126  1  0.89270000  0.25000000  0.03250000  1.0 -0.840070887
O  O127  1  0.95040000  0.25000000  0.75440000  1.0 -0.8686527496
O  O128  1  0.72410000  0.25000000  0.84300000  1.0 -0.6180510506
O  O129  1  0.10670000  0.25000000  0.31730000  1.0 -0.607922642
O  O130  1  0.07550000  0.25000000  0.03640000  1.0 -0.9707270697
O  O131  1  0.34270000  0.25000000  0.14530000  1.0 -0.9003139363
O  O132  1  0.10470000  0.25000000  0.87480000  1.0 -0.859567302
