# DDEC6 charges by PACMAN v1.1 (https://github.com/mtap-research/PACMAN-charge/)
data_KEWJIG_ASR_pacman
_symmetry_space_group_name_H-M   'P 1'
_cell_length_a   15.91340000
_cell_length_b   15.91340000
_cell_length_c   15.91340000
_cell_angle_alpha   72.46660000
_cell_angle_beta   72.46660000
_cell_angle_gamma   72.46660000
_symmetry_Int_Tables_number   1
_chemical_formula_structural   Cu3P4H51(C9O2)6
_chemical_formula_sum   'Cu6 P8 H102 C108 O24'
_cell_volume   3564.55790499
_cell_formula_units_Z   2
loop_
 _symmetry_equiv_pos_site_id
 _symmetry_equiv_pos_as_xyz
  1  'x, y, z'
loop_
 _atom_site_type_symbol
 _atom_site_label
 _atom_site_symmetry_multiplicity
 _atom_site_fract_x
 _atom_site_fract_y
 _atom_site_fract_z
 _atom_site_occupancy
 _atom_site_charge
Cu  Cu1  1  0.43895000  0.43893000  0.22103000  1.0 1.1008740206
Cu  Cu2  1  0.43893000  0.22103000  0.43895000  1.0 1.1008740206
Cu  Cu3  1  0.22103000  0.43895000  0.43893000  1.0 1.1008740206
Cu  Cu4  1  0.56105000  0.56107000  0.77897000  1.0 1.1008740206
Cu  Cu5  1  0.56107000  0.77897000  0.56105000  1.0 1.1008740206
Cu  Cu6  1  0.77897000  0.56105000  0.56107000  1.0 1.1008740206
P  P1  1  0.23462000  0.56928000  0.23510000  1.0 1.2014039893
P  P2  1  0.56928000  0.23510000  0.23462000  1.0 1.2014039893
P  P3  1  0.23510000  0.23462000  0.56928000  1.0 1.2014039893
P  P4  1  0.30598000  0.30598000  0.30598000  1.0 1.1484602431
P  P5  1  0.76538000  0.43072000  0.76490000  1.0 1.2014039893
P  P6  1  0.43072000  0.76490000  0.76538000  1.0 1.2014039893
P  P7  1  0.76490000  0.76538000  0.43072000  1.0 1.2014039893
P  P8  1  0.69402000  0.69402000  0.69402000  1.0 1.1484602431
H  H1  1  0.09150000  0.87530000  0.28250000  1.0 0.1099786738
H  H2  1  0.87530000  0.28250000  0.09150000  1.0 0.1099786738
H  H3  1  0.28250000  0.09150000  0.87530000  1.0 0.1099786738
H  H4  1  0.13190000  0.71480000  0.32700000  1.0 0.1099786738
H  H5  1  0.71480000  0.32700000  0.13190000  1.0 0.1099786738
H  H6  1  0.32700000  0.13190000  0.71480000  1.0 0.1099786738
H  H7  1  0.22490000  0.69480000  0.06860000  1.0 0.0916519811
H  H8  1  0.69480000  0.06860000  0.22490000  1.0 0.0916519811
H  H9  1  0.06860000  0.22490000  0.69480000  1.0 0.0916519811
H  H10  1  0.21030000  0.85070000  0.02420000  1.0 0.0916519811
H  H11  1  0.85070000  0.02420000  0.21030000  1.0 0.0916519811
H  H12  1  0.02420000  0.21030000  0.85070000  1.0 0.0916519811
H  H13  1  0.29940000  0.12140000  0.11830000  1.0 0.1012290661
H  H14  1  0.12140000  0.11830000  0.29940000  1.0 0.1012290661
H  H15  1  0.11830000  0.29940000  0.12140000  1.0 0.1012290661
H  H16  1  0.36780000  0.18430000  0.18080000  1.0 0.1099786738
H  H17  1  0.18430000  0.18080000  0.36780000  1.0 0.1099786738
H  H18  1  0.18080000  0.36780000  0.18430000  1.0 0.1099786738
H  H19  1  0.21150000  0.99370000  0.99280000  1.0 0.1012290661
H  H20  1  0.99370000  0.99280000  0.21150000  1.0 0.1012290661
H  H21  1  0.99280000  0.21150000  0.99370000  1.0 0.1012290661
H  H22  1  0.11670000  0.98500000  0.98440000  1.0 0.1012290661
H  H23  1  0.98500000  0.98440000  0.11670000  1.0 0.1012290661
H  H24  1  0.98440000  0.11670000  0.98500000  1.0 0.1012290661
H  H25  1  0.14110000  0.01060000  0.22690000  1.0 0.0916519811
H  H26  1  0.01060000  0.22690000  0.14110000  1.0 0.0916519811
H  H27  1  0.22690000  0.14110000  0.01060000  1.0 0.0916519811
H  H28  1  0.22660000  0.01040000  0.14220000  1.0 0.0916519811
H  H29  1  0.01040000  0.14220000  0.22660000  1.0 0.1012290661
H  H30  1  0.14220000  0.22660000  0.01040000  1.0 0.0916519811
H  H31  1  0.13470000  0.53790000  0.20830000  1.0 0.3220735231
H  H32  1  0.53790000  0.20830000  0.13470000  1.0 0.3220735231
H  H33  1  0.20830000  0.13470000  0.53790000  1.0 0.3220735231
H  H34  1  0.02380000  0.85060000  0.20660000  1.0 0.0916519811
H  H35  1  0.85060000  0.20660000  0.02380000  1.0 0.0916519811
H  H36  1  0.20660000  0.02380000  0.85060000  1.0 0.0916519811
H  H37  1  0.06870000  0.69430000  0.23160000  1.0 0.0798645804
H  H38  1  0.69430000  0.23160000  0.06870000  1.0 0.0798645804
H  H39  1  0.23160000  0.06870000  0.69430000  1.0 0.0798645804
H  H40  1  0.32700000  0.71530000  0.13050000  1.0 0.1099786738
H  H41  1  0.71530000  0.13050000  0.32700000  1.0 0.1099786738
H  H42  1  0.13050000  0.32700000  0.71530000  1.0 0.1099786738
H  H43  1  0.28240000  0.87640000  0.08870000  1.0 0.1012290661
H  H44  1  0.87640000  0.08870000  0.28240000  1.0 0.1012290661
H  H45  1  0.08870000  0.28240000  0.87640000  1.0 0.1012290661
H  H46  1  0.12280000  0.31190000  0.31380000  1.0 0.1012290661
H  H47  1  0.31190000  0.31380000  0.12280000  1.0 0.1012290661
H  H48  1  0.31380000  0.12280000  0.31190000  1.0 0.1012290661
H  H49  1  0.05050000  0.24750000  0.24380000  1.0 0.0798645804
H  H50  1  0.24750000  0.24380000  0.05050000  1.0 0.0798645804
H  H51  1  0.24380000  0.05050000  0.24750000  1.0 0.0798645804
H  H52  1  0.90850000  0.12470000  0.71750000  1.0 0.1099786738
H  H53  1  0.12470000  0.71750000  0.90850000  1.0 0.1099786738
H  H54  1  0.71750000  0.90850000  0.12470000  1.0 0.1099786738
H  H55  1  0.86810000  0.28520000  0.67300000  1.0 0.1099786738
H  H56  1  0.28520000  0.67300000  0.86810000  1.0 0.1099786738
H  H57  1  0.67300000  0.86810000  0.28520000  1.0 0.1099786738
H  H58  1  0.77510000  0.30520000  0.93140000  1.0 0.0916519811
H  H59  1  0.30520000  0.93140000  0.77510000  1.0 0.0916519811
H  H60  1  0.93140000  0.77510000  0.30520000  1.0 0.0916519811
H  H61  1  0.78970000  0.14930000  0.97580000  1.0 0.0916519811
H  H62  1  0.14930000  0.97580000  0.78970000  1.0 0.0916519811
H  H63  1  0.97580000  0.78970000  0.14930000  1.0 0.0916519811
H  H64  1  0.70060000  0.87860000  0.88170000  1.0 0.1012290661
H  H65  1  0.87860000  0.88170000  0.70060000  1.0 0.1012290661
H  H66  1  0.88170000  0.70060000  0.87860000  1.0 0.1099786738
H  H67  1  0.63220000  0.81570000  0.81920000  1.0 0.1099786738
H  H68  1  0.81570000  0.81920000  0.63220000  1.0 0.1099786738
H  H69  1  0.81920000  0.63220000  0.81570000  1.0 0.1099786738
H  H70  1  0.78850000  0.00630000  0.00720000  1.0 0.1012290661
H  H71  1  0.00630000  0.00720000  0.78850000  1.0 0.1012290661
H  H72  1  0.00720000  0.78850000  0.00630000  1.0 0.1012290661
H  H73  1  0.88330000  0.01500000  0.01560000  1.0 0.1012290661
H  H74  1  0.01500000  0.01560000  0.88330000  1.0 0.1012290661
H  H75  1  0.01560000  0.88330000  0.01500000  1.0 0.1012290661
H  H76  1  0.85890000  0.98940000  0.77310000  1.0 0.0916519811
H  H77  1  0.98940000  0.77310000  0.85890000  1.0 0.0916519811
H  H78  1  0.77310000  0.85890000  0.98940000  1.0 0.0916519811
H  H79  1  0.77340000  0.98960000  0.85780000  1.0 0.1012290661
H  H80  1  0.98960000  0.85780000  0.77340000  1.0 0.0916519811
H  H81  1  0.85780000  0.77340000  0.98960000  1.0 0.0916519811
H  H82  1  0.86530000  0.46210000  0.79170000  1.0 0.3220735231
H  H83  1  0.46210000  0.79170000  0.86530000  1.0 0.3220735231
H  H84  1  0.79170000  0.86530000  0.46210000  1.0 0.3220735231
H  H85  1  0.97620000  0.14940000  0.79340000  1.0 0.0916519811
H  H86  1  0.14940000  0.79340000  0.97620000  1.0 0.0916519811
H  H87  1  0.79340000  0.97620000  0.14940000  1.0 0.0916519811
H  H88  1  0.93130000  0.30570000  0.76840000  1.0 0.0798645804
H  H89  1  0.30570000  0.76840000  0.93130000  1.0 0.0798645804
H  H90  1  0.76840000  0.93130000  0.30570000  1.0 0.0798645804
H  H91  1  0.67300000  0.28470000  0.86950000  1.0 0.1099786738
H  H92  1  0.28470000  0.86950000  0.67300000  1.0 0.1099786738
H  H93  1  0.86950000  0.67300000  0.28470000  1.0 0.1099786738
H  H94  1  0.71760000  0.12360000  0.91130000  1.0 0.1012290661
H  H95  1  0.12360000  0.91130000  0.71760000  1.0 0.1012290661
H  H96  1  0.91130000  0.71760000  0.12360000  1.0 0.1012290661
H  H97  1  0.87720000  0.68810000  0.68620000  1.0 0.1012290661
H  H98  1  0.68810000  0.68620000  0.87720000  1.0 0.1012290661
H  H99  1  0.68620000  0.87720000  0.68810000  1.0 0.1012290661
H  H100  1  0.94950000  0.75250000  0.75620000  1.0 0.0798645804
H  H101  1  0.75250000  0.75620000  0.94950000  1.0 0.0798645804
H  H102  1  0.75620000  0.94950000  0.75250000  1.0 0.0798645804
C  C1  1  0.12330000  0.83990000  0.23930000  1.0 -0.1111135083
C  C2  1  0.83990000  0.23930000  0.12330000  1.0 -0.1111135083
C  C3  1  0.23930000  0.12330000  0.83990000  1.0 -0.1111135083
C  C4  1  0.14960000  0.74450000  0.26520000  1.0 -0.0499591425
C  C5  1  0.74450000  0.26520000  0.14960000  1.0 -0.0499591425
C  C6  1  0.26520000  0.14960000  0.74450000  1.0 -0.0499591425
C  C7  1  0.20880000  0.73040000  0.11180000  1.0 -0.1029102905
C  C8  1  0.73040000  0.11180000  0.20880000  1.0 -0.1111135083
C  C9  1  0.11180000  0.20880000  0.73040000  1.0 -0.1029102905
C  C10  1  0.19100000  0.82310000  0.08640000  1.0 -0.0432964425
C  C11  1  0.82310000  0.08640000  0.19100000  1.0 -0.0432964425
C  C12  1  0.08640000  0.19100000  0.82310000  1.0 -0.0432964425
C  C13  1  0.26330000  0.15980000  0.15800000  1.0 -0.0686010534
C  C14  1  0.15980000  0.15800000  0.26330000  1.0 -0.0686010534
C  C15  1  0.15800000  0.26330000  0.15980000  1.0 -0.0686010534
C  C16  1  0.30350000  0.19680000  0.19480000  1.0 -0.0432964425
C  C17  1  0.19680000  0.19480000  0.30350000  1.0 -0.0432964425
C  C18  1  0.19480000  0.30350000  0.19680000  1.0 -0.0432964425
C  C19  1  0.14491000  0.01351000  0.01291000  1.0 -0.4324113985
C  C20  1  0.01351000  0.01291000  0.14491000  1.0 -0.4324113985
C  C21  1  0.01291000  0.14491000  0.01351000  1.0 -0.4324113985
C  C22  1  0.11680000  0.98150000  0.11620000  1.0 0.1664615015
C  C23  1  0.98150000  0.11620000  0.11680000  1.0 0.1664615015
C  C24  1  0.11620000  0.11680000  0.98150000  1.0 0.1664615015
C  C25  1  0.15983000  0.02943000  0.16003000  1.0 -0.3656712731
C  C26  1  0.02943000  0.16003000  0.15983000  1.0 -0.3656712731
C  C27  1  0.16003000  0.15983000  0.02943000  1.0 -0.3656712731
C  C28  1  0.13070000  0.13070000  0.13070000  1.0 0.1289937535
C  C29  1  0.14636000  0.87936000  0.14666000  1.0 0.0411737265
C  C30  1  0.87936000  0.14666000  0.14636000  1.0 0.0411737265
C  C31  1  0.14666000  0.14636000  0.87936000  1.0 0.0411737265
C  C32  1  0.20205000  0.69175000  0.20115000  1.0 -0.1393904647
C  C33  1  0.69175000  0.20115000  0.20205000  1.0 -0.1393904647
C  C34  1  0.20115000  0.20205000  0.69175000  1.0 -0.1393904647
C  C35  1  0.17480000  0.17480000  0.17480000  1.0 0.0147063399
C  C36  1  0.25410000  0.25410000  0.25410000  1.0 -0.0686010534
C  C37  1  0.08650000  0.82310000  0.19030000  1.0 -0.0499591425
C  C38  1  0.82310000  0.19030000  0.08650000  1.0 -0.0499591425
C  C39  1  0.19030000  0.08650000  0.82310000  1.0 -0.0499591425
C  C40  1  0.11220000  0.73020000  0.21100000  1.0 -0.1029102905
C  C41  1  0.73020000  0.21100000  0.11220000  1.0 -0.1029102905
C  C42  1  0.21100000  0.11220000  0.73020000  1.0 -0.1029102905
C  C43  1  0.26520000  0.74480000  0.14840000  1.0 -0.0432964425
C  C44  1  0.74480000  0.14840000  0.26520000  1.0 -0.0432964425
C  C45  1  0.14840000  0.26520000  0.74480000  1.0 -0.0432964425
C  C46  1  0.23950000  0.84060000  0.12150000  1.0 -0.1111135083
C  C47  1  0.84060000  0.12150000  0.23950000  1.0 -0.1111135083
C  C48  1  0.12150000  0.23950000  0.84060000  1.0 -0.1111135083
C  C49  1  0.15790000  0.27350000  0.27390000  1.0 -0.087628301
C  C50  1  0.27350000  0.27390000  0.15790000  1.0 -0.087628301
C  C51  1  0.27390000  0.15790000  0.27350000  1.0 -0.087628301
C  C52  1  0.11460000  0.23510000  0.23350000  1.0 -0.0640385186
C  C53  1  0.23510000  0.23350000  0.11460000  1.0 -0.0686010534
C  C54  1  0.23350000  0.11460000  0.23510000  1.0 -0.0686010534
C  C55  1  0.87670000  0.16010000  0.76070000  1.0 -0.1111135083
C  C56  1  0.16010000  0.76070000  0.87670000  1.0 -0.1111135083
C  C57  1  0.76070000  0.87670000  0.16010000  1.0 -0.1111135083
C  C58  1  0.85040000  0.25550000  0.73480000  1.0 -0.0499591425
C  C59  1  0.25550000  0.73480000  0.85040000  1.0 -0.0499591425
C  C60  1  0.73480000  0.85040000  0.25550000  1.0 -0.0499591425
C  C61  1  0.79120000  0.26960000  0.88820000  1.0 -0.1029102905
C  C62  1  0.26960000  0.88820000  0.79120000  1.0 -0.1029102905
C  C63  1  0.88820000  0.79120000  0.26960000  1.0 -0.1029102905
C  C64  1  0.80900000  0.17690000  0.91360000  1.0 -0.0432964425
C  C65  1  0.17690000  0.91360000  0.80900000  1.0 -0.0432964425
C  C66  1  0.91360000  0.80900000  0.17690000  1.0 -0.0432964425
C  C67  1  0.73670000  0.84020000  0.84200000  1.0 -0.0686010534
C  C68  1  0.84020000  0.84200000  0.73670000  1.0 -0.0686010534
C  C69  1  0.84200000  0.73670000  0.84020000  1.0 -0.0686010534
C  C70  1  0.69650000  0.80320000  0.80520000  1.0 -0.0432964425
C  C71  1  0.80320000  0.80520000  0.69650000  1.0 -0.0432964425
C  C72  1  0.80520000  0.69650000  0.80320000  1.0 -0.0432964425
C  C73  1  0.85509000  0.98649000  0.98709000  1.0 -0.4324113985
C  C74  1  0.98649000  0.98709000  0.85509000  1.0 -0.4324113985
C  C75  1  0.98709000  0.85509000  0.98649000  1.0 -0.4324113985
C  C76  1  0.88320000  0.01850000  0.88380000  1.0 0.1664615015
C  C77  1  0.01850000  0.88380000  0.88320000  1.0 0.1664615015
C  C78  1  0.88380000  0.88320000  0.01850000  1.0 0.1664615015
C  C79  1  0.84017000  0.97057000  0.83997000  1.0 -0.3656712731
C  C80  1  0.97057000  0.83997000  0.84017000  1.0 -0.3656712731
C  C81  1  0.83997000  0.84017000  0.97057000  1.0 -0.3656712731
C  C82  1  0.86930000  0.86930000  0.86930000  1.0 0.1289937535
C  C83  1  0.85364000  0.12064000  0.85334000  1.0 0.0411737265
C  C84  1  0.12064000  0.85334000  0.85364000  1.0 0.0411737265
C  C85  1  0.85334000  0.85364000  0.12064000  1.0 0.0411737265
C  C86  1  0.79795000  0.30825000  0.79885000  1.0 -0.1393904647
C  C87  1  0.30825000  0.79885000  0.79795000  1.0 -0.1393904647
C  C88  1  0.79885000  0.79795000  0.30825000  1.0 -0.1393904647
C  C89  1  0.82520000  0.82520000  0.82520000  1.0 0.0147063399
C  C90  1  0.74590000  0.74590000  0.74590000  1.0 -0.0686010534
C  C91  1  0.91350000  0.17690000  0.80970000  1.0 -0.0499591425
C  C92  1  0.17690000  0.80970000  0.91350000  1.0 -0.0499591425
C  C93  1  0.80970000  0.91350000  0.17690000  1.0 -0.0499591425
C  C94  1  0.88780000  0.26980000  0.78900000  1.0 -0.1029102905
C  C95  1  0.26980000  0.78900000  0.88780000  1.0 -0.1029102905
C  C96  1  0.78900000  0.88780000  0.26980000  1.0 -0.1029102905
C  C97  1  0.73480000  0.25520000  0.85160000  1.0 -0.0432964425
C  C98  1  0.25520000  0.85160000  0.73480000  1.0 -0.0432964425
C  C99  1  0.85160000  0.73480000  0.25520000  1.0 -0.0432964425
C  C100  1  0.76050000  0.15940000  0.87850000  1.0 -0.1111135083
C  C101  1  0.15940000  0.87850000  0.76050000  1.0 -0.1111135083
C  C102  1  0.87850000  0.76050000  0.15940000  1.0 -0.1111135083
C  C103  1  0.84210000  0.72650000  0.72610000  1.0 -0.087628301
C  C104  1  0.72650000  0.72610000  0.84210000  1.0 -0.087628301
C  C105  1  0.72610000  0.84210000  0.72650000  1.0 -0.087628301
C  C106  1  0.88540000  0.76490000  0.76650000  1.0 -0.0640385186
C  C107  1  0.76490000  0.76650000  0.88540000  1.0 -0.0686010534
C  C108  1  0.76650000  0.88540000  0.76490000  1.0 -0.0686010534
O  O1  1  0.33850000  0.54810000  0.20520000  1.0 -0.7835998198
O  O2  1  0.54810000  0.20520000  0.33850000  1.0 -0.7835998198
O  O3  1  0.20520000  0.33850000  0.54810000  1.0 -0.7835998198
O  O4  1  0.20640000  0.54640000  0.33900000  1.0 -0.8065071861
O  O5  1  0.54640000  0.33900000  0.20640000  1.0 -0.8065071861
O  O6  1  0.33900000  0.20640000  0.54640000  1.0 -0.8065071861
O  O7  1  0.19120000  0.52490000  0.18970000  1.0 -0.6364080469
O  O8  1  0.52490000  0.18970000  0.19120000  1.0 -0.6364080469
O  O9  1  0.18970000  0.19120000  0.52490000  1.0 -0.6364080469
O  O10  1  0.36155000  0.36074000  0.23039000  1.0 -0.7620194118
O  O11  1  0.36074000  0.23039000  0.36155000  1.0 -0.7620194118
O  O12  1  0.23039000  0.36155000  0.36074000  1.0 -0.7620194118
O  O13  1  0.66150000  0.45190000  0.79480000  1.0 -0.7835998198
O  O14  1  0.45190000  0.79480000  0.66150000  1.0 -0.7835998198
O  O15  1  0.79480000  0.66150000  0.45190000  1.0 -0.7835998198
O  O16  1  0.79360000  0.45360000  0.66100000  1.0 -0.8065071861
O  O17  1  0.45360000  0.66100000  0.79360000  1.0 -0.8065071861
O  O18  1  0.66100000  0.79360000  0.45360000  1.0 -0.8065071861
O  O19  1  0.80880000  0.47510000  0.81030000  1.0 -0.6364080469
O  O20  1  0.47510000  0.81030000  0.80880000  1.0 -0.6364080469
O  O21  1  0.81030000  0.80880000  0.47510000  1.0 -0.6364080469
O  O22  1  0.63845000  0.63926000  0.76961000  1.0 -0.7620194118
O  O23  1  0.63926000  0.76961000  0.63845000  1.0 -0.7620194118
O  O24  1  0.76961000  0.63845000  0.63926000  1.0 -0.7620194118
