# DDEC6 charges by PACMAN v1.1 (https://github.com/mtap-research/PACMAN-charge/)
data_KEWLUX_ASR_pacman
_symmetry_space_group_name_H-M   'P 1'
_cell_length_a   16.75530000
_cell_length_b   16.75530000
_cell_length_c   16.75530000
_cell_angle_alpha   68.05520000
_cell_angle_beta   68.05520000
_cell_angle_gamma   68.05520000
_symmetry_Int_Tables_number   1
_chemical_formula_structural   CuH3C13(OF)4
_chemical_formula_sum   'Cu6 H18 C78 O24 F24'
_cell_volume   3894.29952120
_cell_formula_units_Z   6
loop_
 _symmetry_equiv_pos_site_id
 _symmetry_equiv_pos_as_xyz
  1  'x, y, z'
loop_
 _atom_site_type_symbol
 _atom_site_label
 _atom_site_symmetry_multiplicity
 _atom_site_fract_x
 _atom_site_fract_y
 _atom_site_fract_z
 _atom_site_occupancy
 _atom_site_charge
Cu  Cu1  1  0.00547000  0.00547000  0.57427000  1.0 0.8722199455
Cu  Cu2  1  0.00547000  0.57427000  0.00547000  1.0 0.8722199455
Cu  Cu3  1  0.57427000  0.00547000  0.00547000  1.0 0.8722199455
Cu  Cu4  1  0.99453000  0.42573000  0.99453000  1.0 0.8722199455
Cu  Cu5  1  0.99453000  0.99453000  0.42573000  1.0 0.8722199455
Cu  Cu6  1  0.42573000  0.99453000  0.99453000  1.0 0.8722199455
H  H1  1  0.98172000  0.28523000  0.49880000  1.0 0.1394334258
H  H2  1  0.28523000  0.49880000  0.98172000  1.0 0.1394334258
H  H3  1  0.49880000  0.98172000  0.28523000  1.0 0.1394334258
H  H4  1  0.01828000  0.50120000  0.71477000  1.0 0.1394334258
H  H5  1  0.71477000  0.01828000  0.50120000  1.0 0.1394334258
H  H6  1  0.50120000  0.71477000  0.01828000  1.0 0.1394334258
H  H7  1  0.01828000  0.71477000  0.50120000  1.0 0.1394334258
H  H8  1  0.71477000  0.50120000  0.01828000  1.0 0.1394334258
H  H9  1  0.50120000  0.01828000  0.71477000  1.0 0.1394334258
H  H10  1  0.98172000  0.49880000  0.28523000  1.0 0.1394334258
H  H11  1  0.28523000  0.98172000  0.49880000  1.0 0.1394334258
H  H12  1  0.49880000  0.28523000  0.98172000  1.0 0.1394334258
H  H13  1  0.97260000  0.26933000  0.26933000  1.0 0.1394334258
H  H14  1  0.26933000  0.26933000  0.97260000  1.0 0.1394334258
H  H15  1  0.26933000  0.97260000  0.26933000  1.0 0.1394334258
H  H16  1  0.02740000  0.73067000  0.73067000  1.0 0.1394334258
H  H17  1  0.73067000  0.02740000  0.73067000  1.0 0.1394334258
H  H18  1  0.73067000  0.73067000  0.02740000  1.0 0.1394334258
C  C1  1  0.98007000  0.16600000  0.43258000  1.0 0.5895554726
C  C2  1  0.97664000  0.26265000  0.39087000  1.0 -0.0145608387
C  C3  1  0.98058000  0.31193000  0.43944000  1.0 -0.1416169363
C  C4  1  0.94301000  0.53961000  0.44631000  1.0 0.1002182551
C  C5  1  0.04715000  0.50835000  0.41135000  1.0 0.0900115779
C  C6  1  0.16600000  0.43258000  0.98007000  1.0 0.5895554726
C  C7  1  0.26265000  0.39087000  0.97664000  1.0 -0.0145608387
C  C8  1  0.31193000  0.43944000  0.98058000  1.0 -0.1416169363
C  C9  1  0.53961000  0.44631000  0.94301000  1.0 0.1002182551
C  C10  1  0.50835000  0.41135000  0.04715000  1.0 0.0900115779
C  C11  1  0.43258000  0.98007000  0.16600000  1.0 0.5895554726
C  C12  1  0.39087000  0.97664000  0.26265000  1.0 -0.0145608387
C  C13  1  0.43944000  0.98058000  0.31193000  1.0 -0.1416169363
C  C14  1  0.44631000  0.94301000  0.53961000  1.0 0.1002182551
C  C15  1  0.41135000  0.04715000  0.50835000  1.0 0.0900115779
C  C16  1  0.01993000  0.56742000  0.83400000  1.0 0.5895554726
C  C17  1  0.02336000  0.60913000  0.73735000  1.0 -0.0145608387
C  C18  1  0.01942000  0.56056000  0.68807000  1.0 -0.1416169363
C  C19  1  0.05699000  0.55369000  0.46039000  1.0 0.1002182551
C  C20  1  0.95285000  0.58865000  0.49165000  1.0 0.0900115779
C  C21  1  0.83400000  0.01993000  0.56742000  1.0 0.5895554726
C  C22  1  0.73735000  0.02336000  0.60913000  1.0 -0.0145608387
C  C23  1  0.68807000  0.01942000  0.56056000  1.0 -0.1416169363
C  C24  1  0.46039000  0.05699000  0.55369000  1.0 0.1002182551
C  C25  1  0.49165000  0.95285000  0.58865000  1.0 0.0900115779
C  C26  1  0.56742000  0.83400000  0.01993000  1.0 0.5895554726
C  C27  1  0.60913000  0.73735000  0.02336000  1.0 -0.0145608387
C  C28  1  0.56056000  0.68807000  0.01942000  1.0 -0.1416169363
C  C29  1  0.55369000  0.46039000  0.05699000  1.0 0.1002182551
C  C30  1  0.58865000  0.49165000  0.95285000  1.0 0.0900115779
C  C31  1  0.01993000  0.83400000  0.56742000  1.0 0.5895554726
C  C32  1  0.02336000  0.73735000  0.60913000  1.0 -0.0145608387
C  C33  1  0.01942000  0.68807000  0.56056000  1.0 -0.1416169363
C  C34  1  0.05699000  0.46039000  0.55369000  1.0 0.1002182551
C  C35  1  0.95285000  0.49165000  0.58865000  1.0 0.0900115779
C  C36  1  0.83400000  0.56742000  0.01993000  1.0 0.5895554726
C  C37  1  0.73735000  0.60913000  0.02336000  1.0 -0.0145608387
C  C38  1  0.68807000  0.56056000  0.01942000  1.0 -0.1416169363
C  C39  1  0.46039000  0.55369000  0.05699000  1.0 0.105772615
C  C40  1  0.49165000  0.58865000  0.95285000  1.0 0.0900115779
C  C41  1  0.56742000  0.01993000  0.83400000  1.0 0.5895554726
C  C42  1  0.60913000  0.02336000  0.73735000  1.0 -0.0145608387
C  C43  1  0.56056000  0.01942000  0.68807000  1.0 -0.1416169363
C  C44  1  0.55369000  0.05699000  0.46039000  1.0 0.105772615
C  C45  1  0.58865000  0.95285000  0.49165000  1.0 0.0900115779
C  C46  1  0.98007000  0.43258000  0.16600000  1.0 0.5895554726
C  C47  1  0.97664000  0.39087000  0.26265000  1.0 -0.0145608387
C  C48  1  0.98058000  0.43944000  0.31193000  1.0 -0.1416169363
C  C49  1  0.94301000  0.44631000  0.53961000  1.0 0.1002182551
C  C50  1  0.04715000  0.41135000  0.50835000  1.0 0.0900115779
C  C51  1  0.16600000  0.98007000  0.43258000  1.0 0.5895554726
C  C52  1  0.26265000  0.97664000  0.39087000  1.0 -0.0145608387
C  C53  1  0.31193000  0.98058000  0.43944000  1.0 -0.1416169363
C  C54  1  0.53961000  0.94301000  0.44631000  1.0 0.1002182551
C  C55  1  0.50835000  0.04715000  0.41135000  1.0 0.0900115779
C  C56  1  0.43258000  0.16600000  0.98007000  1.0 0.5895554726
C  C57  1  0.39087000  0.26265000  0.97664000  1.0 -0.0145608387
C  C58  1  0.43944000  0.31193000  0.98058000  1.0 -0.1416169363
C  C59  1  0.44631000  0.53961000  0.94301000  1.0 0.1002182551
C  C60  1  0.41135000  0.50835000  0.04715000  1.0 0.0900115779
C  C61  1  0.98286000  0.40051000  0.40051000  1.0 0.1002182551
C  C62  1  0.97491000  0.30217000  0.30217000  1.0 -0.1017423873
C  C63  1  0.99201000  0.45205000  0.45205000  1.0 -0.0573376332
C  C64  1  0.40051000  0.40051000  0.98286000  1.0 0.1002182551
C  C65  1  0.30217000  0.30217000  0.97491000  1.0 -0.1017423873
C  C66  1  0.45205000  0.45205000  0.99201000  1.0 -0.0573376332
C  C67  1  0.40051000  0.98286000  0.40051000  1.0 0.1002182551
C  C68  1  0.30217000  0.97491000  0.30217000  1.0 -0.1017423873
C  C69  1  0.45205000  0.99201000  0.45205000  1.0 -0.0573376332
C  C70  1  0.01714000  0.59949000  0.59949000  1.0 0.1002182551
C  C71  1  0.02509000  0.69783000  0.69783000  1.0 -0.1017423873
C  C72  1  0.00799000  0.54795000  0.54795000  1.0 -0.0573376332
C  C73  1  0.59949000  0.01714000  0.59949000  1.0 0.1002182551
C  C74  1  0.69783000  0.02509000  0.69783000  1.0 -0.1017423873
C  C75  1  0.54795000  0.00799000  0.54795000  1.0 -0.0573376332
C  C76  1  0.59949000  0.59949000  0.01714000  1.0 0.1002182551
C  C77  1  0.69783000  0.69783000  0.02509000  1.0 -0.1017423873
C  C78  1  0.54795000  0.54795000  0.00799000  1.0 -0.0573376332
O  O1  1  0.98686000  0.13282000  0.51114000  1.0 -0.5133102581
O  O2  1  0.97834000  0.12412000  0.38484000  1.0 -0.5176377044
O  O3  1  0.13282000  0.51114000  0.98686000  1.0 -0.5133102581
O  O4  1  0.12412000  0.38484000  0.97834000  1.0 -0.5176377044
O  O5  1  0.51114000  0.98686000  0.13282000  1.0 -0.5133102581
O  O6  1  0.38484000  0.97834000  0.12412000  1.0 -0.5176377044
O  O7  1  0.01314000  0.48886000  0.86718000  1.0 -0.5133102581
O  O8  1  0.02166000  0.61516000  0.87588000  1.0 -0.5176377044
O  O9  1  0.86718000  0.01314000  0.48886000  1.0 -0.5133102581
O  O10  1  0.87588000  0.02166000  0.61516000  1.0 -0.5176377044
O  O11  1  0.48886000  0.86718000  0.01314000  1.0 -0.5133102581
O  O12  1  0.61516000  0.87588000  0.02166000  1.0 -0.5176377044
O  O13  1  0.01314000  0.86718000  0.48886000  1.0 -0.5133102581
O  O14  1  0.02166000  0.87588000  0.61516000  1.0 -0.5176377044
O  O15  1  0.86718000  0.48886000  0.01314000  1.0 -0.5133102581
O  O16  1  0.87588000  0.61516000  0.02166000  1.0 -0.5176377044
O  O17  1  0.48886000  0.01314000  0.86718000  1.0 -0.5133102581
O  O18  1  0.61516000  0.02166000  0.87588000  1.0 -0.5176377044
O  O19  1  0.98686000  0.51114000  0.13282000  1.0 -0.5133102581
O  O20  1  0.97834000  0.38484000  0.12412000  1.0 -0.5176377044
O  O21  1  0.13282000  0.98686000  0.51114000  1.0 -0.5133102581
O  O22  1  0.12412000  0.97834000  0.38484000  1.0 -0.5176377044
O  O23  1  0.51114000  0.13282000  0.98686000  1.0 -0.5133102581
O  O24  1  0.38484000  0.12412000  0.97834000  1.0 -0.5176377044
F  F1  1  0.88280000  0.58580000  0.39760000  1.0 -0.1017423873
F  F2  1  0.10720000  0.51400000  0.33020000  1.0 -0.1064861864
F  F3  1  0.58580000  0.39760000  0.88280000  1.0 -0.1017423873
F  F4  1  0.51400000  0.33020000  0.10720000  1.0 -0.1064861864
F  F5  1  0.39760000  0.88280000  0.58580000  1.0 -0.1017423873
F  F6  1  0.33020000  0.10720000  0.51400000  1.0 -0.1064861864
F  F7  1  0.11720000  0.60240000  0.41420000  1.0 -0.1017423873
F  F8  1  0.89280000  0.66980000  0.48600000  1.0 -0.1064861864
F  F9  1  0.41420000  0.11720000  0.60240000  1.0 -0.1017423873
F  F10  1  0.48600000  0.89280000  0.66980000  1.0 -0.1064861864
F  F11  1  0.60240000  0.41420000  0.11720000  1.0 -0.1064861864
F  F12  1  0.66980000  0.48600000  0.89280000  1.0 -0.1017423873
F  F13  1  0.11720000  0.41420000  0.60240000  1.0 -0.1017423873
F  F14  1  0.89280000  0.48600000  0.66980000  1.0 -0.1064861864
F  F15  1  0.41420000  0.60240000  0.11720000  1.0 -0.1064861864
F  F16  1  0.48600000  0.66980000  0.89280000  1.0 -0.1064861864
F  F17  1  0.60240000  0.11720000  0.41420000  1.0 -0.1064861864
F  F18  1  0.66980000  0.89280000  0.48600000  1.0 -0.1064861864
F  F19  1  0.88280000  0.39760000  0.58580000  1.0 -0.1017423873
F  F20  1  0.10720000  0.33020000  0.51400000  1.0 -0.1064861864
F  F21  1  0.58580000  0.88280000  0.39760000  1.0 -0.1064861864
F  F22  1  0.51400000  0.10720000  0.33020000  1.0 -0.1064861864
F  F23  1  0.39760000  0.58580000  0.88280000  1.0 -0.1017423873
F  F24  1  0.33020000  0.51400000  0.10720000  1.0 -0.1064861864
