# DDEC6 charges by PACMAN v1.1 (https://github.com/mtap-research/PACMAN-charge/)
data_KEWMOS_ASR_pacman
_symmetry_space_group_name_H-M   'P 1'
_cell_length_a   18.04860000
_cell_length_b   18.04860000
_cell_length_c   13.07800000
_cell_angle_alpha   90.00000000
_cell_angle_beta   90.00000000
_cell_angle_gamma   120.00000000
_symmetry_Int_Tables_number   1
_chemical_formula_structural   SrCu6H33C30S3(NO4)6
_chemical_formula_sum   'Sr2 Cu12 H66 C60 S6 N12 O48'
_cell_volume   3689.42770607
_cell_formula_units_Z   2
loop_
 _symmetry_equiv_pos_site_id
 _symmetry_equiv_pos_as_xyz
  1  'x, y, z'
loop_
 _atom_site_type_symbol
 _atom_site_label
 _atom_site_symmetry_multiplicity
 _atom_site_fract_x
 _atom_site_fract_y
 _atom_site_fract_z
 _atom_site_occupancy
 _atom_site_charge
Sr  Sr1  1  0.66666667  0.33333333  0.65730000  1.0 1.4810222854
Sr  Sr2  1  0.33333333  0.66666667  0.15730000  1.0 1.4810222854
Cu  Cu1  1  0.55683000  0.42261000  0.52859000  1.0 0.8885475665
Cu  Cu2  1  0.57739000  0.13422000  0.52859000  1.0 0.8885475665
Cu  Cu3  1  0.86578000  0.44317000  0.52859000  1.0 0.8885475665
Cu  Cu4  1  0.44317000  0.57739000  0.02859000  1.0 0.8885475665
Cu  Cu5  1  0.42261000  0.86578000  0.02859000  1.0 0.8885475665
Cu  Cu6  1  0.13422000  0.55683000  0.02859000  1.0 0.8885475665
Cu  Cu7  1  0.55355000  0.41931000  0.78797000  1.0 0.9388436347
Cu  Cu8  1  0.58069000  0.13424000  0.78797000  1.0 0.9388436347
Cu  Cu9  1  0.86576000  0.44645000  0.78797000  1.0 0.9388436347
Cu  Cu10  1  0.44645000  0.58069000  0.28797000  1.0 0.9388436347
Cu  Cu11  1  0.41931000  0.86576000  0.28797000  1.0 0.9388436347
Cu  Cu12  1  0.13424000  0.55355000  0.28797000  1.0 0.9388436347
H  H1  1  0.71930000  0.59493000  0.38170000  1.0 0.1217853956
H  H2  1  0.40507000  0.12437000  0.38170000  1.0 0.1217853956
H  H3  1  0.87563000  0.28070000  0.38170000  1.0 0.1217853956
H  H4  1  0.28070000  0.40507000  0.88170000  1.0 0.1217853956
H  H5  1  0.59493000  0.87563000  0.88170000  1.0 0.1217853956
H  H6  1  0.12437000  0.71930000  0.88170000  1.0 0.1217853956
H  H7  1  0.30905000  0.47491000  0.50014000  1.0 0.1286640746
H  H8  1  0.52509000  0.83414000  0.50014000  1.0 0.1286640746
H  H9  1  0.16586000  0.69095000  0.50014000  1.0 0.1286640746
H  H10  1  0.69095000  0.52509000  0.00014000  1.0 0.1286640746
H  H11  1  0.47491000  0.16586000  0.00014000  1.0 0.1286640746
H  H12  1  0.83414000  0.30905000  0.00014000  1.0 0.1286640746
H  H13  1  0.28098000  0.33581000  0.44271000  1.0 0.1286640746
H  H14  1  0.66419000  0.94517000  0.44271000  1.0 0.1286640746
H  H15  1  0.05483000  0.71902000  0.44271000  1.0 0.1286640746
H  H16  1  0.71902000  0.66419000  0.94271000  1.0 0.1286640746
H  H17  1  0.33581000  0.05483000  0.94271000  1.0 0.1286640746
H  H18  1  0.94517000  0.28098000  0.94271000  1.0 0.1286640746
H  H19  1  0.20055000  0.34495000  0.42313000  1.0 0.1217853956
H  H20  1  0.65505000  0.85560000  0.42313000  1.0 0.1217853956
H  H21  1  0.14440000  0.79945000  0.42313000  1.0 0.1217853956
H  H22  1  0.79945000  0.65505000  0.92313000  1.0 0.1217853956
H  H23  1  0.34495000  0.14440000  0.92313000  1.0 0.1217853956
H  H24  1  0.85560000  0.20055000  0.92313000  1.0 0.1217853956
H  H25  1  0.65661000  0.52006000  0.22772000  1.0 0.1217853956
H  H26  1  0.47994000  0.13655000  0.22772000  1.0 0.1217853956
H  H27  1  0.86345000  0.34339000  0.22772000  1.0 0.1217853956
H  H28  1  0.34339000  0.47994000  0.72772000  1.0 0.1217853956
H  H29  1  0.52006000  0.86345000  0.72772000  1.0 0.1217853956
H  H30  1  0.13655000  0.65661000  0.72772000  1.0 0.1217853956
H  H31  1  0.74984000  0.54460000  0.24970000  1.0 0.1286640746
H  H32  1  0.45540000  0.20524000  0.24970000  1.0 0.1286640746
H  H33  1  0.79476000  0.25016000  0.24970000  1.0 0.1286640746
H  H34  1  0.25016000  0.45540000  0.74970000  1.0 0.1286640746
H  H35  1  0.54460000  0.79476000  0.74970000  1.0 0.1286640746
H  H36  1  0.20524000  0.74984000  0.74970000  1.0 0.1286640746
H  H37  1  0.64471000  0.37123000  0.25591000  1.0 0.0657867585
H  H38  1  0.62877000  0.27348000  0.25591000  1.0 0.0657867585
H  H39  1  0.72652000  0.35529000  0.25591000  1.0 0.0657867585
H  H40  1  0.35529000  0.62877000  0.75591000  1.0 0.0657867585
H  H41  1  0.37123000  0.72652000  0.75591000  1.0 0.0657867585
H  H42  1  0.27348000  0.64471000  0.75591000  1.0 0.0657867585
H  H43  1  0.73140000  0.42492000  0.19701000  1.0 0.0907356013
H  H44  1  0.57508000  0.30648000  0.19701000  1.0 0.0907356013
H  H45  1  0.69352000  0.26860000  0.19701000  1.0 0.0907356013
H  H46  1  0.26860000  0.57508000  0.69701000  1.0 0.0907356013
H  H47  1  0.42492000  0.69352000  0.69701000  1.0 0.0907356013
H  H48  1  0.30648000  0.73140000  0.69701000  1.0 0.0907356013
H  H49  1  0.48760000  0.40194000  0.03964000  1.0 0.1500199382
H  H50  1  0.59806000  0.08566000  0.03964000  1.0 0.1500199382
H  H51  1  0.91434000  0.51240000  0.03964000  1.0 0.1500199382
H  H52  1  0.51240000  0.59806000  0.53964000  1.0 0.1500199382
H  H53  1  0.40194000  0.91434000  0.53964000  1.0 0.1500199382
H  H54  1  0.08566000  0.48760000  0.53964000  1.0 0.1500199382
H  H55  1  0.47781000  0.36804000  0.15202000  1.0 0.1679134537
H  H56  1  0.63196000  0.10977000  0.15202000  1.0 0.1679134537
H  H57  1  0.89023000  0.52219000  0.15202000  1.0 0.1679134537
H  H58  1  0.52219000  0.63196000  0.65202000  1.0 0.1679134537
H  H59  1  0.36804000  0.89023000  0.65202000  1.0 0.1679134537
H  H60  1  0.10977000  0.47781000  0.65202000  1.0 0.1679134537
H  H61  1  0.53054000  0.46657000  0.13013000  1.0 0.1500199382
H  H62  1  0.53343000  0.06397000  0.13013000  1.0 0.1500199382
H  H63  1  0.93603000  0.46946000  0.13013000  1.0 0.1500199382
H  H64  1  0.46946000  0.53343000  0.63013000  1.0 0.1500199382
H  H65  1  0.46657000  0.93603000  0.63013000  1.0 0.1500199382
H  H66  1  0.06397000  0.53054000  0.63013000  1.0 0.1500199382
C  C1  1  0.71870000  0.48730000  0.45420000  1.0 0.5725836425
C  C2  1  0.51270000  0.23140000  0.45420000  1.0 0.5725836425
C  C3  1  0.76860000  0.28130000  0.45420000  1.0 0.5725836425
C  C4  1  0.28130000  0.51270000  0.95420000  1.0 0.5725836425
C  C5  1  0.48730000  0.76860000  0.95420000  1.0 0.5725836425
C  C6  1  0.23140000  0.71870000  0.95420000  1.0 0.5725836425
C  C7  1  0.68370000  0.53260000  0.37640000  1.0 0.0204956079
C  C8  1  0.46740000  0.15110000  0.37640000  1.0 0.0204956079
C  C9  1  0.84890000  0.31630000  0.37640000  1.0 0.0204956079
C  C10  1  0.31630000  0.46740000  0.87640000  1.0 0.0204956079
C  C11  1  0.53260000  0.84890000  0.87640000  1.0 0.0204956079
C  C12  1  0.15110000  0.68370000  0.87640000  1.0 0.0204956079
C  C13  1  0.46140000  0.48220000  0.43960000  1.0 0.3592118566
C  C14  1  0.51780000  0.97920000  0.43960000  1.0 0.3592118566
C  C15  1  0.02080000  0.53860000  0.43960000  1.0 0.3592118566
C  C16  1  0.53860000  0.51780000  0.93960000  1.0 0.3592118566
C  C17  1  0.48220000  0.02080000  0.93960000  1.0 0.3592118566
C  C18  1  0.97920000  0.46140000  0.93960000  1.0 0.3592118566
C  C19  1  0.31480000  0.46660000  0.42710000  1.0 -0.0561539077
C  C20  1  0.53340000  0.84820000  0.42710000  1.0 -0.0561539077
C  C21  1  0.15180000  0.68520000  0.42710000  1.0 -0.0561539077
C  C22  1  0.68520000  0.53340000  0.92710000  1.0 -0.0561539077
C  C23  1  0.46660000  0.15180000  0.92710000  1.0 -0.0561539077
C  C24  1  0.84820000  0.31480000  0.92710000  1.0 -0.0561539077
C  C25  1  0.27670000  0.50790000  0.36870000  1.0 0.5587304105
C  C26  1  0.49210000  0.76880000  0.36870000  1.0 0.5587304105
C  C27  1  0.23120000  0.72330000  0.36870000  1.0 0.5587304105
C  C28  1  0.72330000  0.49210000  0.86870000  1.0 0.5587304105
C  C29  1  0.50790000  0.23120000  0.86870000  1.0 0.5587304105
C  C30  1  0.76880000  0.27670000  0.86870000  1.0 0.5587304105
C  C31  1  0.54630000  0.52550000  0.38290000  1.0 0.3592118566
C  C32  1  0.47450000  0.02080000  0.38290000  1.0 0.3592118566
C  C33  1  0.97920000  0.45370000  0.38290000  1.0 0.3592118566
C  C34  1  0.45370000  0.47450000  0.88290000  1.0 0.3592118566
C  C35  1  0.52550000  0.97920000  0.88290000  1.0 0.3592118566
C  C36  1  0.02080000  0.54630000  0.88290000  1.0 0.3592118566
C  C37  1  0.25900000  0.36520000  0.40140000  1.0 -0.0047492744
C  C38  1  0.63480000  0.89380000  0.40140000  1.0 -0.0047492744
C  C39  1  0.10620000  0.74100000  0.40140000  1.0 -0.0047492744
C  C40  1  0.74100000  0.63480000  0.90140000  1.0 -0.0047492744
C  C41  1  0.36520000  0.10620000  0.90140000  1.0 -0.0047492744
C  C42  1  0.89380000  0.25900000  0.90140000  1.0 -0.0047492744
C  C43  1  0.69100000  0.50400000  0.26800000  1.0 -0.1517041157
C  C44  1  0.49600000  0.18700000  0.26800000  1.0 -0.1517041157
C  C45  1  0.81300000  0.30900000  0.26800000  1.0 -0.1517041157
C  C46  1  0.30900000  0.49600000  0.76800000  1.0 -0.1517041157
C  C47  1  0.50400000  0.81300000  0.76800000  1.0 -0.1517041157
C  C48  1  0.18700000  0.69100000  0.76800000  1.0 -0.1517041157
C  C49  1  0.67700000  0.42000000  0.21200000  1.0 -0.1642286385
C  C50  1  0.58000000  0.25700000  0.21200000  1.0 -0.1642286385
C  C51  1  0.74300000  0.32300000  0.21200000  1.0 -0.1642286385
C  C52  1  0.32300000  0.58000000  0.71200000  1.0 -0.1642286385
C  C53  1  0.42000000  0.74300000  0.71200000  1.0 -0.1642286385
C  C54  1  0.25700000  0.67700000  0.71200000  1.0 -0.1642286385
C  C55  1  0.51600000  0.41100000  0.10500000  1.0 -0.4178519726
C  C56  1  0.58900000  0.10500000  0.10500000  1.0 -0.4178519726
C  C57  1  0.89500000  0.48400000  0.10500000  1.0 -0.4178519726
C  C58  1  0.48400000  0.58900000  0.60500000  1.0 -0.4178519726
C  C59  1  0.41100000  0.89500000  0.60500000  1.0 -0.4178519726
C  C60  1  0.10500000  0.51600000  0.60500000  1.0 -0.4178519726
S  S1  1  0.61600000  0.40400000  0.08900000  1.0 0.0204956079
S  S2  1  0.59600000  0.21200000  0.08900000  1.0 0.0204956079
S  S3  1  0.78800000  0.38400000  0.08900000  1.0 0.0204956079
S  S4  1  0.38400000  0.59600000  0.58900000  1.0 0.0204956079
S  S5  1  0.40400000  0.78800000  0.58900000  1.0 0.0204956079
S  S6  1  0.21200000  0.61600000  0.58900000  1.0 0.0204956079
N  N1  1  0.60050000  0.50550000  0.41870000  1.0 -0.3899901639
N  N2  1  0.49450000  0.09500000  0.41870000  1.0 -0.3899901639
N  N3  1  0.90500000  0.39950000  0.41870000  1.0 -0.3899901639
N  N4  1  0.39950000  0.49450000  0.91870000  1.0 -0.3899901639
N  N5  1  0.50550000  0.90500000  0.91870000  1.0 -0.3899901639
N  N6  1  0.09500000  0.60050000  0.91870000  1.0 -0.3899901639
N  N7  1  0.40810000  0.50450000  0.40230000  1.0 -0.3843330871
N  N8  1  0.49550000  0.90360000  0.40230000  1.0 -0.3843330871
N  N9  1  0.09640000  0.59190000  0.40230000  1.0 -0.3843330871
N  N10  1  0.59190000  0.49550000  0.90230000  1.0 -0.3843330871
N  N11  1  0.50450000  0.09640000  0.90230000  1.0 -0.3843330871
N  N12  1  0.90360000  0.40810000  0.90230000  1.0 -0.3843330871
O  O1  1  0.53310000  0.36230000  0.65480000  1.0 -0.7750572692
O  O2  1  0.63770000  0.17080000  0.65480000  1.0 -0.7750572692
O  O3  1  0.82920000  0.46690000  0.65480000  1.0 -0.7750572692
O  O4  1  0.46690000  0.63770000  0.15480000  1.0 -0.7750572692
O  O5  1  0.36230000  0.82920000  0.15480000  1.0 -0.7750572692
O  O6  1  0.17080000  0.53310000  0.15480000  1.0 -0.7750572692
O  O7  1  0.25690000  0.33940000  0.29500000  1.0 -0.318199866
O  O8  1  0.66060000  0.91750000  0.29500000  1.0 -0.318199866
O  O9  1  0.08250000  0.74310000  0.29500000  1.0 -0.318199866
O  O10  1  0.74310000  0.66060000  0.79500000  1.0 -0.318199866
O  O11  1  0.33940000  0.08250000  0.79500000  1.0 -0.318199866
O  O12  1  0.91750000  0.25690000  0.79500000  1.0 -0.318199866
O  O13  1  0.20600000  0.49510000  0.38290000  1.0 -0.4553326796
O  O14  1  0.50490000  0.71090000  0.38290000  1.0 -0.4553326796
O  O15  1  0.28910000  0.79400000  0.38290000  1.0 -0.4553326796
O  O16  1  0.79400000  0.50490000  0.88290000  1.0 -0.4553326796
O  O17  1  0.49510000  0.28910000  0.88290000  1.0 -0.4553326796
O  O18  1  0.71090000  0.20600000  0.88290000  1.0 -0.4553326796
O  O19  1  0.44820000  0.42880000  0.50720000  1.0 -0.4178519726
O  O20  1  0.57120000  0.01940000  0.50720000  1.0 -0.4178519726
O  O21  1  0.98060000  0.55180000  0.50720000  1.0 -0.4178519726
O  O22  1  0.55180000  0.57120000  0.00720000  1.0 -0.4178519726
O  O23  1  0.42880000  0.98060000  0.00720000  1.0 -0.4178519726
O  O24  1  0.01940000  0.44820000  0.00720000  1.0 -0.4178519726
O  O25  1  0.80260000  0.51490000  0.43740000  1.0 -0.553541256
O  O26  1  0.48510000  0.28770000  0.43740000  1.0 -0.553541256
O  O27  1  0.71230000  0.19740000  0.43740000  1.0 -0.553541256
O  O28  1  0.19740000  0.48510000  0.93740000  1.0 -0.553541256
O  O29  1  0.51490000  0.71230000  0.93740000  1.0 -0.553541256
O  O30  1  0.28770000  0.80260000  0.93740000  1.0 -0.553541256
O  O31  1  0.32400000  0.55760000  0.28840000  1.0 -0.578387035
O  O32  1  0.44240000  0.76640000  0.28840000  1.0 -0.578387035
O  O33  1  0.23360000  0.67600000  0.28840000  1.0 -0.578387035
O  O34  1  0.67600000  0.44240000  0.78840000  1.0 -0.578387035
O  O35  1  0.55760000  0.23360000  0.78840000  1.0 -0.578387035
O  O36  1  0.76640000  0.32400000  0.78840000  1.0 -0.578387035
O  O37  1  0.55400000  0.57440000  0.30280000  1.0 -0.4411785434
O  O38  1  0.42560000  0.97960000  0.30280000  1.0 -0.4411785434
O  O39  1  0.02040000  0.44600000  0.30280000  1.0 -0.4411785434
O  O40  1  0.44600000  0.42560000  0.80280000  1.0 -0.4411785434
O  O41  1  0.57440000  0.02040000  0.80280000  1.0 -0.4411785434
O  O42  1  0.97960000  0.55400000  0.80280000  1.0 -0.4411785434
O  O43  1  0.67370000  0.43900000  0.51690000  1.0 -0.4790585966
O  O44  1  0.56100000  0.23470000  0.51690000  1.0 -0.4790585966
O  O45  1  0.76530000  0.32630000  0.51690000  1.0 -0.4790585966
O  O46  1  0.32630000  0.56100000  0.01690000  1.0 -0.4790585966
O  O47  1  0.43900000  0.76530000  0.01690000  1.0 -0.4790585966
O  O48  1  0.23470000  0.67370000  0.01690000  1.0 -0.4790585966
