# DDEC6 charges by PACMAN v1.1 (https://github.com/mtap-research/PACMAN-charge/)
data_KEXPIO_ASR_pacman
_symmetry_space_group_name_H-M   'P 1'
_cell_length_a   7.30700000
_cell_length_b   24.96000000
_cell_length_c   7.27000000
_cell_angle_alpha   90.00000000
_cell_angle_beta   90.00000000
_cell_angle_gamma   90.00000000
_symmetry_Int_Tables_number   1
_chemical_formula_structural   ZnH3C9NO4
_chemical_formula_sum   'Zn4 H12 C36 N4 O16'
_cell_volume   1325.92237440
_cell_formula_units_Z   4
loop_
 _symmetry_equiv_pos_site_id
 _symmetry_equiv_pos_as_xyz
  1  'x, y, z'
loop_
 _atom_site_type_symbol
 _atom_site_label
 _atom_site_symmetry_multiplicity
 _atom_site_fract_x
 _atom_site_fract_y
 _atom_site_fract_z
 _atom_site_occupancy
 _atom_site_charge
Zn  Zn1  1  0.92870000  0.77801000  0.87575000  1.0 0.9129863614
Zn  Zn2  1  0.07150000  0.22198000  0.87575000  1.0 0.9129863614
Zn  Zn3  1  0.42890000  0.72188000  0.37566000  1.0 0.9129863614
Zn  Zn4  1  0.57151000  0.27803000  0.37582000  1.0 0.9129863614
H  H1  1  0.25092000  0.62895000  0.87451000  1.0 0.152637056
H  H2  1  0.01332000  0.65016000  0.87518000  1.0 0.152637056
H  H3  1  0.36953000  0.79188000  0.90993000  1.0 0.1237724414
H  H4  1  0.74908000  0.37104000  0.87440000  1.0 0.152637056
H  H5  1  0.98668000  0.34985000  0.87507000  1.0 0.152637056
H  H6  1  0.63031000  0.20821000  0.90889000  1.0 0.1237724414
H  H7  1  0.75092000  0.87104000  0.37444000  1.0 0.152637056
H  H8  1  0.51332000  0.84984000  0.37508000  1.0 0.152637056
H  H9  1  0.86996000  0.70817000  0.40861000  1.0 0.1237724414
H  H10  1  0.24908000  0.12897000  0.37452000  1.0 0.152637056
H  H11  1  0.48669000  0.15017000  0.37531000  1.0 0.152637056
H  H12  1  0.13064000  0.29179000  0.41003000  1.0 0.1237724414
C  C1  1  0.18488000  0.69760000  0.04982000  1.0 0.6746850097
C  C2  1  0.15765000  0.66374000  0.87543000  1.0 -0.4686689368
C  C3  1  0.18368000  0.69785000  0.70105000  1.0 0.6757347816
C  C4  1  0.42154000  0.87845000  0.88453000  1.0 -0.0328867455
C  C5  1  0.31692000  0.83283000  0.89237000  1.0 0.0528838569
C  C6  1  0.09022000  0.88705000  0.85278000  1.0 0.2110947975
C  C7  1  0.16671000  0.93284000  0.83724000  1.0 -0.1170298746
C  C8  1  0.35986000  0.93127000  0.85594000  1.0 0.1683291876
C  C9  1  0.46424000  0.97816000  0.85054000  1.0 -0.0638331464
C  C10  1  0.81525000  0.30245000  0.04988000  1.0 0.6746850097
C  C11  1  0.84236000  0.33627000  0.87539000  1.0 -0.4686689368
C  C12  1  0.81621000  0.30211000  0.70111000  1.0 0.6746850097
C  C13  1  0.57825000  0.12158000  0.88536000  1.0 -0.0328867455
C  C14  1  0.68286000  0.16721000  0.89197000  1.0 0.0528838569
C  C15  1  0.91004000  0.11281000  0.85829000  1.0 0.2110947975
C  C16  1  0.83370000  0.06700000  0.84216000  1.0 -0.1170298746
C  C17  1  0.64020000  0.06871000  0.85856000  1.0 0.1683291876
C  C18  1  0.53555000  0.02189000  0.85152000  1.0 -0.0638331464
C  C19  1  0.68474000  0.80243000  0.54985000  1.0 0.6757347816
C  C20  1  0.65765000  0.83626000  0.37537000  1.0 -0.4686689368
C  C21  1  0.68382000  0.80212000  0.20106000  1.0 0.6757347816
C  C22  1  0.92152000  0.62155000  0.38670000  1.0 -0.0328867455
C  C23  1  0.81702000  0.66719000  0.39226000  1.0 0.0528838569
C  C24  1  0.58984000  0.61285000  0.35940000  1.0 0.2110947975
C  C25  1  0.66638000  0.56706000  0.34384000  1.0 -0.1170298746
C  C26  1  0.85976000  0.56863000  0.36033000  1.0 0.1683291876
C  C27  1  0.96414000  0.52178000  0.35310000  1.0 -0.0638331464
C  C28  1  0.31510000  0.19761000  0.54989000  1.0 0.6746850097
C  C29  1  0.34237000  0.16375000  0.37548000  1.0 -0.4686689368
C  C30  1  0.31642000  0.19786000  0.20109000  1.0 0.6757347816
C  C31  1  0.07840000  0.37837000  0.38414000  1.0 -0.0328867455
C  C32  1  0.18310000  0.33276000  0.39224000  1.0 0.0528838569
C  C33  1  0.40975000  0.38698000  0.35250000  1.0 0.2110947975
C  C34  1  0.33343000  0.43282000  0.33681000  1.0 -0.1170298746
C  C35  1  0.14018000  0.43119000  0.35592000  1.0 0.1683291876
C  C36  1  0.03551000  0.47802000  0.35142000  1.0 -0.0638331464
N  N1  1  0.12646000  0.83706000  0.87691000  1.0 -0.2170165917
N  N2  1  0.87341000  0.16292000  0.87839000  1.0 -0.2170165917
N  N3  1  0.62647000  0.66298000  0.37872000  1.0 -0.2170165917
N  N4  1  0.37348000  0.33702000  0.37702000  1.0 -0.2170165917
O  O1  1  0.08479000  0.73881000  0.07525000  1.0 -0.5720308787
O  O2  1  0.31196000  0.68272000  0.15964000  1.0 -0.5406317478
O  O3  1  0.08140000  0.73874000  0.67647000  1.0 -0.5720308787
O  O4  1  0.31057000  0.68349000  0.59080000  1.0 -0.5406317478
O  O5  1  0.91540000  0.26126000  0.07543000  1.0 -0.5720308787
O  O6  1  0.68822000  0.31731000  0.15980000  1.0 -0.5406317478
O  O7  1  0.91837000  0.26120000  0.67662000  1.0 -0.5720308787
O  O8  1  0.68930000  0.31647000  0.59089000  1.0 -0.5406317478
O  O9  1  0.58461000  0.76124000  0.57539000  1.0 -0.5720308787
O  O10  1  0.81174000  0.81727000  0.65983000  1.0 -0.5406317478
O  O11  1  0.58164000  0.76120000  0.17648000  1.0 -0.5720308787
O  O12  1  0.81075000  0.81647000  0.09086000  1.0 -0.5406317478
O  O13  1  0.41518000  0.23881000  0.57540000  1.0 -0.5720308787
O  O14  1  0.18798000  0.18275000  0.65969000  1.0 -0.5406317478
O  O15  1  0.41870000  0.23875000  0.17653000  1.0 -0.5720308787
O  O16  1  0.18953000  0.18352000  0.09077000  1.0 -0.5406317478
