# DDEC6 charges by PACMAN v1.1 (https://github.com/mtap-research/PACMAN-charge/)
data_KEXPIO_FSR_pacman
_symmetry_space_group_name_H-M   'P 1'
_cell_length_a   7.27000000
_cell_length_b   7.30700000
_cell_length_c   24.96000000
_cell_angle_alpha   90.00000000
_cell_angle_beta   90.00000000
_cell_angle_gamma   90.00000000
_symmetry_Int_Tables_number   1
_chemical_formula_structural   ZnH5C13NO5
_chemical_formula_sum   'Zn4 H20 C52 N4 O20'
_cell_volume   1325.92237440
_cell_formula_units_Z   4
loop_
 _symmetry_equiv_pos_site_id
 _symmetry_equiv_pos_as_xyz
  1  'x, y, z'
loop_
 _atom_site_type_symbol
 _atom_site_label
 _atom_site_symmetry_multiplicity
 _atom_site_fract_x
 _atom_site_fract_y
 _atom_site_fract_z
 _atom_site_occupancy
 _atom_site_charge
Zn  Zn1  1  0.87380000  0.94633000  0.78031000  1.0 0.8841860996
Zn  Zn2  1  0.87380000  0.05367000  0.21969000  1.0 0.8841860996
Zn  Zn3  1  0.37380000  0.44633000  0.71969000  1.0 0.8841860996
Zn  Zn4  1  0.37380000  0.55367000  0.28031000  1.0 0.8841860996
H  H1  1  0.98100000  0.70600000  0.72700000  1.0 0.3097427146
H  H2  1  0.98100000  0.29400000  0.27300000  1.0 0.3097427146
H  H3  1  0.48100000  0.20600000  0.77300000  1.0 0.3097427146
H  H4  1  0.48100000  0.79400000  0.22700000  1.0 0.3097427146
H  H5  1  0.80800000  0.66900000  0.72100000  1.0 0.3205827729
H  H6  1  0.80800000  0.33100000  0.27900000  1.0 0.3205827729
H  H7  1  0.30800000  0.16900000  0.77900000  1.0 0.3205827729
H  H8  1  0.30800000  0.83100000  0.22100000  1.0 0.3205827729
H  H9  1  0.87150000  0.24060000  0.63310000  1.0 0.15998212
H  H10  1  0.87150000  0.75940000  0.36690000  1.0 0.15998212
H  H11  1  0.37150000  0.74060000  0.86690000  1.0 0.15998212
H  H12  1  0.37150000  0.25940000  0.13310000  1.0 0.15998212
H  H13  1  0.87270000  0.03190000  0.65270000  1.0 0.15998212
H  H14  1  0.87270000  0.96810000  0.34730000  1.0 0.15998212
H  H15  1  0.37270000  0.53190000  0.84730000  1.0 0.15998212
H  H16  1  0.37270000  0.46810000  0.15270000  1.0 0.15998212
H  H17  1  0.92680000  0.36380000  0.80270000  1.0 0.1393843101
H  H18  1  0.92680000  0.63620000  0.19730000  1.0 0.1393843101
H  H19  1  0.42680000  0.86380000  0.69730000  1.0 0.1393843101
H  H20  1  0.42680000  0.13620000  0.30270000  1.0 0.1393843101
C  C1  1  0.04980000  0.19740000  0.69790000  1.0 0.6752765731
C  C2  1  0.04980000  0.80260000  0.30210000  1.0 0.6752765731
C  C3  1  0.54980000  0.69740000  0.80210000  1.0 0.6752765731
C  C4  1  0.54980000  0.30260000  0.19790000  1.0 0.6752765731
C  C5  1  0.87240000  0.16050000  0.66512000  1.0 -0.5307969991
C  C6  1  0.87240000  0.83950000  0.33488000  1.0 -0.5307969991
C  C7  1  0.37240000  0.66050000  0.83488000  1.0 -0.5307969991
C  C8  1  0.37240000  0.33950000  0.16512000  1.0 -0.5307969991
C  C9  1  0.70380000  0.19430000  0.69690000  1.0 0.6688642756
C  C10  1  0.70380000  0.80570000  0.30310000  1.0 0.6688642756
C  C11  1  0.20380000  0.69430000  0.80310000  1.0 0.6688642756
C  C12  1  0.20380000  0.30570000  0.19690000  1.0 0.6688642756
C  C13  1  0.86950000  0.44460000  0.87905000  1.0 -0.0490106018
C  C14  1  0.86950000  0.55540000  0.12095000  1.0 -0.0490106018
C  C15  1  0.36950000  0.94460000  0.62095000  1.0 -0.0490106018
C  C16  1  0.36950000  0.05540000  0.37905000  1.0 -0.0490106018
C  C17  1  0.89080000  0.32130000  0.83709000  1.0 -0.0238502554
C  C18  1  0.89080000  0.67870000  0.16291000  1.0 -0.0276498386
C  C19  1  0.39080000  0.82130000  0.66291000  1.0 -0.0276498386
C  C20  1  0.39080000  0.17870000  0.33709000  1.0 -0.0276498386
C  C21  1  0.80660000  0.07370000  0.89581000  1.0 0.0795236544
C  C22  1  0.80660000  0.92630000  0.10419000  1.0 0.0795236544
C  C23  1  0.30660000  0.57370000  0.60419000  1.0 0.0795236544
C  C24  1  0.30660000  0.42630000  0.39581000  1.0 0.0795236544
C  C25  1  0.78530000  0.19700000  0.93777000  1.0 -0.0276498386
C  C26  1  0.78530000  0.80300000  0.06223000  1.0 -0.0276498386
C  C27  1  0.28530000  0.69700000  0.56223000  1.0 -0.0276498386
C  C28  1  0.28530000  0.30300000  0.43777000  1.0 -0.0276498386
C  C29  1  0.81680000  0.38240000  0.92939000  1.0 0.1342035601
C  C30  1  0.81680000  0.61760000  0.07061000  1.0 0.1342035601
C  C31  1  0.31680000  0.88240000  0.57061000  1.0 0.1342035601
C  C32  1  0.31680000  0.11760000  0.42939000  1.0 0.1342035601
C  C33  1  0.80000000  0.51800000  0.97450000  1.0 -0.0490106018
C  C34  1  0.80000000  0.48200000  0.02550000  1.0 -0.0490106018
C  C35  1  0.30000000  0.01800000  0.52550000  1.0 -0.0490106018
C  C36  1  0.30000000  0.98200000  0.47450000  1.0 -0.0490106018
C  C37  1  0.92350000  0.08020000  0.89525000  1.0 0.0795236544
C  C38  1  0.92350000  0.91980000  0.10475000  1.0 0.0738162826
C  C39  1  0.42350000  0.58020000  0.60475000  1.0 0.0738162826
C  C40  1  0.42350000  0.41980000  0.39525000  1.0 0.0738162826
C  C41  1  0.92600000  0.19750000  0.93910000  1.0 -0.0036079487
C  C42  1  0.92600000  0.80250000  0.06090000  1.0 0.0008527022
C  C43  1  0.42600000  0.69750000  0.56090000  1.0 -0.0036079487
C  C44  1  0.42600000  0.30250000  0.43910000  1.0 -0.0036079487
C  C45  1  0.91200000  0.38510000  0.93060000  1.0 0.1186553457
C  C46  1  0.91200000  0.61490000  0.06940000  1.0 0.1186553457
C  C47  1  0.41200000  0.88510000  0.56940000  1.0 0.1186553457
C  C48  1  0.41200000  0.11490000  0.43060000  1.0 0.1186553457
C  C49  1  0.91100000  0.52150000  0.97350000  1.0 -0.0490106018
C  C50  1  0.91100000  0.47850000  0.02650000  1.0 -0.0490106018
C  C51  1  0.41100000  0.02150000  0.52650000  1.0 -0.0490106018
C  C52  1  0.41100000  0.97850000  0.47350000  1.0 -0.0490106018
N  N1  1  0.85930000  0.13590000  0.84547000  1.0 -0.165395592
N  N2  1  0.85930000  0.86410000  0.15453000  1.0 -0.1637971147
N  N3  1  0.35930000  0.63590000  0.65453000  1.0 -0.1637971147
N  N4  1  0.35930000  0.36410000  0.34547000  1.0 -0.1637971147
O  O1  1  0.07060000  0.10470000  0.74100000  1.0 -0.5663272484
O  O2  1  0.07060000  0.89530000  0.25900000  1.0 -0.5663272484
O  O3  1  0.57060000  0.60470000  0.75900000  1.0 -0.5663272484
O  O4  1  0.57060000  0.39530000  0.24100000  1.0 -0.5663272484
O  O5  1  0.16120000  0.30840000  0.67960000  1.0 -0.5307969991
O  O6  1  0.16120000  0.69160000  0.32040000  1.0 -0.5307969991
O  O7  1  0.66120000  0.80840000  0.82040000  1.0 -0.5307969991
O  O8  1  0.66120000  0.19160000  0.17960000  1.0 -0.5307969991
O  O9  1  0.67790000  0.10800000  0.73950000  1.0 -0.5307969991
O  O10  1  0.67790000  0.89200000  0.26050000  1.0 -0.5307969991
O  O11  1  0.17790000  0.60800000  0.76050000  1.0 -0.5307969991
O  O12  1  0.17790000  0.39200000  0.23950000  1.0 -0.5307969991
O  O13  1  0.59150000  0.31450000  0.67960000  1.0 -0.5417109771
O  O14  1  0.59150000  0.68550000  0.32040000  1.0 -0.5417109771
O  O15  1  0.09150000  0.81450000  0.82040000  1.0 -0.5417109771
O  O16  1  0.09150000  0.18550000  0.17960000  1.0 -0.5417109771
O  O17  1  0.88350000  0.75380000  0.71590000  1.0 -0.6571263417
O  O18  1  0.88350000  0.24620000  0.28410000  1.0 -0.6571263417
O  O19  1  0.38350000  0.25380000  0.78410000  1.0 -0.6571263417
O  O20  1  0.38350000  0.74620000  0.21590000  1.0 -0.6571263417
