# DDEC6 charges by PACMAN v1.1 (https://github.com/mtap-research/PACMAN-charge/)
data_KEYKOS_ASR_pacman
_symmetry_space_group_name_H-M   'P 1'
_cell_length_a   16.40960000
_cell_length_b   16.40960000
_cell_length_c   16.40960000
_cell_angle_alpha   109.99600000
_cell_angle_beta   109.99600000
_cell_angle_gamma   108.42600000
_symmetry_Int_Tables_number   1
_chemical_formula_structural   CuH9(C7O2)2
_chemical_formula_sum   'Cu8 H72 C112 O32'
_cell_volume   3400.69483442
_cell_formula_units_Z   8
loop_
 _symmetry_equiv_pos_site_id
 _symmetry_equiv_pos_as_xyz
  1  'x, y, z'
loop_
 _atom_site_type_symbol
 _atom_site_label
 _atom_site_symmetry_multiplicity
 _atom_site_fract_x
 _atom_site_fract_y
 _atom_site_fract_z
 _atom_site_occupancy
 _atom_site_charge
Cu  Cu1  1  0.91735000  0.48553000  0.00000000  1.0 0.7723705141
Cu  Cu2  1  0.48553000  0.91735000  0.00000000  1.0 0.7723705141
Cu  Cu3  1  0.91735000  0.91735000  0.43182000  1.0 0.7723705141
Cu  Cu4  1  0.48553000  0.48553000  0.56818000  1.0 0.7723705141
Cu  Cu5  1  0.08265000  0.08265000  0.56818000  1.0 0.7723705141
Cu  Cu6  1  0.51447000  0.51447000  0.43182000  1.0 0.7723705141
Cu  Cu7  1  0.08265000  0.51447000  0.00000000  1.0 0.7723705141
Cu  Cu8  1  0.51447000  0.08265000  0.00000000  1.0 0.7723705141
H  H1  1  0.27335000  0.80853000  0.25024000  1.0 0.1386426321
H  H2  1  0.31772000  0.88484000  0.63190000  1.0 0.0784598528
H  H3  1  0.26472000  0.91916000  0.55908000  1.0 0.0784598528
H  H4  1  0.38200000  0.98457000  0.63671000  1.0 0.0784598528
H  H5  1  0.55829000  0.02311000  0.74976000  1.0 0.1386426321
H  H6  1  0.25294000  0.68582000  0.36810000  1.0 0.0784598528
H  H7  1  0.36008000  0.70564000  0.44092000  1.0 0.0784598528
H  H8  1  0.34786000  0.74529000  0.36329000  1.0 0.0784598528
H  H9  1  0.02311000  0.27335000  0.46482000  1.0 0.1386426321
H  H10  1  0.68582000  0.31772000  0.43288000  1.0 0.0784598528
H  H11  1  0.70564000  0.26472000  0.34556000  1.0 0.0784598528
H  H12  1  0.74529000  0.38200000  0.39743000  1.0 0.0784598528
H  H13  1  0.80853000  0.55829000  0.53518000  1.0 0.1386426321
H  H14  1  0.88484000  0.25294000  0.56712000  1.0 0.0784598528
H  H15  1  0.91916000  0.36008000  0.65444000  1.0 0.0784598528
H  H16  1  0.98457000  0.34786000  0.60257000  1.0 0.0784598528
H  H17  1  0.72665000  0.97689000  0.53518000  1.0 0.1386426321
H  H18  1  0.68228000  0.31418000  0.56712000  1.0 0.0784598528
H  H19  1  0.73528000  0.29436000  0.65444000  1.0 0.0784598528
H  H20  1  0.61800000  0.25471000  0.60257000  1.0 0.0784598528
H  H21  1  0.44171000  0.19147000  0.46482000  1.0 0.1386426321
H  H22  1  0.74706000  0.11516000  0.43288000  1.0 0.0784598528
H  H23  1  0.63992000  0.08084000  0.34556000  1.0 0.0784598528
H  H24  1  0.65214000  0.01543000  0.39743000  1.0 0.0784598528
H  H25  1  0.97689000  0.44171000  0.25024000  1.0 0.1386426321
H  H26  1  0.31418000  0.74706000  0.63190000  1.0 0.0784598528
H  H27  1  0.29436000  0.63992000  0.55908000  1.0 0.0784598528
H  H28  1  0.25471000  0.65214000  0.63671000  1.0 0.0784598528
H  H29  1  0.19147000  0.72665000  0.74976000  1.0 0.1386426321
H  H30  1  0.11516000  0.68228000  0.36810000  1.0 0.0784598528
H  H31  1  0.08084000  0.73528000  0.44092000  1.0 0.0784598528
H  H32  1  0.01543000  0.61800000  0.36329000  1.0 0.0784598528
H  H33  1  0.72665000  0.19147000  0.74976000  1.0 0.1386426321
H  H34  1  0.68228000  0.11516000  0.36810000  1.0 0.0784598528
H  H35  1  0.73528000  0.08084000  0.44092000  1.0 0.0784598528
H  H36  1  0.61800000  0.01543000  0.36329000  1.0 0.0784598528
H  H37  1  0.44171000  0.97689000  0.25024000  1.0 0.1386426321
H  H38  1  0.74706000  0.31418000  0.63190000  1.0 0.0784598528
H  H39  1  0.63992000  0.29436000  0.55908000  1.0 0.0784598528
H  H40  1  0.65214000  0.25471000  0.63671000  1.0 0.0784598528
H  H41  1  0.97689000  0.72665000  0.53518000  1.0 0.1386426321
H  H42  1  0.31418000  0.68228000  0.56712000  1.0 0.0784598528
H  H43  1  0.29436000  0.73528000  0.65444000  1.0 0.0784598528
H  H44  1  0.25471000  0.61800000  0.60257000  1.0 0.0784598528
H  H45  1  0.19147000  0.44171000  0.46482000  1.0 0.1386426321
H  H46  1  0.11516000  0.74706000  0.43288000  1.0 0.0784598528
H  H47  1  0.08084000  0.63992000  0.34556000  1.0 0.0784598528
H  H48  1  0.01543000  0.65214000  0.39743000  1.0 0.0784598528
H  H49  1  0.27335000  0.02311000  0.46482000  1.0 0.1386426321
H  H50  1  0.31772000  0.68582000  0.43288000  1.0 0.0784598528
H  H51  1  0.26472000  0.70564000  0.34556000  1.0 0.0784598528
H  H52  1  0.38200000  0.74529000  0.39743000  1.0 0.0784598528
H  H53  1  0.55829000  0.80853000  0.53518000  1.0 0.1386426321
H  H54  1  0.25294000  0.88484000  0.56712000  1.0 0.0784598528
H  H55  1  0.36008000  0.91916000  0.65444000  1.0 0.0784598528
H  H56  1  0.34786000  0.98457000  0.60257000  1.0 0.0784598528
H  H57  1  0.02311000  0.55829000  0.74976000  1.0 0.1386426321
H  H58  1  0.68582000  0.25294000  0.36810000  1.0 0.0784598528
H  H59  1  0.70564000  0.36008000  0.44092000  1.0 0.0784598528
H  H60  1  0.74529000  0.34786000  0.36329000  1.0 0.0784598528
H  H61  1  0.80853000  0.27335000  0.25024000  1.0 0.1386426321
H  H62  1  0.88484000  0.31772000  0.63190000  1.0 0.0784598528
H  H63  1  0.91916000  0.26472000  0.55908000  1.0 0.0784598528
H  H64  1  0.98457000  0.38200000  0.63671000  1.0 0.0784598528
H  H65  1  0.01226000  0.77997000  0.23229000  1.0 0.1386426321
H  H66  1  0.54768000  0.77997000  0.76771000  1.0 0.1386426321
H  H67  1  0.77997000  0.01226000  0.23229000  1.0 0.1386426321
H  H68  1  0.77997000  0.54768000  0.76771000  1.0 0.1386426321
H  H69  1  0.98774000  0.22003000  0.76771000  1.0 0.1386426321
H  H70  1  0.45232000  0.22003000  0.23229000  1.0 0.1386426321
H  H71  1  0.22003000  0.45232000  0.23229000  1.0 0.1386426321
H  H72  1  0.22003000  0.98774000  0.76771000  1.0 0.1386426321
C  C1  1  0.08120000  0.67720000  0.13640000  1.0 0.5550708143
C  C2  1  0.13470000  0.78080000  0.22630000  1.0 -0.0110412694
C  C3  1  0.23830000  0.83350000  0.27780000  1.0 -0.1429065031
C  C4  1  0.79669000  0.48213000  0.08100000  1.0 -0.0387107058
C  C5  1  0.54080000  0.94480000  0.86360000  1.0 0.5550708143
C  C6  1  0.55450000  0.90840000  0.77370000  1.0 -0.0110412694
C  C7  1  0.55570000  0.96050000  0.72220000  1.0 -0.1429065031
C  C8  1  0.40113000  0.71569000  0.91900000  1.0 -0.0387107058
C  C9  1  0.94480000  0.08120000  0.40400000  1.0 0.5550708143
C  C10  1  0.90840000  0.13470000  0.35390000  1.0 -0.0110412694
C  C11  1  0.96050000  0.23830000  0.40480000  1.0 -0.1429065031
C  C12  1  0.71569000  0.79669000  0.31456000  1.0 -0.0387107058
C  C13  1  0.67720000  0.54080000  0.59600000  1.0 0.5550708143
C  C14  1  0.78080000  0.55450000  0.64610000  1.0 -0.0110412694
C  C15  1  0.83350000  0.55570000  0.59520000  1.0 -0.1429065031
C  C16  1  0.48213000  0.40113000  0.68544000  1.0 -0.0387107058
C  C17  1  0.91880000  0.05520000  0.59600000  1.0 0.5550708143
C  C18  1  0.86530000  0.09160000  0.64610000  1.0 -0.0110412694
C  C19  1  0.76170000  0.03950000  0.59520000  1.0 -0.1429065031
C  C20  1  0.20331000  0.28431000  0.68544000  1.0 -0.0387107058
C  C21  1  0.45920000  0.32280000  0.40400000  1.0 0.5550708143
C  C22  1  0.44550000  0.21920000  0.35390000  1.0 -0.0110412694
C  C23  1  0.44430000  0.16650000  0.40480000  1.0 -0.1429065031
C  C24  1  0.59887000  0.51787000  0.31456000  1.0 -0.0387107058
C  C25  1  0.05520000  0.45920000  0.13640000  1.0 0.5550708143
C  C26  1  0.09160000  0.44550000  0.22630000  1.0 -0.0110412694
C  C27  1  0.03950000  0.44430000  0.27780000  1.0 -0.1429065031
C  C28  1  0.28431000  0.59887000  0.08100000  1.0 -0.0387107058
C  C29  1  0.32280000  0.91880000  0.86360000  1.0 0.5550708143
C  C30  1  0.21920000  0.86530000  0.77370000  1.0 -0.0110412694
C  C31  1  0.16650000  0.76170000  0.72220000  1.0 -0.1429065031
C  C32  1  0.51787000  0.20331000  0.91900000  1.0 -0.0387107058
C  C33  1  0.91880000  0.32280000  0.86360000  1.0 0.5550708143
C  C34  1  0.86530000  0.21920000  0.77370000  1.0 -0.0110412694
C  C35  1  0.76170000  0.16650000  0.72220000  1.0 -0.1429065031
C  C36  1  0.20331000  0.51787000  0.91900000  1.0 -0.0387107058
C  C37  1  0.45920000  0.05520000  0.13640000  1.0 0.5550708143
C  C38  1  0.44550000  0.09160000  0.22630000  1.0 -0.0110412694
C  C39  1  0.44430000  0.03950000  0.27780000  1.0 -0.1429065031
C  C40  1  0.59887000  0.28431000  0.08100000  1.0 -0.0387107058
C  C41  1  0.05520000  0.91880000  0.59600000  1.0 0.554571685
C  C42  1  0.09160000  0.86530000  0.64610000  1.0 -0.0110412694
C  C43  1  0.03950000  0.76170000  0.59520000  1.0 -0.1429065031
C  C44  1  0.28431000  0.20331000  0.68544000  1.0 -0.0387107058
C  C45  1  0.32280000  0.45920000  0.40400000  1.0 0.5550708143
C  C46  1  0.21920000  0.44550000  0.35390000  1.0 -0.0110412694
C  C47  1  0.16650000  0.44430000  0.40480000  1.0 -0.1429065031
C  C48  1  0.51787000  0.59887000  0.31456000  1.0 -0.0387107058
C  C49  1  0.08120000  0.94480000  0.40400000  1.0 0.5550708143
C  C50  1  0.13470000  0.90840000  0.35390000  1.0 -0.0110412694
C  C51  1  0.23830000  0.96050000  0.40480000  1.0 -0.1429065031
C  C52  1  0.79669000  0.71569000  0.31456000  1.0 -0.0387107058
C  C53  1  0.54080000  0.67720000  0.59600000  1.0 0.5550708143
C  C54  1  0.55450000  0.78080000  0.64610000  1.0 -0.0110412694
C  C55  1  0.55570000  0.83350000  0.59520000  1.0 -0.1429065031
C  C56  1  0.40113000  0.48213000  0.68544000  1.0 -0.0387107058
C  C57  1  0.94480000  0.54080000  0.86360000  1.0 0.5550708143
C  C58  1  0.90840000  0.55450000  0.77370000  1.0 -0.0110412694
C  C59  1  0.96050000  0.55570000  0.72220000  1.0 -0.1429065031
C  C60  1  0.71569000  0.40113000  0.91900000  1.0 -0.0387107058
C  C61  1  0.67720000  0.08120000  0.13640000  1.0 0.5550708143
C  C62  1  0.78080000  0.13470000  0.22630000  1.0 -0.0110412694
C  C63  1  0.83350000  0.23830000  0.27780000  1.0 -0.1429065031
C  C64  1  0.48213000  0.79669000  0.08100000  1.0 -0.0387107058
C  C65  1  0.77680000  0.45600000  0.00000000  1.0 -0.0387107058
C  C66  1  0.45600000  0.77680000  0.00000000  1.0 -0.0387107058
C  C67  1  0.77680000  0.77680000  0.32080000  1.0 -0.0387107058
C  C68  1  0.45600000  0.45600000  0.67920000  1.0 -0.0387107058
C  C69  1  0.22320000  0.22320000  0.67920000  1.0 -0.0387107058
C  C70  1  0.54400000  0.54400000  0.32080000  1.0 -0.0387107058
C  C71  1  0.22320000  0.54400000  0.00000000  1.0 -0.0387107058
C  C72  1  0.54400000  0.22320000  0.00000000  1.0 -0.0387107058
C  C73  1  0.39960000  0.96360000  0.43600000  1.0 -0.0110412694
C  C74  1  0.29110000  0.92210000  0.36900000  1.0 0.060540795
C  C75  1  0.08280000  0.81720000  0.26560000  1.0 -0.1089575601
C  C76  1  0.52760000  0.96360000  0.56400000  1.0 -0.0110412694
C  C77  1  0.55310000  0.92210000  0.63100000  1.0 0.060540795
C  C78  1  0.55160000  0.81720000  0.73440000  1.0 -0.1089575601
C  C79  1  0.96360000  0.39960000  0.43600000  1.0 -0.0110412694
C  C80  1  0.92210000  0.29110000  0.36900000  1.0 0.060540795
C  C81  1  0.81720000  0.08280000  0.26560000  1.0 -0.1089575601
C  C82  1  0.96360000  0.52760000  0.56400000  1.0 -0.0110412694
C  C83  1  0.92210000  0.55310000  0.63100000  1.0 0.060540795
C  C84  1  0.81720000  0.55160000  0.73440000  1.0 -0.1089575601
C  C85  1  0.60040000  0.03640000  0.56400000  1.0 -0.0110412694
C  C86  1  0.70890000  0.07790000  0.63100000  1.0 0.060540795
C  C87  1  0.91720000  0.18280000  0.73440000  1.0 -0.1089575601
C  C88  1  0.47240000  0.03640000  0.43600000  1.0 -0.0110412694
C  C89  1  0.44690000  0.07790000  0.36900000  1.0 0.060540795
C  C90  1  0.44840000  0.18280000  0.26560000  1.0 -0.1089575601
C  C91  1  0.03640000  0.47240000  0.43600000  1.0 -0.0153813468
C  C92  1  0.07790000  0.44690000  0.36900000  1.0 0.060540795
C  C93  1  0.18280000  0.44840000  0.26560000  1.0 -0.1089575601
C  C94  1  0.03640000  0.60040000  0.56400000  1.0 -0.0110412694
C  C95  1  0.07790000  0.70890000  0.63100000  1.0 0.060540795
C  C96  1  0.18280000  0.91720000  0.73440000  1.0 -0.1089575601
C  C97  1  0.42640000  0.92640000  0.50000000  1.0 -0.0110412694
C  C98  1  0.34720000  0.84720000  0.50000000  1.0 0.0977520762
C  C99  1  0.92640000  0.42640000  0.50000000  1.0 -0.0110412694
C  C100  1  0.84720000  0.34720000  0.50000000  1.0 0.0977520762
C  C101  1  0.57360000  0.07360000  0.50000000  1.0 -0.0110412694
C  C102  1  0.65280000  0.15280000  0.50000000  1.0 0.0977520762
C  C103  1  0.07360000  0.57360000  0.50000000  1.0 -0.0110412694
C  C104  1  0.15280000  0.65280000  0.50000000  1.0 0.0977520762
C  C105  1  0.32500000  0.91680000  0.59180000  1.0 -0.365565698
C  C106  1  0.32500000  0.73320000  0.40820000  1.0 -0.365565698
C  C107  1  0.73320000  0.32500000  0.40820000  1.0 -0.365565698
C  C108  1  0.91680000  0.32500000  0.59180000  1.0 -0.365565698
C  C109  1  0.67500000  0.26680000  0.59180000  1.0 -0.365565698
C  C110  1  0.67500000  0.08320000  0.40820000  1.0 -0.365565698
C  C111  1  0.26680000  0.67500000  0.59180000  1.0 -0.365565698
C  C112  1  0.08320000  0.67500000  0.40820000  1.0 -0.365565698
O  O1  1  0.13268000  0.65088000  0.10484000  1.0 -0.4907245658
O  O2  1  0.98981000  0.62608000  0.10297000  1.0 -0.4907245658
O  O3  1  0.54604000  0.02784000  0.89516000  1.0 -0.4907245658
O  O4  1  0.52311000  0.88684000  0.89703000  1.0 -0.4907245658
O  O5  1  0.02784000  0.13268000  0.48180000  1.0 -0.4907245658
O  O6  1  0.88684000  0.98981000  0.36373000  1.0 -0.4907245658
O  O7  1  0.65088000  0.54604000  0.51820000  1.0 -0.4907245658
O  O8  1  0.62608000  0.52311000  0.63627000  1.0 -0.4907245658
O  O9  1  0.86732000  0.97216000  0.51820000  1.0 -0.4907245658
O  O10  1  0.01019000  0.11316000  0.63627000  1.0 -0.4907245658
O  O11  1  0.45396000  0.34912000  0.48180000  1.0 -0.4907245658
O  O12  1  0.47689000  0.37392000  0.36373000  1.0 -0.4907245658
O  O13  1  0.97216000  0.45396000  0.10484000  1.0 -0.4907245658
O  O14  1  0.11316000  0.47689000  0.10297000  1.0 -0.4907245658
O  O15  1  0.34912000  0.86732000  0.89516000  1.0 -0.4907245658
O  O16  1  0.37392000  0.01019000  0.89703000  1.0 -0.4907245658
O  O17  1  0.86732000  0.34912000  0.89516000  1.0 -0.4907245658
O  O18  1  0.01019000  0.37392000  0.89703000  1.0 -0.4907245658
O  O19  1  0.45396000  0.97216000  0.10484000  1.0 -0.4907245658
O  O20  1  0.47689000  0.11316000  0.10297000  1.0 -0.4907245658
O  O21  1  0.97216000  0.86732000  0.51820000  1.0 -0.4907245658
O  O22  1  0.11316000  0.01019000  0.63627000  1.0 -0.4907245658
O  O23  1  0.34912000  0.45396000  0.48180000  1.0 -0.4907245658
O  O24  1  0.37392000  0.47689000  0.36373000  1.0 -0.4907245658
O  O25  1  0.13268000  0.02784000  0.48180000  1.0 -0.4907245658
O  O26  1  0.98981000  0.88684000  0.36373000  1.0 -0.4907245658
O  O27  1  0.54604000  0.65088000  0.51820000  1.0 -0.4907245658
O  O28  1  0.52311000  0.62608000  0.63627000  1.0 -0.4907245658
O  O29  1  0.02784000  0.54604000  0.89516000  1.0 -0.4907245658
O  O30  1  0.88684000  0.52311000  0.89703000  1.0 -0.4907245658
O  O31  1  0.65088000  0.13268000  0.10484000  1.0 -0.4907245658
O  O32  1  0.62608000  0.98981000  0.10297000  1.0 -0.4907245658
