# DDEC6 charges by PACMAN v1.1 (https://github.com/mtap-research/PACMAN-charge/)
data_KEYKIM_ASR_pacman
_symmetry_space_group_name_H-M   'P 1'
_cell_length_a   16.38450000
_cell_length_b   16.38450000
_cell_length_c   16.38450000
_cell_angle_alpha   109.16800000
_cell_angle_beta   109.16800000
_cell_angle_gamma   110.08000000
_symmetry_Int_Tables_number   1
_chemical_formula_structural   Cu2H26C27O8
_chemical_formula_sum   'Cu8 H104 C108 O32'
_cell_volume   3385.61505279
_cell_formula_units_Z   4
loop_
 _symmetry_equiv_pos_site_id
 _symmetry_equiv_pos_as_xyz
  1  'x, y, z'
loop_
 _atom_site_type_symbol
 _atom_site_label
 _atom_site_symmetry_multiplicity
 _atom_site_fract_x
 _atom_site_fract_y
 _atom_site_fract_z
 _atom_site_occupancy
 _atom_site_charge
Cu  Cu1  1  0.91459000  0.48175000  0.00000000  1.0 0.8550957932
Cu  Cu2  1  0.48175000  0.91459000  0.00000000  1.0 0.8538872693
Cu  Cu3  1  0.91459000  0.91459000  0.43284000  1.0 0.8538872693
Cu  Cu4  1  0.48175000  0.48175000  0.56716000  1.0 0.8550957932
Cu  Cu5  1  0.51825000  0.51825000  0.43284000  1.0 0.8538872693
Cu  Cu6  1  0.08541000  0.08541000  0.56716000  1.0 0.8538872693
Cu  Cu7  1  0.51825000  0.08541000  0.00000000  1.0 0.8538872693
Cu  Cu8  1  0.08541000  0.51825000  0.00000000  1.0 0.8538872693
H  H1  1  0.98022000  0.44404000  0.25196000  1.0 0.1416310612
H  H2  1  0.02722000  0.68149000  0.39935000  1.0 0.081673864
H  H3  1  0.12620000  0.71979000  0.39047000  1.0 0.1167534633
H  H4  1  0.04708000  0.60247000  0.33301000  1.0 0.0867347919
H  H5  1  0.19142000  0.65280000  0.48150000  1.0 0.0662924691
H  H6  1  0.16391000  0.72441000  0.54522000  1.0 0.0867347919
H  H7  1  0.19208000  0.72826000  0.74804000  1.0 0.1416310612
H  H8  1  0.28214000  0.62787000  0.60065000  1.0 0.081673864
H  H9  1  0.32932000  0.73573000  0.60953000  1.0 0.1167534633
H  H10  1  0.26946000  0.71407000  0.66699000  1.0 0.0867347919
H  H11  1  0.17130000  0.70992000  0.51850000  1.0 0.0662924691
H  H12  1  0.17919000  0.61869000  0.45478000  1.0 0.0867347919
H  H13  1  0.72826000  0.98022000  0.53618000  1.0 0.1416310612
H  H14  1  0.62787000  0.02722000  0.34573000  1.0 0.081673864
H  H15  1  0.73573000  0.12620000  0.40641000  1.0 0.1167534633
H  H16  1  0.71407000  0.04708000  0.44461000  1.0 0.0867347919
H  H17  1  0.70992000  0.19142000  0.53862000  1.0 0.0662924691
H  H18  1  0.61869000  0.16391000  0.43950000  1.0 0.0867347919
H  H19  1  0.44404000  0.19208000  0.46382000  1.0 0.1416310612
H  H20  1  0.68149000  0.28214000  0.65427000  1.0 0.081673864
H  H21  1  0.71979000  0.32932000  0.59359000  1.0 0.1167534633
H  H22  1  0.60247000  0.26946000  0.55539000  1.0 0.0867347919
H  H23  1  0.65280000  0.17130000  0.46138000  1.0 0.0662924691
H  H24  1  0.72441000  0.17919000  0.56050000  1.0 0.0867347919
H  H25  1  0.80792000  0.55596000  0.53618000  1.0 0.1416310612
H  H26  1  0.71786000  0.31851000  0.34573000  1.0 0.081673864
H  H27  1  0.67068000  0.28021000  0.40641000  1.0 0.1167534633
H  H28  1  0.73054000  0.39753000  0.44461000  1.0 0.0867347919
H  H29  1  0.82870000  0.34720000  0.53862000  1.0 0.0662924691
H  H30  1  0.82081000  0.27559000  0.43950000  1.0 0.0867347919
H  H31  1  0.01978000  0.27174000  0.46382000  1.0 0.1416310612
H  H32  1  0.97278000  0.37213000  0.65427000  1.0 0.081673864
H  H33  1  0.87380000  0.26427000  0.59359000  1.0 0.1167534633
H  H34  1  0.95292000  0.28593000  0.55539000  1.0 0.0867347919
H  H35  1  0.80858000  0.29008000  0.46138000  1.0 0.0662924691
H  H36  1  0.83609000  0.38131000  0.56050000  1.0 0.0867347919
H  H37  1  0.55596000  0.01978000  0.74804000  1.0 0.1416310612
H  H38  1  0.31851000  0.97278000  0.60065000  1.0 0.081673864
H  H39  1  0.28021000  0.87380000  0.60953000  1.0 0.1167534633
H  H40  1  0.39753000  0.95292000  0.66699000  1.0 0.0867347919
H  H41  1  0.34720000  0.80858000  0.51850000  1.0 0.0662924691
H  H42  1  0.27559000  0.83609000  0.45478000  1.0 0.0867347919
H  H43  1  0.27174000  0.80792000  0.25196000  1.0 0.1416310612
H  H44  1  0.37213000  0.71786000  0.39935000  1.0 0.081673864
H  H45  1  0.26427000  0.67068000  0.39047000  1.0 0.1167534633
H  H46  1  0.28593000  0.73054000  0.33301000  1.0 0.0867347919
H  H47  1  0.29008000  0.82870000  0.48150000  1.0 0.0662924691
H  H48  1  0.38131000  0.82081000  0.54522000  1.0 0.0867347919
H  H49  1  0.01978000  0.55596000  0.74804000  1.0 0.1416310612
H  H50  1  0.97278000  0.31851000  0.60065000  1.0 0.081673864
H  H51  1  0.87380000  0.28021000  0.60953000  1.0 0.1167534633
H  H52  1  0.95292000  0.39753000  0.66699000  1.0 0.0867347919
H  H53  1  0.80858000  0.34720000  0.51850000  1.0 0.0662924691
H  H54  1  0.83609000  0.27559000  0.45478000  1.0 0.0867347919
H  H55  1  0.80792000  0.27174000  0.25196000  1.0 0.1416310612
H  H56  1  0.71786000  0.37213000  0.39935000  1.0 0.081673864
H  H57  1  0.67068000  0.26427000  0.39047000  1.0 0.1167534633
H  H58  1  0.73054000  0.28593000  0.33301000  1.0 0.0867347919
H  H59  1  0.82870000  0.29008000  0.48150000  1.0 0.0662924691
H  H60  1  0.82081000  0.38131000  0.54522000  1.0 0.0867347919
H  H61  1  0.27174000  0.01978000  0.46382000  1.0 0.1416310612
H  H62  1  0.37213000  0.97278000  0.65427000  1.0 0.081673864
H  H63  1  0.26427000  0.87380000  0.59359000  1.0 0.1167534633
H  H64  1  0.28593000  0.95292000  0.55539000  1.0 0.0867347919
H  H65  1  0.29008000  0.80858000  0.46138000  1.0 0.0662924691
H  H66  1  0.38131000  0.83609000  0.56050000  1.0 0.0867347919
H  H67  1  0.55596000  0.80792000  0.53618000  1.0 0.1416310612
H  H68  1  0.31851000  0.71786000  0.34573000  1.0 0.081673864
H  H69  1  0.28021000  0.67068000  0.40641000  1.0 0.1167534633
H  H70  1  0.39753000  0.73054000  0.44461000  1.0 0.0867347919
H  H71  1  0.34720000  0.82870000  0.53862000  1.0 0.0662924691
H  H72  1  0.27559000  0.82081000  0.43950000  1.0 0.0867347919
H  H73  1  0.19208000  0.44404000  0.46382000  1.0 0.1416310612
H  H74  1  0.28214000  0.68149000  0.65427000  1.0 0.081673864
H  H75  1  0.32932000  0.71979000  0.59359000  1.0 0.1167534633
H  H76  1  0.26946000  0.60247000  0.55539000  1.0 0.0867347919
H  H77  1  0.17130000  0.65280000  0.46138000  1.0 0.0662924691
H  H78  1  0.17919000  0.72441000  0.56050000  1.0 0.0867347919
H  H79  1  0.98022000  0.72826000  0.53618000  1.0 0.1416310612
H  H80  1  0.02722000  0.62787000  0.34573000  1.0 0.081673864
H  H81  1  0.12620000  0.73573000  0.40641000  1.0 0.1167534633
H  H82  1  0.04708000  0.71407000  0.44461000  1.0 0.0867347919
H  H83  1  0.19142000  0.70992000  0.53862000  1.0 0.0662924691
H  H84  1  0.16391000  0.61869000  0.43950000  1.0 0.0867347919
H  H85  1  0.44404000  0.98022000  0.25196000  1.0 0.1416310612
H  H86  1  0.68149000  0.02722000  0.39935000  1.0 0.081673864
H  H87  1  0.71979000  0.12620000  0.39047000  1.0 0.1167534633
H  H88  1  0.60247000  0.04708000  0.33301000  1.0 0.0867347919
H  H89  1  0.65280000  0.19142000  0.48150000  1.0 0.0662924691
H  H90  1  0.72441000  0.16391000  0.54522000  1.0 0.0867347919
H  H91  1  0.72826000  0.19208000  0.74804000  1.0 0.1416310612
H  H92  1  0.62787000  0.28214000  0.60065000  1.0 0.081673864
H  H93  1  0.73573000  0.32932000  0.60953000  1.0 0.1167534633
H  H94  1  0.71407000  0.26946000  0.66699000  1.0 0.0867347919
H  H95  1  0.70992000  0.17130000  0.51850000  1.0 0.0662924691
H  H96  1  0.61869000  0.17919000  0.45478000  1.0 0.0867347919
H  H97  1  0.22194000  0.45335000  0.23141000  1.0 0.1416310612
H  H98  1  0.22194000  0.99053000  0.76859000  1.0 0.1416310612
H  H99  1  0.99053000  0.22194000  0.76859000  1.0 0.1416310612
H  H100  1  0.45335000  0.22194000  0.23141000  1.0 0.1416310612
H  H101  1  0.77806000  0.54665000  0.76859000  1.0 0.1416310612
H  H102  1  0.77806000  0.00947000  0.23141000  1.0 0.1416310612
H  H103  1  0.54665000  0.77806000  0.76859000  1.0 0.1416310612
H  H104  1  0.00947000  0.77806000  0.23141000  1.0 0.1416310612
C  C1  1  0.07870000  0.66650000  0.39360000  1.0 -0.2845308775
C  C2  1  0.13480000  0.65980000  0.48500000  1.0 -0.1307577087
C  C3  1  0.04250000  0.44640000  0.27890000  1.0 -0.1951522094
C  C4  1  0.09383000  0.44678000  0.22681000  1.0 0.0195558413
C  C5  1  0.05830000  0.45950000  0.13640000  1.0 0.5392467535
C  C6  1  0.27290000  0.68510000  0.60640000  1.0 -0.2845308775
C  C7  1  0.17480000  0.64980000  0.51500000  1.0 -0.1307577087
C  C8  1  0.16750000  0.76360000  0.72110000  1.0 -0.1951522094
C  C9  1  0.21997000  0.86702000  0.77319000  1.0 0.0195558413
C  C10  1  0.32310000  0.92190000  0.86360000  1.0 0.5392467535
C  C11  1  0.68510000  0.07870000  0.41220000  1.0 -0.2845308775
C  C12  1  0.64980000  0.13480000  0.47500000  1.0 -0.1307577087
C  C13  1  0.76360000  0.04250000  0.59610000  1.0 -0.1951522094
C  C14  1  0.86702000  0.09383000  0.64705000  1.0 0.0195558413
C  C15  1  0.92190000  0.05830000  0.59880000  1.0 0.5392467535
C  C16  1  0.66650000  0.27290000  0.58780000  1.0 -0.2845308775
C  C17  1  0.65980000  0.17480000  0.52500000  1.0 -0.1307577087
C  C18  1  0.44640000  0.16750000  0.40390000  1.0 -0.1951522094
C  C19  1  0.44678000  0.21997000  0.35295000  1.0 0.0195558413
C  C20  1  0.45950000  0.32310000  0.40120000  1.0 0.5392467535
C  C21  1  0.72710000  0.33350000  0.41220000  1.0 -0.2845308775
C  C22  1  0.82520000  0.34020000  0.47500000  1.0 -0.1307577087
C  C23  1  0.83250000  0.55360000  0.59610000  1.0 -0.1951522094
C  C24  1  0.78003000  0.55322000  0.64705000  1.0 0.0195558413
C  C25  1  0.67690000  0.54050000  0.59880000  1.0 0.5392467535
C  C26  1  0.92130000  0.31490000  0.58780000  1.0 -0.2845308775
C  C27  1  0.86520000  0.35020000  0.52500000  1.0 -0.1307577087
C  C28  1  0.95750000  0.23640000  0.40390000  1.0 -0.1951522094
C  C29  1  0.90617000  0.13298000  0.35295000  1.0 0.0195558413
C  C30  1  0.94170000  0.07810000  0.40120000  1.0 0.5392467535
C  C31  1  0.33350000  0.92130000  0.60640000  1.0 -0.2845308775
C  C32  1  0.34020000  0.86520000  0.51500000  1.0 -0.1307577087
C  C33  1  0.55360000  0.95750000  0.72110000  1.0 -0.1951522094
C  C34  1  0.55322000  0.90617000  0.77319000  1.0 0.0195558413
C  C35  1  0.54050000  0.94170000  0.86360000  1.0 0.5392467535
C  C36  1  0.31490000  0.72710000  0.39360000  1.0 -0.2845308775
C  C37  1  0.35020000  0.82520000  0.48500000  1.0 -0.1307577087
C  C38  1  0.23640000  0.83250000  0.27890000  1.0 -0.1951522094
C  C39  1  0.13298000  0.78003000  0.22681000  1.0 0.0195558413
C  C40  1  0.07810000  0.67690000  0.13640000  1.0 0.5392467535
C  C41  1  0.92130000  0.33350000  0.60640000  1.0 -0.2845308775
C  C42  1  0.86520000  0.34020000  0.51500000  1.0 -0.1307577087
C  C43  1  0.95750000  0.55360000  0.72110000  1.0 -0.1951522094
C  C44  1  0.90617000  0.55322000  0.77319000  1.0 0.0195558413
C  C45  1  0.94170000  0.54050000  0.86360000  1.0 0.5392467535
C  C46  1  0.72710000  0.31490000  0.39360000  1.0 -0.2845308775
C  C47  1  0.82520000  0.35020000  0.48500000  1.0 -0.1307577087
C  C48  1  0.83250000  0.23640000  0.27890000  1.0 -0.1951522094
C  C49  1  0.78003000  0.13298000  0.22681000  1.0 0.0195558413
C  C50  1  0.67690000  0.07810000  0.13640000  1.0 0.5392467535
C  C51  1  0.31490000  0.92130000  0.58780000  1.0 -0.2845308775
C  C52  1  0.35020000  0.86520000  0.52500000  1.0 -0.1307577087
C  C53  1  0.23640000  0.95750000  0.40390000  1.0 -0.1951522094
C  C54  1  0.13298000  0.90617000  0.35295000  1.0 0.0195558413
C  C55  1  0.07810000  0.94170000  0.40120000  1.0 0.5392467535
C  C56  1  0.33350000  0.72710000  0.41220000  1.0 -0.2845308775
C  C57  1  0.34020000  0.82520000  0.47500000  1.0 -0.1307577087
C  C58  1  0.55360000  0.83250000  0.59610000  1.0 -0.1951522094
C  C59  1  0.55322000  0.78003000  0.64705000  1.0 0.0195558413
C  C60  1  0.54050000  0.67690000  0.59880000  1.0 0.5392467535
C  C61  1  0.27290000  0.66650000  0.58780000  1.0 -0.2845308775
C  C62  1  0.17480000  0.65980000  0.52500000  1.0 -0.1307577087
C  C63  1  0.16750000  0.44640000  0.40390000  1.0 -0.1951522094
C  C64  1  0.21997000  0.44678000  0.35295000  1.0 0.0195558413
C  C65  1  0.32310000  0.45950000  0.40120000  1.0 0.5392467535
C  C66  1  0.07870000  0.68510000  0.41220000  1.0 -0.2845308775
C  C67  1  0.13480000  0.64980000  0.47500000  1.0 -0.1307577087
C  C68  1  0.04250000  0.76360000  0.59610000  1.0 -0.1951522094
C  C69  1  0.09383000  0.86702000  0.64705000  1.0 0.0195558413
C  C70  1  0.05830000  0.92190000  0.59880000  1.0 0.5392467535
C  C71  1  0.66650000  0.07870000  0.39360000  1.0 -0.2845308775
C  C72  1  0.65980000  0.13480000  0.48500000  1.0 -0.1307577087
C  C73  1  0.44640000  0.04250000  0.27890000  1.0 -0.1951522094
C  C74  1  0.44678000  0.09383000  0.22681000  1.0 0.0195558413
C  C75  1  0.45950000  0.05830000  0.13640000  1.0 0.5392467535
C  C76  1  0.68510000  0.27290000  0.60640000  1.0 -0.2845308775
C  C77  1  0.64980000  0.17480000  0.51500000  1.0 -0.1307577087
C  C78  1  0.76360000  0.16750000  0.72110000  1.0 -0.1951522094
C  C79  1  0.86702000  0.21997000  0.77319000  1.0 0.0195558413
C  C80  1  0.92190000  0.32310000  0.86360000  1.0 0.5392467535
C  C81  1  0.07550000  0.57550000  0.50000000  1.0 0.1542545004
C  C82  1  0.57550000  0.07550000  0.50000000  1.0 0.1542545004
C  C83  1  0.92450000  0.42450000  0.50000000  1.0 0.1542545004
C  C84  1  0.42450000  0.92450000  0.50000000  1.0 0.1542545004
C  C85  1  0.03670000  0.47330000  0.43660000  1.0 -0.0605592619
C  C86  1  0.07970000  0.44920000  0.36950000  1.0 0.0422490655
C  C87  1  0.18450000  0.44960000  0.26510000  1.0 -0.1307577087
C  C88  1  0.03670000  0.60010000  0.56340000  1.0 -0.0605592619
C  C89  1  0.07970000  0.71020000  0.63050000  1.0 0.0422490655
C  C90  1  0.18450000  0.91940000  0.73490000  1.0 -0.1307577087
C  C91  1  0.60010000  0.03670000  0.56340000  1.0 -0.0605592619
C  C92  1  0.71020000  0.07970000  0.63050000  1.0 0.0422490655
C  C93  1  0.91940000  0.18450000  0.73490000  1.0 -0.1307577087
C  C94  1  0.47330000  0.03670000  0.43660000  1.0 -0.0605592619
C  C95  1  0.44920000  0.07970000  0.36950000  1.0 0.0422490655
C  C96  1  0.44960000  0.18450000  0.26510000  1.0 -0.1307577087
C  C97  1  0.96330000  0.52670000  0.56340000  1.0 -0.0605592619
C  C98  1  0.92030000  0.55080000  0.63050000  1.0 0.0422490655
C  C99  1  0.81550000  0.55040000  0.73490000  1.0 -0.1307577087
C  C100  1  0.96330000  0.39990000  0.43660000  1.0 -0.0605592619
C  C101  1  0.92030000  0.28980000  0.36950000  1.0 0.0422490655
C  C102  1  0.81550000  0.08060000  0.26510000  1.0 -0.1307577087
C  C103  1  0.52670000  0.96330000  0.56340000  1.0 -0.0605592619
C  C104  1  0.55080000  0.92030000  0.63050000  1.0 0.0422490655
C  C105  1  0.55040000  0.81550000  0.73490000  1.0 -0.1307577087
C  C106  1  0.39990000  0.96330000  0.43660000  1.0 -0.0605592619
C  C107  1  0.28980000  0.92030000  0.36950000  1.0 0.0422490655
C  C108  1  0.08060000  0.81550000  0.26510000  1.0 -0.1307577087
O  O1  1  0.97265000  0.45164000  0.10409000  1.0 -0.5120705397
O  O2  1  0.11648000  0.47974000  0.10306000  1.0 -0.4780516041
O  O3  1  0.34755000  0.86856000  0.89591000  1.0 -0.5120705397
O  O4  1  0.37668000  0.01342000  0.89694000  1.0 -0.4780516041
O  O5  1  0.86856000  0.97265000  0.52101000  1.0 -0.5120705397
O  O6  1  0.01342000  0.11648000  0.63674000  1.0 -0.4780516041
O  O7  1  0.45164000  0.34755000  0.47899000  1.0 -0.5120705397
O  O8  1  0.47974000  0.37668000  0.36326000  1.0 -0.4780516041
O  O9  1  0.65245000  0.54836000  0.52101000  1.0 -0.5120705397
O  O10  1  0.62332000  0.52026000  0.63674000  1.0 -0.4780516041
O  O11  1  0.02735000  0.13144000  0.47899000  1.0 -0.5120705397
O  O12  1  0.88352000  0.98658000  0.36326000  1.0 -0.4780516041
O  O13  1  0.54836000  0.02735000  0.89591000  1.0 -0.5120705397
O  O14  1  0.52026000  0.88352000  0.89694000  1.0 -0.4780516041
O  O15  1  0.13144000  0.65245000  0.10409000  1.0 -0.5120705397
O  O16  1  0.98658000  0.62332000  0.10306000  1.0 -0.4780516041
O  O17  1  0.02735000  0.54836000  0.89591000  1.0 -0.5120705397
O  O18  1  0.88352000  0.52026000  0.89694000  1.0 -0.4780516041
O  O19  1  0.65245000  0.13144000  0.10409000  1.0 -0.5120705397
O  O20  1  0.62332000  0.98658000  0.10306000  1.0 -0.4780516041
O  O21  1  0.13144000  0.02735000  0.47899000  1.0 -0.5120705397
O  O22  1  0.98658000  0.88352000  0.36326000  1.0 -0.4780516041
O  O23  1  0.54836000  0.65245000  0.52101000  1.0 -0.5120705397
O  O24  1  0.52026000  0.62332000  0.63674000  1.0 -0.4780516041
O  O25  1  0.34755000  0.45164000  0.47899000  1.0 -0.5120705397
O  O26  1  0.37668000  0.47974000  0.36326000  1.0 -0.4780516041
O  O27  1  0.97265000  0.86856000  0.52101000  1.0 -0.5120705397
O  O28  1  0.11648000  0.01342000  0.63674000  1.0 -0.4780516041
O  O29  1  0.45164000  0.97265000  0.10409000  1.0 -0.5120705397
O  O30  1  0.47974000  0.11648000  0.10306000  1.0 -0.4780516041
O  O31  1  0.86856000  0.34755000  0.89591000  1.0 -0.5120705397
O  O32  1  0.01342000  0.37668000  0.89694000  1.0 -0.4780516041
