# DDEC6 charges by PACMAN v1.1 (https://github.com/mtap-research/PACMAN-charge/)
data_KEYKUY_ASR_pacman
_symmetry_space_group_name_H-M   'P 1'
_cell_length_a   16.33140000
_cell_length_b   16.33140000
_cell_length_c   16.33140000
_cell_angle_alpha   109.74100000
_cell_angle_beta   109.74100000
_cell_angle_gamma   108.93300000
_symmetry_Int_Tables_number   1
_chemical_formula_structural   CuH9C11O4
_chemical_formula_sum   'Cu8 H72 C88 O32'
_cell_volume   3352.89258227
_cell_formula_units_Z   8
loop_
 _symmetry_equiv_pos_site_id
 _symmetry_equiv_pos_as_xyz
  1  'x, y, z'
loop_
 _atom_site_type_symbol
 _atom_site_label
 _atom_site_symmetry_multiplicity
 _atom_site_fract_x
 _atom_site_fract_y
 _atom_site_fract_z
 _atom_site_occupancy
 _atom_site_charge
Cu  Cu1  1  0.01499000  0.01499000  0.43162000  1.0 0.8501241791
Cu  Cu2  1  0.58337000  0.58337000  0.56838000  1.0 0.8501241791
Cu  Cu3  1  0.58337000  0.01499000  0.00000000  1.0 0.8501241791
Cu  Cu4  1  0.01499000  0.58337000  0.00000000  1.0 0.8501241791
Cu  Cu5  1  0.98501000  0.41663000  0.00000000  1.0 0.8501241791
Cu  Cu6  1  0.41663000  0.98501000  0.00000000  1.0 0.8501241791
Cu  Cu7  1  0.41663000  0.41663000  0.43162000  1.0 0.8501241791
Cu  Cu8  1  0.98501000  0.98501000  0.56838000  1.0 0.8501241791
H  H1  1  0.69520000  0.94346000  0.46584000  1.0 0.1325717444
H  H2  1  0.75759000  0.20094000  0.65029000  1.0 0.0695879839
H  H3  1  0.74264000  0.10005000  0.56981000  1.0 0.0695879839
H  H4  1  0.80974000  0.20537000  0.58351000  1.0 0.1172567053
H  H5  1  0.47762000  0.22936000  0.53416000  1.0 0.1325717444
H  H6  1  0.55065000  0.10730000  0.34971000  1.0 0.0695879839
H  H7  1  0.53024000  0.17283000  0.43019000  1.0 0.0695879839
H  H8  1  0.62186000  0.22623000  0.41649000  1.0 0.1172567053
H  H9  1  0.22936000  0.69520000  0.75174000  1.0 0.1325717444
H  H10  1  0.10730000  0.75759000  0.55665000  1.0 0.0695879839
H  H11  1  0.17283000  0.74264000  0.64259000  1.0 0.0695879839
H  H12  1  0.22623000  0.80974000  0.60437000  1.0 0.1172567053
H  H13  1  0.94346000  0.47762000  0.24826000  1.0 0.1325717444
H  H14  1  0.20094000  0.55065000  0.44335000  1.0 0.0695879839
H  H15  1  0.10005000  0.53024000  0.35741000  1.0 0.0695879839
H  H16  1  0.20537000  0.62186000  0.39563000  1.0 0.1172567053
H  H17  1  0.30480000  0.77064000  0.24826000  1.0 0.1325717444
H  H18  1  0.24241000  0.89270000  0.44335000  1.0 0.0695879839
H  H19  1  0.25736000  0.82717000  0.35741000  1.0 0.0695879839
H  H20  1  0.19026000  0.77377000  0.39563000  1.0 0.1172567053
H  H21  1  0.52238000  0.05654000  0.75174000  1.0 0.1325717444
H  H22  1  0.44935000  0.79906000  0.55665000  1.0 0.0695879839
H  H23  1  0.46976000  0.89995000  0.64259000  1.0 0.0695879839
H  H24  1  0.37814000  0.79463000  0.60437000  1.0 0.1172567053
H  H25  1  0.77064000  0.52238000  0.46584000  1.0 0.1325717444
H  H26  1  0.89270000  0.44935000  0.65029000  1.0 0.0695879839
H  H27  1  0.82717000  0.46976000  0.56981000  1.0 0.0695879839
H  H28  1  0.77377000  0.37814000  0.58351000  1.0 0.1172567053
H  H29  1  0.05654000  0.30480000  0.53416000  1.0 0.1325717444
H  H30  1  0.79906000  0.24241000  0.34971000  1.0 0.0695879839
H  H31  1  0.89995000  0.25736000  0.43019000  1.0 0.0695879839
H  H32  1  0.79463000  0.19026000  0.41649000  1.0 0.1172567053
H  H33  1  0.30480000  0.05654000  0.53416000  1.0 0.1325717444
H  H34  1  0.24241000  0.79906000  0.34971000  1.0 0.0695879839
H  H35  1  0.25736000  0.89995000  0.43019000  1.0 0.0695879839
H  H36  1  0.19026000  0.79463000  0.41649000  1.0 0.1172567053
H  H37  1  0.52238000  0.77064000  0.46584000  1.0 0.1325717444
H  H38  1  0.44935000  0.89270000  0.65029000  1.0 0.0695879839
H  H39  1  0.46976000  0.82717000  0.56981000  1.0 0.0695879839
H  H40  1  0.37814000  0.77377000  0.58351000  1.0 0.1172567053
H  H41  1  0.77064000  0.30480000  0.24826000  1.0 0.1325717444
H  H42  1  0.89270000  0.24241000  0.44335000  1.0 0.0695879839
H  H43  1  0.82717000  0.25736000  0.35741000  1.0 0.0695879839
H  H44  1  0.77377000  0.19026000  0.39563000  1.0 0.1172567053
H  H45  1  0.05654000  0.52238000  0.75174000  1.0 0.1325717444
H  H46  1  0.79906000  0.44935000  0.55665000  1.0 0.0695879839
H  H47  1  0.89995000  0.46976000  0.64259000  1.0 0.0695879839
H  H48  1  0.79463000  0.37814000  0.60437000  1.0 0.1172567053
H  H49  1  0.69520000  0.22936000  0.75174000  1.0 0.1325717444
H  H50  1  0.75759000  0.10730000  0.55665000  1.0 0.0695879839
H  H51  1  0.74264000  0.17283000  0.64259000  1.0 0.0695879839
H  H52  1  0.80974000  0.22623000  0.60437000  1.0 0.1172567053
H  H53  1  0.47762000  0.94346000  0.24826000  1.0 0.1325717444
H  H54  1  0.55065000  0.20094000  0.44335000  1.0 0.0695879839
H  H55  1  0.53024000  0.10005000  0.35741000  1.0 0.0695879839
H  H56  1  0.62186000  0.20537000  0.39563000  1.0 0.1172567053
H  H57  1  0.22936000  0.47762000  0.53416000  1.0 0.1325717444
H  H58  1  0.10730000  0.55065000  0.34971000  1.0 0.0695879839
H  H59  1  0.17283000  0.53024000  0.43019000  1.0 0.0695879839
H  H60  1  0.22623000  0.62186000  0.41649000  1.0 0.1172567053
H  H61  1  0.94346000  0.69520000  0.46584000  1.0 0.1325717444
H  H62  1  0.20094000  0.75759000  0.65029000  1.0 0.0695879839
H  H63  1  0.10005000  0.74264000  0.56981000  1.0 0.0695879839
H  H64  1  0.20537000  0.80974000  0.58351000  1.0 0.1172567053
H  H65  1  0.71836000  0.94735000  0.22899000  1.0 0.135685804
H  H66  1  0.71836000  0.48937000  0.77101000  1.0 0.135685804
H  H67  1  0.48937000  0.71836000  0.77101000  1.0 0.135685804
H  H68  1  0.94735000  0.71836000  0.22899000  1.0 0.135685804
H  H69  1  0.28164000  0.51063000  0.22899000  1.0 0.135685804
H  H70  1  0.28164000  0.05265000  0.77101000  1.0 0.135685804
H  H71  1  0.51063000  0.28164000  0.22899000  1.0 0.135685804
H  H72  1  0.05265000  0.28164000  0.77101000  1.0 0.135685804
C  C1  1  0.82740000  0.96210000  0.40510000  1.0 0.5631491307
C  C2  1  0.72180000  0.94650000  0.35450000  1.0 -0.0188634553
C  C3  1  0.66980000  0.94520000  0.40520000  1.0 -0.1747841763
C  C4  1  0.55700000  0.42230000  0.59490000  1.0 0.5631491307
C  C5  1  0.59200000  0.36730000  0.64550000  1.0 -0.0188634553
C  C6  1  0.54000000  0.26460000  0.59480000  1.0 -0.1747841763
C  C7  1  0.42230000  0.82740000  0.86530000  1.0 0.5631491307
C  C8  1  0.36730000  0.72180000  0.77530000  1.0 -0.0188634553
C  C9  1  0.26460000  0.66980000  0.72460000  1.0 -0.1747841763
C  C10  1  0.96210000  0.55700000  0.13470000  1.0 0.5631491307
C  C11  1  0.94650000  0.59200000  0.22470000  1.0 -0.0188634553
C  C12  1  0.94520000  0.54000000  0.27540000  1.0 -0.1747841763
C  C13  1  0.17260000  0.57770000  0.13470000  1.0 0.5631491307
C  C14  1  0.27820000  0.63270000  0.22470000  1.0 -0.0188634553
C  C15  1  0.33020000  0.73540000  0.27540000  1.0 -0.1747841763
C  C16  1  0.44300000  0.03790000  0.86530000  1.0 0.5631491307
C  C17  1  0.40800000  0.05350000  0.77530000  1.0 -0.0188634553
C  C18  1  0.46000000  0.05480000  0.72460000  1.0 -0.1747841763
C  C19  1  0.57770000  0.44300000  0.40510000  1.0 0.5631491307
C  C20  1  0.63270000  0.40800000  0.35450000  1.0 -0.0188634553
C  C21  1  0.73540000  0.46000000  0.40520000  1.0 -0.1747841763
C  C22  1  0.03790000  0.17260000  0.59490000  1.0 0.5631491307
C  C23  1  0.05350000  0.27820000  0.64550000  1.0 -0.0188634553
C  C24  1  0.05480000  0.33020000  0.59480000  1.0 -0.1747841763
C  C25  1  0.17260000  0.03790000  0.59490000  1.0 0.5631491307
C  C26  1  0.27820000  0.05350000  0.64550000  1.0 -0.0188634553
C  C27  1  0.33020000  0.05480000  0.59480000  1.0 -0.1747841763
C  C28  1  0.44300000  0.57770000  0.40510000  1.0 0.5631491307
C  C29  1  0.40800000  0.63270000  0.35450000  1.0 -0.0188634553
C  C30  1  0.46000000  0.73540000  0.40520000  1.0 -0.1747841763
C  C31  1  0.57770000  0.17260000  0.13470000  1.0 0.5631491307
C  C32  1  0.63270000  0.27820000  0.22470000  1.0 -0.0188634553
C  C33  1  0.73540000  0.33020000  0.27540000  1.0 -0.1747841763
C  C34  1  0.03790000  0.44300000  0.86530000  1.0 0.5631491307
C  C35  1  0.05350000  0.40800000  0.77530000  1.0 -0.0188634553
C  C36  1  0.05480000  0.46000000  0.72460000  1.0 -0.1747841763
C  C37  1  0.82740000  0.42230000  0.86530000  1.0 0.5631491307
C  C38  1  0.72180000  0.36730000  0.77530000  1.0 -0.0188634553
C  C39  1  0.66980000  0.26460000  0.72460000  1.0 -0.1747841763
C  C40  1  0.55700000  0.96210000  0.13470000  1.0 0.5631491307
C  C41  1  0.59200000  0.94650000  0.22470000  1.0 -0.0188634553
C  C42  1  0.54000000  0.94520000  0.27540000  1.0 -0.1747841763
C  C43  1  0.42230000  0.55700000  0.59490000  1.0 0.5631491307
C  C44  1  0.36730000  0.59200000  0.64550000  1.0 -0.0188634553
C  C45  1  0.26460000  0.54000000  0.59480000  1.0 -0.1747841763
C  C46  1  0.96210000  0.82740000  0.40510000  1.0 0.5631491307
C  C47  1  0.94650000  0.72180000  0.35450000  1.0 -0.0188634553
C  C48  1  0.94520000  0.66980000  0.40520000  1.0 -0.1747841763
C  C49  1  0.53870000  0.97910000  0.44040000  1.0 -0.0386172313
C  C50  1  0.57840000  0.94630000  0.36790000  1.0 0.0762931897
C  C51  1  0.68260000  0.94690000  0.26430000  1.0 -0.0989815406
C  C52  1  0.53870000  0.09830000  0.55960000  1.0 -0.0386172313
C  C53  1  0.57840000  0.21050000  0.63210000  1.0 0.0762931897
C  C54  1  0.68260000  0.41830000  0.73570000  1.0 -0.0989815406
C  C55  1  0.09830000  0.53870000  0.55960000  1.0 -0.0386172313
C  C56  1  0.21050000  0.57840000  0.63210000  1.0 0.0762931897
C  C57  1  0.41830000  0.68260000  0.73570000  1.0 -0.0989815406
C  C58  1  0.97910000  0.53870000  0.44040000  1.0 -0.0386172313
C  C59  1  0.94630000  0.57840000  0.36790000  1.0 0.0762931897
C  C60  1  0.94690000  0.68260000  0.26430000  1.0 -0.0989815406
C  C61  1  0.46130000  0.90170000  0.44040000  1.0 -0.0386172313
C  C62  1  0.42160000  0.78950000  0.36790000  1.0 0.0762931897
C  C63  1  0.31740000  0.58170000  0.26430000  1.0 -0.0989815406
C  C64  1  0.46130000  0.02090000  0.55960000  1.0 -0.0386172313
C  C65  1  0.42160000  0.05370000  0.63210000  1.0 0.0762931897
C  C66  1  0.31740000  0.05310000  0.73570000  1.0 -0.0989815406
C  C67  1  0.90170000  0.46130000  0.44040000  1.0 -0.0386172313
C  C68  1  0.78950000  0.42160000  0.36790000  1.0 0.0762931897
C  C69  1  0.58170000  0.31740000  0.26430000  1.0 -0.0989815406
C  C70  1  0.02090000  0.46130000  0.55960000  1.0 -0.0386172313
C  C71  1  0.05370000  0.42160000  0.63210000  1.0 0.0762931897
C  C72  1  0.05310000  0.31740000  0.73570000  1.0 -0.0989815406
C  C73  1  0.57590000  0.07590000  0.50000000  1.0 -0.0989815406
C  C74  1  0.65370000  0.15370000  0.50000000  1.0 0.1172567053
C  C75  1  0.07590000  0.57590000  0.50000000  1.0 -0.0989815406
C  C76  1  0.15370000  0.65370000  0.50000000  1.0 0.1172567053
C  C77  1  0.42410000  0.92410000  0.50000000  1.0 -0.0989815406
C  C78  1  0.34630000  0.84630000  0.50000000  1.0 0.1172567053
C  C79  1  0.92410000  0.42410000  0.50000000  1.0 -0.0989815406
C  C80  1  0.84630000  0.34630000  0.50000000  1.0 0.1172567053
C  C81  1  0.74400000  0.17080000  0.57320000  1.0 -0.3965609831
C  C82  1  0.59760000  0.17080000  0.42680000  1.0 -0.3965609831
C  C83  1  0.17080000  0.74400000  0.57320000  1.0 -0.3965609831
C  C84  1  0.17080000  0.59760000  0.42680000  1.0 -0.3965609831
C  C85  1  0.25600000  0.82920000  0.42680000  1.0 -0.3965609831
C  C86  1  0.40240000  0.82920000  0.57320000  1.0 -0.3965609831
C  C87  1  0.82920000  0.40240000  0.57320000  1.0 -0.3965609831
C  C88  1  0.82920000  0.25600000  0.42680000  1.0 -0.3965609831
O  O1  1  0.87700000  0.97960000  0.36280000  1.0 -0.4995353067
O  O2  1  0.85060000  0.95350000  0.48350000  1.0 -0.5275111099
O  O3  1  0.61680000  0.51420000  0.63720000  1.0 -0.4995353067
O  O4  1  0.47000000  0.36710000  0.51650000  1.0 -0.5275111099
O  O5  1  0.51420000  0.87700000  0.89740000  1.0 -0.4995353067
O  O6  1  0.36710000  0.85060000  0.89710000  1.0 -0.5275111099
O  O7  1  0.97960000  0.61680000  0.10260000  1.0 -0.4995353067
O  O8  1  0.95350000  0.47000000  0.10290000  1.0 -0.5275111099
O  O9  1  0.12300000  0.48580000  0.10260000  1.0 -0.4995353067
O  O10  1  0.14940000  0.63290000  0.10290000  1.0 -0.5275111099
O  O11  1  0.38320000  0.02040000  0.89740000  1.0 -0.4995353067
O  O12  1  0.53000000  0.04650000  0.89710000  1.0 -0.5275111099
O  O13  1  0.48580000  0.38320000  0.36280000  1.0 -0.4995353067
O  O14  1  0.63290000  0.53000000  0.48350000  1.0 -0.5275111099
O  O15  1  0.02040000  0.12300000  0.63720000  1.0 -0.4995353067
O  O16  1  0.04650000  0.14940000  0.51650000  1.0 -0.5275111099
O  O17  1  0.12300000  0.02040000  0.63720000  1.0 -0.4995353067
O  O18  1  0.14940000  0.04650000  0.51650000  1.0 -0.5275111099
O  O19  1  0.38320000  0.48580000  0.36280000  1.0 -0.4995353067
O  O20  1  0.53000000  0.63290000  0.48350000  1.0 -0.5275111099
O  O21  1  0.48580000  0.12300000  0.10260000  1.0 -0.4995353067
O  O22  1  0.63290000  0.14940000  0.10290000  1.0 -0.5275111099
O  O23  1  0.02040000  0.38320000  0.89740000  1.0 -0.4995353067
O  O24  1  0.04650000  0.53000000  0.89710000  1.0 -0.5275111099
O  O25  1  0.87700000  0.51420000  0.89740000  1.0 -0.4995353067
O  O26  1  0.85060000  0.36710000  0.89710000  1.0 -0.5275111099
O  O27  1  0.61680000  0.97960000  0.10260000  1.0 -0.4995353067
O  O28  1  0.47000000  0.95350000  0.10290000  1.0 -0.5275111099
O  O29  1  0.51420000  0.61680000  0.63720000  1.0 -0.4995353067
O  O30  1  0.36710000  0.47000000  0.51650000  1.0 -0.5275111099
O  O31  1  0.97960000  0.87700000  0.36280000  1.0 -0.4995353067
O  O32  1  0.95350000  0.85060000  0.48350000  1.0 -0.5275111099
