# DDEC6 charges by PACMAN v1.1 (https://github.com/mtap-research/PACMAN-charge/)
data_KICXEB_ASR_pacman
_symmetry_space_group_name_H-M   'P 1'
_cell_length_a   14.86800000
_cell_length_b   14.94300000
_cell_length_c   22.11700000
_cell_angle_alpha   88.54300000
_cell_angle_beta   86.82200000
_cell_angle_gamma   75.61500000
_symmetry_Int_Tables_number   1
_chemical_formula_structural   Co2P2H47W18C32(NO2)24
_chemical_formula_sum   'Co4 P4 H94 W36 C64 N48 O96'
_cell_volume   4752.06883388
_cell_formula_units_Z   2
loop_
 _symmetry_equiv_pos_site_id
 _symmetry_equiv_pos_as_xyz
  1  'x, y, z'
loop_
 _atom_site_type_symbol
 _atom_site_label
 _atom_site_symmetry_multiplicity
 _atom_site_fract_x
 _atom_site_fract_y
 _atom_site_fract_z
 _atom_site_occupancy
 _atom_site_charge
Co  Co1  1  0.77770000  0.25120000  0.47970000  1.0 0.6932839244
Co  Co2  1  0.22230000  0.74880000  0.52030000  1.0 0.6932839244
Co  Co3  1  0.50000000  0.00000000  0.00000000  1.0 0.8095204025
Co  Co4  1  0.00000000  0.50000000  0.00000000  1.0 0.7916778117
P  P1  1  0.71830000  0.61980000  0.27420000  1.0 1.3760432392
P  P2  1  0.28170000  0.38020000  0.72580000  1.0 1.3760432392
P  P3  1  0.75180000  0.87620000  0.27450000  1.0 1.4013974457
P  P4  1  0.24820000  0.12380000  0.72550000  1.0 1.4013974457
H  H1  1  0.78210000  0.50860000  0.78700000  1.0 0.0798400739
H  H2  1  0.21790000  0.49140000  0.21300000  1.0 0.0798400739
H  H3  1  0.68100000  0.50960000  0.81120000  1.0 0.0904115564
H  H4  1  0.31900000  0.49040000  0.18880000  1.0 0.0904115564
H  H5  1  0.56510000  0.12860000  0.88890000  1.0 0.108995047
H  H6  1  0.43490000  0.87140000  0.11110000  1.0 0.108995047
H  H7  1  0.08180000  0.41130000  0.43240000  1.0 0.0998122567
H  H8  1  0.91820000  0.58870000  0.56760000  1.0 0.0998122567
H  H9  1  0.10510000  0.38590000  0.36420000  1.0 0.0998122567
H  H10  1  0.89490000  0.61410000  0.63580000  1.0 0.0998122567
H  H11  1  0.72710000  0.97340000  0.00160000  1.0 0.1195525554
H  H12  1  0.27290000  0.02660000  0.99840000  1.0 0.1195525554
H  H13  1  0.36720000  0.21990000  0.98990000  1.0 0.108995047
H  H14  1  0.63280000  0.78010000  0.01010000  1.0 0.108995047
H  H15  1  0.82760000  0.95420000  0.67370000  1.0 0.0998122567
H  H16  1  0.17240000  0.04580000  0.32630000  1.0 0.0998122567
H  H17  1  0.91320000  0.98850000  0.69310000  1.0 0.108995047
H  H18  1  0.08680000  0.01150000  0.30690000  1.0 0.108995047
H  H19  1  0.23830000  0.33980000  0.41540000  1.0 0.0998122567
H  H20  1  0.76170000  0.66020000  0.58460000  1.0 0.0998122567
H  H21  1  0.19100000  0.28410000  0.46270000  1.0 0.0998122567
H  H22  1  0.80900000  0.71590000  0.53730000  1.0 0.0998122567
H  H23  1  0.19380000  0.20220000  0.35370000  1.0 0.0798400739
H  H24  1  0.80620000  0.79780000  0.64630000  1.0 0.0798400739
H  H25  1  0.33160000  0.10440000  0.37080000  1.0 0.0998122567
H  H26  1  0.66840000  0.89560000  0.62920000  1.0 0.0998122567
H  H27  1  0.31830000  0.13730000  0.43810000  1.0 0.1195525554
H  H28  1  0.68170000  0.86270000  0.56190000  1.0 0.1195525554
H  H29  1  0.77840000  0.15390000  0.83160000  1.0 0.0998122567
H  H30  1  0.22160000  0.84610000  0.16840000  1.0 0.0998122567
H  H31  1  0.68320000  0.15360000  0.80430000  1.0 0.0904115564
H  H32  1  0.31680000  0.84640000  0.19570000  1.0 0.0904115564
H  H33  1  0.74860000  0.98870000  0.78770000  1.0 0.0904115564
H  H34  1  0.25140000  0.01130000  0.21230000  1.0 0.0904115564
H  H35  1  0.84540000  0.00800000  0.79980000  1.0 0.0904115564
H  H36  1  0.15460000  0.99200000  0.20020000  1.0 0.0904115564
H  H37  1  0.72870000  0.08880000  0.70550000  1.0 0.0726352311
H  H38  1  0.27130000  0.91120000  0.29450000  1.0 0.0726352311
H  H39  1  0.81260000  0.12780000  0.72160000  1.0 0.0726352311
H  H40  1  0.18740000  0.87220000  0.27840000  1.0 0.0726352311
H  H41  1  0.36800000  0.25680000  0.30360000  1.0 0.0798400739
H  H42  1  0.63200000  0.74320000  0.69640000  1.0 0.0798400739
H  H43  1  0.57370000  0.25690000  0.40570000  1.0 0.1437546625
H  H44  1  0.42630000  0.74310000  0.59430000  1.0 0.1437546625
H  H45  1  0.77330000  0.51860000  0.00830000  1.0 0.1294829872
H  H46  1  0.22670000  0.48140000  0.99170000  1.0 0.1294829872
H  H47  1  0.71340000  0.38330000  0.73100000  1.0 0.0798400739
H  H48  1  0.28660000  0.61670000  0.26900000  1.0 0.0798400739
H  H49  1  0.65290000  0.48420000  0.72220000  1.0 0.0904115564
H  H50  1  0.34710000  0.51580000  0.27780000  1.0 0.0904115564
H  H51  1  0.82280000  0.34840000  0.80930000  1.0 0.0798400739
H  H52  1  0.17720000  0.65160000  0.19070000  1.0 0.0798400739
H  H53  1  0.72470000  0.36190000  0.84260000  1.0 0.0998122567
H  H54  1  0.27530000  0.63810000  0.15740000  1.0 0.0998122567
H  H55  1  0.84110000  0.42820000  0.69150000  1.0 0.0798400739
H  H56  1  0.15890000  0.57180000  0.30850000  1.0 0.0798400739
H  H57  1  0.77890000  0.52800000  0.68130000  1.0 0.0998122567
H  H58  1  0.22110000  0.47200000  0.31870000  1.0 0.0998122567
H  H59  1  0.64590000  0.46040000  0.51070000  1.0 0.1195525554
H  H60  1  0.35410000  0.53960000  0.48930000  1.0 0.1195525554
H  H61  1  0.07010000  0.19530000  0.19800000  1.0 0.0998122567
H  H62  1  0.92990000  0.80470000  0.80200000  1.0 0.0998122567
H  H63  1  0.07470000  0.29230000  0.22180000  1.0 0.0998122567
H  H64  1  0.92530000  0.70770000  0.77820000  1.0 0.0998122567
H  H65  1  0.22050000  0.17690000  0.23570000  1.0 0.0726352311
H  H66  1  0.77950000  0.82310000  0.76430000  1.0 0.0726352311
H  H67  1  0.23370000  0.16600000  0.16500000  1.0 0.0798400739
H  H68  1  0.76630000  0.83400000  0.83500000  1.0 0.0798400739
H  H69  1  0.23930000  0.32500000  0.23020000  1.0 0.0726352311
H  H70  1  0.76070000  0.67500000  0.76980000  1.0 0.0726352311
H  H71  1  0.23010000  0.33010000  0.15980000  1.0 0.0798400739
H  H72  1  0.76990000  0.66990000  0.84020000  1.0 0.0798400739
H  H73  1  0.39010000  0.30670000  0.18810000  1.0 0.0998122567
H  H74  1  0.60990000  0.69330000  0.81190000  1.0 0.0998122567
H  H75  1  0.38570000  0.20870000  0.21390000  1.0 0.0904115564
H  H76  1  0.61430000  0.79130000  0.78610000  1.0 0.0904115564
H  H77  1  0.84260000  0.31700000  0.60870000  1.0 0.108995047
H  H78  1  0.15740000  0.68300000  0.39130000  1.0 0.108995047
H  H79  1  0.93020000  0.05730000  0.49190000  1.0 0.0998122567
H  H80  1  0.06980000  0.94270000  0.50810000  1.0 0.0998122567
H  H81  1  0.76840000  0.17620000  0.62220000  1.0 0.0998122567
H  H82  1  0.23160000  0.82380000  0.37780000  1.0 0.0998122567
H  H83  1  0.10230000  0.27570000  0.99580000  1.0 0.0998122567
H  H84  1  0.89770000  0.72430000  0.00420000  1.0 0.0998122567
H  H85  1  0.94670000  0.35990000  0.48130000  1.0 0.108995047
H  H86  1  0.05330000  0.64010000  0.51870000  1.0 0.108995047
H  H87  1  0.91600000  0.18810000  0.36070000  1.0 0.1294829872
H  H88  1  0.08400000  0.81190000  0.63930000  1.0 0.1294829872
H  H89  1  0.02150000  0.42050000  0.14050000  1.0 0.0904115564
H  H90  1  0.97850000  0.57950000  0.85950000  1.0 0.0904115564
H  H91  1  0.46450000  0.08820000  0.13220000  1.0 0.108995047
H  H92  1  0.53550000  0.91180000  0.86780000  1.0 0.108995047
H  H93  1  0.94960000  0.39760000  0.87530000  1.0 0.108995047
H  H94  1  0.05040000  0.60240000  0.12470000  1.0 0.108995047
W  W1  1  0.59451000  0.65973000  0.41319000  1.0 2.3395754724
W  W2  1  0.40549000  0.34027000  0.58681000  1.0 2.3395754724
W  W3  1  0.66140000  0.11055000  0.22959000  1.0 2.3145407825
W  W4  1  0.33860000  0.88945000  0.77041000  1.0 2.3145407825
W  W5  1  0.87306000  0.83817000  0.13149000  1.0 2.3926140286
W  W6  1  0.12694000  0.16183000  0.86851000  1.0 2.382337132
W  W7  1  0.60019000  0.67287000  0.13879000  1.0 2.3215086847
W  W8  1  0.39981000  0.32713000  0.86121000  1.0 2.3215086847
W  W9  1  0.64159000  0.91183000  0.13719000  1.0 2.3926140286
W  W10  1  0.35841000  0.08817000  0.86281000  1.0 2.3926140286
W  W11  1  0.96042000  0.53663000  0.26928000  1.0 1.9857817083
W  W12  1  0.03958000  0.46337000  0.73072000  1.0 1.9671075731
W  W13  1  0.57596000  0.47562000  0.23602000  1.0 2.3499192784
W  W14  1  0.42404000  0.52438000  0.76398000  1.0 2.3499192784
W  W15  1  0.80965000  0.39169000  0.22051000  1.0 2.2704477697
W  W16  1  0.19035000  0.60831000  0.77949000  1.0 2.2704477697
W  W17  1  0.89567000  0.02639000  0.22919000  1.0 2.2822329193
W  W18  1  0.10433000  0.97361000  0.77081000  1.0 2.2822329193
W  W19  1  0.76895000  0.06517000  0.36155000  1.0 2.3926140286
W  W20  1  0.23105000  0.93483000  0.63845000  1.0 2.3926140286
W  W21  1  0.70408000  0.42442000  0.35938000  1.0 2.3395754724
W  W22  1  0.29592000  0.57558000  0.64062000  1.0 2.3395754724
W  W23  1  0.84997000  0.58068000  0.40529000  1.0 2.1289984375
W  W24  1  0.15003000  0.41932000  0.59471000  1.0 2.1289984375
W  W25  1  0.99418000  0.77910000  0.27252000  1.0 2.0721984297
W  W26  1  0.00582000  0.22090000  0.72748000  1.0 2.0721984297
W  W27  1  0.47664000  0.71825000  0.28738000  1.0 2.1530002743
W  W28  1  0.52336000  0.28175000  0.71262000  1.0 2.1530002743
W  W29  1  0.83185000  0.59978000  0.13042000  1.0 2.3926140286
W  W30  1  0.16815000  0.40022000  0.86958000  1.0 2.3926140286
W  W31  1  0.62319000  0.90411000  0.41168000  1.0 2.3395754724
W  W32  1  0.37681000  0.09589000  0.58832000  1.0 2.3499192784
W  W33  1  0.50859000  0.96116000  0.28326000  1.0 2.1211277634
W  W34  1  0.49141000  0.03884000  0.71674000  1.0 2.1211277634
W  W35  1  0.87854000  0.82459000  0.40667000  1.0 2.1736684232
W  W36  1  0.12146000  0.17541000  0.59333000  1.0 2.1751346975
C  C1  1  0.73700000  0.47200000  0.79160000  1.0 -0.2202776532
C  C2  1  0.26300000  0.52800000  0.20840000  1.0 -0.2202776532
C  C3  1  0.61800000  0.09300000  0.90640000  1.0 0.0726352311
C  C4  1  0.38200000  0.90700000  0.09360000  1.0 0.0726352311
C  C5  1  0.09900000  0.36000000  0.40500000  1.0 -0.1473577828
C  C6  1  0.90100000  0.64000000  0.59500000  1.0 -0.1473577828
C  C7  1  0.70600000  0.00800000  0.96700000  1.0 0.1294829872
C  C8  1  0.29400000  0.99200000  0.03300000  1.0 0.1294829872
C  C9  1  0.38300000  0.20800000  0.03000000  1.0 0.1506110221
C  C10  1  0.61700000  0.79200000  0.97000000  1.0 0.1506110221
C  C11  1  0.85100000  0.00800000  0.67770000  1.0 -0.1812571049
C  C12  1  0.14900000  0.99200000  0.32230000  1.0 -0.1812571049
C  C13  1  0.19400000  0.30200000  0.42030000  1.0 -0.2318867704
C  C14  1  0.80600000  0.69800000  0.57970000  1.0 -0.2318867704
C  C15  1  0.22900000  0.21700000  0.38370000  1.0 -0.3299393267
C  C16  1  0.77100000  0.78300000  0.61630000  1.0 -0.3299393267
C  C17  1  0.31900000  0.15800000  0.39600000  1.0 -0.188058319
C  C18  1  0.68100000  0.84200000  0.60400000  1.0 -0.188058319
C  C19  1  0.73600000  0.11600000  0.82500000  1.0 -0.1680208356
C  C20  1  0.26400000  0.88400000  0.17500000  1.0 -0.1680208356
C  C21  1  0.78400000  0.03500000  0.78580000  1.0 -0.2134886047
C  C22  1  0.21600000  0.96500000  0.21420000  1.0 -0.2134886047
C  C23  1  0.79100000  0.07200000  0.72070000  1.0 -0.2406973713
C  C24  1  0.20900000  0.92800000  0.27930000  1.0 -0.2406973713
C  C25  1  0.40700000  0.25000000  0.33560000  1.0 0.0490176767
C  C26  1  0.59300000  0.75000000  0.66440000  1.0 0.0490176767
C  C27  1  0.51900000  0.24800000  0.39240000  1.0 0.1195525554
C  C28  1  0.48100000  0.75200000  0.60760000  1.0 0.1195525554
C  C29  1  0.79800000  0.48700000  0.97320000  1.0 0.0998122567
C  C30  1  0.20200000  0.51300000  0.02680000  1.0 0.0998122567
C  C31  1  0.71500000  0.44800000  0.73070000  1.0 -0.2318867704
C  C32  1  0.28500000  0.55200000  0.26930000  1.0 -0.2318867704
C  C33  1  0.77400000  0.39200000  0.83140000  1.0 -0.188058319
C  C34  1  0.22600000  0.60800000  0.16860000  1.0 -0.188058319
C  C35  1  0.77900000  0.46300000  0.68250000  1.0 -0.1970644206
C  C36  1  0.22100000  0.53700000  0.31750000  1.0 -0.1970644206
C  C37  1  0.68800000  0.44200000  0.54110000  1.0 0.108995047
C  C38  1  0.31200000  0.55800000  0.45890000  1.0 0.108995047
C  C39  1  0.10000000  0.24600000  0.19150000  1.0 -0.155986166
C  C40  1  0.90000000  0.75400000  0.80850000  1.0 -0.155986166
C  C41  1  0.20800000  0.20900000  0.19700000  1.0 -0.2202776532
C  C42  1  0.79200000  0.79100000  0.80300000  1.0 -0.2134886047
C  C43  1  0.25400000  0.29000000  0.19300000  1.0 -0.2406973713
C  C44  1  0.74600000  0.71000000  0.80700000  1.0 -0.2406973713
C  C45  1  0.36200000  0.25600000  0.18380000  1.0 -0.1473577828
C  C46  1  0.63800000  0.74400000  0.81620000  1.0 -0.1473577828
C  C47  1  0.79500000  0.36300000  0.59410000  1.0 0.0726352311
C  C48  1  0.20500000  0.63700000  0.40590000  1.0 0.0726352311
C  C49  1  0.89900000  0.06900000  0.53000000  1.0 0.1294829872
C  C50  1  0.10100000  0.93100000  0.47000000  1.0 0.1294829872
C  C51  1  0.81100000  0.13400000  0.59830000  1.0 0.0490176767
C  C52  1  0.18900000  0.86600000  0.40170000  1.0 0.0490176767
C  C53  1  0.08300000  0.29200000  0.03600000  1.0 0.1195525554
C  C54  1  0.91700000  0.70800000  0.96400000  1.0 0.1195525554
C  C55  1  0.95600000  0.32200000  0.44750000  1.0 0.0095581492
C  C56  1  0.04400000  0.67800000  0.55250000  1.0 0.0095581492
C  C57  1  0.93900000  0.23100000  0.38160000  1.0 0.1294829872
C  C58  1  0.06100000  0.76900000  0.61840000  1.0 0.1294829872
C  C59  1  0.04400000  0.37200000  0.11410000  1.0 0.0579671092
C  C60  1  0.95600000  0.62800000  0.88590000  1.0 0.0579671092
C  C61  1  0.43500000  0.13400000  0.10580000  1.0 0.0579671092
C  C62  1  0.56500000  0.86600000  0.89420000  1.0 0.0579671092
C  C63  1  0.89700000  0.41700000  0.90110000  1.0 0.0425684131
C  C64  1  0.10300000  0.58300000  0.09890000  1.0 0.0425684131
N  N1  1  0.85700000  0.05400000  0.61670000  1.0 0.1622096911
N  N2  1  0.14300000  0.94600000  0.38330000  1.0 0.1622096911
N  N3  1  0.90000000  0.26800000  0.43390000  1.0 -0.3374930382
N  N4  1  0.10000000  0.73200000  0.56610000  1.0 -0.3374930382
N  N5  1  0.04100000  0.37800000  0.05500000  1.0 -0.3038511784
N  N6  1  0.95900000  0.62200000  0.94500000  1.0 -0.3038511784
N  N7  1  0.75800000  0.36000000  0.54090000  1.0 -0.3753038854
N  N8  1  0.24200000  0.64000000  0.45910000  1.0 -0.3753038854
N  N9  1  0.61500000  0.04400000  0.95720000  1.0 -0.3374930382
N  N10  1  0.38500000  0.95600000  0.04280000  1.0 -0.3374930382
N  N11  1  0.43800000  0.12800000  0.04550000  1.0 -0.3224328072
N  N12  1  0.56200000  0.87200000  0.95450000  1.0 -0.3224328072
N  N13  1  0.70300000  0.08400000  0.88400000  1.0 0.1437546625
N  N14  1  0.29700000  0.91600000  0.11600000  1.0 0.1437546625
N  N15  1  0.01600000  0.26200000  0.36160000  1.0 -0.2819272638
N  N16  1  0.98400000  0.73800000  0.63840000  1.0 -0.2819272638
N  N17  1  0.91900000  0.01200000  0.57410000  1.0 -0.2479973347
N  N18  1  0.08100000  0.98800000  0.42590000  1.0 -0.2479973347
N  N19  1  0.76400000  0.02700000  0.92220000  1.0 -0.3089307607
N  N20  1  0.23600000  0.97300000  0.07780000  1.0 -0.3089307607
N  N21  1  0.39900000  0.20600000  0.38560000  1.0 0.1622096911
N  N22  1  0.60100000  0.79400000  0.61440000  1.0 0.1622096911
N  N23  1  0.35200000  0.26500000  0.06960000  1.0 -0.2819272638
N  N24  1  0.64800000  0.73500000  0.93040000  1.0 -0.2819272638
N  N25  1  0.46600000  0.20100000  0.42230000  1.0 -0.2406973713
N  N26  1  0.53400000  0.79900000  0.57770000  1.0 -0.2406973713
N  N27  1  0.09100000  0.23300000  0.08380000  1.0 -0.2318867704
N  N28  1  0.90900000  0.76700000  0.91620000  1.0 -0.2318867704
N  N29  1  0.81300000  0.42000000  0.88990000  1.0 0.167926108
N  N30  1  0.18700000  0.58000000  0.11010000  1.0 0.167926108
N  N31  1  0.75700000  0.43600000  0.62280000  1.0 0.1294829872
N  N32  1  0.24300000  0.56400000  0.37720000  1.0 0.1294829872
N  N33  1  0.68900000  0.49100000  0.59080000  1.0 -0.2662496627
N  N34  1  0.31100000  0.50900000  0.40920000  1.0 -0.2662496627
N  N35  1  0.08300000  0.28600000  0.13070000  1.0 0.167926108
N  N36  1  0.91700000  0.71400000  0.86930000  1.0 0.167926108
N  N37  1  0.75000000  0.46800000  0.92690000  1.0 -0.2406973713
N  N38  1  0.25000000  0.53200000  0.07310000  1.0 -0.2406973713
N  N39  1  0.48000000  0.28100000  0.33820000  1.0 -0.2819272638
N  N40  1  0.52000000  0.71900000  0.66180000  1.0 -0.2819272638
N  N41  1  0.38400000  0.21700000  0.12220000  1.0 0.1195525554
N  N42  1  0.61600000  0.78300000  0.87780000  1.0 0.1195525554
N  N43  1  0.02800000  0.31500000  0.40580000  1.0 0.18245759
N  N44  1  0.97200000  0.68500000  0.59420000  1.0 0.18245759
N  N45  1  0.89500000  0.44900000  0.95820000  1.0 -0.3374930382
N  N46  1  0.10500000  0.55100000  0.04180000  1.0 -0.3374930382
N  N47  1  0.83300000  0.14700000  0.53950000  1.0 -0.3494248599
N  N48  1  0.16700000  0.85300000  0.46050000  1.0 -0.3494248599
O  O1  1  0.72340000  0.64440000  0.42260000  1.0 -0.9297509879
O  O2  1  0.27660000  0.35560000  0.57740000  1.0 -0.9297509879
O  O3  1  0.70640000  0.51790000  0.27310000  1.0 -1.0437175841
O  O4  1  0.29360000  0.48210000  0.72690000  1.0 -1.0437175841
O  O5  1  0.76350000  0.98000000  0.27400000  1.0 -1.0502762408
O  O6  1  0.23650000  0.02000000  0.72600000  1.0 -1.0502762408
O  O7  1  0.83770000  0.72230000  0.12120000  1.0 -0.9297509879
O  O8  1  0.16230000  0.27770000  0.87880000  1.0 -0.9297509879
O  O9  1  0.88430000  0.69240000  0.40540000  1.0 -0.937978682
O  O10  1  0.11570000  0.30760000  0.59460000  1.0 -0.937978682
O  O11  1  0.65880000  0.87770000  0.30870000  1.0 -0.8977829129
O  O12  1  0.34120000  0.12230000  0.69130000  1.0 -0.8977829129
O  O13  1  0.78240000  0.35090000  0.30270000  1.0 -0.8824060172
O  O14  1  0.21760000  0.64910000  0.69730000  1.0 -0.8824060172
O  O15  1  0.87230000  0.07800000  0.30730000  1.0 -0.9106157482
O  O16  1  0.12770000  0.92200000  0.69270000  1.0 -0.9106157482
O  O17  1  0.50930000  0.58410000  0.27190000  1.0 -0.9488702849
O  O18  1  0.49070000  0.41590000  0.72810000  1.0 -0.9488702849
O  O19  1  0.98490000  0.65750000  0.28110000  1.0 -0.9297509879
O  O20  1  0.01510000  0.34250000  0.71890000  1.0 -0.9297509879
O  O21  1  0.90410000  0.43950000  0.25680000  1.0 -0.9488702849
O  O22  1  0.09590000  0.56050000  0.74320000  1.0 -0.9488702849
O  O23  1  0.71630000  0.62080000  0.09380000  1.0 -0.9297509879
O  O24  1  0.28370000  0.37920000  0.90620000  1.0 -0.9297509879
O  O25  1  0.68540000  0.39130000  0.20120000  1.0 -0.956666719
O  O26  1  0.31460000  0.60870000  0.79880000  1.0 -0.956666719
O  O27  1  0.65830000  0.02850000  0.16710000  1.0 -0.9772888035
O  O28  1  0.34170000  0.97150000  0.83290000  1.0 -0.9772888035
O  O29  1  0.54960000  0.92630000  0.20430000  1.0 -0.9106157482
O  O30  1  0.45040000  0.07370000  0.79570000  1.0 -0.9106157482
O  O31  1  0.75140000  0.85120000  0.20930000  1.0 -0.8904018711
O  O32  1  0.24860000  0.14880000  0.79070000  1.0 -0.8904018711
O  O33  1  0.48520000  0.84050000  0.29750000  1.0 -0.937978682
O  O34  1  0.51480000  0.15950000  0.70250000  1.0 -0.937978682
O  O35  1  0.81330000  0.47950000  0.16010000  1.0 -0.956666719
O  O36  1  0.18670000  0.52050000  0.83990000  1.0 -0.956666719
O  O37  1  0.59050000  0.79080000  0.41400000  1.0 -0.9488702849
O  O38  1  0.40950000  0.20920000  0.58600000  1.0 -0.9488702849
O  O39  1  0.63410000  0.79080000  0.12880000  1.0 -0.937978682
O  O40  1  0.36590000  0.20920000  0.87120000  1.0 -0.937978682
O  O41  1  0.48040000  0.69360000  0.37180000  1.0 -0.9297509879
O  O42  1  0.51960000  0.30640000  0.62820000  1.0 -0.9297509879
O  O43  1  0.75060000  0.84000000  0.42330000  1.0 -0.9297509879
O  O44  1  0.24940000  0.16000000  0.57670000  1.0 -0.9297509879
O  O45  1  0.51470000  0.96650000  0.36900000  1.0 -0.9297509879
O  O46  1  0.48530000  0.03350000  0.63100000  1.0 -0.9297509879
O  O47  1  0.85350000  0.95120000  0.38840000  1.0 -0.937978682
O  O48  1  0.14650000  0.04880000  0.61160000  1.0 -0.937978682
O  O49  1  0.79690000  0.47260000  0.38310000  1.0 -0.9192824335
O  O50  1  0.20310000  0.52740000  0.61690000  1.0 -0.9192824335
O  O51  1  0.78720000  0.11710000  0.20680000  1.0 -0.9653081507
O  O52  1  0.21280000  0.88290000  0.79320000  1.0 -0.9653081507
O  O53  1  0.61620000  0.53670000  0.39310000  1.0 -0.9297509879
O  O54  1  0.38380000  0.46330000  0.60690000  1.0 -0.9297509879
O  O55  1  0.59210000  0.55630000  0.16860000  1.0 -0.9878536076
O  O56  1  0.40790000  0.44370000  0.83140000  1.0 -0.9954689354
O  O57  1  0.56790000  0.05800000  0.27050000  1.0 -0.956666719
O  O58  1  0.43210000  0.94200000  0.72950000  1.0 -0.956666719
O  O59  1  0.67580000  0.00970000  0.39160000  1.0 -0.9488702849
O  O60  1  0.32420000  0.99030000  0.60840000  1.0 -0.9488702849
O  O61  1  0.87670000  0.95140000  0.16100000  1.0 -0.9878536076
O  O62  1  0.12330000  0.04860000  0.83900000  1.0 -0.9878536076
O  O63  1  0.75770000  0.89480000  0.09430000  1.0 -0.9192824335
O  O64  1  0.24230000  0.10520000  0.90570000  1.0 -0.9192824335
O  O65  1  0.83540000  0.81490000  0.30400000  1.0 -0.8904018711
O  O66  1  0.16460000  0.18510000  0.69600000  1.0 -0.8904018711
O  O67  1  0.72240000  0.65030000  0.20780000  1.0 -0.8977829129
O  O68  1  0.27760000  0.34970000  0.79220000  1.0 -0.8977829129
O  O69  1  0.80980000  0.61750000  0.30420000  1.0 -0.8904018711
O  O70  1  0.19020000  0.38250000  0.69580000  1.0 -0.8904018711
O  O71  1  0.95440000  0.52030000  0.35580000  1.0 -0.9297509879
O  O72  1  0.04560000  0.47970000  0.64420000  1.0 -0.9297509879
O  O73  1  0.92000000  0.58460000  0.19240000  1.0 -0.9192824335
O  O74  1  0.08000000  0.41540000  0.80760000  1.0 -0.9192824335
O  O75  1  0.52130000  0.72330000  0.20650000  1.0 -0.937978682
O  O76  1  0.47870000  0.27670000  0.79350000  1.0 -0.937978682
O  O77  1  0.96470000  0.91300000  0.26020000  1.0 -0.9653081507
O  O78  1  0.03530000  0.08700000  0.73980000  1.0 -0.9653081507
O  O79  1  0.59910000  0.41810000  0.31180000  1.0 -0.8977829129
O  O80  1  0.40090000  0.58190000  0.68820000  1.0 -0.8977829129
O  O81  1  0.94890000  0.77900000  0.19140000  1.0 -0.9297509879
O  O82  1  0.05110000  0.22100000  0.80860000  1.0 -0.9297509879
O  O83  1  0.99100000  0.79840000  0.35680000  1.0 -0.9192824335
O  O84  1  0.00900000  0.20160000  0.64320000  1.0 -0.9192824335
O  O85  1  0.63490000  0.68230000  0.30890000  1.0 -0.8977829129
O  O86  1  0.36510000  0.31770000  0.69110000  1.0 -0.8977829129
O  O87  1  0.69450000  0.34720000  0.41330000  1.0 -0.6897660107
O  O88  1  0.30550000  0.65280000  0.58670000  1.0 -0.6897660107
O  O89  1  0.57440000  0.95760000  0.07750000  1.0 -0.7908354015
O  O90  1  0.42560000  0.04240000  0.92250000  1.0 -0.7908354015
O  O91  1  0.90440000  0.55690000  0.07000000  1.0 -0.7604755671
O  O92  1  0.09560000  0.44310000  0.93000000  1.0 -0.7604755671
O  O93  1  0.77690000  0.14230000  0.41640000  1.0 -0.7604755671
O  O94  1  0.22310000  0.85770000  0.58360000  1.0 -0.7604755671
O  O95  1  0.68770000  0.14600000  0.30910000  1.0 -0.9192824335
O  O96  1  0.31230000  0.85400000  0.69090000  1.0 -0.9192824335
