# DDEC6 charges by PACMAN v1.1 (https://github.com/mtap-research/PACMAN-charge/)
data_KIDXUR_ion_pacman
_symmetry_space_group_name_H-M   'P 1'
_cell_length_a   9.70120000
_cell_length_b   12.44200000
_cell_length_c   17.21800000
_cell_angle_alpha   89.83000000
_cell_angle_beta   104.99000000
_cell_angle_gamma   106.67000000
_symmetry_Int_Tables_number   1
_chemical_formula_structural   Na2Zn5H52C48S4(N8O15)2
_chemical_formula_sum   'Na2 Zn5 H52 C48 S4 N16 O30'
_cell_volume   1917.45520738
_cell_formula_units_Z   1
loop_
 _symmetry_equiv_pos_site_id
 _symmetry_equiv_pos_as_xyz
  1  'x, y, z'
loop_
 _atom_site_type_symbol
 _atom_site_label
 _atom_site_symmetry_multiplicity
 _atom_site_fract_x
 _atom_site_fract_y
 _atom_site_fract_z
 _atom_site_occupancy
 _atom_site_charge
Na  Na1  1  0.23335000  0.55549000  0.72571000  1.0 0.8368753829
Na  Na2  1  0.76665000  0.44451000  0.27429000  1.0 0.8368753829
Zn  Zn1  1  0.00000000  0.00000000  0.00000000  1.0 0.7099336126
Zn  Zn2  1  0.35164000  0.80709000  0.81630000  1.0 0.7771333792
Zn  Zn3  1  0.64836000  0.19291000  0.18370000  1.0 0.7771333792
Zn  Zn4  1  0.96083000  0.11316000  0.80662000  1.0 0.7557459809
Zn  Zn5  1  0.03917000  0.88684000  0.19338000  1.0 0.7557459809
H  H1  1  0.64680000  0.87460000  0.95510000  1.0 0.1305879895
H  H2  1  0.35320000  0.12540000  0.04490000  1.0 0.1305879895
H  H3  1  0.59620000  0.97750000  0.73780000  1.0 0.1305879895
H  H4  1  0.40380000  0.02250000  0.26220000  1.0 0.1305879895
H  H5  1  0.18000000  0.98960000  0.75000000  1.0 0.1305879895
H  H6  1  0.82000000  0.01040000  0.25000000  1.0 0.1305879895
H  H7  1  0.21470000  0.85750000  0.95740000  1.0 0.1305879895
H  H8  1  0.78530000  0.14250000  0.04260000  1.0 0.1305879895
H  H9  1  0.27110000  0.31700000  0.10160000  1.0 0.1305879895
H  H10  1  0.72890000  0.68300000  0.89840000  1.0 0.1305879895
H  H11  1  0.17660000  0.45690000  0.88910000  1.0 0.1305879895
H  H12  1  0.82340000  0.54310000  0.11090000  1.0 0.1305879895
H  H13  1  0.47580000  0.64780000  0.08510000  1.0 0.1374137837
H  H14  1  0.52420000  0.35220000  0.91490000  1.0 0.1374137837
H  H15  1  0.88200000  0.68710000  0.36690000  1.0 0.1305879895
H  H16  1  0.11800000  0.31290000  0.63310000  1.0 0.1305879895
H  H17  1  0.25620000  0.90590000  0.51160000  1.0 0.1305879895
H  H18  1  0.74380000  0.09410000  0.48840000  1.0 0.1305879895
H  H19  1  0.01000000  0.64110000  0.60360000  1.0 0.1305879895
H  H20  1  0.99000000  0.35890000  0.39640000  1.0 0.1305879895
H  H21  1  0.44910000  0.16310000  0.73110000  1.0 0.1305879895
H  H22  1  0.32200000  0.22520000  0.70970000  1.0 0.1374137837
H  H23  1  0.31610000  0.12470000  0.65000000  1.0 0.1305879895
H  H24  1  0.52010000  0.15800000  0.57980000  1.0 0.1305879895
H  H25  1  0.62510000  0.28380000  0.58140000  1.0 0.1374137837
H  H26  1  0.65060000  0.21380000  0.65920000  1.0 0.1374137837
H  H27  1  0.52570000  0.33490000  0.67710000  1.0 0.2707847097
H  H28  1  0.40840000  0.29170000  0.60030000  1.0 0.2707847097
H  H29  1  0.55090000  0.83690000  0.26890000  1.0 0.1305879895
H  H30  1  0.67800000  0.77480000  0.29030000  1.0 0.1374137837
H  H31  1  0.68390000  0.87530000  0.35000000  1.0 0.1305879895
H  H32  1  0.47990000  0.84200000  0.42020000  1.0 0.1305879895
H  H33  1  0.37490000  0.71620000  0.41860000  1.0 0.1374137837
H  H34  1  0.34940000  0.78620000  0.34080000  1.0 0.1374137837
H  H35  1  0.47430000  0.66510000  0.32290000  1.0 0.2707847097
H  H36  1  0.59160000  0.70830000  0.39970000  1.0 0.2707847097
H  H37  1  0.45780000  0.21770000  0.33690000  1.0 0.1305879895
H  H38  1  0.54730000  0.27910000  0.42450000  1.0 0.1305879895
H  H39  1  0.38710000  0.18800000  0.41140000  1.0 0.1374137837
H  H40  1  0.15990000  0.24030000  0.34280000  1.0 0.1305879895
H  H41  1  0.18010000  0.36040000  0.30610000  1.0 0.1374137837
H  H42  1  0.22230000  0.26340000  0.26500000  1.0 0.1305879895
H  H43  1  0.37460000  0.36940000  0.41680000  1.0 0.2649227121
H  H44  1  0.43230000  0.39220000  0.34450000  1.0 0.2707847097
H  H45  1  0.54220000  0.78230000  0.66310000  1.0 0.1305879895
H  H46  1  0.45270000  0.72090000  0.57550000  1.0 0.1305879895
H  H47  1  0.61290000  0.81200000  0.58860000  1.0 0.1374137837
H  H48  1  0.84010000  0.75970000  0.65720000  1.0 0.1305879895
H  H49  1  0.81990000  0.63960000  0.69390000  1.0 0.1374137837
H  H50  1  0.77770000  0.73660000  0.73500000  1.0 0.1305879895
H  H51  1  0.62540000  0.63060000  0.58320000  1.0 0.2649227121
H  H52  1  0.56770000  0.60780000  0.65550000  1.0 0.2707847097
C  C1  1  0.66610000  0.91180000  0.90910000  1.0 0.1662560628
C  C2  1  0.33390000  0.08820000  0.09090000  1.0 0.1662560628
C  C3  1  0.63890000  0.96710000  0.79240000  1.0 0.1662560628
C  C4  1  0.36110000  0.03290000  0.20760000  1.0 0.1662560628
C  C5  1  0.17010000  0.97160000  0.80230000  1.0 0.1604018585
C  C6  1  0.82990000  0.02840000  0.19770000  1.0 0.1604018585
C  C7  1  0.18840000  0.90090000  0.91360000  1.0 0.1604018585
C  C8  1  0.81160000  0.09910000  0.08640000  1.0 0.1604018585
C  C9  1  0.38450000  0.48350000  0.10460000  1.0 -0.0774621404
C  C10  1  0.61550000  0.51650000  0.89540000  1.0 -0.0774621404
C  C11  1  0.28520000  0.38020000  0.07020000  1.0 -0.1067603654
C  C12  1  0.71480000  0.61980000  0.92980000  1.0 -0.1007488617
C  C13  1  0.20690000  0.37030000  0.98960000  1.0 -0.0107528248
C  C14  1  0.79310000  0.62970000  0.01040000  1.0 -0.0107528248
C  C15  1  0.22910000  0.46380000  0.94450000  1.0 -0.1007488617
C  C16  1  0.77090000  0.53620000  0.05550000  1.0 -0.1007488617
C  C17  1  0.32850000  0.56820000  0.98020000  1.0 -0.0188318693
C  C18  1  0.67150000  0.43180000  0.01980000  1.0 -0.0188318693
C  C19  1  0.40730000  0.57790000  0.06050000  1.0 -0.1007488617
C  C20  1  0.59270000  0.42210000  0.93950000  1.0 -0.1007488617
C  C21  1  0.10180000  0.25750000  0.95110000  1.0 0.5708476641
C  C22  1  0.89820000  0.74250000  0.04890000  1.0 0.5708476641
C  C23  1  0.35070000  0.67000000  0.93350000  1.0 0.5708476641
C  C24  1  0.64930000  0.33000000  0.06650000  1.0 0.5708476641
C  C25  1  0.92540000  0.65260000  0.48450000  1.0 -0.0937732234
C  C26  1  0.07460000  0.34740000  0.51550000  1.0 -0.0937732234
C  C27  1  0.94970000  0.71090000  0.41870000  1.0 -0.1007488617
C  C28  1  0.05030000  0.28910000  0.58130000  1.0 -0.1007488617
C  C29  1  0.07460000  0.80550000  0.42870000  1.0 -0.0107528248
C  C30  1  0.92540000  0.19450000  0.57130000  1.0 -0.0107528248
C  C31  1  0.17310000  0.84030000  0.50450000  1.0 -0.1067603654
C  C32  1  0.82690000  0.15970000  0.49550000  1.0 -0.1067603654
C  C33  1  0.15010000  0.77930000  0.56980000  1.0 -0.0188318693
C  C34  1  0.84990000  0.22070000  0.43020000  1.0 -0.0188318693
C  C35  1  0.02530000  0.68390000  0.55920000  1.0 -0.1007488617
C  C36  1  0.97470000  0.31610000  0.44080000  1.0 -0.1007488617
C  C37  1  0.10240000  0.87030000  0.35770000  1.0 0.5434216299
C  C38  1  0.89760000  0.12970000  0.64230000  1.0 0.5434216299
C  C39  1  0.25330000  0.81830000  0.65170000  1.0 0.5627740361
C  C40  1  0.74670000  0.18170000  0.34830000  1.0 0.5627740361
C  C41  1  0.38220000  0.18910000  0.68730000  1.0 -0.2912244411
C  C42  1  0.57550000  0.22820000  0.61350000  1.0 -0.2912244411
C  C43  1  0.61780000  0.81090000  0.31270000  1.0 -0.2912244411
C  C44  1  0.42450000  0.77180000  0.38650000  1.0 -0.2912244411
C  C45  1  0.44800000  0.24810000  0.38690000  1.0 -0.284311857
C  C46  1  0.22150000  0.29690000  0.31630000  1.0 -0.2912244411
C  C47  1  0.55200000  0.75190000  0.61310000  1.0 -0.284311857
C  C48  1  0.77850000  0.70310000  0.68370000  1.0 -0.2912244411
S  S1  1  0.48099000  0.49753000  0.20767000  1.0 1.1475447156
S  S2  1  0.51901000  0.50247000  0.79233000  1.0 1.1475447156
S  S3  1  0.75516000  0.54284000  0.47378000  1.0 1.1475447156
S  S4  1  0.24484000  0.45716000  0.52622000  1.0 1.1475447156
N  N1  1  0.56390000  0.89930000  0.83845000  1.0 -0.3029801957
N  N2  1  0.43610000  0.10070000  0.16155000  1.0 -0.3029801957
N  N3  1  0.79730000  0.98170000  0.90826000  1.0 -0.1818147338
N  N4  1  0.20270000  0.01830000  0.09174000  1.0 -0.1818147338
N  N5  1  0.77890000  0.01740000  0.83237000  1.0 -0.1956252492
N  N6  1  0.22110000  0.98260000  0.16763000  1.0 -0.1956252492
N  N7  1  0.23050000  0.89910000  0.84551000  1.0 -0.3029801957
N  N8  1  0.76950000  0.10090000  0.15449000  1.0 -0.3029801957
N  N9  1  0.09480000  0.01550000  0.84102000  1.0 -0.1956252492
N  N10  1  0.90520000  0.98450000  0.15898000  1.0 -0.1956252492
N  N11  1  0.10670000  0.96920000  0.91351000  1.0 -0.1818147338
N  N12  1  0.89330000  0.03080000  0.08649000  1.0 -0.1818147338
N  N13  1  0.47210000  0.27130000  0.64330000  1.0 -0.1067603654
N  N14  1  0.52790000  0.72870000  0.35670000  1.0 -0.1067603654
N  N15  1  0.37610000  0.33720000  0.36910000  1.0 -0.1007488617
N  N16  1  0.62390000  0.66280000  0.63090000  1.0 -0.1007488617
O  O1  1  0.08600000  0.17710000  0.99364000  1.0 -0.5587202074
O  O2  1  0.91400000  0.82290000  0.00636000  1.0 -0.5587202074
O  O3  1  0.03790000  0.25420000  0.87700000  1.0 -0.5058718435
O  O4  1  0.96210000  0.74580000  0.12300000  1.0 -0.5058718435
O  O5  1  0.41980000  0.76480000  0.96901000  1.0 -0.5587202074
O  O6  1  0.58020000  0.23520000  0.03099000  1.0 -0.5587202074
O  O7  1  0.29420000  0.65480000  0.85709000  1.0 -0.5784635804
O  O8  1  0.70580000  0.34520000  0.14291000  1.0 -0.5784635804
O  O9  1  0.39000000  0.54050000  0.24863000  1.0 -0.5856800339
O  O10  1  0.61000000  0.45950000  0.75137000  1.0 -0.5856800339
O  O11  1  0.48420000  0.38510000  0.22997000  1.0 -0.6403625272
O  O12  1  0.51580000  0.61490000  0.77003000  1.0 -0.6403625272
O  O13  1  0.62860000  0.57590000  0.21699000  1.0 -0.6249682567
O  O14  1  0.37140000  0.42410000  0.78301000  1.0 -0.6249682567
O  O15  1  0.20640000  0.95600000  0.36530000  1.0 -0.540261086
O  O16  1  0.79360000  0.04400000  0.63470000  1.0 -0.540261086
O  O17  1  0.01250000  0.82680000  0.29167000  1.0 -0.5058718435
O  O18  1  0.98750000  0.17320000  0.70833000  1.0 -0.5058718435
O  O19  1  0.24720000  0.74560000  0.70381000  1.0 -0.5784635804
O  O20  1  0.75280000  0.25440000  0.29619000  1.0 -0.5784635804
O  O21  1  0.33620000  0.91730000  0.66550000  1.0 -0.5587202074
O  O22  1  0.66380000  0.08270000  0.33450000  1.0 -0.5587202074
O  O23  1  0.77780000  0.47280000  0.54002000  1.0 -0.5176753662
O  O24  1  0.22220000  0.52720000  0.45998000  1.0 -0.5176753662
O  O25  1  0.71880000  0.48280000  0.39668000  1.0 -0.6309374533
O  O26  1  0.28120000  0.51720000  0.60332000  1.0 -0.6309374533
O  O27  1  0.64790000  0.60250000  0.47900000  1.0 -0.6141498349
O  O28  1  0.35210000  0.39750000  0.52100000  1.0 -0.6141498349
O  O29  1  0.97970000  0.47210000  0.69130000  1.0 -0.3387855552
O  O30  1  0.02030000  0.52790000  0.30870000  1.0 -0.3473528884
