# DDEC6 charges by PACMAN v1.1 (https://github.com/mtap-research/PACMAN-charge/)
data_KIFDIM_ion_pacman
_symmetry_space_group_name_H-M   'P 1'
_cell_length_a   11.52600000
_cell_length_b   12.00000000
_cell_length_c   12.61100000
_cell_angle_alpha   69.34000000
_cell_angle_beta   64.25000000
_cell_angle_gamma   73.01000000
_symmetry_Int_Tables_number   1
_chemical_formula_structural   Fe3H34C40S4(N2O7)4
_chemical_formula_sum   'Fe3 H34 C40 S4 N8 O28'
_cell_volume   1449.90293755
_cell_formula_units_Z   1
loop_
 _symmetry_equiv_pos_site_id
 _symmetry_equiv_pos_as_xyz
  1  'x, y, z'
loop_
 _atom_site_type_symbol
 _atom_site_label
 _atom_site_symmetry_multiplicity
 _atom_site_fract_x
 _atom_site_fract_y
 _atom_site_fract_z
 _atom_site_occupancy
 _atom_site_charge
Fe  Fe1  1  0.00000000  0.50000000  0.50000000  1.0 0.8583435501
Fe  Fe2  1  0.00000000  0.00000000  0.00000000  1.0 0.9118244136
Fe  Fe3  1  0.00000000  0.00000000  0.50000000  1.0 0.6410614337
H  H1  1  0.29040000  0.45960000  0.46170000  1.0 0.0895459761
H  H2  1  0.70960000  0.54040000  0.53830000  1.0 0.0895459761
H  H3  1  0.49570000  0.36140000  0.35890000  1.0 0.1318051104
H  H4  1  0.50430000  0.63860000  0.64110000  1.0 0.1318051104
H  H5  1  0.32210000  0.21640000  0.23200000  1.0 0.1318051104
H  H6  1  0.67790000  0.78360000  0.76800000  1.0 0.1318051104
H  H7  1  0.12300000  0.31570000  0.33780000  1.0 0.0987586836
H  H8  1  0.87700000  0.68430000  0.66220000  1.0 0.0987586836
H  H9  1  0.71160000  0.04480000  0.02430000  1.0 0.1122632484
H  H10  1  0.28840000  0.95520000  0.97570000  1.0 0.1122632484
H  H11  1  0.50650000  0.14490000  0.12490000  1.0 0.1318051104
H  H12  1  0.49350000  0.85510000  0.87510000  1.0 0.1318051104
H  H13  1  0.67100000  0.26290000  0.27890000  1.0 0.1318051104
H  H14  1  0.32900000  0.73710000  0.72110000  1.0 0.1318051104
H  H15  1  0.87220000  0.16130000  0.17810000  1.0 0.1122632484
H  H16  1  0.12780000  0.83870000  0.82190000  1.0 0.1122632484
H  H17  1  0.69600000  0.09570000  0.63050000  1.0 0.0700189351
H  H18  1  0.30400000  0.90430000  0.36950000  1.0 0.0700189351
H  H19  1  0.49530000  0.10530000  0.61830000  1.0 0.1402280117
H  H20  1  0.50470000  0.89470000  0.38170000  1.0 0.1402280117
H  H21  1  0.67550000  0.88940000  0.38570000  1.0 0.1402280117
H  H22  1  0.32450000  0.11060000  0.61430000  1.0 0.1402280117
H  H23  1  0.87370000  0.88160000  0.39580000  1.0 0.0987586836
H  H24  1  0.12630000  0.11840000  0.60420000  1.0 0.0987586836
H  H25  1  0.80250000  0.54240000  0.04200000  1.0 0.1318051104
H  H26  1  0.19750000  0.45760000  0.95800000  1.0 0.1318051104
H  H27  1  0.56930000  0.58820000  0.08970000  1.0 0.1402280117
H  H28  1  0.43070000  0.41180000  0.91030000  1.0 0.1402280117
H  H29  1  0.62170000  0.38340000  0.86930000  1.0 0.1318051104
H  H30  1  0.37830000  0.61660000  0.13070000  1.0 0.1318051104
H  H31  1  0.84840000  0.34520000  0.82660000  1.0 0.1195803518
H  H32  1  0.15160000  0.65480000  0.17340000  1.0 0.1195803518
H  H33  1  0.92530000  0.41810000  0.91450000  1.0 0.307430097
H  H34  1  0.07470000  0.58190000  0.08550000  1.0 0.307430097
C  C1  1  0.29700000  0.40800000  0.41300000  1.0 0.0987586836
C  C2  1  0.70300000  0.59200000  0.58700000  1.0 0.0987586836
C  C3  1  0.42000000  0.35100000  0.35100000  1.0 -0.1979204943
C  C4  1  0.58000000  0.64900000  0.64900000  1.0 -0.1979204943
C  C5  1  0.43450000  0.27790000  0.28000000  1.0 0.1122632484
C  C6  1  0.56550000  0.72210000  0.72000000  1.0 0.1122632484
C  C7  1  0.31900000  0.26650000  0.27780000  1.0 -0.1787343835
C  C8  1  0.68100000  0.73350000  0.72220000  1.0 -0.1787343835
C  C9  1  0.20190000  0.32600000  0.34000000  1.0 0.0643002512
C  C10  1  0.79810000  0.67400000  0.66000000  1.0 0.0643002512
C  C11  1  0.70300000  0.09100000  0.07900000  1.0 0.0987586836
C  C12  1  0.29700000  0.90900000  0.92100000  1.0 0.0987586836
C  C13  1  0.58200000  0.14900000  0.13800000  1.0 -0.1979204943
C  C14  1  0.41800000  0.85100000  0.86200000  1.0 -0.1979204943
C  C15  1  0.56350000  0.21550000  0.21640000  1.0 0.0895459761
C  C16  1  0.43650000  0.78450000  0.78360000  1.0 0.0895459761
C  C17  1  0.67600000  0.21800000  0.22740000  1.0 -0.1979204943
C  C18  1  0.32400000  0.78200000  0.77260000  1.0 -0.1979204943
C  C19  1  0.79600000  0.15800000  0.16660000  1.0 0.0895459761
C  C20  1  0.20400000  0.84200000  0.83340000  1.0 0.0895459761
C  C21  1  0.69300000  0.05500000  0.57500000  1.0 0.0700189351
C  C22  1  0.30700000  0.94500000  0.42500000  1.0 0.0700189351
C  C23  1  0.57400000  0.05900000  0.57000000  1.0 -0.1898194169
C  C24  1  0.42600000  0.94100000  0.43000000  1.0 -0.1898194169
C  C25  1  0.56290000  0.99800000  0.49970000  1.0 0.0987586836
C  C26  1  0.43710000  0.00200000  0.50030000  1.0 0.0987586836
C  C27  1  0.67800000  0.93200000  0.43580000  1.0 -0.166103295
C  C28  1  0.32200000  0.06800000  0.56420000  1.0 -0.166103295
C  C29  1  0.79480000  0.93100000  0.44100000  1.0 0.0643002512
C  C30  1  0.20520000  0.06900000  0.55900000  1.0 0.0643002512
C  C31  1  0.76000000  0.51000000  0.00900000  1.0 0.1122632484
C  C32  1  0.24000000  0.49000000  0.99100000  1.0 0.1122632484
C  C33  1  0.62500000  0.53600000  0.03700000  1.0 -0.1979204943
C  C34  1  0.37500000  0.46400000  0.96300000  1.0 -0.1979204943
C  C35  1  0.57010000  0.48790000  0.98500000  1.0 0.1122632484
C  C36  1  0.42990000  0.51210000  0.01500000  1.0 0.1122632484
C  C37  1  0.65600000  0.41700000  0.90700000  1.0 -0.2097696764
C  C38  1  0.34400000  0.58300000  0.09300000  1.0 -0.2097696764
C  C39  1  0.78700000  0.39300000  0.88300000  1.0 0.1122632484
C  C40  1  0.21300000  0.60700000  0.11700000  1.0 0.1122632484
S  S1  1  0.84670000  0.25700000  0.60560000  1.0 0.7300063754
S  S2  1  0.15330000  0.74300000  0.39440000  1.0 0.7300063754
S  S3  1  0.14960000  0.24430000  0.89300000  1.0 1.3936189498
S  S4  1  0.85040000  0.75570000  0.10700000  1.0 1.3936189498
N  N1  1  0.18770000  0.39760000  0.40850000  1.0 -0.294668964
N  N2  1  0.81230000  0.60240000  0.59150000  1.0 -0.294668964
N  N3  1  0.80940000  0.09400000  0.09310000  1.0 -0.2522942339
N  N4  1  0.19060000  0.90600000  0.90690000  1.0 -0.2522942339
N  N5  1  0.80610000  0.99560000  0.50570000  1.0 -0.3119174605
N  N6  1  0.19390000  0.00440000  0.49430000  1.0 -0.3119174605
N  N7  1  0.83160000  0.43950000  0.93370000  1.0 -0.1402032589
N  N8  1  0.16840000  0.56050000  0.06630000  1.0 -0.1402032589
O  O1  1  0.92400000  0.33990000  0.59900000  1.0 -0.5452452814
O  O2  1  0.07600000  0.66010000  0.40100000  1.0 -0.5452452814
O  O3  1  0.92910000  0.17750000  0.52970000  1.0 0.0107486761
O  O4  1  0.07090000  0.82250000  0.47030000  1.0 0.0107486761
O  O5  1  0.73120000  0.31920000  0.57700000  1.0 -0.0103025953
O  O6  1  0.26880000  0.68080000  0.42300000  1.0 -0.0103025953
O  O7  1  0.80000000  0.18110000  0.73730000  1.0 -0.1538647105
O  O8  1  0.20000000  0.81890000  0.26270000  1.0 -0.1538647105
O  O9  1  0.08960000  0.14280000  0.98620000  1.0 -0.6373876249
O  O10  1  0.91040000  0.85720000  0.01380000  1.0 -0.6373876249
O  O11  1  0.14140000  0.25520000  0.77710000  1.0 -0.5307422196
O  O12  1  0.85860000  0.74480000  0.22290000  1.0 -0.5307422196
O  O13  1  0.28510000  0.22660000  0.88100000  1.0 -0.6451287781
O  O14  1  0.71490000  0.77340000  0.11900000  1.0 -0.6451287781
O  O15  1  0.07790000  0.35550000  0.93030000  1.0 -0.6276463186
O  O16  1  0.92210000  0.64450000  0.06970000  1.0 -0.6276463186
O  O17  1  0.06190000  0.47310000  0.64980000  1.0 -0.272336862
O  O18  1  0.93810000  0.52690000  0.35020000  1.0 -0.272336862
O  O19  1  0.98490000  0.09760000  0.83030000  1.0 -0.2097696764
O  O20  1  0.01510000  0.90240000  0.16970000  1.0 -0.2097696764
O  O21  1  0.05160000  0.09390000  0.31310000  1.0 -0.3257527267
O  O22  1  0.94840000  0.90610000  0.68690000  1.0 -0.3257527267
O  O23  1  0.90200000  0.13300000  0.62300000  1.0 0.0514527476
O  O24  1  0.09800000  0.86700000  0.37700000  1.0 0.0514527476
O  O25  1  0.85400000  0.31100000  0.46400000  1.0 -0.1979204943
O  O26  1  0.14600000  0.68900000  0.53600000  1.0 -0.1979204943
O  O27  1  0.72400000  0.28300000  0.68200000  1.0 -0.0433258498
O  O28  1  0.27600000  0.71700000  0.31800000  1.0 -0.0433258498
