# DDEC6 charges by PACMAN v1.1 (https://github.com/mtap-research/PACMAN-charge/)
data_KIFDIM_ASR_pacman
_symmetry_space_group_name_H-M   'P 1'
_cell_length_a   12.00000000
_cell_length_b   12.61100000
_cell_length_c   11.52600000
_cell_angle_alpha   115.75000000
_cell_angle_beta   106.99000000
_cell_angle_gamma   69.34000000
_symmetry_Int_Tables_number   1
_chemical_formula_structural   Fe3H24C30S4(N3O11)2
_chemical_formula_sum   'Fe3 H24 C30 S4 N6 O22'
_cell_volume   1449.90293755
_cell_formula_units_Z   1
loop_
 _symmetry_equiv_pos_site_id
 _symmetry_equiv_pos_as_xyz
  1  'x, y, z'
loop_
 _atom_site_type_symbol
 _atom_site_label
 _atom_site_symmetry_multiplicity
 _atom_site_fract_x
 _atom_site_fract_y
 _atom_site_fract_z
 _atom_site_occupancy
 _atom_site_charge
Fe  Fe1  1  0.50000000  0.50000000  0.00000000  1.0 0.9781468604
Fe  Fe2  1  0.00000000  0.00000000  0.00000000  1.0 0.9659925196
Fe  Fe3  1  0.00000000  0.50000000  0.00000000  1.0 0.9965753052
H  H1  1  0.52727000  0.52879000  0.28044000  1.0 0.1181860916
H  H2  1  0.47273000  0.47121000  0.71956000  1.0 0.1181860916
H  H3  1  0.62881000  0.63637000  0.50012000  1.0 0.1181860916
H  H4  1  0.37119000  0.36363000  0.49988000  1.0 0.1181860916
H  H5  1  0.78479000  0.77465000  0.31284000  1.0 0.1181860916
H  H6  1  0.21521000  0.22535000  0.68716000  1.0 0.1181860916
H  H7  1  0.67557000  0.66145000  0.10220000  1.0 0.1181860916
H  H8  1  0.32443000  0.33855000  0.89780000  1.0 0.1181860916
H  H9  1  0.96301000  0.98945000  0.72291000  1.0 0.1181860916
H  H10  1  0.03699000  0.01055000  0.27709000  1.0 0.1181860916
H  H11  1  0.85946000  0.88539000  0.50208000  1.0 0.1181860916
H  H12  1  0.14054000  0.11461000  0.49792000  1.0 0.1181860916
H  H13  1  0.73129000  0.71607000  0.68090000  1.0 0.1104882015
H  H14  1  0.26871000  0.28393000  0.31910000  1.0 0.1104882015
H  H15  1  0.84119000  0.82818000  0.89289000  1.0 0.1181860916
H  H16  1  0.15881000  0.17182000  0.10711000  1.0 0.1181860916
H  H17  1  0.89875000  0.37045000  0.71224000  1.0 0.0903586093
H  H18  1  0.10125000  0.62955000  0.28776000  1.0 0.0903586093
H  H19  1  0.88802000  0.37029000  0.49705000  1.0 0.1181860916
H  H20  1  0.11198000  0.62971000  0.50295000  1.0 0.1181860916
H  H21  1  0.12025000  0.62234000  0.68941000  1.0 0.1268995199
H  H22  1  0.87975000  0.37766000  0.31059000  1.0 0.1268995199
H  H23  1  0.11361000  0.61612000  0.89541000  1.0 0.1104882015
H  H24  1  0.88639000  0.38388000  0.10459000  1.0 0.1104882015
C  C1  1  0.58661000  0.58411000  0.29358000  1.0 0.1002686564
C  C2  1  0.41339000  0.41589000  0.70642000  1.0 0.1002686564
C  C3  1  0.64507000  0.64633000  0.41715000  1.0 -0.1403507851
C  C4  1  0.35493000  0.35367000  0.58285000  1.0 -0.1403507851
C  C5  1  0.71867000  0.71996000  0.43299000  1.0 0.0903586093
C  C6  1  0.28133000  0.28004000  0.56701000  1.0 0.0903586093
C  C7  1  0.72851000  0.72364000  0.31525000  1.0 -0.1458136942
C  C8  1  0.27149000  0.27636000  0.68475000  1.0 -0.1458136942
C  C9  1  0.66732000  0.66001000  0.19401000  1.0 0.1104882015
C  C10  1  0.33268000  0.33999000  0.80599000  1.0 0.1104882015
C  C11  1  0.90924000  0.92818000  0.70715000  1.0 0.1181860916
C  C12  1  0.09076000  0.07182000  0.29285000  1.0 0.1181860916
C  C13  1  0.84993000  0.86764000  0.58321000  1.0 -0.1403507851
C  C14  1  0.15007000  0.13236000  0.41679000  1.0 -0.1403507851
C  C15  1  0.78226000  0.78775000  0.56517000  1.0 0.1002686564
C  C16  1  0.21774000  0.21225000  0.43483000  1.0 0.1002686564
C  C17  1  0.77988000  0.77509000  0.68075000  1.0 -0.1403507851
C  C18  1  0.22012000  0.22491000  0.31925000  1.0 -0.1403507851
C  C19  1  0.84160000  0.83707000  0.80222000  1.0 0.1181860916
C  C20  1  0.15840000  0.16293000  0.19778000  1.0 0.1181860916
C  C21  1  0.94537000  0.42619000  0.70223000  1.0 0.1104882015
C  C22  1  0.05463000  0.57381000  0.29777000  1.0 0.1104882015
C  C23  1  0.94131000  0.42687000  0.57951000  1.0 -0.1341268327
C  C24  1  0.05869000  0.57313000  0.42049000  1.0 -0.1341268327
C  C25  1  0.00216000  0.49793000  0.56545000  1.0 0.0903586093
C  C26  1  0.99784000  0.50207000  0.43455000  1.0 0.0903586093
C  C27  1  0.06669000  0.56475000  0.68354000  1.0 -0.1403507851
C  C28  1  0.93331000  0.43525000  0.31646000  1.0 -0.1403507851
C  C29  1  0.06538000  0.56237000  0.80400000  1.0 0.1181860916
C  C30  1  0.93462000  0.43763000  0.19600000  1.0 0.1181860916
S  S1  1  0.74507000  0.39683000  0.85345000  1.0 1.3616169188
S  S2  1  0.25493000  0.60317000  0.14655000  1.0 1.3616169188
S  S3  1  0.76667000  0.10775000  0.14550000  1.0 1.3322393988
S  S4  1  0.23333000  0.89225000  0.85450000  1.0 1.3322393988
N  N1  1  0.59635000  0.59140000  0.18302000  1.0 -0.1890786818
N  N2  1  0.40365000  0.40860000  0.81698000  1.0 -0.1890786818
N  N3  1  0.90556000  0.91272000  0.81530000  1.0 -0.1890786818
N  N4  1  0.09444000  0.08728000  0.18470000  1.0 -0.1890786818
N  N5  1  0.00499000  0.49413000  0.81383000  1.0 -0.1890786818
N  N6  1  0.99501000  0.50587000  0.18617000  1.0 -0.1890786818
O  O1  1  0.66370000  0.39894000  0.93754000  1.0 -0.5122702625
O  O2  1  0.33630000  0.60106000  0.06246000  1.0 -0.5122702625
O  O3  1  0.82154000  0.48908000  0.95129000  1.0 -0.5603751447
O  O4  1  0.17846000  0.51092000  0.04871000  1.0 -0.5603751447
O  O5  1  0.67357000  0.44288000  0.74980000  1.0 -0.5603751447
O  O6  1  0.32643000  0.55712000  0.25020000  1.0 -0.5603751447
O  O7  1  0.82271000  0.27294000  0.80789000  1.0 -0.4922594931
O  O8  1  0.17729000  0.72706000  0.19211000  1.0 -0.4922594931
O  O9  1  0.87776000  0.00719000  0.08145000  1.0 -0.5307629611
O  O10  1  0.12224000  0.99281000  0.91855000  1.0 -0.5307629611
O  O11  1  0.76018000  0.22612000  0.14572000  1.0 -0.4753222968
O  O12  1  0.23982000  0.77388000  0.85428000  1.0 -0.4753222968
O  O13  1  0.79347000  0.10862000  0.27938000  1.0 -0.5307629611
O  O14  1  0.20653000  0.89138000  0.72062000  1.0 -0.5307629611
O  O15  1  0.66251000  0.05932000  0.06627000  1.0 -0.465694448
O  O16  1  0.33749000  0.94068000  0.93373000  1.0 -0.465694448
O  O17  1  0.50922000  0.39500000  0.05023000  1.0 -0.339647403
O  O18  1  0.49078000  0.60500000  0.94977000  1.0 -0.339647403
O  O19  1  0.93436000  0.13227000  0.98781000  1.0 -0.2705185469
O  O20  1  0.06564000  0.86773000  0.01219000  1.0 -0.2705185469
O  O21  1  0.94647000  0.64590000  0.04817000  1.0 -0.3581577595
O  O22  1  0.05353000  0.35410000  0.95183000  1.0 -0.3581577595
