# DDEC6 charges by PACMAN v1.1 (https://github.com/mtap-research/PACMAN-charge/)
data_KIFJIT_FSR_pacman
_symmetry_space_group_name_H-M   'P 1'
_cell_length_a   7.66340000
_cell_length_b   9.68250000
_cell_length_c   27.11050000
_cell_angle_alpha   90.00000000
_cell_angle_beta   90.00000000
_cell_angle_gamma   90.00000000
_symmetry_Int_Tables_number   1
_chemical_formula_structural   Fe2AgH48C28(N2O5)2
_chemical_formula_sum   'Fe4 Ag2 H96 C56 N8 O20'
_cell_volume   2011.62269969
_cell_formula_units_Z   2
loop_
 _symmetry_equiv_pos_site_id
 _symmetry_equiv_pos_as_xyz
  1  'x, y, z'
loop_
 _atom_site_type_symbol
 _atom_site_label
 _atom_site_symmetry_multiplicity
 _atom_site_fract_x
 _atom_site_fract_y
 _atom_site_fract_z
 _atom_site_occupancy
 _atom_site_charge
Fe  Fe1  1  0.50000000  0.50000000  0.05635000  1.0 0.9282853333
Fe  Fe2  1  0.50000000  0.50000000  0.44365000  1.0 0.9282853333
Fe  Fe3  1  0.50000000  0.50000000  0.94365000  1.0 0.9282853333
Fe  Fe4  1  0.50000000  0.50000000  0.55635000  1.0 0.9282853333
Ag  Ag1  1  0.00000000  0.00000000  0.25000000  1.0 0.651301193
Ag  Ag2  1  0.00000000  0.00000000  0.75000000  1.0 0.651301193
H  H1  1  0.96200000  0.37020000  0.12250000  1.0 0.1592177776
H  H2  1  0.03800000  0.62980000  0.12250000  1.0 0.1592177776
H  H3  1  0.96200000  0.62980000  0.37750000  1.0 0.1592177776
H  H4  1  0.03800000  0.37020000  0.37750000  1.0 0.1592177776
H  H5  1  0.03800000  0.62980000  0.87750000  1.0 0.1592177776
H  H6  1  0.96200000  0.37020000  0.87750000  1.0 0.1592177776
H  H7  1  0.03800000  0.37020000  0.62250000  1.0 0.1592177776
H  H8  1  0.96200000  0.62980000  0.62250000  1.0 0.1592177776
H  H9  1  0.99400000  0.21290000  0.10690000  1.0 0.1508633484
H  H10  1  0.00600000  0.78710000  0.10690000  1.0 0.1508633484
H  H11  1  0.99400000  0.78710000  0.39310000  1.0 0.1508633484
H  H12  1  0.00600000  0.21290000  0.39310000  1.0 0.1508633484
H  H13  1  0.00600000  0.78710000  0.89310000  1.0 0.1508633484
H  H14  1  0.99400000  0.21290000  0.89310000  1.0 0.1508633484
H  H15  1  0.00600000  0.21290000  0.60690000  1.0 0.1508633484
H  H16  1  0.99400000  0.78710000  0.60690000  1.0 0.1508633484
H  H17  1  0.96890000  0.32870000  0.06540000  1.0 0.1508633484
H  H18  1  0.03110000  0.67130000  0.06540000  1.0 0.1508633484
H  H19  1  0.96890000  0.67130000  0.43460000  1.0 0.1508633484
H  H20  1  0.03110000  0.32870000  0.43460000  1.0 0.1508633484
H  H21  1  0.03110000  0.67130000  0.93460000  1.0 0.1508633484
H  H22  1  0.96890000  0.32870000  0.93460000  1.0 0.1508633484
H  H23  1  0.03110000  0.32870000  0.56540000  1.0 0.1508633484
H  H24  1  0.96890000  0.67130000  0.56540000  1.0 0.1508633484
H  H25  1  0.30790000  0.78380000  0.97600000  1.0 0.0327187168
H  H26  1  0.69210000  0.21620000  0.97600000  1.0 0.0327187168
H  H27  1  0.30790000  0.21620000  0.52400000  1.0 0.0327187168
H  H28  1  0.69210000  0.78380000  0.52400000  1.0 0.0327187168
H  H29  1  0.69210000  0.21620000  0.02400000  1.0 0.0327187168
H  H30  1  0.30790000  0.78380000  0.02400000  1.0 0.0327187168
H  H31  1  0.69210000  0.78380000  0.47600000  1.0 0.0327187168
H  H32  1  0.30790000  0.21620000  0.47600000  1.0 0.0327187168
H  H33  1  0.53530000  0.18540000  0.20200000  1.0 0.1592177776
H  H34  1  0.46470000  0.81460000  0.20200000  1.0 0.1592177776
H  H35  1  0.53530000  0.81460000  0.29800000  1.0 0.1592177776
H  H36  1  0.46470000  0.18540000  0.29800000  1.0 0.1592177776
H  H37  1  0.46470000  0.81460000  0.79800000  1.0 0.1592177776
H  H38  1  0.53530000  0.18540000  0.79800000  1.0 0.1592177776
H  H39  1  0.46470000  0.18540000  0.70200000  1.0 0.1592177776
H  H40  1  0.53530000  0.81460000  0.70200000  1.0 0.1592177776
H  H41  1  0.70480000  0.26790000  0.18410000  1.0 0.169652298
H  H42  1  0.29520000  0.73210000  0.18410000  1.0 0.169652298
H  H43  1  0.70480000  0.73210000  0.31590000  1.0 0.169652298
H  H44  1  0.29520000  0.26790000  0.31590000  1.0 0.169652298
H  H45  1  0.29520000  0.73210000  0.81590000  1.0 0.169652298
H  H46  1  0.70480000  0.26790000  0.81590000  1.0 0.169652298
H  H47  1  0.29520000  0.26790000  0.68410000  1.0 0.169652298
H  H48  1  0.70480000  0.73210000  0.68410000  1.0 0.169652298
H  H49  1  0.65190000  0.12590000  0.15790000  1.0 0.169652298
H  H50  1  0.34810000  0.87410000  0.15790000  1.0 0.169652298
H  H51  1  0.65190000  0.87410000  0.34210000  1.0 0.169652298
H  H52  1  0.34810000  0.12590000  0.34210000  1.0 0.169652298
H  H53  1  0.34810000  0.87410000  0.84210000  1.0 0.169652298
H  H54  1  0.65190000  0.12590000  0.84210000  1.0 0.169652298
H  H55  1  0.34810000  0.12590000  0.65790000  1.0 0.169652298
H  H56  1  0.65190000  0.87410000  0.65790000  1.0 0.169652298
H  H57  1  0.36180000  0.79000000  0.03290000  1.0 0.0327187168
H  H58  1  0.63820000  0.21000000  0.03290000  1.0 0.0327187168
H  H59  1  0.36180000  0.21000000  0.46710000  1.0 0.0327187168
H  H60  1  0.63820000  0.79000000  0.46710000  1.0 0.0327187168
H  H61  1  0.63820000  0.21000000  0.96710000  1.0 0.0327187168
H  H62  1  0.36180000  0.79000000  0.96710000  1.0 0.0327187168
H  H63  1  0.63820000  0.79000000  0.53290000  1.0 0.0327187168
H  H64  1  0.36180000  0.21000000  0.53290000  1.0 0.0327187168
H  H65  1  0.50760000  0.80660000  0.99110000  1.0 0.0917421979
H  H66  1  0.49240000  0.19340000  0.99110000  1.0 0.0917421979
H  H67  1  0.50760000  0.19340000  0.50890000  1.0 0.0917421979
H  H68  1  0.49240000  0.80660000  0.50890000  1.0 0.0917421979
H  H69  1  0.49240000  0.19340000  0.00890000  1.0 0.0917421979
H  H70  1  0.50760000  0.80660000  0.00890000  1.0 0.0917421979
H  H71  1  0.49240000  0.80660000  0.49110000  1.0 0.0917421979
H  H72  1  0.50760000  0.19340000  0.49110000  1.0 0.0917421979
H  H73  1  0.25850000  0.74320000  0.03190000  1.0 0.0613041649
H  H74  1  0.74150000  0.25680000  0.03190000  1.0 0.0613041649
H  H75  1  0.25850000  0.25680000  0.46810000  1.0 0.0613041649
H  H76  1  0.74150000  0.74320000  0.46810000  1.0 0.0613041649
H  H77  1  0.74150000  0.25680000  0.96810000  1.0 0.0613041649
H  H78  1  0.25850000  0.74320000  0.96810000  1.0 0.0613041649
H  H79  1  0.74150000  0.74320000  0.53190000  1.0 0.0613041649
H  H80  1  0.25850000  0.25680000  0.53190000  1.0 0.0613041649
H  H81  1  0.16810000  0.63790000  0.99430000  1.0 0.1187438247
H  H82  1  0.83190000  0.36210000  0.99430000  1.0 0.1187438247
H  H83  1  0.16810000  0.36210000  0.50570000  1.0 0.1187438247
H  H84  1  0.83190000  0.63790000  0.50570000  1.0 0.1187438247
H  H85  1  0.83190000  0.36210000  0.00570000  1.0 0.1187438247
H  H86  1  0.16810000  0.63790000  0.00570000  1.0 0.1187438247
H  H87  1  0.83190000  0.63790000  0.49430000  1.0 0.1187438247
H  H88  1  0.16810000  0.36210000  0.49430000  1.0 0.1187438247
H  H89  1  0.27810000  0.76610000  0.97370000  1.0 0.0729604279
H  H90  1  0.72190000  0.23390000  0.97370000  1.0 0.0729604279
H  H91  1  0.27810000  0.23390000  0.52630000  1.0 0.0729604279
H  H92  1  0.72190000  0.76610000  0.52630000  1.0 0.0729604279
H  H93  1  0.72190000  0.23390000  0.02630000  1.0 0.0729604279
H  H94  1  0.27810000  0.76610000  0.02630000  1.0 0.0729604279
H  H95  1  0.72190000  0.76610000  0.47370000  1.0 0.0729604279
H  H96  1  0.27810000  0.23390000  0.47370000  1.0 0.0729604279
C  C1  1  0.01700000  0.30940000  0.09810000  1.0 -0.5420293036
C  C2  1  0.98300000  0.69060000  0.09810000  1.0 -0.5420293036
C  C3  1  0.01700000  0.69060000  0.40190000  1.0 -0.5420293036
C  C4  1  0.98300000  0.30940000  0.40190000  1.0 -0.5420293036
C  C5  1  0.98300000  0.69060000  0.90190000  1.0 -0.5420293036
C  C6  1  0.01700000  0.30940000  0.90190000  1.0 -0.5420293036
C  C7  1  0.98300000  0.30940000  0.59810000  1.0 -0.5420293036
C  C8  1  0.01700000  0.69060000  0.59810000  1.0 -0.5420293036
C  C9  1  0.39900000  0.76010000  0.00000000  1.0 -0.2054171684
C  C10  1  0.60100000  0.23990000  0.00000000  1.0 -0.2054171684
C  C11  1  0.39900000  0.23990000  0.50000000  1.0 -0.2054171684
C  C12  1  0.60100000  0.76010000  0.50000000  1.0 -0.2054171684
C  C13  1  0.20800000  0.33410000  0.09770000  1.0 0.388475838
C  C14  1  0.79200000  0.66590000  0.09770000  1.0 0.388475838
C  C15  1  0.20800000  0.66590000  0.40230000  1.0 0.388475838
C  C16  1  0.79200000  0.33410000  0.40230000  1.0 0.388475838
C  C17  1  0.79200000  0.66590000  0.90230000  1.0 0.388475838
C  C18  1  0.20800000  0.33410000  0.90230000  1.0 0.388475838
C  C19  1  0.79200000  0.33410000  0.59770000  1.0 0.388475838
C  C20  1  0.20800000  0.66590000  0.59770000  1.0 0.388475838
C  C21  1  0.31560000  0.27540000  0.13480000  1.0 -0.3885142031
C  C22  1  0.68440000  0.72460000  0.13480000  1.0 -0.3885142031
C  C23  1  0.31560000  0.72460000  0.36520000  1.0 -0.3885142031
C  C24  1  0.68440000  0.27540000  0.36520000  1.0 -0.3885142031
C  C25  1  0.68440000  0.72460000  0.86520000  1.0 -0.3885142031
C  C26  1  0.31560000  0.27540000  0.86520000  1.0 -0.3885142031
C  C27  1  0.68440000  0.27540000  0.63480000  1.0 -0.3885142031
C  C28  1  0.31560000  0.72460000  0.63480000  1.0 -0.3885142031
C  C29  1  0.49680000  0.28930000  0.13650000  1.0 0.4416347508
C  C30  1  0.50320000  0.71070000  0.13650000  1.0 0.4416347508
C  C31  1  0.49680000  0.71070000  0.36350000  1.0 0.4416347508
C  C32  1  0.50320000  0.28930000  0.36350000  1.0 0.4416347508
C  C33  1  0.50320000  0.71070000  0.86350000  1.0 0.4416347508
C  C34  1  0.49680000  0.28930000  0.86350000  1.0 0.4416347508
C  C35  1  0.50320000  0.28930000  0.63650000  1.0 0.4416347508
C  C36  1  0.49680000  0.71070000  0.63650000  1.0 0.4416347508
C  C37  1  0.60690000  0.21010000  0.17340000  1.0 -0.5056101802
C  C38  1  0.39310000  0.78990000  0.17340000  1.0 -0.5056101802
C  C39  1  0.60690000  0.78990000  0.32660000  1.0 -0.5056101802
C  C40  1  0.39310000  0.21010000  0.32660000  1.0 -0.5056101802
C  C41  1  0.39310000  0.78990000  0.82660000  1.0 -0.5056101802
C  C42  1  0.60690000  0.21010000  0.82660000  1.0 -0.5056101802
C  C43  1  0.39310000  0.21010000  0.67340000  1.0 -0.5056101802
C  C44  1  0.60690000  0.78990000  0.67340000  1.0 -0.5056101802
C  C45  1  0.23290000  0.19240000  0.17090000  1.0 0.3056752895
C  C46  1  0.76710000  0.80760000  0.17090000  1.0 0.3056752895
C  C47  1  0.23290000  0.80760000  0.32910000  1.0 0.3056752895
C  C48  1  0.76710000  0.19240000  0.32910000  1.0 0.3056752895
C  C49  1  0.76710000  0.80760000  0.82910000  1.0 0.3056752895
C  C50  1  0.23290000  0.19240000  0.82910000  1.0 0.3056752895
C  C51  1  0.76710000  0.19240000  0.67090000  1.0 0.3056752895
C  C52  1  0.23290000  0.80760000  0.67090000  1.0 0.3056752895
C  C53  1  0.27000000  0.69700000  0.00000000  1.0 -0.2516563694
C  C54  1  0.73000000  0.30300000  0.00000000  1.0 -0.2516563694
C  C55  1  0.27000000  0.30300000  0.50000000  1.0 -0.2516563694
C  C56  1  0.73000000  0.69700000  0.50000000  1.0 -0.2516563694
N  N1  1  0.16550000  0.12870000  0.20160000  1.0 -0.422357821
N  N2  1  0.83450000  0.87130000  0.20160000  1.0 -0.422357821
N  N3  1  0.16550000  0.87130000  0.29840000  1.0 -0.422357821
N  N4  1  0.83450000  0.12870000  0.29840000  1.0 -0.422357821
N  N5  1  0.83450000  0.87130000  0.79840000  1.0 -0.422357821
N  N6  1  0.16550000  0.12870000  0.79840000  1.0 -0.422357821
N  N7  1  0.83450000  0.12870000  0.70160000  1.0 -0.422357821
N  N8  1  0.16550000  0.87130000  0.70160000  1.0 -0.422357821
O  O1  1  0.26530000  0.41140000  0.06437000  1.0 -0.4439656916
O  O2  1  0.73470000  0.58860000  0.06437000  1.0 -0.4453370991
O  O3  1  0.26530000  0.58860000  0.43563000  1.0 -0.4453370991
O  O4  1  0.73470000  0.41140000  0.43563000  1.0 -0.4439656916
O  O5  1  0.73470000  0.58860000  0.93563000  1.0 -0.4439656916
O  O6  1  0.26530000  0.41140000  0.93563000  1.0 -0.4439656916
O  O7  1  0.73470000  0.41140000  0.56437000  1.0 -0.4439656916
O  O8  1  0.26530000  0.58860000  0.56437000  1.0 -0.4453370991
O  O9  1  0.58230000  0.36280000  0.10719000  1.0 -0.4751246097
O  O10  1  0.41770000  0.63720000  0.10719000  1.0 -0.4751246097
O  O11  1  0.58230000  0.63720000  0.39281000  1.0 -0.4751246097
O  O12  1  0.41770000  0.36280000  0.39281000  1.0 -0.4751246097
O  O13  1  0.41770000  0.63720000  0.89281000  1.0 -0.4751246097
O  O14  1  0.58230000  0.36280000  0.89281000  1.0 -0.4745462063
O  O15  1  0.41770000  0.36280000  0.60719000  1.0 -0.4751246097
O  O16  1  0.58230000  0.63720000  0.60719000  1.0 -0.4751246097
O  O17  1  0.42520000  0.61350000  0.00000000  1.0 -0.2516563694
O  O18  1  0.57480000  0.38650000  0.00000000  1.0 -0.2516563694
O  O19  1  0.42520000  0.38650000  0.50000000  1.0 -0.2516563694
O  O20  1  0.57480000  0.61350000  0.50000000  1.0 -0.2516563694
