# DDEC6 charges by PACMAN v1.1 (https://github.com/mtap-research/PACMAN-charge/)
data_KIFWUT_FSR_pacman
_symmetry_space_group_name_H-M   'P 1'
_cell_length_a   17.57110000
_cell_length_b   17.57110000
_cell_length_c   10.44100000
_cell_angle_alpha   83.66990000
_cell_angle_beta   96.33010000
_cell_angle_gamma   115.28200000
_symmetry_Int_Tables_number   1
_chemical_formula_structural   Co3H44C52S(N4O9)2
_chemical_formula_sum   'Co6 H88 C104 S2 N16 O36'
_cell_volume   2889.88891044
_cell_formula_units_Z   2
loop_
 _symmetry_equiv_pos_site_id
 _symmetry_equiv_pos_as_xyz
  1  'x, y, z'
loop_
 _atom_site_type_symbol
 _atom_site_label
 _atom_site_symmetry_multiplicity
 _atom_site_fract_x
 _atom_site_fract_y
 _atom_site_fract_z
 _atom_site_occupancy
 _atom_site_charge
Co  Co1  1  0.78781000  0.95535000  0.51133000  1.0 0.9935257436
Co  Co2  1  0.95535000  0.78781000  0.98867000  1.0 0.9935257436
Co  Co3  1  0.21219000  0.04465000  0.48867000  1.0 0.9935257436
Co  Co4  1  0.04465000  0.21219000  0.01133000  1.0 0.9935257436
Co  Co5  1  0.76521000  0.76521000  0.75000000  1.0 0.897452429
Co  Co6  1  0.23479000  0.23479000  0.25000000  1.0 0.897452429
H  H1  1  0.84820000  0.97200000  0.29280000  1.0 0.315033123
H  H2  1  0.97200000  0.84820000  0.20720000  1.0 0.315033123
H  H3  1  0.15180000  0.02800000  0.70720000  1.0 0.3142663092
H  H4  1  0.02800000  0.15180000  0.79280000  1.0 0.3142663092
H  H5  1  0.90490000  0.96090000  0.38270000  1.0 0.3366086931
H  H6  1  0.96090000  0.90490000  0.11730000  1.0 0.3366086931
H  H7  1  0.09510000  0.03910000  0.61730000  1.0 0.3366086931
H  H8  1  0.03910000  0.09510000  0.88270000  1.0 0.3366086931
H  H9  1  0.94630000  0.07050000  0.49330000  1.0 0.4011893124
H  H10  1  0.07050000  0.94630000  0.00670000  1.0 0.4011893124
H  H11  1  0.05370000  0.92950000  0.50670000  1.0 0.4011893124
H  H12  1  0.92950000  0.05370000  0.99330000  1.0 0.4011893124
H  H13  1  0.90370000  0.08750000  0.59650000  1.0 0.3897424788
H  H14  1  0.08750000  0.90370000  0.90350000  1.0 0.3897424788
H  H15  1  0.09630000  0.91250000  0.40350000  1.0 0.3897424788
H  H16  1  0.91250000  0.09630000  0.09650000  1.0 0.3897424788
H  H17  1  0.64710000  0.51530000  0.85070000  1.0 0.1201311208
H  H18  1  0.51530000  0.64710000  0.64930000  1.0 0.1201311208
H  H19  1  0.35290000  0.48470000  0.14930000  1.0 0.1201311208
H  H20  1  0.48470000  0.35290000  0.35070000  1.0 0.1201311208
H  H21  1  0.58940000  0.37120000  0.89190000  1.0 0.1599381418
H  H22  1  0.37120000  0.58940000  0.60810000  1.0 0.1599381418
H  H23  1  0.41060000  0.62880000  0.10810000  1.0 0.1599381418
H  H24  1  0.62880000  0.41060000  0.39190000  1.0 0.1599381418
H  H25  1  0.76740000  0.39220000  0.16880000  1.0 0.1292983816
H  H26  1  0.39220000  0.76740000  0.33120000  1.0 0.1292983816
H  H27  1  0.23260000  0.60780000  0.83120000  1.0 0.1292983816
H  H28  1  0.60780000  0.23260000  0.66880000  1.0 0.1292983816
H  H29  1  0.82550000  0.53710000  0.12950000  1.0 0.1101667754
H  H30  1  0.53710000  0.82550000  0.37050000  1.0 0.1101667754
H  H31  1  0.17450000  0.46290000  0.87050000  1.0 0.1101667754
H  H32  1  0.46290000  0.17450000  0.62950000  1.0 0.1101667754
H  H33  1  0.75980000  0.27700000  0.99910000  1.0 0.1395534675
H  H34  1  0.27700000  0.75980000  0.50090000  1.0 0.1395534675
H  H35  1  0.24020000  0.72300000  0.00090000  1.0 0.1395534675
H  H36  1  0.72300000  0.24020000  0.49910000  1.0 0.1395534675
H  H37  1  0.81670000  0.18310000  0.07610000  1.0 0.1201311208
H  H38  1  0.18310000  0.81670000  0.42390000  1.0 0.1201311208
H  H39  1  0.18330000  0.81690000  0.92390000  1.0 0.1201311208
H  H40  1  0.81690000  0.18330000  0.57610000  1.0 0.1201311208
H  H41  1  0.64350000  0.08470000  0.33800000  1.0 0.1101667754
H  H42  1  0.08470000  0.64350000  0.16200000  1.0 0.1101667754
H  H43  1  0.35650000  0.91530000  0.66200000  1.0 0.1101667754
H  H44  1  0.91530000  0.35650000  0.83800000  1.0 0.1101667754
H  H45  1  0.58690000  0.17890000  0.25830000  1.0 0.1395534675
H  H46  1  0.17890000  0.58690000  0.24170000  1.0 0.1395534675
H  H47  1  0.41310000  0.82110000  0.74170000  1.0 0.1395534675
H  H48  1  0.82110000  0.41310000  0.75830000  1.0 0.1395534675
H  H49  1  0.61930000  0.96030000  0.51640000  1.0 0.1101667754
H  H50  1  0.96030000  0.61930000  0.98360000  1.0 0.1101667754
H  H51  1  0.38070000  0.03970000  0.48360000  1.0 0.1101667754
H  H52  1  0.03970000  0.38070000  0.01640000  1.0 0.1101667754
H  H53  1  0.54180000  0.00080000  0.63270000  1.0 0.1292983816
H  H54  1  0.00080000  0.54180000  0.86730000  1.0 0.1292983816
H  H55  1  0.45820000  0.99920000  0.36730000  1.0 0.1292983816
H  H56  1  0.99920000  0.45820000  0.13270000  1.0 0.1292983816
H  H57  1  0.73050000  0.06330000  0.91010000  1.0 0.1395534675
H  H58  1  0.06330000  0.73050000  0.58990000  1.0 0.1395534675
H  H59  1  0.26950000  0.93670000  0.08990000  1.0 0.1395534675
H  H60  1  0.93670000  0.26950000  0.41010000  1.0 0.1395534675
H  H61  1  0.80310000  0.02110000  0.78620000  1.0 0.1101667754
H  H62  1  0.02110000  0.80310000  0.71380000  1.0 0.1101667754
H  H63  1  0.19690000  0.97890000  0.21380000  1.0 0.1101667754
H  H64  1  0.97890000  0.19690000  0.28620000  1.0 0.1101667754
H  H65  1  0.60160000  0.08180000  0.94570000  1.0 0.1101667754
H  H66  1  0.08180000  0.60160000  0.55430000  1.0 0.1101667754
H  H67  1  0.39840000  0.91820000  0.05430000  1.0 0.1101667754
H  H68  1  0.91820000  0.39840000  0.44570000  1.0 0.1101667754
H  H69  1  0.38460000  0.08480000  0.78760000  1.0 0.1101667754
H  H70  1  0.08480000  0.38460000  0.71240000  1.0 0.1101667754
H  H71  1  0.61540000  0.91520000  0.21240000  1.0 0.1101667754
H  H72  1  0.91520000  0.61540000  0.28760000  1.0 0.1101667754
H  H73  1  0.26320000  0.11600000  0.84120000  1.0 0.1482532472
H  H74  1  0.11600000  0.26320000  0.65880000  1.0 0.1482532472
H  H75  1  0.73680000  0.88400000  0.15880000  1.0 0.1482532472
H  H76  1  0.88400000  0.73680000  0.34120000  1.0 0.1482532472
H  H77  1  0.46430000  0.17230000  0.09040000  1.0 0.1292983816
H  H78  1  0.17230000  0.46430000  0.40960000  1.0 0.1292983816
H  H79  1  0.53570000  0.82770000  0.90960000  1.0 0.1292983816
H  H80  1  0.82770000  0.53570000  0.59040000  1.0 0.1292983816
H  H81  1  0.39810000  0.21430000  0.22410000  1.0 0.1009576322
H  H82  1  0.21430000  0.39810000  0.27590000  1.0 0.1009576322
H  H83  1  0.60190000  0.78570000  0.77590000  1.0 0.1009576322
H  H84  1  0.78570000  0.60190000  0.72410000  1.0 0.1009576322
H  H85  1  0.20310000  0.16150000  0.98230000  1.0 0.1201311208
H  H86  1  0.16150000  0.20310000  0.51770000  1.0 0.1201311208
H  H87  1  0.79690000  0.83850000  0.01770000  1.0 0.1201311208
H  H88  1  0.83850000  0.79690000  0.48230000  1.0 0.1201311208
C  C1  1  0.77828000  0.63672000  0.96300000  1.0 0.5805340262
C  C2  1  0.63672000  0.77828000  0.53700000  1.0 0.5805340262
C  C3  1  0.22172000  0.36328000  0.03700000  1.0 0.5805340262
C  C4  1  0.36328000  0.22172000  0.46300000  1.0 0.5805340262
C  C5  1  0.73990000  0.54350000  0.99290000  1.0 -0.0512592773
C  C6  1  0.54350000  0.73990000  0.50710000  1.0 -0.0512592773
C  C7  1  0.26010000  0.45650000  0.00710000  1.0 -0.0512592773
C  C8  1  0.45650000  0.26010000  0.49290000  1.0 -0.0512592773
C  C9  1  0.67054000  0.49146000  0.91860000  1.0 -0.0926685537
C  C10  1  0.49146000  0.67054000  0.58140000  1.0 -0.0926685537
C  C11  1  0.32946000  0.50854000  0.08140000  1.0 -0.0926685537
C  C12  1  0.50854000  0.32946000  0.41860000  1.0 -0.0926685537
C  C13  1  0.63560000  0.40520000  0.94320000  1.0 -0.1963438689
C  C14  1  0.40520000  0.63560000  0.55680000  1.0 -0.1963438689
C  C15  1  0.36440000  0.59480000  0.05680000  1.0 -0.1963438689
C  C16  1  0.59480000  0.36440000  0.44320000  1.0 -0.1963438689
C  C17  1  0.74100000  0.41720000  0.10770000  1.0 -0.2090165217
C  C18  1  0.41720000  0.74100000  0.39230000  1.0 -0.2090165217
C  C19  1  0.25900000  0.58280000  0.89230000  1.0 -0.2090165217
C  C20  1  0.58280000  0.25900000  0.60770000  1.0 -0.2090165217
C  C21  1  0.77594000  0.50446000  0.08300000  1.0 -0.0926685537
C  C22  1  0.50446000  0.77594000  0.41700000  1.0 -0.0926685537
C  C23  1  0.22406000  0.49554000  0.91700000  1.0 -0.0926685537
C  C24  1  0.49554000  0.22406000  0.58300000  1.0 -0.0926685537
C  C25  1  0.66931000  0.37009000  0.04300000  1.0 0.2346224935
C  C26  1  0.37009000  0.66931000  0.45700000  1.0 0.2346224935
C  C27  1  0.33069000  0.62991000  0.95700000  1.0 0.2346224935
C  C28  1  0.62991000  0.33069000  0.54300000  1.0 0.2346224935
C  C29  1  0.66803000  0.23517000  0.11940000  1.0 0.2360331715
C  C30  1  0.23517000  0.66803000  0.38060000  1.0 0.2360331715
C  C31  1  0.33197000  0.76483000  0.88060000  1.0 0.2360331715
C  C32  1  0.76483000  0.33197000  0.61940000  1.0 0.2360331715
C  C33  1  0.73620000  0.23760000  0.06690000  1.0 -0.2090165217
C  C34  1  0.23760000  0.73620000  0.43310000  1.0 -0.2090165217
C  C35  1  0.26380000  0.76240000  0.93310000  1.0 -0.2090165217
C  C36  1  0.76240000  0.26380000  0.56690000  1.0 -0.2090165217
C  C37  1  0.77068000  0.18212000  0.11350000  1.0 -0.1010886067
C  C38  1  0.18212000  0.77068000  0.38650000  1.0 -0.1010886067
C  C39  1  0.22932000  0.81788000  0.88650000  1.0 -0.1010886067
C  C40  1  0.81788000  0.22932000  0.61350000  1.0 -0.1010886067
C  C41  1  0.73622000  0.12438000  0.21670000  1.0 -0.0512592773
C  C42  1  0.12438000  0.73622000  0.28330000  1.0 -0.0512592773
C  C43  1  0.26378000  0.87562000  0.78330000  1.0 -0.0512592773
C  C44  1  0.87562000  0.26378000  0.71670000  1.0 -0.0512592773
C  C45  1  0.66718000  0.12342000  0.26950000  1.0 -0.1010886067
C  C46  1  0.12342000  0.66718000  0.23050000  1.0 -0.1010886067
C  C47  1  0.33282000  0.87658000  0.73050000  1.0 -0.1010886067
C  C48  1  0.87658000  0.33282000  0.76950000  1.0 -0.1010886067
C  C49  1  0.63296000  0.17924000  0.22170000  1.0 -0.2090165217
C  C50  1  0.17924000  0.63296000  0.27830000  1.0 -0.2090165217
C  C51  1  0.36704000  0.82076000  0.77830000  1.0 -0.2090165217
C  C52  1  0.82076000  0.36704000  0.72170000  1.0 -0.2090165217
C  C53  1  0.77078000  0.06142000  0.26920000  1.0 0.5679852814
C  C54  1  0.06142000  0.77078000  0.23080000  1.0 0.5679852814
C  C55  1  0.22922000  0.93858000  0.73080000  1.0 0.5679852814
C  C56  1  0.93858000  0.22922000  0.76920000  1.0 0.5679852814
C  C57  1  0.64200000  0.98160000  0.59650000  1.0 0.0810984001
C  C58  1  0.98160000  0.64200000  0.90350000  1.0 0.0810984001
C  C59  1  0.35800000  0.01840000  0.40350000  1.0 0.0810984001
C  C60  1  0.01840000  0.35800000  0.09650000  1.0 0.0810984001
C  C61  1  0.59495000  0.00585000  0.66580000  1.0 -0.1874970718
C  C62  1  0.00585000  0.59495000  0.83420000  1.0 -0.1874970718
C  C63  1  0.40505000  0.99415000  0.33420000  1.0 -0.1874970718
C  C64  1  0.99415000  0.40505000  0.16580000  1.0 -0.1874970718
C  C65  1  0.62718000  0.03782000  0.78550000  1.0 0.1292983816
C  C66  1  0.03782000  0.62718000  0.71450000  1.0 0.1292983816
C  C67  1  0.37282000  0.96218000  0.21450000  1.0 0.1292983816
C  C68  1  0.96218000  0.37282000  0.28550000  1.0 0.1292983816
C  C69  1  0.70674000  0.04286000  0.83000000  1.0 -0.1874970718
C  C70  1  0.04286000  0.70674000  0.67000000  1.0 -0.1874970718
C  C71  1  0.29326000  0.95714000  0.17000000  1.0 -0.1874970718
C  C72  1  0.95714000  0.29326000  0.33000000  1.0 -0.1874970718
C  C73  1  0.75008000  0.01732000  0.75480000  1.0 0.091696444
C  C74  1  0.01732000  0.75008000  0.74520000  1.0 0.091696444
C  C75  1  0.24992000  0.98268000  0.24520000  1.0 0.091696444
C  C76  1  0.98268000  0.24992000  0.25480000  1.0 0.091696444
C  C77  1  0.58026000  0.06574000  0.86250000  1.0 0.0397657753
C  C78  1  0.06574000  0.58026000  0.63750000  1.0 0.0397657753
C  C79  1  0.41974000  0.93426000  0.13750000  1.0 0.0397657753
C  C80  1  0.93426000  0.41974000  0.36250000  1.0 0.0397657753
C  C81  1  0.40987000  0.10253000  0.86850000  1.0 0.0397657753
C  C82  1  0.10253000  0.40987000  0.63150000  1.0 0.0397657753
C  C83  1  0.59013000  0.89747000  0.13150000  1.0 0.0397657753
C  C84  1  0.89747000  0.59013000  0.36850000  1.0 0.0397657753
C  C85  1  0.36994000  0.13526000  0.95250000  1.0 0.1101667754
C  C86  1  0.13526000  0.36994000  0.54750000  1.0 0.1101667754
C  C87  1  0.63006000  0.86474000  0.04750000  1.0 0.1101667754
C  C88  1  0.86474000  0.63006000  0.45250000  1.0 0.1101667754
C  C89  1  0.29174000  0.13466000  0.92000000  1.0 -0.1684163858
C  C90  1  0.13466000  0.29174000  0.58000000  1.0 -0.1684163858
C  C91  1  0.70826000  0.86534000  0.08000000  1.0 -0.1684163858
C  C92  1  0.86534000  0.70826000  0.42000000  1.0 -0.1684163858
C  C93  1  0.40997000  0.16763000  0.06670000  1.0 -0.1684163858
C  C94  1  0.16763000  0.40997000  0.43330000  1.0 -0.1684163858
C  C95  1  0.59003000  0.83237000  0.93330000  1.0 -0.1684163858
C  C96  1  0.83237000  0.59003000  0.56670000  1.0 -0.1684163858
C  C97  1  0.36967000  0.19313000  0.14640000  1.0 0.0679849387
C  C98  1  0.19313000  0.36967000  0.35360000  1.0 0.0679849387
C  C99  1  0.63033000  0.80687000  0.85360000  1.0 0.0679849387
C  C100  1  0.80687000  0.63033000  0.64640000  1.0 0.0679849387
C  C101  1  0.25595000  0.16225000  0.00600000  1.0 0.091696444
C  C102  1  0.16225000  0.25595000  0.49400000  1.0 0.091696444
C  C103  1  0.74405000  0.83775000  0.99400000  1.0 0.091696444
C  C104  1  0.83775000  0.74405000  0.50600000  1.0 0.091696444
S  S1  1  0.91571000  0.91571000  0.75000000  1.0 1.3755340428
S  S2  1  0.08429000  0.08429000  0.25000000  1.0 1.3747937531
N  N1  1  0.71946000  0.98728000  0.63910000  1.0 -0.264665529
N  N2  1  0.98728000  0.71946000  0.86090000  1.0 -0.2656408398
N  N3  1  0.28054000  0.01272000  0.36090000  1.0 -0.264665529
N  N4  1  0.01272000  0.28054000  0.13910000  1.0 -0.264665529
N  N5  1  0.51128000  0.06872000  0.81830000  1.0 -0.1785866282
N  N6  1  0.06872000  0.51128000  0.68170000  1.0 -0.1785866282
N  N7  1  0.48872000  0.93128000  0.18170000  1.0 -0.1785866282
N  N8  1  0.93128000  0.48872000  0.31830000  1.0 -0.1785866282
N  N9  1  0.47898000  0.09922000  0.90860000  1.0 -0.1684163858
N  N10  1  0.09922000  0.47898000  0.59140000  1.0 -0.1684163858
N  N11  1  0.52102000  0.90078000  0.09140000  1.0 -0.1684163858
N  N12  1  0.90078000  0.52102000  0.40860000  1.0 -0.1684163858
N  N13  1  0.29242000  0.18956000  0.11950000  1.0 -0.2284673675
N  N14  1  0.18956000  0.29242000  0.38050000  1.0 -0.2284673675
N  N15  1  0.70758000  0.81044000  0.88050000  1.0 -0.2284673675
N  N16  1  0.81044000  0.70758000  0.61950000  1.0 -0.2284673675
O  O1  1  0.73992000  0.01704000  0.36810000  1.0 -0.5687462389
O  O2  1  0.01704000  0.73992000  0.13190000  1.0 -0.5687462389
O  O3  1  0.26008000  0.98296000  0.63190000  1.0 -0.5687462389
O  O4  1  0.98296000  0.26008000  0.86810000  1.0 -0.5687462389
O  O5  1  0.82686000  0.05484000  0.21260000  1.0 -0.5570553093
O  O6  1  0.05484000  0.82686000  0.28740000  1.0 -0.5570553093
O  O7  1  0.17314000  0.94516000  0.78740000  1.0 -0.5570553093
O  O8  1  0.94516000  0.17314000  0.71260000  1.0 -0.5570553093
O  O9  1  0.62503000  0.28353000  0.06720000  1.0 -0.2284673675
O  O10  1  0.28353000  0.62503000  0.43280000  1.0 -0.2284673675
O  O11  1  0.37497000  0.71647000  0.93280000  1.0 -0.2284673675
O  O12  1  0.71647000  0.37497000  0.56720000  1.0 -0.2284673675
O  O13  1  0.85405000  0.93245000  0.37000000  1.0 -0.6908176838
O  O14  1  0.93245000  0.85405000  0.13000000  1.0 -0.6908176838
O  O15  1  0.14595000  0.06755000  0.63000000  1.0 -0.6908176838
O  O16  1  0.06755000  0.14595000  0.87000000  1.0 -0.6908176838
O  O17  1  0.89939000  0.06873000  0.52620000  1.0 -0.7291207313
O  O18  1  0.06873000  0.89939000  0.97380000  1.0 -0.7291207313
O  O19  1  0.10061000  0.93127000  0.47380000  1.0 -0.7291207313
O  O20  1  0.93127000  0.10061000  0.02620000  1.0 -0.7291207313
O  O21  1  0.83308000  0.89624000  0.67140000  1.0 -0.702086538
O  O22  1  0.89624000  0.83308000  0.82860000  1.0 -0.702086538
O  O23  1  0.16692000  0.10376000  0.32860000  1.0 -0.702086538
O  O24  1  0.10376000  0.16692000  0.17140000  1.0 -0.702086538
O  O25  1  0.93367000  0.98235000  0.83390000  1.0 -0.6305647342
O  O26  1  0.98235000  0.93367000  0.66610000  1.0 -0.6305647342
O  O27  1  0.06633000  0.01765000  0.16610000  1.0 -0.6305647342
O  O28  1  0.01765000  0.06633000  0.33390000  1.0 -0.6305647342
O  O29  1  0.73966000  0.66388000  0.87430000  1.0 -0.550223723
O  O30  1  0.66388000  0.73966000  0.62570000  1.0 -0.550223723
O  O31  1  0.26034000  0.33612000  0.12570000  1.0 -0.550223723
O  O32  1  0.33612000  0.26034000  0.37430000  1.0 -0.550223723
O  O33  1  0.84646000  0.68060000  0.02340000  1.0 -0.5570553093
O  O34  1  0.68060000  0.84646000  0.47660000  1.0 -0.5570553093
O  O35  1  0.15354000  0.31940000  0.97660000  1.0 -0.5570553093
O  O36  1  0.31940000  0.15354000  0.52340000  1.0 -0.5570553093
