# DDEC6 charges by PACMAN v1.1 (https://github.com/mtap-research/PACMAN-charge/)
data_KIJPAY_ASR_pacman
_symmetry_space_group_name_H-M   'P 1'
_cell_length_a   9.42360000
_cell_length_b   16.74800000
_cell_length_c   27.79540000
_cell_angle_alpha   101.85700000
_cell_angle_beta   94.16600000
_cell_angle_gamma   93.11300000
_symmetry_Int_Tables_number   1
_chemical_formula_structural   Tb2H41C78N5(O2F3)6
_chemical_formula_sum   'Tb4 H82 C156 N10 O24 F36'
_cell_volume   4271.12094457
_cell_formula_units_Z   2
loop_
 _symmetry_equiv_pos_site_id
 _symmetry_equiv_pos_as_xyz
  1  'x, y, z'
loop_
 _atom_site_type_symbol
 _atom_site_label
 _atom_site_symmetry_multiplicity
 _atom_site_fract_x
 _atom_site_fract_y
 _atom_site_fract_z
 _atom_site_occupancy
 _atom_site_charge
Tb  Tb1  1  0.07906000  0.39062000  0.97270000  1.0 1.93942294
Tb  Tb2  1  0.92094000  0.60938000  0.02730000  1.0 1.93942294
Tb  Tb3  1  0.79915000  0.52966000  0.51059000  1.0 2.127655481
Tb  Tb4  1  0.20085000  0.47034000  0.48941000  1.0 2.127655481
H  H1  1  0.16996000  0.49485000  0.86056000  1.0 0.1285557104
H  H2  1  0.83004000  0.50515000  0.13944000  1.0 0.1285557104
H  H3  1  0.15398000  0.31842000  0.80075000  1.0 0.1206208601
H  H4  1  0.84602000  0.68158000  0.19925000  1.0 0.1206208601
H  H5  1  0.22470000  0.53598000  0.78989000  1.0 0.1285557104
H  H6  1  0.77530000  0.46402000  0.21011000  1.0 0.1285557104
H  H7  1  0.43816000  0.46369000  0.11358000  1.0 0.1206208601
H  H8  1  0.56184000  0.53631000  0.88642000  1.0 0.1206208601
H  H9  1  0.12432000  0.25701000  0.71891000  1.0 0.1206208601
H  H10  1  0.87568000  0.74299000  0.28109000  1.0 0.1206208601
H  H11  1  0.84130000  0.16975000  0.82836000  1.0 0.1285557104
H  H12  1  0.15870000  0.83025000  0.17164000  1.0 0.1285557104
H  H13  1  0.80618000  0.10875000  0.74521000  1.0 0.1285557104
H  H14  1  0.19382000  0.89125000  0.25479000  1.0 0.1285557104
H  H15  1  0.91796000  0.23529000  0.01653000  1.0 0.1005373607
H  H16  1  0.08204000  0.76471000  0.98347000  1.0 0.1005373607
H  H17  1  0.63439000  0.36170000  0.92626000  1.0 0.1285557104
H  H18  1  0.36561000  0.63830000  0.07374000  1.0 0.1285557104
H  H19  1  0.21969000  0.65856000  0.22032000  1.0 0.1206208601
H  H20  1  0.78031000  0.34144000  0.77968000  1.0 0.1285557104
H  H21  1  0.29622000  0.71866000  0.93932000  1.0 0.1111995057
H  H22  1  0.70378000  0.28134000  0.06068000  1.0 0.1111995057
H  H23  1  0.36364000  0.75661000  0.86900000  1.0 0.1285557104
H  H24  1  0.63636000  0.24339000  0.13100000  1.0 0.1285557104
H  H25  1  0.09726000  0.58932000  0.14714000  1.0 0.1206208601
H  H26  1  0.90274000  0.41068000  0.85286000  1.0 0.1206208601
H  H27  1  0.55971000  0.53357000  0.18754000  1.0 0.1206208601
H  H28  1  0.44029000  0.46643000  0.81246000  1.0 0.1206208601
H  H29  1  0.67684000  0.23896000  0.94669000  1.0 0.1370195793
H  H30  1  0.32316000  0.76104000  0.05331000  1.0 0.1370195793
H  H31  1  0.41247000  0.41135000  0.93320000  1.0 0.1111995057
H  H32  1  0.58753000  0.58865000  0.06680000  1.0 0.1111995057
H  H33  1  0.59010000  0.12568000  0.98369000  1.0 0.1206208601
H  H34  1  0.40990000  0.87432000  0.01631000  1.0 0.1206208601
H  H35  1  0.42036000  0.06411000  0.01655000  1.0 0.1206208601
H  H36  1  0.57964000  0.93589000  0.98345000  1.0 0.1206208601
H  H37  1  0.58697000  0.64865000  0.82260000  1.0 0.1206208601
H  H38  1  0.41303000  0.35135000  0.17740000  1.0 0.1206208601
H  H39  1  0.77758000  0.25814000  0.66358000  1.0 0.1206208601
H  H40  1  0.22242000  0.74186000  0.33642000  1.0 0.1206208601
H  H41  1  0.11999000  0.16006000  0.60703000  1.0 0.1285557104
H  H42  1  0.88001000  0.83994000  0.39297000  1.0 0.1285557104
H  H43  1  0.13322000  0.25431000  0.55716000  1.0 0.1206208601
H  H44  1  0.86678000  0.74569000  0.44284000  1.0 0.1206208601
H  H45  1  0.42445000  0.79963000  0.74207000  1.0 0.1206208601
H  H46  1  0.57555000  0.20037000  0.25793000  1.0 0.1206208601
H  H47  1  0.94147000  0.62416000  0.68345000  1.0 0.1206208601
H  H48  1  0.05853000  0.37584000  0.31655000  1.0 0.1206208601
H  H49  1  0.43210000  0.63267000  0.69116000  1.0 0.1206208601
H  H50  1  0.56790000  0.36733000  0.30884000  1.0 0.1206208601
H  H51  1  0.07245000  0.66044000  0.75863000  1.0 0.1111995057
H  H52  1  0.92755000  0.33956000  0.24137000  1.0 0.1111995057
H  H53  1  0.83952000  0.82690000  0.79144000  1.0 0.1111995057
H  H54  1  0.16048000  0.17310000  0.20856000  1.0 0.1111995057
H  H55  1  0.30096000  0.59628000  0.61617000  1.0 0.1206208601
H  H56  1  0.69904000  0.40372000  0.38383000  1.0 0.1206208601
H  H57  1  0.78151000  0.34973000  0.61112000  1.0 0.1111995057
H  H58  1  0.21849000  0.65027000  0.38888000  1.0 0.1206208601
H  H59  1  0.29322000  0.54897000  0.28380000  1.0 0.1285557104
H  H60  1  0.70678000  0.45103000  0.71620000  1.0 0.1285557104
H  H61  1  0.50212000  0.76217000  0.33599000  1.0 0.1206208601
H  H62  1  0.49788000  0.23783000  0.66401000  1.0 0.1206208601
H  H63  1  0.69246000  0.64822000  0.32160000  1.0 0.1285557104
H  H64  1  0.30754000  0.35178000  0.67840000  1.0 0.1285557104
H  H65  1  0.53533000  0.72925000  0.19040000  1.0 0.1206208601
H  H66  1  0.46467000  0.27075000  0.80960000  1.0 0.1206208601
H  H67  1  0.05851000  0.03292000  0.71280000  1.0 0.1111995057
H  H68  1  0.94149000  0.96708000  0.28720000  1.0 0.1111995057
H  H69  1  0.83718000  0.05832000  0.58779000  1.0 0.1206208601
H  H70  1  0.16282000  0.94168000  0.41221000  1.0 0.1206208601
H  H71  1  0.97615000  0.84122000  0.60349000  1.0 0.1206208601
H  H72  1  0.02385000  0.15878000  0.39651000  1.0 0.1206208601
H  H73  1  0.30144000  0.49504000  0.35422000  1.0 0.1285557104
H  H74  1  0.69856000  0.50496000  0.64578000  1.0 0.1285557104
H  H75  1  0.70237000  0.59122000  0.39052000  1.0 0.1206208601
H  H76  1  0.29763000  0.40878000  0.60948000  1.0 0.1206208601
H  H77  1  0.60721000  0.95344000  0.27617000  1.0 0.1005373607
H  H78  1  0.39279000  0.04656000  0.72383000  1.0 0.1005373607
H  H79  1  0.94179000  0.11072000  0.04022000  1.0 0.1285557104
H  H80  1  0.05821000  0.88928000  0.95978000  1.0 0.1285557104
H  H81  1  0.15931000  0.05522000  0.03853000  1.0 0.1206208601
H  H82  1  0.84069000  0.94478000  0.96147000  1.0 0.1206208601
C  C1  1  0.30130000  0.64940000  0.82210000  1.0 0.1691722569
C  C2  1  0.69870000  0.35060000  0.17790000  1.0 0.1691722569
C  C3  1  0.00330000  0.24990000  0.82250000  1.0 -0.0229141292
C  C4  1  0.99670000  0.75010000  0.17750000  1.0 -0.0229141292
C  C5  1  0.96000000  0.17640000  0.72320000  1.0 0.176791849
C  C6  1  0.04000000  0.82360000  0.27680000  1.0 0.176791849
C  C7  1  0.20760000  0.54800000  0.86240000  1.0 -0.090704218
C  C8  1  0.79240000  0.45200000  0.13760000  1.0 -0.090704218
C  C9  1  0.08460000  0.27560000  0.78980000  1.0 -0.090704218
C  C10  1  0.91540000  0.72440000  0.21020000  1.0 -0.090704218
C  C11  1  0.24200000  0.57240000  0.82020000  1.0 -0.1888590868
C  C12  1  0.75800000  0.42760000  0.17980000  1.0 -0.1888590868
C  C13  1  0.25750000  0.52290000  0.12220000  1.0 -0.0366859165
C  C14  1  0.74250000  0.47710000  0.87780000  1.0 -0.0366859165
C  C15  1  0.39470000  0.50380000  0.13460000  1.0 -0.0955965621
C  C16  1  0.60530000  0.49620000  0.86540000  1.0 -0.0955965621
C  C17  1  0.22870000  0.60250000  0.90780000  1.0 -0.0229141292
C  C18  1  0.77130000  0.39750000  0.09220000  1.0 -0.0229141292
C  C19  1  0.18350000  0.48440000  0.07290000  1.0 0.6022720086
C  C20  1  0.81650000  0.51560000  0.92710000  1.0 0.6022720086
C  C21  1  0.35110000  0.25660000  0.97530000  1.0 0.1285557104
C  C22  1  0.64890000  0.74340000  0.02470000  1.0 0.1285557104
C  C23  1  0.06590000  0.23950000  0.74080000  1.0 -0.1888590868
C  C24  1  0.93410000  0.76050000  0.25920000  1.0 -0.1888590868
C  C25  1  0.23880000  0.21590000  0.99470000  1.0 0.1285557104
C  C26  1  0.76120000  0.78410000  0.00530000  1.0 0.1285557104
C  C27  1  0.02470000  0.29570000  0.87630000  1.0 0.5464601266
C  C28  1  0.97530000  0.70430000  0.12370000  1.0 0.5464601266
C  C29  1  0.18710000  0.57540000  0.95390000  1.0 0.6261194693
C  C30  1  0.81290000  0.42460000  0.04610000  1.0 0.6261194693
C  C31  1  0.89810000  0.18740000  0.80600000  1.0 -0.0832073837
C  C32  1  0.10190000  0.81260000  0.19400000  1.0 -0.0832073837
C  C33  1  0.87700000  0.15080000  0.75610000  1.0 -0.1888590868
C  C34  1  0.12300000  0.84920000  0.24390000  1.0 -0.1888590868
C  C35  1  0.48260000  0.22200000  0.97100000  1.0 0.0441233116
C  C36  1  0.51740000  0.77800000  0.02900000  1.0 0.0441233116
C  C37  1  0.00530000  0.21200000  0.01470000  1.0 0.1206208601
C  C38  1  0.99470000  0.78800000  0.98530000  1.0 0.1206208601
C  C39  1  0.56320000  0.33270000  0.93840000  1.0 -0.1217688312
C  C40  1  0.43680000  0.66730000  0.06160000  1.0 -0.1217688312
C  C41  1  0.26180000  0.14180000  0.00820000  1.0 0.0559291365
C  C42  1  0.73820000  0.85820000  0.99180000  1.0 0.0559291365
C  C43  1  0.40210000  0.60380000  0.21050000  1.0 0.1691722569
C  C44  1  0.59790000  0.39620000  0.78950000  1.0 0.1691722569
C  C45  1  0.26440000  0.61990000  0.19870000  1.0 -0.1808386932
C  C46  1  0.73560000  0.38010000  0.80130000  1.0 -0.1808386932
C  C47  1  0.28450000  0.68100000  0.90940000  1.0 -0.1108616052
C  C48  1  0.71550000  0.31900000  0.09060000  1.0 -0.1108616052
C  C49  1  0.32300000  0.70410000  0.86730000  1.0 -0.1888590868
C  C50  1  0.67700000  0.29590000  0.13270000  1.0 -0.1888590868
C  C51  1  0.19130000  0.57880000  0.15470000  1.0 -0.0832073837
C  C52  1  0.80870000  0.42120000  0.84530000  1.0 -0.0832073837
C  C53  1  0.46700000  0.54550000  0.17920000  1.0 -0.1888590868
C  C54  1  0.53300000  0.45450000  0.82080000  1.0 -0.1888590868
C  C55  1  0.58930000  0.26130000  0.95110000  1.0 -0.090704218
C  C56  1  0.41070000  0.73870000  0.04890000  1.0 -0.090704218
C  C57  1  0.42900000  0.36290000  0.94340000  1.0 0.1111995057
C  C58  1  0.57100000  0.63710000  0.05660000  1.0 0.1111995057
C  C59  1  0.50250000  0.14840000  0.98660000  1.0 -0.1513431591
C  C60  1  0.49750000  0.85160000  0.01340000  1.0 -0.1513431591
C  C61  1  0.40180000  0.11130000  0.00510000  1.0 -0.1592558079
C  C62  1  0.59820000  0.88870000  0.99490000  1.0 -0.1592558079
C  C63  1  0.95630000  0.31050000  0.57820000  1.0 -0.029348093
C  C64  1  0.04370000  0.68950000  0.42180000  1.0 -0.029348093
C  C65  1  0.94750000  0.19910000  0.63940000  1.0 0.1691722569
C  C66  1  0.05250000  0.80090000  0.36060000  1.0 0.1691722569
C  C67  1  0.48290000  0.71700000  0.78220000  1.0 0.1989660534
C  C68  1  0.51710000  0.28300000  0.21780000  1.0 0.1989660534
C  C69  1  0.59820000  0.69310000  0.80760000  1.0 -0.1808386932
C  C70  1  0.40180000  0.30690000  0.19240000  1.0 -0.1808386932
C  C71  1  0.84720000  0.25650000  0.64140000  1.0 -0.1808386932
C  C72  1  0.15280000  0.74350000  0.35860000  1.0 -0.1808386932
C  C73  1  0.05220000  0.19860000  0.60800000  1.0 -0.1808386932
C  C74  1  0.94780000  0.80140000  0.39200000  1.0 -0.1808386932
C  C75  1  0.05960000  0.25440000  0.57770000  1.0 -0.0832073837
C  C76  1  0.94040000  0.74560000  0.42230000  1.0 -0.0832073837
C  C77  1  0.50100000  0.78310000  0.75980000  1.0 -0.1717795086
C  C78  1  0.49900000  0.21690000  0.24020000  1.0 -0.1717795086
C  C79  1  0.73030000  0.73440000  0.81100000  1.0 -0.0832073837
C  C80  1  0.26970000  0.26560000  0.18900000  1.0 -0.0832073837
C  C81  1  0.63370000  0.82410000  0.76390000  1.0 -0.1108616052
C  C82  1  0.36630000  0.17590000  0.23610000  1.0 -0.1108616052
C  C83  1  0.26620000  0.65020000  0.73260000  1.0 0.176791849
C  C84  1  0.73380000  0.34980000  0.26740000  1.0 0.176791849
C  C85  1  0.04050000  0.62570000  0.68490000  1.0 -0.0832073837
C  C86  1  0.95950000  0.37430000  0.31510000  1.0 -0.0832073837
C  C87  1  0.33300000  0.63090000  0.68970000  1.0 -0.1888590868
C  C88  1  0.66700000  0.36910000  0.31030000  1.0 -0.1888590868
C  C89  1  0.11870000  0.64750000  0.72990000  1.0 -0.1888590868
C  C90  1  0.88130000  0.35250000  0.27010000  1.0 -0.1888590868
C  C91  1  0.75000000  0.79950000  0.78930000  1.0 -0.1108616052
C  C92  1  0.25000000  0.20050000  0.21070000  1.0 -0.1108616052
C  C93  1  0.85230000  0.70410000  0.83880000  1.0 0.6511119353
C  C94  1  0.14770000  0.29590000  0.16120000  1.0 0.6511119353
C  C95  1  0.01970000  0.58240000  0.59310000  1.0 0.6193575608
C  C96  1  0.98030000  0.41760000  0.40690000  1.0 0.6193575608
C  C97  1  0.10770000  0.60600000  0.64170000  1.0 -0.029348093
C  C98  1  0.89230000  0.39400000  0.35830000  1.0 -0.029348093
C  C99  1  0.25440000  0.60910000  0.64480000  1.0 -0.073114003
C  C100  1  0.74560000  0.39090000  0.35520000  1.0 -0.073114003
C  C101  1  0.85040000  0.31190000  0.61030000  1.0 -0.0832073837
C  C102  1  0.14960000  0.68810000  0.38970000  1.0 -0.0832073837
C  C103  1  0.96360000  0.37110000  0.54520000  1.0 0.6511119353
C  C104  1  0.03640000  0.62890000  0.45480000  1.0 0.6511119353
C  C105  1  0.48870000  0.60650000  0.29660000  1.0 0.176791849
C  C106  1  0.51130000  0.39350000  0.70340000  1.0 0.176791849
C  C107  1  0.37450000  0.55910000  0.30580000  1.0 -0.1888590868
C  C108  1  0.62550000  0.44090000  0.69420000  1.0 -0.1888590868
C  C109  1  0.52110000  0.78280000  0.30830000  1.0 -0.1888590868
C  C110  1  0.47890000  0.21720000  0.69170000  1.0 -0.1888590868
C  C111  1  0.61340000  0.61800000  0.32830000  1.0 -0.1808386932
C  C112  1  0.38660000  0.38200000  0.67170000  1.0 -0.1808386932
C  C113  1  0.94990000  0.05960000  0.65360000  1.0 0.2124951008
C  C114  1  0.05010000  0.94040000  0.34640000  1.0 0.2124951008
C  C115  1  0.54120000  0.76330000  0.22160000  1.0 -0.1888590868
C  C116  1  0.45880000  0.23670000  0.77840000  1.0 -0.1888590868
C  C117  1  0.51440000  0.73080000  0.26200000  1.0 0.1989660534
C  C118  1  0.48560000  0.26920000  0.73800000  1.0 0.1989660534
C  C119  1  0.01840000  0.01040000  0.68100000  1.0 -0.1808386932
C  C120  1  0.98160000  0.98960000  0.31900000  1.0 -0.1808386932
C  C121  1  0.88570000  0.02630000  0.60620000  1.0 -0.1980602644
C  C122  1  0.11430000  0.97370000  0.39380000  1.0 -0.1980602644
C  C123  1  0.96870000  0.89650000  0.61620000  1.0 -0.090704218
C  C124  1  0.03130000  0.10350000  0.38380000  1.0 -0.090704218
C  C125  1  0.02770000  0.92820000  0.66150000  1.0 -0.1272979145
C  C126  1  0.97230000  0.07180000  0.33850000  1.0 -0.1272979145
C  C127  1  0.89750000  0.94130000  0.58740000  1.0 -0.0832073837
C  C128  1  0.10250000  0.05870000  0.41260000  1.0 -0.0832073837
C  C129  1  0.50180000  0.54050000  0.38030000  1.0 -0.0530913388
C  C130  1  0.49820000  0.45950000  0.61970000  1.0 -0.0530913388
C  C131  1  0.37960000  0.52640000  0.34780000  1.0 -0.090704218
C  C132  1  0.62040000  0.47360000  0.65220000  1.0 -0.090704218
C  C133  1  0.61890000  0.58430000  0.36970000  1.0 -0.0832073837
C  C134  1  0.38110000  0.41570000  0.63030000  1.0 -0.0832073837
C  C135  1  0.55600000  0.86510000  0.31280000  1.0 -0.1409733815
C  C136  1  0.44400000  0.13490000  0.68720000  1.0 -0.1409733815
C  C137  1  0.58390000  0.89770000  0.27260000  1.0 -0.1217688312
C  C138  1  0.41610000  0.10230000  0.72740000  1.0 -0.1217688312
C  C139  1  0.57660000  0.84570000  0.22680000  1.0 -0.1108616052
C  C140  1  0.42340000  0.15430000  0.77320000  1.0 -0.1108616052
C  C141  1  0.55810000  0.92130000  0.36140000  1.0 0.5576897013
C  C142  1  0.44190000  0.07870000  0.63860000  1.0 0.5576897013
C  C143  1  0.60780000  0.87710000  0.18150000  1.0 0.6133151399
C  C144  1  0.39220000  0.12290000  0.81850000  1.0 0.6133151399
C  C145  1  0.50240000  0.50910000  0.42690000  1.0 0.6598598706
C  C146  1  0.49760000  0.49090000  0.57310000  1.0 0.6598598706
C  C147  1  0.65140000  0.89370000  0.73850000  1.0 0.5265717702
C  C148  1  0.34860000  0.10630000  0.26150000  1.0 0.5265717702
C  C149  1  0.01910000  0.13690000  0.02940000  1.0 -0.1592558079
C  C150  1  0.98090000  0.86310000  0.97060000  1.0 -0.1592558079
C  C151  1  0.14690000  0.10330000  0.02740000  1.0 -0.1108616052
C  C152  1  0.85310000  0.89670000  0.97260000  1.0 -0.1108616052
C  C153  1  0.09760000  0.87770000  0.69090000  1.0 0.5265717702
C  C154  1  0.90240000  0.12230000  0.30910000  1.0 0.5265717702
C  C155  1  0.81630000  0.91510000  0.53140000  1.0 0.5790078389
C  C156  1  0.18370000  0.08490000  0.46860000  1.0 0.5790078389
N  N1  1  0.11150000  0.25010000  0.99870000  1.0 -0.3285778416
N  N2  1  0.88850000  0.74990000  0.00130000  1.0 -0.3285778416
N  N3  1  0.94070000  0.14310000  0.67220000  1.0 -0.1888590868
N  N4  1  0.05930000  0.85690000  0.32780000  1.0 -0.1888590868
N  N5  1  0.32490000  0.32710000  0.96170000  1.0 -0.3238916052
N  N6  1  0.67510000  0.67290000  0.03830000  1.0 -0.3238916052
N  N7  1  0.34710000  0.67470000  0.77906000  1.0 -0.1888590868
N  N8  1  0.65290000  0.32530000  0.22094000  1.0 -0.1888590868
N  N9  1  0.47990000  0.64630000  0.25560000  1.0 -0.1888590868
N  N10  1  0.52010000  0.35370000  0.74440000  1.0 -0.1888590868
O  O1  1  0.21540000  0.50470000  0.95839000  1.0 -0.6393249137
O  O2  1  0.78460000  0.49530000  0.04161000  1.0 -0.6393249137
O  O3  1  0.11810000  0.35500000  0.88681000  1.0 -0.6186419976
O  O4  1  0.88190000  0.64500000  0.11319000  1.0 -0.6186419976
O  O5  1  0.95160000  0.27680000  0.90770000  1.0 -0.5795876039
O  O6  1  0.04840000  0.72320000  0.09230000  1.0 -0.5795876039
O  O7  1  0.08050000  0.51840000  0.05512000  1.0 -0.698307584
O  O8  1  0.91950000  0.48160000  0.94488000  1.0 -0.698307584
O  O9  1  0.22730000  0.42020000  0.04946000  1.0 -0.5993355763
O  O10  1  0.77270000  0.57980000  0.95054000  1.0 -0.5993355763
O  O11  1  0.12370000  0.62540000  0.98364000  1.0 -0.6584348631
O  O12  1  0.87630000  0.37460000  0.01636000  1.0 -0.6584348631
O  O13  1  0.07590000  0.55160000  0.55383000  1.0 -0.7309684706
O  O14  1  0.92410000  0.44840000  0.44617000  1.0 -0.7309684706
O  O15  1  0.07700000  0.37770000  0.52540000  1.0 -0.6718127978
O  O16  1  0.92300000  0.62230000  0.47460000  1.0 -0.6718127978
O  O17  1  0.85460000  0.41060000  0.53993000  1.0 -0.6584348631
O  O18  1  0.14540000  0.58940000  0.46007000  1.0 -0.6584348631
O  O19  1  0.89010000  0.59280000  0.59267000  1.0 -0.6186419976
O  O20  1  0.10990000  0.40720000  0.40733000  1.0 -0.6186419976
O  O21  1  0.62170000  0.49960000  0.44798000  1.0 -0.698307584
O  O22  1  0.37830000  0.50040000  0.55202000  1.0 -0.698307584
O  O23  1  0.38710000  0.49390000  0.44235000  1.0 -0.6393249137
O  O24  1  0.61290000  0.50610000  0.55765000  1.0 -0.6393249137
F  F1  1  0.97160000  0.74750000  0.84130000  1.0 -0.1980602644
F  F2  1  0.02840000  0.25250000  0.15870000  1.0 -0.1980602644
F  F3  1  0.82000000  0.69840000  0.88330000  1.0 -0.1888590868
F  F4  1  0.18000000  0.30160000  0.11670000  1.0 -0.1888590868
F  F5  1  0.87970000  0.62860000  0.81710000  1.0 -0.1980602644
F  F6  1  0.12030000  0.37140000  0.18290000  1.0 -0.1980602644
F  F7  1  0.66590000  0.82720000  0.14770000  1.0 -0.1888590868
F  F8  1  0.33410000  0.17280000  0.85230000  1.0 -0.1888590868
F  F9  1  0.55380000  0.88640000  0.39750000  1.0 -0.1592558079
F  F10  1  0.44620000  0.11360000  0.60250000  1.0 -0.1592558079
F  F11  1  0.48820000  0.89090000  0.15840000  1.0 -0.1888590868
F  F12  1  0.51180000  0.10910000  0.84160000  1.0 -0.1888590868
F  F13  1  0.68000000  0.94460000  0.19140000  1.0 -0.1717795086
F  F14  1  0.32000000  0.05540000  0.80860000  1.0 -0.1717795086
F  F15  1  0.46420000  0.96940000  0.36580000  1.0 -0.1513431591
F  F16  1  0.53580000  0.03060000  0.63420000  1.0 -0.1513431591
F  F17  1  0.66880000  0.96720000  0.37370000  1.0 -0.1513431591
F  F18  1  0.33120000  0.03280000  0.62630000  1.0 -0.1513431591
F  F19  1  0.54840000  0.90920000  0.71530000  1.0 -0.1513431591
F  F20  1  0.45160000  0.09080000  0.28470000  1.0 -0.1513431591
F  F21  1  0.73770000  0.88840000  0.70810000  1.0 -0.1409733815
F  F22  1  0.26230000  0.11160000  0.29190000  1.0 -0.1409733815
F  F23  1  0.70500000  0.95530000  0.76780000  1.0 -0.1513431591
F  F24  1  0.29500000  0.04470000  0.23220000  1.0 -0.1513431591
F  F25  1  0.02450000  0.82360000  0.70190000  1.0 -0.1409733815
F  F26  1  0.97550000  0.17640000  0.29810000  1.0 -0.1409733815
F  F27  1  0.19300000  0.84020000  0.67000000  1.0 -0.1409733815
F  F28  1  0.80700000  0.15980000  0.33000000  1.0 -0.1409733815
F  F29  1  0.15200000  0.90930000  0.73130000  1.0 -0.1409733815
F  F30  1  0.84800000  0.09070000  0.26870000  1.0 -0.1409733815
F  F31  1  0.80320000  0.83470000  0.52620000  1.0 -0.1888590868
F  F32  1  0.19680000  0.16530000  0.47380000  1.0 -0.1888590868
F  F33  1  0.89100000  0.93060000  0.50370000  1.0 -0.1717795086
F  F34  1  0.10900000  0.06940000  0.49630000  1.0 -0.1717795086
F  F35  1  0.68600000  0.93890000  0.52880000  1.0 -0.2095169005
F  F36  1  0.31400000  0.06110000  0.47120000  1.0 -0.2095169005
