# DDEC6 charges by PACMAN v1.1 (https://github.com/mtap-research/PACMAN-charge/)
data_KIKLUO_ASR_pacman
_symmetry_space_group_name_H-M   'P 1'
_cell_length_a   14.66500000
_cell_length_b   14.66500000
_cell_length_c   21.15600000
_cell_angle_alpha   59.79030000
_cell_angle_beta   120.21000000
_cell_angle_gamma   143.14400000
_symmetry_Int_Tables_number   1
_chemical_formula_structural   YbH3C8N2O7
_chemical_formula_sum   'Yb4 H12 C32 N8 O28'
_cell_volume   2313.58931766
_cell_formula_units_Z   4
loop_
 _symmetry_equiv_pos_site_id
 _symmetry_equiv_pos_as_xyz
  1  'x, y, z'
loop_
 _atom_site_type_symbol
 _atom_site_label
 _atom_site_symmetry_multiplicity
 _atom_site_fract_x
 _atom_site_fract_y
 _atom_site_fract_z
 _atom_site_occupancy
 _atom_site_charge
Yb  Yb1  1  0.84115000  0.00503000  0.36916000  1.0 2.0221062547
Yb  Yb2  1  0.00503000  0.84115000  0.13084000  1.0 2.0221062547
Yb  Yb3  1  0.15885000  0.99497000  0.63084000  1.0 2.0221062547
Yb  Yb4  1  0.99497000  0.15885000  0.86916000  1.0 2.0221062547
H  H1  1  0.66510000  0.96770000  0.47440000  1.0 0.1389987624
H  H2  1  0.97750000  0.07570000  0.66360000  1.0 0.1389987624
H  H3  1  0.66360000  0.05180000  0.62680000  1.0 0.1346509552
H  H4  1  0.96770000  0.66510000  0.02560000  1.0 0.1389987624
H  H5  1  0.07570000  0.97750000  0.83640000  1.0 0.1389987624
H  H6  1  0.05180000  0.66360000  0.87320000  1.0 0.1346509552
H  H7  1  0.33490000  0.03230000  0.52560000  1.0 0.1389987624
H  H8  1  0.02250000  0.92430000  0.33640000  1.0 0.1389987624
H  H9  1  0.33640000  0.94820000  0.37320000  1.0 0.1346509552
H  H10  1  0.03230000  0.33490000  0.97440000  1.0 0.1389987624
H  H11  1  0.92430000  0.02250000  0.16360000  1.0 0.1389987624
H  H12  1  0.94820000  0.33640000  0.12680000  1.0 0.1346509552
C  C1  1  0.88310000  0.98430000  0.54390000  1.0 0.6804456359
C  C2  1  0.82840000  0.01440000  0.56630000  1.0 -0.0348059914
C  C3  1  0.70720000  0.99360000  0.52050000  1.0 -0.1187050825
C  C4  1  0.89260000  0.05720000  0.63330000  1.0 -0.0927144901
C  C5  1  0.64730000  0.01070000  0.54190000  1.0 0.1346509552
C  C6  1  0.70740000  0.04600000  0.61090000  1.0 -0.1284477317
C  C7  1  0.83380000  0.07300000  0.65630000  1.0 0.0044125283
C  C8  1  0.89620000  0.10940000  0.73090000  1.0 0.5770969337
C  C9  1  0.98430000  0.88310000  0.95610000  1.0 0.6804456359
C  C10  1  0.01440000  0.82840000  0.93370000  1.0 -0.0348059914
C  C11  1  0.99360000  0.70720000  0.97950000  1.0 -0.1187050825
C  C12  1  0.05720000  0.89260000  0.86670000  1.0 -0.0927144901
C  C13  1  0.01070000  0.64730000  0.95810000  1.0 0.1346509552
C  C14  1  0.04600000  0.70740000  0.88910000  1.0 -0.1284477317
C  C15  1  0.07300000  0.83380000  0.84370000  1.0 0.0044125283
C  C16  1  0.10940000  0.89620000  0.76910000  1.0 0.5770969337
C  C17  1  0.11690000  0.01570000  0.45610000  1.0 0.6804456359
C  C18  1  0.17160000  0.98560000  0.43370000  1.0 -0.0348059914
C  C19  1  0.29280000  0.00640000  0.47950000  1.0 -0.1187050825
C  C20  1  0.10740000  0.94280000  0.36670000  1.0 -0.0927144901
C  C21  1  0.35270000  0.98930000  0.45810000  1.0 0.1389987624
C  C22  1  0.29260000  0.95400000  0.38910000  1.0 -0.1284477317
C  C23  1  0.16620000  0.92700000  0.34370000  1.0 0.0044125283
C  C24  1  0.10380000  0.89060000  0.26910000  1.0 0.5770969337
C  C25  1  0.01570000  0.11690000  0.04390000  1.0 0.6804456359
C  C26  1  0.98560000  0.17160000  0.06630000  1.0 -0.0348059914
C  C27  1  0.00640000  0.29280000  0.02050000  1.0 -0.1187050825
C  C28  1  0.94280000  0.10740000  0.13330000  1.0 -0.0927144901
C  C29  1  0.98930000  0.35270000  0.04190000  1.0 0.1389987624
C  C30  1  0.95400000  0.29260000  0.11090000  1.0 -0.1284477317
C  C31  1  0.92700000  0.16620000  0.15630000  1.0 0.0044125283
C  C32  1  0.89060000  0.10380000  0.23090000  1.0 0.5770969337
N  N1  1  0.52090000  0.98550000  0.49010000  1.0 -0.112435715
N  N2  1  0.01220000  0.28580000  0.39730000  1.0 0.6272537208
N  N3  1  0.98550000  0.52090000  0.00990000  1.0 -0.112435715
N  N4  1  0.28580000  0.01220000  0.10270000  1.0 0.6272537208
N  N5  1  0.47910000  0.01450000  0.50990000  1.0 -0.112435715
N  N6  1  0.98780000  0.71420000  0.60270000  1.0 0.6272537208
N  N7  1  0.01450000  0.47910000  0.99010000  1.0 -0.112435715
N  N8  1  0.71420000  0.98780000  0.89730000  1.0 0.6272537208
O  O1  1  0.81650000  0.93930000  0.48460000  1.0 -0.6614365855
O  O2  1  0.99390000  0.00490000  0.58880000  1.0 -0.6614365855
O  O3  1  0.87280000  0.19380000  0.37030000  1.0 -0.5262284631
O  O4  1  0.07360000  0.24420000  0.41430000  1.0 -0.5389067286
O  O5  1  0.09090000  0.41050000  0.40700000  1.0 -0.3143948072
O  O6  1  0.03480000  0.18340000  0.76250000  1.0 -0.6357731064
O  O7  1  0.80700000  0.06360000  0.76220000  1.0 -0.6357731064
O  O8  1  0.93930000  0.81650000  0.01540000  1.0 -0.6614365855
O  O9  1  0.00490000  0.99390000  0.91120000  1.0 -0.6614365855
O  O10  1  0.19380000  0.87280000  0.12970000  1.0 -0.5262284631
O  O11  1  0.24420000  0.07360000  0.08570000  1.0 -0.5389067286
O  O12  1  0.41050000  0.09090000  0.09300000  1.0 -0.3143948072
O  O13  1  0.18340000  0.03480000  0.73750000  1.0 -0.6357731064
O  O14  1  0.06360000  0.80700000  0.73780000  1.0 -0.6357731064
O  O15  1  0.18350000  0.06070000  0.51540000  1.0 -0.6614365855
O  O16  1  0.00610000  0.99510000  0.41120000  1.0 -0.6614365855
O  O17  1  0.12720000  0.80620000  0.62970000  1.0 -0.5262284631
O  O18  1  0.92640000  0.75580000  0.58570000  1.0 -0.5389067286
O  O19  1  0.90910000  0.58950000  0.59300000  1.0 -0.3143948072
O  O20  1  0.96520000  0.81660000  0.23750000  1.0 -0.6346931809
O  O21  1  0.19300000  0.93640000  0.23780000  1.0 -0.6357731064
O  O22  1  0.06070000  0.18350000  0.98460000  1.0 -0.6614365855
O  O23  1  0.99510000  0.00610000  0.08880000  1.0 -0.6614365855
O  O24  1  0.80620000  0.12720000  0.87030000  1.0 -0.5262284631
O  O25  1  0.75580000  0.92640000  0.91430000  1.0 -0.5389067286
O  O26  1  0.58950000  0.90910000  0.90700000  1.0 -0.3143948072
O  O27  1  0.81660000  0.96520000  0.26250000  1.0 -0.6357731064
O  O28  1  0.93640000  0.19300000  0.26220000  1.0 -0.6357731064
