# DDEC6 charges by PACMAN v1.1 (https://github.com/mtap-research/PACMAN-charge/)
data_KIKRAA_FSR_pacman
_symmetry_space_group_name_H-M   'P 1'
_cell_length_a   14.94000000
_cell_length_b   14.94000000
_cell_length_c   32.69000000
_cell_angle_alpha   90.00000000
_cell_angle_beta   90.00000000
_cell_angle_gamma   120.00000000
_symmetry_Int_Tables_number   1
_chemical_formula_structural   Cu2H24C30N6O
_chemical_formula_sum   'Cu6 H72 C90 N18 O3'
_cell_volume   6318.97660171
_cell_formula_units_Z   3
loop_
 _symmetry_equiv_pos_site_id
 _symmetry_equiv_pos_as_xyz
  1  'x, y, z'
loop_
 _atom_site_type_symbol
 _atom_site_label
 _atom_site_symmetry_multiplicity
 _atom_site_fract_x
 _atom_site_fract_y
 _atom_site_fract_z
 _atom_site_occupancy
 _atom_site_charge
Cu  Cu1  1  0.87120000  0.87120000  0.83333000  1.0 0.3987095491
Cu  Cu2  1  0.00000000  0.12880000  0.16667000  1.0 0.3987095491
Cu  Cu3  1  0.12880000  0.00000000  0.50000000  1.0 0.3987095491
Cu  Cu4  1  0.12880000  0.12880000  0.83333000  1.0 0.3987095491
Cu  Cu5  1  0.00000000  0.87120000  0.16667000  1.0 0.3987095491
Cu  Cu6  1  0.87120000  0.00000000  0.50000000  1.0 0.3987095491
H  H1  1  0.65183000  0.79246000  0.81257000  1.0 0.0995409652
H  H2  1  0.49524000  0.63995000  0.81142000  1.0 0.128405636
H  H3  1  0.17771000  0.25153000  0.75583000  1.0 0.0995409652
H  H4  1  0.10184000  0.96674000  0.77584000  1.0 0.0995409652
H  H5  1  0.18101000  0.23202000  0.68894000  1.0 0.128405636
H  H6  1  0.10865000  0.93598000  0.70815000  1.0 0.1218825614
H  H7  1  0.14063000  0.34817000  0.14591000  1.0 0.0995409652
H  H8  1  0.14471000  0.50476000  0.14476000  1.0 0.128405636
H  H9  1  0.07382000  0.82229000  0.08917000  1.0 0.0995409652
H  H10  1  0.86490000  0.89816000  0.10918000  1.0 0.0995409652
H  H11  1  0.05101000  0.81899000  0.02228000  1.0 0.128405636
H  H12  1  0.82733000  0.89135000  0.04149000  1.0 0.1218825614
H  H13  1  0.20754000  0.85937000  0.47924000  1.0 0.0995409652
H  H14  1  0.36005000  0.85529000  0.47809000  1.0 0.128405636
H  H15  1  0.74847000  0.92618000  0.42250000  1.0 0.0995409652
H  H16  1  0.03326000  0.13510000  0.44251000  1.0 0.0995409652
H  H17  1  0.76798000  0.94899000  0.35561000  1.0 0.128405636
H  H18  1  0.06402000  0.17267000  0.37482000  1.0 0.1218825614
H  H19  1  0.34817000  0.20754000  0.81257000  1.0 0.0995409652
H  H20  1  0.50476000  0.36005000  0.81142000  1.0 0.128405636
H  H21  1  0.82229000  0.74847000  0.75583000  1.0 0.0995409652
H  H22  1  0.89816000  0.03326000  0.77584000  1.0 0.0995409652
H  H23  1  0.81899000  0.76798000  0.68894000  1.0 0.128405636
H  H24  1  0.89135000  0.06402000  0.70815000  1.0 0.1218825614
H  H25  1  0.85937000  0.65183000  0.14591000  1.0 0.0995409652
H  H26  1  0.85529000  0.49524000  0.14476000  1.0 0.128405636
H  H27  1  0.92618000  0.17771000  0.08917000  1.0 0.0995409652
H  H28  1  0.13510000  0.10184000  0.10918000  1.0 0.0995409652
H  H29  1  0.94899000  0.18101000  0.02228000  1.0 0.128405636
H  H30  1  0.17267000  0.10865000  0.04149000  1.0 0.1218825614
H  H31  1  0.79246000  0.14063000  0.47924000  1.0 0.0995409652
H  H32  1  0.63995000  0.14471000  0.47809000  1.0 0.128405636
H  H33  1  0.25153000  0.07382000  0.42250000  1.0 0.0995409652
H  H34  1  0.96674000  0.86490000  0.44251000  1.0 0.0995409652
H  H35  1  0.23202000  0.05101000  0.35561000  1.0 0.128405636
H  H36  1  0.93598000  0.82733000  0.37482000  1.0 0.1218825614
H  H37  1  0.85937000  0.20754000  0.18743000  1.0 0.0995409652
H  H38  1  0.85529000  0.36005000  0.18858000  1.0 0.128405636
H  H39  1  0.92618000  0.74847000  0.24417000  1.0 0.0995409652
H  H40  1  0.13510000  0.03326000  0.22416000  1.0 0.0995409652
H  H41  1  0.94899000  0.76798000  0.31106000  1.0 0.128405636
H  H42  1  0.17267000  0.06402000  0.29185000  1.0 0.1218825614
H  H43  1  0.79246000  0.65183000  0.85409000  1.0 0.0995409652
H  H44  1  0.63995000  0.49524000  0.85524000  1.0 0.128405636
H  H45  1  0.25153000  0.17771000  0.91083000  1.0 0.0995409652
H  H46  1  0.96674000  0.10184000  0.89082000  1.0 0.0995409652
H  H47  1  0.23202000  0.18101000  0.97772000  1.0 0.128405636
H  H48  1  0.93598000  0.10865000  0.95851000  1.0 0.1218825614
H  H49  1  0.34817000  0.14063000  0.52076000  1.0 0.0995409652
H  H50  1  0.50476000  0.14471000  0.52191000  1.0 0.128405636
H  H51  1  0.82229000  0.07382000  0.57750000  1.0 0.0995409652
H  H52  1  0.89816000  0.86490000  0.55749000  1.0 0.0995409652
H  H53  1  0.81899000  0.05101000  0.64439000  1.0 0.128405636
H  H54  1  0.89135000  0.82733000  0.62518000  1.0 0.1218825614
H  H55  1  0.14063000  0.79246000  0.18743000  1.0 0.0995409652
H  H56  1  0.14471000  0.63995000  0.18858000  1.0 0.128405636
H  H57  1  0.07382000  0.25153000  0.24417000  1.0 0.0995409652
H  H58  1  0.86490000  0.96674000  0.22416000  1.0 0.0995409652
H  H59  1  0.05101000  0.23202000  0.31106000  1.0 0.128405636
H  H60  1  0.82733000  0.93598000  0.29185000  1.0 0.1218825614
H  H61  1  0.20754000  0.34817000  0.85409000  1.0 0.0995409652
H  H62  1  0.36005000  0.50476000  0.85524000  1.0 0.128405636
H  H63  1  0.74847000  0.82229000  0.91083000  1.0 0.0995409652
H  H64  1  0.03326000  0.89816000  0.89082000  1.0 0.0995409652
H  H65  1  0.76798000  0.81899000  0.97772000  1.0 0.128405636
H  H66  1  0.06402000  0.89135000  0.95851000  1.0 0.1218825614
H  H67  1  0.65183000  0.85937000  0.52076000  1.0 0.0995409652
H  H68  1  0.49524000  0.85529000  0.52191000  1.0 0.128405636
H  H69  1  0.17771000  0.92618000  0.57750000  1.0 0.0995409652
H  H70  1  0.10184000  0.13510000  0.55749000  1.0 0.0995409652
H  H71  1  0.18101000  0.94899000  0.64439000  1.0 0.128405636
H  H72  1  0.10865000  0.17267000  0.62518000  1.0 0.1218825614
C  C1  1  0.64880000  0.73160000  0.82103000  1.0 0.0475061348
C  C2  1  0.55450000  0.64040000  0.82043000  1.0 -0.1982939233
C  C3  1  0.16310000  0.18750000  0.74573000  1.0 0.0110209297
C  C4  1  0.11960000  0.02070000  0.75753000  1.0 0.0892977074
C  C5  1  0.16510000  0.17610000  0.70593000  1.0 -0.1982939233
C  C6  1  0.12140000  0.00040000  0.71703000  1.0 -0.2188035463
C  C7  1  0.14370000  0.08160000  0.68853000  1.0 0.0892977074
C  C8  1  0.08280000  0.35120000  0.15437000  1.0 0.0475061348
C  C9  1  0.08590000  0.44550000  0.15377000  1.0 -0.1982939233
C  C10  1  0.02440000  0.83690000  0.07907000  1.0 0.0110209297
C  C11  1  0.90110000  0.88040000  0.09087000  1.0 0.0892977074
C  C12  1  0.01100000  0.83490000  0.03927000  1.0 -0.1982939233
C  C13  1  0.87900000  0.87860000  0.05037000  1.0 -0.2188035463
C  C14  1  0.93790000  0.85630000  0.02187000  1.0 0.0892977074
C  C15  1  0.26840000  0.91720000  0.48770000  1.0 0.0475061348
C  C16  1  0.35960000  0.91410000  0.48710000  1.0 -0.1982939233
C  C17  1  0.81250000  0.97560000  0.41240000  1.0 0.0110209297
C  C18  1  0.97930000  0.09890000  0.42420000  1.0 0.0892977074
C  C19  1  0.82390000  0.98900000  0.37260000  1.0 -0.1982939233
C  C20  1  0.99960000  0.12100000  0.38370000  1.0 -0.2188035463
C  C21  1  0.91840000  0.06210000  0.35520000  1.0 0.0892977074
C  C22  1  0.35120000  0.26840000  0.82103000  1.0 0.0475061348
C  C23  1  0.44550000  0.35960000  0.82043000  1.0 -0.1982939233
C  C24  1  0.83690000  0.81250000  0.74573000  1.0 0.0110209297
C  C25  1  0.88040000  0.97930000  0.75753000  1.0 0.0892977074
C  C26  1  0.83490000  0.82390000  0.70593000  1.0 -0.1982939233
C  C27  1  0.87860000  0.99960000  0.71703000  1.0 -0.2188035463
C  C28  1  0.85630000  0.91840000  0.68853000  1.0 0.0892977074
C  C29  1  0.91720000  0.64880000  0.15437000  1.0 0.0475061348
C  C30  1  0.91410000  0.55450000  0.15377000  1.0 -0.1982939233
C  C31  1  0.97560000  0.16310000  0.07907000  1.0 0.0110209297
C  C32  1  0.09890000  0.11960000  0.09087000  1.0 0.0892977074
C  C33  1  0.98900000  0.16510000  0.03927000  1.0 -0.1982939233
C  C34  1  0.12100000  0.12140000  0.05037000  1.0 -0.2188035463
C  C35  1  0.06210000  0.14370000  0.02187000  1.0 0.0892977074
C  C36  1  0.73160000  0.08280000  0.48770000  1.0 0.0475061348
C  C37  1  0.64040000  0.08590000  0.48710000  1.0 -0.1982939233
C  C38  1  0.18750000  0.02440000  0.41240000  1.0 0.0110209297
C  C39  1  0.02070000  0.90110000  0.42420000  1.0 0.0892977074
C  C40  1  0.17610000  0.01100000  0.37260000  1.0 -0.1982939233
C  C41  1  0.00040000  0.87900000  0.38370000  1.0 -0.2188035463
C  C42  1  0.08160000  0.93790000  0.35520000  1.0 0.0892977074
C  C43  1  0.91720000  0.26840000  0.17897000  1.0 0.0475061348
C  C44  1  0.91410000  0.35960000  0.17957000  1.0 -0.1982939233
C  C45  1  0.97560000  0.81250000  0.25427000  1.0 0.0110209297
C  C46  1  0.09890000  0.97930000  0.24247000  1.0 0.0892977074
C  C47  1  0.98900000  0.82390000  0.29407000  1.0 -0.1982939233
C  C48  1  0.12100000  0.99960000  0.28297000  1.0 -0.2188035463
C  C49  1  0.06210000  0.91840000  0.31147000  1.0 0.0892977074
C  C50  1  0.73160000  0.64880000  0.84563000  1.0 0.0475061348
C  C51  1  0.64040000  0.55450000  0.84623000  1.0 -0.1982939233
C  C52  1  0.18750000  0.16310000  0.92093000  1.0 0.0110209297
C  C53  1  0.02070000  0.11960000  0.90913000  1.0 0.0892977074
C  C54  1  0.17610000  0.16510000  0.96073000  1.0 -0.1982939233
C  C55  1  0.00040000  0.12140000  0.94963000  1.0 -0.2188035463
C  C56  1  0.08160000  0.14370000  0.97813000  1.0 0.0892977074
C  C57  1  0.35120000  0.08280000  0.51230000  1.0 0.0475061348
C  C58  1  0.44550000  0.08590000  0.51290000  1.0 -0.1982939233
C  C59  1  0.83690000  0.02440000  0.58760000  1.0 0.0110209297
C  C60  1  0.88040000  0.90110000  0.57580000  1.0 0.0892977074
C  C61  1  0.83490000  0.01100000  0.62740000  1.0 -0.1982939233
C  C62  1  0.87860000  0.87900000  0.61630000  1.0 -0.2188035463
C  C63  1  0.85630000  0.93790000  0.64480000  1.0 0.0892977074
C  C64  1  0.08280000  0.73160000  0.17897000  1.0 0.0475061348
C  C65  1  0.08590000  0.64040000  0.17957000  1.0 -0.1982939233
C  C66  1  0.02440000  0.18750000  0.25427000  1.0 0.0110209297
C  C67  1  0.90110000  0.02070000  0.24247000  1.0 0.0892977074
C  C68  1  0.01100000  0.17610000  0.29407000  1.0 -0.1982939233
C  C69  1  0.87900000  0.00040000  0.28297000  1.0 -0.2188035463
C  C70  1  0.93790000  0.08160000  0.31147000  1.0 0.0892977074
C  C71  1  0.26840000  0.35120000  0.84563000  1.0 0.0475061348
C  C72  1  0.35960000  0.44550000  0.84623000  1.0 -0.1982939233
C  C73  1  0.81250000  0.83690000  0.92093000  1.0 0.0110209297
C  C74  1  0.97930000  0.88040000  0.90913000  1.0 0.0892977074
C  C75  1  0.82390000  0.83490000  0.96073000  1.0 -0.1982939233
C  C76  1  0.99960000  0.87860000  0.94963000  1.0 -0.2188035463
C  C77  1  0.91840000  0.85630000  0.97813000  1.0 0.0892977074
C  C78  1  0.64880000  0.91720000  0.51230000  1.0 0.0475061348
C  C79  1  0.55450000  0.91410000  0.51290000  1.0 -0.1982939233
C  C80  1  0.16310000  0.97560000  0.58760000  1.0 0.0110209297
C  C81  1  0.11960000  0.09890000  0.57580000  1.0 0.0892977074
C  C82  1  0.16510000  0.98900000  0.62740000  1.0 -0.1982939233
C  C83  1  0.12140000  0.12100000  0.61630000  1.0 -0.2188035463
C  C84  1  0.14370000  0.06210000  0.64480000  1.0 0.0892977074
C  C85  1  0.55000000  0.55000000  0.83333000  1.0 0.0892977074
C  C86  1  0.00000000  0.45000000  0.16667000  1.0 0.0892977074
C  C87  1  0.45000000  0.00000000  0.50000000  1.0 0.0892977074
C  C88  1  0.45000000  0.45000000  0.83333000  1.0 0.0892977074
C  C89  1  0.00000000  0.55000000  0.16667000  1.0 0.0892977074
C  C90  1  0.55000000  0.00000000  0.50000000  1.0 0.0892977074
N  N1  1  0.14080000  0.11020000  0.77263000  1.0 -0.2188035463
N  N2  1  0.96940000  0.85920000  0.10597000  1.0 -0.2188035463
N  N3  1  0.88980000  0.03060000  0.43930000  1.0 -0.2188035463
N  N4  1  0.85920000  0.88980000  0.77263000  1.0 -0.2188035463
N  N5  1  0.03060000  0.14080000  0.10597000  1.0 -0.2188035463
N  N6  1  0.11020000  0.96940000  0.43930000  1.0 -0.2188035463
N  N7  1  0.03060000  0.88980000  0.22737000  1.0 -0.2188035463
N  N8  1  0.11020000  0.14080000  0.89403000  1.0 -0.2188035463
N  N9  1  0.85920000  0.96940000  0.56070000  1.0 -0.2188035463
N  N10  1  0.96940000  0.11020000  0.22737000  1.0 -0.2188035463
N  N11  1  0.88980000  0.85920000  0.89403000  1.0 -0.2188035463
N  N12  1  0.14080000  0.03060000  0.56070000  1.0 -0.2188035463
N  N13  1  0.73460000  0.73460000  0.83333000  1.0 -0.2312863856
N  N14  1  0.00000000  0.26540000  0.16667000  1.0 -0.2312863856
N  N15  1  0.26540000  0.00000000  0.50000000  1.0 -0.2312863856
N  N16  1  0.26540000  0.26540000  0.83333000  1.0 -0.2312863856
N  N17  1  0.00000000  0.73460000  0.16667000  1.0 -0.2312863856
N  N18  1  0.73460000  0.00000000  0.50000000  1.0 -0.2312863856
O  O1  1  0.00000000  0.00000000  0.83333000  1.0 -0.8358438675
O  O2  1  0.00000000  0.00000000  0.16667000  1.0 -0.833706296
O  O3  1  0.00000000  0.00000000  0.50000000  1.0 -0.833706296
