# DDEC6 charges by PACMAN v1.1 (https://github.com/mtap-research/PACMAN-charge/)
data_KIMMEC_ion_pacman
_symmetry_space_group_name_H-M   'P 1'
_cell_length_a   9.03680000
_cell_length_b   10.08890000
_cell_length_c   11.92960000
_cell_angle_alpha   108.88400000
_cell_angle_beta   107.87400000
_cell_angle_gamma   98.81520000
_symmetry_Int_Tables_number   1
_chemical_formula_structural   AlP3C9N3Cl2O9
_chemical_formula_sum   'Al2 P6 C18 N6 Cl4 O18'
_cell_volume   940.10837296
_cell_formula_units_Z   2
loop_
 _symmetry_equiv_pos_site_id
 _symmetry_equiv_pos_as_xyz
  1  'x, y, z'
loop_
 _atom_site_type_symbol
 _atom_site_label
 _atom_site_symmetry_multiplicity
 _atom_site_fract_x
 _atom_site_fract_y
 _atom_site_fract_z
 _atom_site_occupancy
 _atom_site_charge
Al  Al1  1  0.50000000  0.50000000  0.00000000  1.0 1.8917426864
Al  Al2  1  0.00000000  0.50000000  0.00000000  1.0 1.8503297368
P  P1  1  0.25610000  0.33430000  0.10620000  1.0 1.3289415239
P  P2  1  0.74390000  0.66570000  0.89380000  1.0 1.3289415239
P  P3  1  0.34630000  0.74770000  0.13660000  1.0 1.3249025145
P  P4  1  0.65370000  0.25230000  0.86340000  1.0 1.3289415239
P  P5  1  0.86720000  0.58860000  0.22350000  1.0 1.3381604353
P  P6  1  0.13280000  0.41140000  0.77650000  1.0 1.3381604353
C  C1  1  0.23870000  0.40970000  0.25930000  1.0 -0.1037271371
C  C2  1  0.76130000  0.59030000  0.74070000  1.0 -0.1037271371
C  C3  1  0.53100000  0.51100000  0.39310000  1.0 0.259395952
C  C4  1  0.46900000  0.48900000  0.60690000  1.0 0.259395952
C  C5  1  0.65950000  0.51250000  0.51120000  1.0 0.2408818701
C  C6  1  0.34050000  0.48750000  0.48880000  1.0 0.2408818701
C  C7  1  0.26700000  0.88000000  0.08440000  1.0 -0.0531811206
C  C8  1  0.73300000  0.12000000  0.91560000  1.0 -0.056448081
C  C9  1  0.45100000  0.97600000  0.86370000  1.0 0.2181025296
C  C10  1  0.54900000  0.02400000  0.13630000  1.0 0.2181025296
C  C11  1  0.35600000  0.88700000  0.91330000  1.0 0.228291283
C  C12  1  0.64400000  0.11300000  0.08670000  1.0 0.228291283
C  C13  1  0.00500000  0.77000000  0.29640000  1.0 -0.1341921961
C  C14  1  0.99500000  0.23000000  0.70360000  1.0 -0.1354600465
C  C15  1  0.86000000  0.91700000  0.39140000  1.0 0.2181025296
C  C16  1  0.14000000  0.08300000  0.60860000  1.0 0.2149795094
C  C17  1  0.84500000  0.02400000  0.50750000  1.0 0.259395952
C  C18  1  0.15500000  0.97600000  0.49250000  1.0 0.259395952
N  N1  1  0.37420000  0.41620000  0.37210000  1.0 0.0274423506
N  N2  1  0.62580000  0.58380000  0.62790000  1.0 0.0274423506
N  N3  1  0.37530000  0.97030000  0.04780000  1.0 0.0869776966
N  N4  1  0.62470000  0.02970000  0.95220000  1.0 0.0869776966
N  N5  1  0.00080000  0.85580000  0.42220000  1.0 0.0274423506
N  N6  1  0.99920000  0.14420000  0.57780000  1.0 0.0274423506
Cl  Cl1  1  0.92900000  0.27480000  0.38600000  1.0 -0.2662620744
Cl  Cl2  1  0.07100000  0.72520000  0.61400000  1.0 -0.2662620744
Cl  Cl3  1  0.45930000  0.14260000  0.41510000  1.0 -0.3231583139
Cl  Cl4  1  0.54070000  0.85740000  0.58490000  1.0 -0.3231583139
O  O1  1  0.40940000  0.43030000  0.10930000  1.0 -0.7621430358
O  O2  1  0.59060000  0.56970000  0.89070000  1.0 -0.7621430358
O  O3  1  0.41470000  0.65720000  0.04310000  1.0 -0.8005086383
O  O4  1  0.58530000  0.34280000  0.95690000  1.0 -0.8005086383
O  O5  1  0.70320000  0.61050000  0.15410000  1.0 -0.7537163695
O  O6  1  0.29680000  0.38950000  0.84590000  1.0 -0.7537163695
O  O7  1  0.10430000  0.34870000  0.01150000  1.0 -0.7751078805
O  O8  1  0.89570000  0.65130000  0.98850000  1.0 -0.7751078805
O  O9  1  0.19860000  0.63740000  0.12680000  1.0 -0.7690630556
O  O10  1  0.80140000  0.36260000  0.87320000  1.0 -0.7751078805
O  O11  1  0.91320000  0.47690000  0.12570000  1.0 -0.7690630556
O  O12  1  0.08680000  0.52310000  0.87430000  1.0 -0.7690630556
O  O13  1  0.25010000  0.17160000  0.07260000  1.0 -0.641629835
O  O14  1  0.74990000  0.82840000  0.92740000  1.0 -0.641629835
O  O15  1  0.46030000  0.81390000  0.27990000  1.0 -0.6453675231
O  O16  1  0.53970000  0.18610000  0.72010000  1.0 -0.6453675231
O  O17  1  0.85130000  0.51310000  0.31530000  1.0 -0.6271211406
O  O18  1  0.14870000  0.48690000  0.68470000  1.0 -0.6271211406
