# DDEC6 charges by PACMAN v1.1 (https://github.com/mtap-research/PACMAN-charge/)
data_KIMMAY_ASR_pacman
_symmetry_space_group_name_H-M   'P 1'
_cell_length_a   11.59400000
_cell_length_b   11.59400000
_cell_length_c   11.59400000
_cell_angle_alpha   113.44200000
_cell_angle_beta   113.44200000
_cell_angle_gamma   113.44200000
_symmetry_Int_Tables_number   1
_chemical_formula_structural   AlP3C9(NO3)3
_chemical_formula_sum   'Al2 P6 C18 N6 O18'
_cell_volume   984.80017659
_cell_formula_units_Z   2
loop_
 _symmetry_equiv_pos_site_id
 _symmetry_equiv_pos_as_xyz
  1  'x, y, z'
loop_
 _atom_site_type_symbol
 _atom_site_label
 _atom_site_symmetry_multiplicity
 _atom_site_fract_x
 _atom_site_fract_y
 _atom_site_fract_z
 _atom_site_occupancy
 _atom_site_charge
Al  Al1  1  0.50000000  0.50000000  0.50000000  1.0 1.8321179056
Al  Al2  1  0.00000000  0.00000000  0.00000000  1.0 1.8781362677
P  P1  1  0.36700000  0.28530000  0.12640000  1.0 1.3301691516
P  P2  1  0.12640000  0.36700000  0.28530000  1.0 1.3301691516
P  P3  1  0.28530000  0.12640000  0.36700000  1.0 1.3301691516
P  P4  1  0.63300000  0.71470000  0.87360000  1.0 1.3301691516
P  P5  1  0.87360000  0.63300000  0.71470000  1.0 1.3301691516
P  P6  1  0.71470000  0.87360000  0.63300000  1.0 1.3301691516
C  C1  1  0.53780000  0.27810000  0.19800000  1.0 -0.1110560282
C  C2  1  0.19800000  0.53780000  0.27810000  1.0 -0.1110560282
C  C3  1  0.27810000  0.19800000  0.53780000  1.0 -0.1110560282
C  C4  1  0.46220000  0.72190000  0.80200000  1.0 -0.1110560282
C  C5  1  0.80200000  0.46220000  0.72190000  1.0 -0.1110560282
C  C6  1  0.72190000  0.80200000  0.46220000  1.0 -0.1110560282
C  C7  1  0.61800000  0.16020000  0.05660000  1.0 0.2097537919
C  C8  1  0.05660000  0.61800000  0.16020000  1.0 0.2097537919
C  C9  1  0.16020000  0.05660000  0.61800000  1.0 0.2097537919
C  C10  1  0.38200000  0.83980000  0.94340000  1.0 0.2097537919
C  C11  1  0.94340000  0.38200000  0.83980000  1.0 0.2097537919
C  C12  1  0.83980000  0.94340000  0.38200000  1.0 0.2097537919
C  C13  1  0.43720000  0.99980000  0.08400000  1.0 0.1730410361
C  C14  1  0.08400000  0.43720000  0.99980000  1.0 0.1730410361
C  C15  1  0.99980000  0.08400000  0.43720000  1.0 0.1761737768
C  C16  1  0.56280000  0.00020000  0.91600000  1.0 0.1761737768
C  C17  1  0.91600000  0.56280000  0.00020000  1.0 0.1730410361
C  C18  1  0.00020000  0.91600000  0.56280000  1.0 0.1761737768
N  N1  1  0.47970000  0.12010000  0.05740000  1.0 0.068501556
N  N2  1  0.05740000  0.47970000  0.12010000  1.0 0.068501556
N  N3  1  0.12010000  0.05740000  0.47970000  1.0 0.0640751884
N  N4  1  0.52030000  0.87990000  0.94260000  1.0 0.0640751884
N  N5  1  0.94260000  0.52030000  0.87990000  1.0 0.0640751884
N  N6  1  0.87990000  0.94260000  0.52030000  1.0 0.0640751884
O  O1  1  0.34060000  0.31130000  0.00050000  1.0 -0.7131334936
O  O2  1  0.00050000  0.34060000  0.31130000  1.0 -0.7131334936
O  O3  1  0.31130000  0.00050000  0.34060000  1.0 -0.7131334936
O  O4  1  0.65940000  0.68870000  0.99950000  1.0 -0.7131334936
O  O5  1  0.99950000  0.65940000  0.68870000  1.0 -0.7131334936
O  O6  1  0.68870000  0.99950000  0.65940000  1.0 -0.7131334936
O  O7  1  0.41230000  0.43150000  0.27660000  1.0 -0.787133584
O  O8  1  0.27660000  0.41230000  0.43150000  1.0 -0.787133584
O  O9  1  0.43150000  0.27660000  0.41230000  1.0 -0.787133584
O  O10  1  0.58770000  0.56850000  0.72340000  1.0 -0.787133584
O  O11  1  0.72340000  0.58770000  0.56850000  1.0 -0.787133584
O  O12  1  0.56850000  0.72340000  0.58770000  1.0 -0.787133584
O  O13  1  0.20460000  0.11750000  0.04170000  1.0 -0.787133584
O  O14  1  0.04170000  0.20460000  0.11750000  1.0 -0.787133584
O  O15  1  0.11750000  0.04170000  0.20460000  1.0 -0.787133584
O  O16  1  0.79540000  0.88250000  0.95830000  1.0 -0.787133584
O  O17  1  0.95830000  0.79540000  0.88250000  1.0 -0.787133584
O  O18  1  0.88250000  0.95830000  0.79540000  1.0 -0.787133584
