# DDEC6 charges by PACMAN v1.1 (https://github.com/mtap-research/PACMAN-charge/)
data_KIMMUS_ion_pacman
_symmetry_space_group_name_H-M   'P 1'
_cell_length_a   12.38680000
_cell_length_b   12.38680000
_cell_length_c   12.38680000
_cell_angle_alpha   114.05500000
_cell_angle_beta   114.05500000
_cell_angle_gamma   114.05500000
_symmetry_Int_Tables_number   1
_chemical_formula_structural   FeP3C9N3(ClO3)3
_chemical_formula_sum   'Fe2 P6 C18 N6 Cl6 O18'
_cell_volume   1149.95346621
_cell_formula_units_Z   2
loop_
 _symmetry_equiv_pos_site_id
 _symmetry_equiv_pos_as_xyz
  1  'x, y, z'
loop_
 _atom_site_type_symbol
 _atom_site_label
 _atom_site_symmetry_multiplicity
 _atom_site_fract_x
 _atom_site_fract_y
 _atom_site_fract_z
 _atom_site_occupancy
 _atom_site_charge
Fe  Fe1  1  0.50000000  0.50000000  0.50000000  1.0 1.4525293295
Fe  Fe2  1  0.00000000  0.00000000  0.00000000  1.0 1.5208004896
P  P1  1  0.37850000  0.25660000  0.14480000  1.0 1.3337111258
P  P2  1  0.14480000  0.37850000  0.25660000  1.0 1.3337111258
P  P3  1  0.25660000  0.14480000  0.37850000  1.0 1.3337111258
P  P4  1  0.62150000  0.74340000  0.85520000  1.0 1.3337111258
P  P5  1  0.85520000  0.62150000  0.74340000  1.0 1.3337111258
P  P6  1  0.74340000  0.85520000  0.62150000  1.0 1.3337111258
C  C1  1  0.52890000  0.24270000  0.21020000  1.0 -0.0378112474
C  C2  1  0.21020000  0.52890000  0.24270000  1.0 -0.0378112474
C  C3  1  0.24270000  0.21020000  0.52890000  1.0 -0.0378112474
C  C4  1  0.47110000  0.75730000  0.78980000  1.0 -0.0378112474
C  C5  1  0.78980000  0.47110000  0.75730000  1.0 -0.0378112474
C  C6  1  0.75730000  0.78980000  0.47110000  1.0 -0.0378112474
C  C7  1  0.65490000  0.15410000  0.15900000  1.0 0.2099113002
C  C8  1  0.15900000  0.65490000  0.15410000  1.0 0.2099113002
C  C9  1  0.15410000  0.15900000  0.65490000  1.0 0.2099113002
C  C10  1  0.34510000  0.84590000  0.84100000  1.0 0.2099113002
C  C11  1  0.84100000  0.34510000  0.84590000  1.0 0.2099113002
C  C12  1  0.84590000  0.84100000  0.34510000  1.0 0.2099113002
C  C13  1  0.36790000  0.95780000  0.97330000  1.0 0.2202151153
C  C14  1  0.97330000  0.36790000  0.95780000  1.0 0.2202151153
C  C15  1  0.95780000  0.97330000  0.36790000  1.0 0.2202151153
C  C16  1  0.63210000  0.04220000  0.02670000  1.0 0.2202151153
C  C17  1  0.02670000  0.63210000  0.04220000  1.0 0.2202151153
C  C18  1  0.04220000  0.02670000  0.63210000  1.0 0.2202151153
N  N1  1  0.51060000  0.13120000  0.07960000  1.0 0.0659224667
N  N2  1  0.07960000  0.51060000  0.13120000  1.0 0.0659224667
N  N3  1  0.13120000  0.07960000  0.51060000  1.0 0.0659224667
N  N4  1  0.48940000  0.86880000  0.92040000  1.0 0.0659224667
N  N5  1  0.92040000  0.48940000  0.86880000  1.0 0.0659224667
N  N6  1  0.86880000  0.92040000  0.48940000  1.0 0.0659224667
Cl  Cl1  1  0.47917000  0.95300000  0.63373000  1.0 -0.2600884791
Cl  Cl2  1  0.95300000  0.63373000  0.47917000  1.0 -0.2600884791
Cl  Cl3  1  0.63373000  0.47917000  0.95300000  1.0 -0.2600884791
Cl  Cl4  1  0.52083000  0.04700000  0.36627000  1.0 -0.2658092197
Cl  Cl5  1  0.04700000  0.36627000  0.52083000  1.0 -0.2600884791
Cl  Cl6  1  0.36627000  0.52083000  0.04700000  1.0 -0.2600884791
O  O1  1  0.35400000  0.26140000  0.01360000  1.0 -0.5999276952
O  O2  1  0.01360000  0.35400000  0.26140000  1.0 -0.5999276952
O  O3  1  0.26140000  0.01360000  0.35400000  1.0 -0.5999276952
O  O4  1  0.64600000  0.73860000  0.98640000  1.0 -0.5999276952
O  O5  1  0.98640000  0.64600000  0.73860000  1.0 -0.5999276952
O  O6  1  0.73860000  0.98640000  0.64600000  1.0 -0.5999276952
O  O7  1  0.43830000  0.41100000  0.28910000  1.0 -0.7040457543
O  O8  1  0.28910000  0.43830000  0.41100000  1.0 -0.7040457543
O  O9  1  0.41100000  0.28910000  0.43830000  1.0 -0.7040457543
O  O10  1  0.56170000  0.58900000  0.71090000  1.0 -0.7040457543
O  O11  1  0.71090000  0.56170000  0.58900000  1.0 -0.7040457543
O  O12  1  0.58900000  0.71090000  0.56170000  1.0 -0.7040457543
O  O13  1  0.22540000  0.10180000  0.07500000  1.0 -0.7224883453
O  O14  1  0.07500000  0.22540000  0.10180000  1.0 -0.7224883453
O  O15  1  0.10180000  0.07500000  0.22540000  1.0 -0.7224883453
O  O16  1  0.77460000  0.89820000  0.92500000  1.0 -0.7224883453
O  O17  1  0.92500000  0.77460000  0.89820000  1.0 -0.7224883453
O  O18  1  0.89820000  0.92500000  0.77460000  1.0 -0.7224883453
