# DDEC6 charges by PACMAN v1.1 (https://github.com/mtap-research/PACMAN-charge/)
data_KIMNED_ion_pacman
_symmetry_space_group_name_H-M   'P 1'
_cell_length_a   12.53530000
_cell_length_b   12.53530000
_cell_length_c   12.53530000
_cell_angle_alpha   113.61700000
_cell_angle_beta   113.61700000
_cell_angle_gamma   113.61700000
_symmetry_Int_Tables_number   1
_chemical_formula_structural   LuP3C9N3(ClO3)3
_chemical_formula_sum   'Lu2 P6 C18 N6 Cl6 O18'
_cell_volume   1229.94960313
_cell_formula_units_Z   2
loop_
 _symmetry_equiv_pos_site_id
 _symmetry_equiv_pos_as_xyz
  1  'x, y, z'
loop_
 _atom_site_type_symbol
 _atom_site_label
 _atom_site_symmetry_multiplicity
 _atom_site_fract_x
 _atom_site_fract_y
 _atom_site_fract_z
 _atom_site_occupancy
 _atom_site_charge
Lu  Lu1  1  0.50000000  0.50000000  0.50000000  1.0 1.8788486578
Lu  Lu2  1  0.00000000  0.00000000  0.00000000  1.0 1.9230059244
P  P1  1  0.38640000  0.26500000  0.13330000  1.0 1.3508555152
P  P2  1  0.13330000  0.38640000  0.26500000  1.0 1.3508555152
P  P3  1  0.26500000  0.13330000  0.38640000  1.0 1.3508555152
P  P4  1  0.61360000  0.73500000  0.86670000  1.0 1.3508555152
P  P5  1  0.86670000  0.61360000  0.73500000  1.0 1.3508555152
P  P6  1  0.73500000  0.86670000  0.61360000  1.0 1.3508555152
C  C1  1  0.53620000  0.25330000  0.20250000  1.0 -0.0819925994
C  C2  1  0.20250000  0.53620000  0.25330000  1.0 -0.0819925994
C  C3  1  0.25330000  0.20250000  0.53620000  1.0 -0.0819925994
C  C4  1  0.46380000  0.74670000  0.79750000  1.0 -0.0819925994
C  C5  1  0.79750000  0.46380000  0.74670000  1.0 -0.0819925994
C  C6  1  0.74670000  0.79750000  0.46380000  1.0 -0.0819925994
C  C7  1  0.65200000  0.15610000  0.14190000  1.0 0.2324377828
C  C8  1  0.14190000  0.65200000  0.15610000  1.0 0.2324377828
C  C9  1  0.15610000  0.14190000  0.65200000  1.0 0.2324377828
C  C10  1  0.34800000  0.84390000  0.85810000  1.0 0.2324377828
C  C11  1  0.85810000  0.34800000  0.84390000  1.0 0.2324377828
C  C12  1  0.84390000  0.85810000  0.34800000  1.0 0.2324377828
C  C13  1  0.37660000  0.96630000  0.99150000  1.0 0.2324377828
C  C14  1  0.99150000  0.37660000  0.96630000  1.0 0.2324377828
C  C15  1  0.96630000  0.99150000  0.37660000  1.0 0.2324377828
C  C16  1  0.62340000  0.03370000  0.00850000  1.0 0.2324377828
C  C17  1  0.00850000  0.62340000  0.03370000  1.0 0.2324377828
C  C18  1  0.03370000  0.00850000  0.62340000  1.0 0.2324377828
N  N1  1  0.50870000  0.13180000  0.07190000  1.0 0.0671572159
N  N2  1  0.07190000  0.50870000  0.13180000  1.0 0.0671572159
N  N3  1  0.13180000  0.07190000  0.50870000  1.0 0.0671572159
N  N4  1  0.49130000  0.86820000  0.92810000  1.0 0.0671572159
N  N5  1  0.92810000  0.49130000  0.86820000  1.0 0.0671572159
N  N6  1  0.86820000  0.92810000  0.49130000  1.0 0.0671572159
Cl  Cl1  1  0.46400000  0.93910000  0.62770000  1.0 -0.2981414489
Cl  Cl2  1  0.93910000  0.62770000  0.46400000  1.0 -0.2981414489
Cl  Cl3  1  0.62770000  0.46400000  0.93910000  1.0 -0.2981414489
Cl  Cl4  1  0.53600000  0.06090000  0.37230000  1.0 -0.2981414489
Cl  Cl5  1  0.06090000  0.37230000  0.53600000  1.0 -0.2981414489
Cl  Cl6  1  0.37230000  0.53600000  0.06090000  1.0 -0.2981414489
O  O1  1  0.37350000  0.28870000  0.01630000  1.0 -0.6139893672
O  O2  1  0.01630000  0.37350000  0.28870000  1.0 -0.6139893672
O  O3  1  0.28870000  0.01630000  0.37350000  1.0 -0.6139893672
O  O4  1  0.62650000  0.71130000  0.98370000  1.0 -0.6139893672
O  O5  1  0.98370000  0.62650000  0.71130000  1.0 -0.6139893672
O  O6  1  0.71130000  0.98370000  0.62650000  1.0 -0.6139893672
O  O7  1  0.43920000  0.40490000  0.27900000  1.0 -0.7710162443
O  O8  1  0.27900000  0.43920000  0.40490000  1.0 -0.7710162443
O  O9  1  0.40490000  0.27900000  0.43920000  1.0 -0.7710162443
O  O10  1  0.56080000  0.59510000  0.72100000  1.0 -0.7710162443
O  O11  1  0.72100000  0.56080000  0.59510000  1.0 -0.7710162443
O  O12  1  0.59510000  0.72100000  0.56080000  1.0 -0.7710162443
O  O13  1  0.22820000  0.11200000  0.04580000  1.0 -0.7513910673
O  O14  1  0.04580000  0.22820000  0.11200000  1.0 -0.7513910673
O  O15  1  0.11200000  0.04580000  0.22820000  1.0 -0.7513910673
O  O16  1  0.77180000  0.88800000  0.95420000  1.0 -0.7513910673
O  O17  1  0.95420000  0.77180000  0.88800000  1.0 -0.7513910673
O  O18  1  0.88800000  0.95420000  0.77180000  1.0 -0.7513910673
