# DDEC6 charges by PACMAN v1.1 (https://github.com/mtap-research/PACMAN-charge/)
data_KIMNON_ion_pacman
_symmetry_space_group_name_H-M   'P 1'
_cell_length_a   12.34470000
_cell_length_b   12.34470000
_cell_length_c   12.34470000
_cell_angle_alpha   113.97400000
_cell_angle_beta   113.97400000
_cell_angle_gamma   113.97400000
_symmetry_Int_Tables_number   1
_chemical_formula_structural   VP3C9N3(ClO3)3
_chemical_formula_sum   'V2 P6 C18 N6 Cl6 O18'
_cell_volume   1145.14399212
_cell_formula_units_Z   2
loop_
 _symmetry_equiv_pos_site_id
 _symmetry_equiv_pos_as_xyz
  1  'x, y, z'
loop_
 _atom_site_type_symbol
 _atom_site_label
 _atom_site_symmetry_multiplicity
 _atom_site_fract_x
 _atom_site_fract_y
 _atom_site_fract_z
 _atom_site_occupancy
 _atom_site_charge
V  V1  1  0.50000000  0.50000000  0.50000000  1.0 1.8491097569
V  V2  1  0.00000000  0.00000000  0.00000000  1.0 1.9468414664
P  P1  1  0.37520000  0.25850000  0.14500000  1.0 1.333360362
P  P2  1  0.14500000  0.37520000  0.25850000  1.0 1.333360362
P  P3  1  0.25850000  0.14500000  0.37520000  1.0 1.333360362
P  P4  1  0.62480000  0.74150000  0.85500000  1.0 1.333360362
P  P5  1  0.85500000  0.62480000  0.74150000  1.0 1.333360362
P  P6  1  0.74150000  0.85500000  0.62480000  1.0 1.333360362
C  C1  1  0.52630000  0.24540000  0.21160000  1.0 -0.0596149833
C  C2  1  0.21160000  0.52630000  0.24540000  1.0 -0.0596149833
C  C3  1  0.24540000  0.21160000  0.52630000  1.0 -0.0596149833
C  C4  1  0.47370000  0.75460000  0.78840000  1.0 -0.0596149833
C  C5  1  0.78840000  0.47370000  0.75460000  1.0 -0.0596149833
C  C6  1  0.75460000  0.78840000  0.47370000  1.0 -0.0596149833
C  C7  1  0.65120000  0.15340000  0.15980000  1.0 0.2343842416
C  C8  1  0.15980000  0.65120000  0.15340000  1.0 0.2343842416
C  C9  1  0.15340000  0.15980000  0.65120000  1.0 0.240408068
C  C10  1  0.34880000  0.84660000  0.84020000  1.0 0.240408068
C  C11  1  0.84020000  0.34880000  0.84660000  1.0 0.240408068
C  C12  1  0.84660000  0.84020000  0.34880000  1.0 0.2343842416
C  C13  1  0.36840000  0.95680000  0.97770000  1.0 0.240408068
C  C14  1  0.97770000  0.36840000  0.95680000  1.0 0.240408068
C  C15  1  0.95680000  0.97770000  0.36840000  1.0 0.240408068
C  C16  1  0.63160000  0.04320000  0.02230000  1.0 0.2453121572
C  C17  1  0.02230000  0.63160000  0.04320000  1.0 0.240408068
C  C18  1  0.04320000  0.02230000  0.63160000  1.0 0.2453121572
N  N1  1  0.50550000  0.13230000  0.07760000  1.0 0.0493873685
N  N2  1  0.07760000  0.50550000  0.13230000  1.0 0.0493873685
N  N3  1  0.13230000  0.07760000  0.50550000  1.0 0.0493873685
N  N4  1  0.49450000  0.86770000  0.92240000  1.0 0.0493873685
N  N5  1  0.92240000  0.49450000  0.86770000  1.0 0.0493873685
N  N6  1  0.86770000  0.92240000  0.49450000  1.0 0.0493873685
Cl  Cl1  1  0.47714000  0.95125000  0.63181000  1.0 -0.3107988159
Cl  Cl2  1  0.95125000  0.63181000  0.47714000  1.0 -0.3107988159
Cl  Cl3  1  0.63181000  0.47714000  0.95125000  1.0 -0.3107988159
Cl  Cl4  1  0.52286000  0.04875000  0.36819000  1.0 -0.3107988159
Cl  Cl5  1  0.04875000  0.36819000  0.52286000  1.0 -0.3107988159
Cl  Cl6  1  0.36819000  0.52286000  0.04875000  1.0 -0.3107988159
O  O1  1  0.35470000  0.26730000  0.01660000  1.0 -0.5977611363
O  O2  1  0.01660000  0.35470000  0.26730000  1.0 -0.5977611363
O  O3  1  0.26730000  0.01660000  0.35470000  1.0 -0.5977611363
O  O4  1  0.64530000  0.73270000  0.98340000  1.0 -0.5977611363
O  O5  1  0.98340000  0.64530000  0.73270000  1.0 -0.5977611363
O  O6  1  0.73270000  0.98340000  0.64530000  1.0 -0.5977611363
O  O7  1  0.44170000  0.41530000  0.29430000  1.0 -0.7522247355
O  O8  1  0.29430000  0.44170000  0.41530000  1.0 -0.7522247355
O  O9  1  0.41530000  0.29430000  0.44170000  1.0 -0.7522247355
O  O10  1  0.55830000  0.58470000  0.70570000  1.0 -0.7522247355
O  O11  1  0.70570000  0.55830000  0.58470000  1.0 -0.7522247355
O  O12  1  0.58470000  0.70570000  0.55830000  1.0 -0.7522247355
O  O13  1  0.22270000  0.10130000  0.07370000  1.0 -0.7744455159
O  O14  1  0.07370000  0.22270000  0.10130000  1.0 -0.7744455159
O  O15  1  0.10130000  0.07370000  0.22270000  1.0 -0.7744455159
O  O16  1  0.77730000  0.89870000  0.92630000  1.0 -0.7744455159
O  O17  1  0.92630000  0.77730000  0.89870000  1.0 -0.7744455159
O  O18  1  0.89870000  0.92630000  0.77730000  1.0 -0.7744455159
