# DDEC6 charges by PACMAN v1.1 (https://github.com/mtap-research/PACMAN-charge/)
data_KIMNIH_ion_pacman
_symmetry_space_group_name_H-M   'P 1'
_cell_length_a   12.46220000
_cell_length_b   12.46220000
_cell_length_c   12.46220000
_cell_angle_alpha   113.84400000
_cell_angle_beta   113.84400000
_cell_angle_gamma   113.84400000
_symmetry_Int_Tables_number   1
_chemical_formula_structural   ScP3C9N3(ClO3)3
_chemical_formula_sum   'Sc2 P6 C18 N6 Cl6 O18'
_cell_volume   1189.37073895
_cell_formula_units_Z   2
loop_
 _symmetry_equiv_pos_site_id
 _symmetry_equiv_pos_as_xyz
  1  'x, y, z'
loop_
 _atom_site_type_symbol
 _atom_site_label
 _atom_site_symmetry_multiplicity
 _atom_site_fract_x
 _atom_site_fract_y
 _atom_site_fract_z
 _atom_site_occupancy
 _atom_site_charge
Sc  Sc1  1  0.50000000  0.50000000  0.50000000  1.0 1.9739237629
Sc  Sc2  1  0.00000000  0.00000000  0.00000000  1.0 2.0050874554
P  P1  1  0.38720000  0.26610000  0.14160000  1.0 1.3678118788
P  P2  1  0.14160000  0.38720000  0.26610000  1.0 1.3678118788
P  P3  1  0.26610000  0.14160000  0.38720000  1.0 1.3678118788
P  P4  1  0.61280000  0.73390000  0.85840000  1.0 1.3678118788
P  P5  1  0.85840000  0.61280000  0.73390000  1.0 1.3678118788
P  P6  1  0.73390000  0.85840000  0.61280000  1.0 1.3678118788
C  C1  1  0.54480000  0.26430000  0.20990000  1.0 -0.1071665831
C  C2  1  0.20990000  0.54480000  0.26430000  1.0 -0.1071665831
C  C3  1  0.26430000  0.20990000  0.54480000  1.0 -0.1027781091
C  C4  1  0.45520000  0.73570000  0.79010000  1.0 -0.1027781091
C  C5  1  0.79010000  0.45520000  0.73570000  1.0 -0.1027781091
C  C6  1  0.73570000  0.79010000  0.45520000  1.0 -0.1027781091
C  C7  1  0.64900000  0.14970000  0.13600000  1.0 0.238019916
C  C8  1  0.13600000  0.64900000  0.14970000  1.0 0.2348964267
C  C9  1  0.14970000  0.13600000  0.64900000  1.0 0.238019916
C  C10  1  0.35100000  0.85030000  0.86400000  1.0 0.238019916
C  C11  1  0.86400000  0.35100000  0.85030000  1.0 0.238019916
C  C12  1  0.85030000  0.86400000  0.35100000  1.0 0.238019916
C  C13  1  0.38870000  0.97620000  0.00610000  1.0 0.238019916
C  C14  1  0.00610000  0.38870000  0.97620000  1.0 0.238019916
C  C15  1  0.97620000  0.00610000  0.38870000  1.0 0.238019916
C  C16  1  0.61130000  0.02380000  0.99390000  1.0 0.238019916
C  C17  1  0.99390000  0.61130000  0.02380000  1.0 0.238019916
C  C18  1  0.02380000  0.99390000  0.61130000  1.0 0.238019916
N  N1  1  0.51130000  0.13930000  0.07380000  1.0 0.0674907469
N  N2  1  0.07380000  0.51130000  0.13930000  1.0 0.0674907469
N  N3  1  0.13930000  0.07380000  0.51130000  1.0 0.0585271331
N  N4  1  0.48870000  0.86070000  0.92620000  1.0 0.0585271331
N  N5  1  0.92620000  0.48870000  0.86070000  1.0 0.0585271331
N  N6  1  0.86070000  0.92620000  0.48870000  1.0 0.0585271331
Cl  Cl1  1  0.47820000  0.95140000  0.63750000  1.0 -0.2770404217
Cl  Cl2  1  0.95140000  0.63750000  0.47820000  1.0 -0.2709884839
Cl  Cl3  1  0.63750000  0.47820000  0.95140000  1.0 -0.2709884839
Cl  Cl4  1  0.52180000  0.04860000  0.36250000  1.0 -0.2770404217
Cl  Cl5  1  0.04860000  0.36250000  0.52180000  1.0 -0.2709884839
Cl  Cl6  1  0.36250000  0.52180000  0.04860000  1.0 -0.2770404217
O  O1  1  0.36330000  0.28060000  0.01750000  1.0 -0.6187661585
O  O2  1  0.01750000  0.36330000  0.28060000  1.0 -0.6187661585
O  O3  1  0.28060000  0.01750000  0.36330000  1.0 -0.6187661585
O  O4  1  0.63670000  0.71940000  0.98250000  1.0 -0.6187661585
O  O5  1  0.98250000  0.63670000  0.71940000  1.0 -0.6187661585
O  O6  1  0.71940000  0.98250000  0.63670000  1.0 -0.6187661585
O  O7  1  0.43840000  0.40750000  0.28770000  1.0 -0.7859538989
O  O8  1  0.28770000  0.43840000  0.40750000  1.0 -0.7859538989
O  O9  1  0.40750000  0.28770000  0.43840000  1.0 -0.7859538989
O  O10  1  0.56160000  0.59250000  0.71230000  1.0 -0.7859538989
O  O11  1  0.71230000  0.56160000  0.59250000  1.0 -0.7859538989
O  O12  1  0.59250000  0.71230000  0.56160000  1.0 -0.7859538989
O  O13  1  0.22870000  0.11120000  0.06140000  1.0 -0.7859538989
O  O14  1  0.06140000  0.22870000  0.11120000  1.0 -0.7841245529
O  O15  1  0.11120000  0.06140000  0.22870000  1.0 -0.7841245529
O  O16  1  0.77130000  0.88880000  0.93860000  1.0 -0.7841245529
O  O17  1  0.93860000  0.77130000  0.88880000  1.0 -0.7859538989
O  O18  1  0.88880000  0.93860000  0.77130000  1.0 -0.7859538989
