# DDEC6 charges by PACMAN v1.1 (https://github.com/mtap-research/PACMAN-charge/)
data_KIMNAZ_ion_pacman
_symmetry_space_group_name_H-M   'P 1'
_cell_length_a   12.35980000
_cell_length_b   12.35980000
_cell_length_c   12.35980000
_cell_angle_alpha   114.17800000
_cell_angle_beta   114.17800000
_cell_angle_gamma   114.17800000
_symmetry_Int_Tables_number   1
_chemical_formula_structural   GaP3C9N3(ClO3)3
_chemical_formula_sum   'Ga2 P6 C18 N6 Cl6 O18'
_cell_volume   1131.84363579
_cell_formula_units_Z   2
loop_
 _symmetry_equiv_pos_site_id
 _symmetry_equiv_pos_as_xyz
  1  'x, y, z'
loop_
 _atom_site_type_symbol
 _atom_site_label
 _atom_site_symmetry_multiplicity
 _atom_site_fract_x
 _atom_site_fract_y
 _atom_site_fract_z
 _atom_site_occupancy
 _atom_site_charge
Ga  Ga1  1  0.50000000  0.50000000  0.50000000  1.0 1.5630290369
Ga  Ga2  1  0.00000000  0.00000000  0.00000000  1.0 1.6369479755
P  P1  1  0.37940000  0.25760000  0.14770000  1.0 1.3233313818
P  P2  1  0.14770000  0.37940000  0.25760000  1.0 1.3233313818
P  P3  1  0.25760000  0.14770000  0.37940000  1.0 1.3233313818
P  P4  1  0.62060000  0.74240000  0.85230000  1.0 1.3233313818
P  P5  1  0.85230000  0.62060000  0.74240000  1.0 1.3233313818
P  P6  1  0.74240000  0.85230000  0.62060000  1.0 1.3233313818
C  C1  1  0.53110000  0.24700000  0.21930000  1.0 -0.0877729036
C  C2  1  0.21930000  0.53110000  0.24700000  1.0 -0.0877729036
C  C3  1  0.24700000  0.21930000  0.53110000  1.0 -0.0877729036
C  C4  1  0.46890000  0.75300000  0.78070000  1.0 -0.0877729036
C  C5  1  0.78070000  0.46890000  0.75300000  1.0 -0.0877729036
C  C6  1  0.75300000  0.78070000  0.46890000  1.0 -0.0877729036
C  C7  1  0.64810000  0.14830000  0.15120000  1.0 0.2233718916
C  C8  1  0.15120000  0.64810000  0.14830000  1.0 0.2233718916
C  C9  1  0.14830000  0.15120000  0.64810000  1.0 0.2233718916
C  C10  1  0.35190000  0.85170000  0.84880000  1.0 0.2233718916
C  C11  1  0.84880000  0.35190000  0.85170000  1.0 0.2233718916
C  C12  1  0.85170000  0.84880000  0.35190000  1.0 0.2233718916
C  C13  1  0.37860000  0.96370000  0.99210000  1.0 0.2378566473
C  C14  1  0.99210000  0.37860000  0.96370000  1.0 0.2378566473
C  C15  1  0.96370000  0.99210000  0.37860000  1.0 0.2378566473
C  C16  1  0.62140000  0.03630000  0.00790000  1.0 0.2378566473
C  C17  1  0.00790000  0.62140000  0.03630000  1.0 0.2378566473
C  C18  1  0.03630000  0.00790000  0.62140000  1.0 0.2378566473
N  N1  1  0.51010000  0.13870000  0.08250000  1.0 0.0492203953
N  N2  1  0.08250000  0.51010000  0.13870000  1.0 0.0492203953
N  N3  1  0.13870000  0.08250000  0.51010000  1.0 0.0411415612
N  N4  1  0.48990000  0.86130000  0.91750000  1.0 0.0411415612
N  N5  1  0.91750000  0.48990000  0.86130000  1.0 0.0411415612
N  N6  1  0.86130000  0.91750000  0.48990000  1.0 0.0411415612
Cl  Cl1  1  0.48325000  0.95530000  0.63725000  1.0 -0.2920719108
Cl  Cl2  1  0.95530000  0.63725000  0.48325000  1.0 -0.2920719108
Cl  Cl3  1  0.63725000  0.48325000  0.95530000  1.0 -0.2920719108
Cl  Cl4  1  0.51675000  0.04470000  0.36275000  1.0 -0.2920719108
Cl  Cl5  1  0.04470000  0.36275000  0.51675000  1.0 -0.2920719108
Cl  Cl6  1  0.36275000  0.51675000  0.04470000  1.0 -0.2974868556
O  O1  1  0.35370000  0.26680000  0.01870000  1.0 -0.5855344078
O  O2  1  0.01870000  0.35370000  0.26680000  1.0 -0.5831290743
O  O3  1  0.26680000  0.01870000  0.35370000  1.0 -0.5831290743
O  O4  1  0.64630000  0.73320000  0.98130000  1.0 -0.5831290743
O  O5  1  0.98130000  0.64630000  0.73320000  1.0 -0.5831290743
O  O6  1  0.73320000  0.98130000  0.64630000  1.0 -0.5831290743
O  O7  1  0.43530000  0.41250000  0.28970000  1.0 -0.7000871242
O  O8  1  0.28970000  0.43530000  0.41250000  1.0 -0.7000871242
O  O9  1  0.41250000  0.28970000  0.43530000  1.0 -0.6946319481
O  O10  1  0.56470000  0.58750000  0.71030000  1.0 -0.6946319481
O  O11  1  0.71030000  0.56470000  0.58750000  1.0 -0.6946319481
O  O12  1  0.58750000  0.71030000  0.56470000  1.0 -0.7000871242
O  O13  1  0.22010000  0.09910000  0.07010000  1.0 -0.7000871242
O  O14  1  0.07010000  0.22010000  0.09910000  1.0 -0.7000871242
O  O15  1  0.09910000  0.07010000  0.22010000  1.0 -0.7000871242
O  O16  1  0.77990000  0.90090000  0.92990000  1.0 -0.7000871242
O  O17  1  0.92990000  0.77990000  0.90090000  1.0 -0.7000871242
O  O18  1  0.90090000  0.92990000  0.77990000  1.0 -0.7000871242
