# DDEC6 charges by PACMAN v1.1 (https://github.com/mtap-research/PACMAN-charge/)
data_KIMNUT_ion_pacman
_symmetry_space_group_name_H-M   'P 1'
_cell_length_a   12.53680000
_cell_length_b   12.53680000
_cell_length_c   12.53680000
_cell_angle_alpha   113.59200000
_cell_angle_beta   113.59200000
_cell_angle_gamma   113.59200000
_symmetry_Int_Tables_number   1
_chemical_formula_structural   YbP3C9N3(ClO3)3
_chemical_formula_sum   'Yb2 P6 C18 N6 Cl6 O18'
_cell_volume   1232.51184323
_cell_formula_units_Z   2
loop_
 _symmetry_equiv_pos_site_id
 _symmetry_equiv_pos_as_xyz
  1  'x, y, z'
loop_
 _atom_site_type_symbol
 _atom_site_label
 _atom_site_symmetry_multiplicity
 _atom_site_fract_x
 _atom_site_fract_y
 _atom_site_fract_z
 _atom_site_occupancy
 _atom_site_charge
Yb  Yb1  1  0.50000000  0.50000000  0.50000000  1.0 2.3076296635
Yb  Yb2  1  0.00000000  0.00000000  0.00000000  1.0 2.2929178067
P  P1  1  0.38220000  0.25900000  0.12490000  1.0 1.4013838358
P  P2  1  0.12490000  0.38220000  0.25900000  1.0 1.4013838358
P  P3  1  0.25900000  0.12490000  0.38220000  1.0 1.4013838358
P  P4  1  0.61780000  0.74100000  0.87510000  1.0 1.4013838358
P  P5  1  0.87510000  0.61780000  0.74100000  1.0 1.4013838358
P  P6  1  0.74100000  0.87510000  0.61780000  1.0 1.4013838358
C  C1  1  0.52390000  0.23790000  0.18820000  1.0 -0.1106874433
C  C2  1  0.18820000  0.52390000  0.23790000  1.0 -0.1106874433
C  C3  1  0.23790000  0.18820000  0.52390000  1.0 -0.1106874433
C  C4  1  0.47610000  0.76210000  0.81180000  1.0 -0.1106874433
C  C5  1  0.81180000  0.47610000  0.76210000  1.0 -0.1106874433
C  C6  1  0.76210000  0.81180000  0.47610000  1.0 -0.1106874433
C  C7  1  0.65140000  0.15970000  0.13410000  1.0 0.2378656181
C  C8  1  0.13410000  0.65140000  0.15970000  1.0 0.2378656181
C  C9  1  0.15970000  0.13410000  0.65140000  1.0 0.2378656181
C  C10  1  0.34860000  0.84030000  0.86590000  1.0 0.2378656181
C  C11  1  0.86590000  0.34860000  0.84030000  1.0 0.2378656181
C  C12  1  0.84030000  0.86590000  0.34860000  1.0 0.2378656181
C  C13  1  0.37540000  0.96760000  0.99200000  1.0 0.2378656181
C  C14  1  0.99200000  0.37540000  0.96760000  1.0 0.2378656181
C  C15  1  0.96760000  0.99200000  0.37540000  1.0 0.2378656181
C  C16  1  0.62460000  0.03240000  0.00800000  1.0 0.2378656181
C  C17  1  0.00800000  0.62460000  0.03240000  1.0 0.2378656181
C  C18  1  0.03240000  0.00800000  0.62460000  1.0 0.2378656181
N  N1  1  0.50240000  0.12470000  0.06010000  1.0 0.084226843
N  N2  1  0.06010000  0.50240000  0.12470000  1.0 0.084226843
N  N3  1  0.12470000  0.06010000  0.50240000  1.0 0.084226843
N  N4  1  0.49760000  0.87530000  0.93990000  1.0 0.084226843
N  N5  1  0.93990000  0.49760000  0.87530000  1.0 0.084226843
N  N6  1  0.87530000  0.93990000  0.49760000  1.0 0.084226843
Cl  Cl1  1  0.46650000  0.94020000  0.63040000  1.0 -0.2634175035
Cl  Cl2  1  0.94020000  0.63040000  0.46650000  1.0 -0.2634175035
Cl  Cl3  1  0.63040000  0.46650000  0.94020000  1.0 -0.2634175035
Cl  Cl4  1  0.53350000  0.05980000  0.36960000  1.0 -0.2634175035
Cl  Cl5  1  0.05980000  0.36960000  0.53350000  1.0 -0.2634175035
Cl  Cl6  1  0.36960000  0.53350000  0.05980000  1.0 -0.2634175035
O  O1  1  0.37850000  0.28860000  0.01410000  1.0 -0.6151311212
O  O2  1  0.01410000  0.37850000  0.28860000  1.0 -0.6141583733
O  O3  1  0.28860000  0.01410000  0.37850000  1.0 -0.6141583733
O  O4  1  0.62150000  0.71140000  0.98590000  1.0 -0.6151311212
O  O5  1  0.98590000  0.62150000  0.71140000  1.0 -0.6151311212
O  O6  1  0.71140000  0.98590000  0.62150000  1.0 -0.6151311212
O  O7  1  0.43650000  0.39930000  0.27110000  1.0 -0.8829062395
O  O8  1  0.27110000  0.43650000  0.39930000  1.0 -0.8829062395
O  O9  1  0.39930000  0.27110000  0.43650000  1.0 -0.8829062395
O  O10  1  0.56350000  0.60070000  0.72890000  1.0 -0.8829062395
O  O11  1  0.72890000  0.56350000  0.60070000  1.0 -0.8829062395
O  O12  1  0.60070000  0.72890000  0.56350000  1.0 -0.8829062395
O  O13  1  0.22400000  0.10590000  0.04020000  1.0 -0.8562817686
O  O14  1  0.04020000  0.22400000  0.10590000  1.0 -0.8562817686
O  O15  1  0.10590000  0.04020000  0.22400000  1.0 -0.8562817686
O  O16  1  0.77600000  0.89410000  0.95980000  1.0 -0.8562817686
O  O17  1  0.95980000  0.77600000  0.89410000  1.0 -0.8562817686
O  O18  1  0.89410000  0.95980000  0.77600000  1.0 -0.8562817686
