# DDEC6 charges by PACMAN v1.1 (https://github.com/mtap-research/PACMAN-charge/)
data_KINFAQ_ASR_pacman
_symmetry_space_group_name_H-M   'P 1'
_cell_length_a   10.97090000
_cell_length_b   10.97090000
_cell_length_c   18.84200000
_cell_angle_alpha   73.36960000
_cell_angle_beta   106.63000000
_cell_angle_gamma   105.69200000
_symmetry_Int_Tables_number   1
_chemical_formula_structural   TmH6(C2O)6
_chemical_formula_sum   'Tm4 H24 C48 O24'
_cell_volume   2037.69854965
_cell_formula_units_Z   4
loop_
 _symmetry_equiv_pos_site_id
 _symmetry_equiv_pos_as_xyz
  1  'x, y, z'
loop_
 _atom_site_type_symbol
 _atom_site_label
 _atom_site_symmetry_multiplicity
 _atom_site_fract_x
 _atom_site_fract_y
 _atom_site_fract_z
 _atom_site_occupancy
 _atom_site_charge
Tm  Tm1  1  0.55497000  0.56155000  0.39463000  1.0 2.0715577537
Tm  Tm2  1  0.56155000  0.55497000  0.10537000  1.0 2.0715577537
Tm  Tm3  1  0.44503000  0.43845000  0.60537000  1.0 2.0715577537
Tm  Tm4  1  0.43845000  0.44503000  0.89463000  1.0 2.0715577537
H  H1  1  0.84140000  0.41520000  0.43550000  1.0 0.1208208734
H  H2  1  0.41520000  0.84140000  0.06450000  1.0 0.1208208734
H  H3  1  0.15860000  0.58480000  0.56450000  1.0 0.1208208734
H  H4  1  0.58480000  0.15860000  0.93550000  1.0 0.1208208734
H  H5  1  0.04830000  0.41230000  0.48770000  1.0 0.1118497522
H  H6  1  0.41230000  0.04830000  0.01230000  1.0 0.1118497522
H  H7  1  0.95170000  0.58770000  0.51230000  1.0 0.1118497522
H  H8  1  0.58770000  0.95170000  0.98770000  1.0 0.1118497522
H  H9  1  0.12630000  0.51070000  0.27800000  1.0 0.1118497522
H  H10  1  0.51070000  0.12630000  0.22200000  1.0 0.1118497522
H  H11  1  0.87370000  0.48930000  0.72200000  1.0 0.1118497522
H  H12  1  0.48930000  0.87370000  0.77800000  1.0 0.1118497522
H  H13  1  0.89980000  0.51000000  0.22840000  1.0 0.1118497522
H  H14  1  0.51000000  0.89980000  0.27160000  1.0 0.1118497522
H  H15  1  0.10020000  0.49000000  0.77160000  1.0 0.1118497522
H  H16  1  0.49000000  0.10020000  0.72840000  1.0 0.1118497522
H  H17  1  0.42200000  0.02800000  0.59490000  1.0 0.1118497522
H  H18  1  0.02800000  0.42200000  0.90510000  1.0 0.1118497522
H  H19  1  0.57800000  0.97200000  0.40510000  1.0 0.1118497522
H  H20  1  0.97200000  0.57800000  0.09490000  1.0 0.1118497522
H  H21  1  0.54980000  0.17840000  0.40500000  1.0 0.1208208734
H  H22  1  0.17840000  0.54980000  0.09500000  1.0 0.1208208734
H  H23  1  0.45020000  0.82160000  0.59500000  1.0 0.1208208734
H  H24  1  0.82160000  0.45020000  0.90500000  1.0 0.1208208734
C  C1  1  0.70600000  0.46460000  0.29030000  1.0 0.6480060155
C  C2  1  0.46460000  0.70600000  0.20970000  1.0 0.6480060155
C  C3  1  0.29400000  0.53540000  0.70970000  1.0 0.6480060155
C  C4  1  0.53540000  0.29400000  0.79030000  1.0 0.6480060155
C  C5  1  0.85160000  0.45280000  0.32890000  1.0 -0.0230302075
C  C6  1  0.45280000  0.85160000  0.17110000  1.0 -0.0230302075
C  C7  1  0.14840000  0.54720000  0.67110000  1.0 -0.0230302075
C  C8  1  0.54720000  0.14840000  0.82890000  1.0 -0.0230302075
C  C9  1  0.89770000  0.43030000  0.40410000  1.0 -0.1040856549
C  C10  1  0.43030000  0.89770000  0.09590000  1.0 -0.1040856549
C  C11  1  0.10230000  0.56970000  0.59590000  1.0 -0.1040856549
C  C12  1  0.56970000  0.10230000  0.90410000  1.0 -0.1040856549
C  C13  1  0.02200000  0.43060000  0.43500000  1.0 -0.1097457139
C  C14  1  0.43060000  0.02200000  0.06500000  1.0 -0.1097457139
C  C15  1  0.97800000  0.56940000  0.56500000  1.0 -0.1097457139
C  C16  1  0.56940000  0.97800000  0.93500000  1.0 -0.1097457139
C  C17  1  0.11740000  0.45640000  0.39250000  1.0 -0.0570989223
C  C18  1  0.45640000  0.11740000  0.10750000  1.0 -0.0570989223
C  C19  1  0.88260000  0.54360000  0.60750000  1.0 -0.0570989223
C  C20  1  0.54360000  0.88260000  0.89250000  1.0 -0.0570989223
C  C21  1  0.25750000  0.47270000  0.42800000  1.0 0.6368771429
C  C22  1  0.47270000  0.25750000  0.07200000  1.0 0.6368771429
C  C23  1  0.74250000  0.52730000  0.57200000  1.0 0.6368771429
C  C24  1  0.52730000  0.74250000  0.92800000  1.0 0.6368771429
C  C25  1  0.07000000  0.48920000  0.31040000  1.0 -0.0940871621
C  C26  1  0.48920000  0.07000000  0.18960000  1.0 -0.0940871621
C  C27  1  0.93000000  0.51080000  0.68960000  1.0 -0.0940871621
C  C28  1  0.51080000  0.93000000  0.81040000  1.0 -0.0940871621
C  C29  1  0.93260000  0.48740000  0.28060000  1.0 -0.1179919625
C  C30  1  0.48740000  0.93260000  0.21940000  1.0 -0.1179919625
C  C31  1  0.06740000  0.51260000  0.71940000  1.0 -0.1179919625
C  C32  1  0.51260000  0.06740000  0.78060000  1.0 -0.1179919625
C  C33  1  0.49190000  0.25910000  0.50550000  1.0 0.6368771429
C  C34  1  0.25910000  0.49190000  0.99450000  1.0 0.6368771429
C  C35  1  0.50810000  0.74090000  0.49450000  1.0 0.6368771429
C  C36  1  0.74090000  0.50810000  0.00550000  1.0 0.6368771429
C  C37  1  0.49330000  0.12370000  0.50240000  1.0 -0.0277191626
C  C38  1  0.12370000  0.49330000  0.99760000  1.0 -0.0277191626
C  C39  1  0.50670000  0.87630000  0.49760000  1.0 -0.0277191626
C  C40  1  0.87630000  0.50670000  0.00240000  1.0 -0.0277191626
C  C41  1  0.45570000  0.01830000  0.55730000  1.0 -0.1097457139
C  C42  1  0.01830000  0.45570000  0.94270000  1.0 -0.1097457139
C  C43  1  0.54430000  0.98170000  0.44270000  1.0 -0.1097457139
C  C44  1  0.98170000  0.54430000  0.05730000  1.0 -0.1097457139
C  C45  1  0.53210000  0.10790000  0.44430000  1.0 -0.1040856549
C  C46  1  0.10790000  0.53210000  0.05570000  1.0 -0.1040856549
C  C47  1  0.46790000  0.89210000  0.55570000  1.0 -0.1040856549
C  C48  1  0.89210000  0.46790000  0.94430000  1.0 -0.1040856549
O  O1  1  0.64890000  0.46950000  0.33690000  1.0 -0.6825336283
O  O2  1  0.46950000  0.64890000  0.16310000  1.0 -0.6825336283
O  O3  1  0.35110000  0.53050000  0.66310000  1.0 -0.6825336283
O  O4  1  0.53050000  0.35110000  0.83690000  1.0 -0.6825336283
O  O5  1  0.66910000  0.46810000  0.22430000  1.0 -0.6191848582
O  O6  1  0.46810000  0.66910000  0.27570000  1.0 -0.6191848582
O  O7  1  0.33090000  0.53190000  0.77570000  1.0 -0.6191848582
O  O8  1  0.53190000  0.33090000  0.72430000  1.0 -0.6191848582
O  O9  1  0.29520000  0.45180000  0.49680000  1.0 -0.695481441
O  O10  1  0.45180000  0.29520000  0.00320000  1.0 -0.695481441
O  O11  1  0.70480000  0.54820000  0.50320000  1.0 -0.695481441
O  O12  1  0.54820000  0.70480000  0.99680000  1.0 -0.695481441
O  O13  1  0.33270000  0.50770000  0.38280000  1.0 -0.6734579569
O  O14  1  0.50770000  0.33270000  0.11720000  1.0 -0.6734579569
O  O15  1  0.66730000  0.49230000  0.61720000  1.0 -0.6734579569
O  O16  1  0.49230000  0.66730000  0.88280000  1.0 -0.6734579569
O  O17  1  0.50820000  0.34060000  0.44650000  1.0 -0.6451100176
O  O18  1  0.34060000  0.50820000  0.05350000  1.0 -0.6443736022
O  O19  1  0.49180000  0.65940000  0.55350000  1.0 -0.6451100176
O  O20  1  0.65940000  0.49180000  0.94650000  1.0 -0.6451100176
O  O21  1  0.47440000  0.27700000  0.56120000  1.0 -0.6191848582
O  O22  1  0.27700000  0.47440000  0.93880000  1.0 -0.6191848582
O  O23  1  0.52560000  0.72300000  0.43880000  1.0 -0.6191848582
O  O24  1  0.72300000  0.52560000  0.06120000  1.0 -0.6191848582
