# DDEC6 charges by PACMAN v1.1 (https://github.com/mtap-research/PACMAN-charge/)
data_KINMUR_ion_pacman
_symmetry_space_group_name_H-M   'P 1'
_cell_length_a   7.38880000
_cell_length_b   7.38880000
_cell_length_c   22.14380000
_cell_angle_alpha   90.00000000
_cell_angle_beta   90.00000000
_cell_angle_gamma   90.00000000
_symmetry_Int_Tables_number   1
_chemical_formula_structural   CuH24C24(N3F4)2
_chemical_formula_sum   'Cu2 H48 C48 N12 F16'
_cell_volume   1208.92670943
_cell_formula_units_Z   2
loop_
 _symmetry_equiv_pos_site_id
 _symmetry_equiv_pos_as_xyz
  1  'x, y, z'
loop_
 _atom_site_type_symbol
 _atom_site_label
 _atom_site_symmetry_multiplicity
 _atom_site_fract_x
 _atom_site_fract_y
 _atom_site_fract_z
 _atom_site_occupancy
 _atom_site_charge
Cu  Cu1  1  0.00000000  0.00000000  0.75000000  1.0 0.6072491003
Cu  Cu2  1  0.00000000  0.00000000  0.25000000  1.0 0.6072491003
H  H1  1  0.50000000  0.72750000  0.64860000  1.0 0.1278335706
H  H2  1  0.50000000  0.27250000  0.64860000  1.0 0.1278335706
H  H3  1  0.39390000  0.83720000  0.69780000  1.0 0.1370119197
H  H4  1  0.60610000  0.16280000  0.69780000  1.0 0.1370119197
H  H5  1  0.39390000  0.16280000  0.69780000  1.0 0.1370119197
H  H6  1  0.60610000  0.83720000  0.69780000  1.0 0.1370119197
H  H7  1  0.77640000  0.00000000  0.62110000  1.0 0.1144957287
H  H8  1  0.22360000  0.00000000  0.62110000  1.0 0.1144957287
H  H9  1  0.67690000  0.89390000  0.56960000  1.0 0.1278335706
H  H10  1  0.32310000  0.10610000  0.56960000  1.0 0.1278335706
H  H11  1  0.67690000  0.10610000  0.56960000  1.0 0.1278335706
H  H12  1  0.32310000  0.89390000  0.56960000  1.0 0.1278335706
H  H13  1  0.72750000  0.50000000  0.14860000  1.0 0.1278335706
H  H14  1  0.27250000  0.50000000  0.14860000  1.0 0.1278335706
H  H15  1  0.83720000  0.60610000  0.19780000  1.0 0.1370119197
H  H16  1  0.16280000  0.39390000  0.19780000  1.0 0.1370119197
H  H17  1  0.16280000  0.60610000  0.19780000  1.0 0.1370119197
H  H18  1  0.83720000  0.39390000  0.19780000  1.0 0.1370119197
H  H19  1  0.00000000  0.22360000  0.12110000  1.0 0.1144957287
H  H20  1  0.00000000  0.77640000  0.12110000  1.0 0.1144957287
H  H21  1  0.89390000  0.32310000  0.06960000  1.0 0.1278335706
H  H22  1  0.10610000  0.67690000  0.06960000  1.0 0.1278335706
H  H23  1  0.10610000  0.32310000  0.06960000  1.0 0.1278335706
H  H24  1  0.89390000  0.67690000  0.06960000  1.0 0.1278335706
H  H25  1  0.50000000  0.72750000  0.35140000  1.0 0.1278335706
H  H26  1  0.50000000  0.27250000  0.35140000  1.0 0.1278335706
H  H27  1  0.60610000  0.83720000  0.30220000  1.0 0.1370119197
H  H28  1  0.39390000  0.16280000  0.30220000  1.0 0.1370119197
H  H29  1  0.60610000  0.16280000  0.30220000  1.0 0.1370119197
H  H30  1  0.39390000  0.83720000  0.30220000  1.0 0.1370119197
H  H31  1  0.22360000  0.00000000  0.37890000  1.0 0.1144957287
H  H32  1  0.77640000  0.00000000  0.37890000  1.0 0.1144957287
H  H33  1  0.32310000  0.89390000  0.43040000  1.0 0.1278335706
H  H34  1  0.67690000  0.10610000  0.43040000  1.0 0.1278335706
H  H35  1  0.32310000  0.10610000  0.43040000  1.0 0.1278335706
H  H36  1  0.67690000  0.89390000  0.43040000  1.0 0.1278335706
H  H37  1  0.72750000  0.50000000  0.85140000  1.0 0.1278335706
H  H38  1  0.27250000  0.50000000  0.85140000  1.0 0.1278335706
H  H39  1  0.83720000  0.39390000  0.80220000  1.0 0.1370119197
H  H40  1  0.16280000  0.60610000  0.80220000  1.0 0.1370119197
H  H41  1  0.16280000  0.39390000  0.80220000  1.0 0.1370119197
H  H42  1  0.83720000  0.60610000  0.80220000  1.0 0.1370119197
H  H43  1  0.00000000  0.77640000  0.87890000  1.0 0.1144957287
H  H44  1  0.00000000  0.22360000  0.87890000  1.0 0.1144957287
H  H45  1  0.89390000  0.67690000  0.93040000  1.0 0.1278335706
H  H46  1  0.10610000  0.32310000  0.93040000  1.0 0.1278335706
H  H47  1  0.10610000  0.67690000  0.93040000  1.0 0.1278335706
H  H48  1  0.89390000  0.32310000  0.93040000  1.0 0.1278335706
C  C1  1  0.65880000  0.00000000  0.83381000  1.0 0.2142707376
C  C2  1  0.00000000  0.65880000  0.33381000  1.0 0.2142707376
C  C3  1  0.34120000  0.00000000  0.83381000  1.0 0.2142707376
C  C4  1  0.00000000  0.34120000  0.33381000  1.0 0.2142707376
C  C5  1  0.65880000  0.00000000  0.16619000  1.0 0.2157838536
C  C6  1  0.00000000  0.65880000  0.66619000  1.0 0.2142707376
C  C7  1  0.34120000  0.00000000  0.16619000  1.0 0.2157838536
C  C8  1  0.00000000  0.34120000  0.66619000  1.0 0.2142707376
C  C9  1  0.50000000  0.00000000  0.86800000  1.0 -0.1709021139
C  C10  1  0.00000000  0.50000000  0.36800000  1.0 -0.1709021139
C  C11  1  0.50000000  0.00000000  0.13200000  1.0 -0.1709021139
C  C12  1  0.00000000  0.50000000  0.63200000  1.0 -0.1709021139
C  C13  1  0.50000000  0.00000000  0.93450000  1.0 -0.1375609929
C  C14  1  0.00000000  0.50000000  0.43450000  1.0 -0.1375609929
C  C15  1  0.50000000  0.00000000  0.06550000  1.0 -0.1375609929
C  C16  1  0.00000000  0.50000000  0.56550000  1.0 -0.1375609929
C  C17  1  0.65300000  0.96260000  0.96889000  1.0 0.0654069526
C  C18  1  0.03740000  0.65300000  0.46889000  1.0 0.0654069526
C  C19  1  0.34700000  0.03740000  0.96889000  1.0 0.0654069526
C  C20  1  0.96260000  0.34700000  0.46889000  1.0 0.0654069526
C  C21  1  0.65300000  0.03740000  0.03111000  1.0 0.0654069526
C  C22  1  0.96260000  0.65300000  0.53111000  1.0 0.0654069526
C  C23  1  0.34700000  0.96260000  0.03111000  1.0 0.0654069526
C  C24  1  0.03740000  0.34700000  0.53111000  1.0 0.0654069526
C  C25  1  0.34700000  0.03740000  0.03111000  1.0 0.0654069526
C  C26  1  0.96260000  0.34700000  0.53111000  1.0 0.0654069526
C  C27  1  0.65300000  0.96260000  0.03111000  1.0 0.0654069526
C  C28  1  0.03740000  0.65300000  0.53111000  1.0 0.0654069526
C  C29  1  0.34700000  0.96260000  0.96889000  1.0 0.0654069526
C  C30  1  0.03740000  0.34700000  0.46889000  1.0 0.0654069526
C  C31  1  0.65300000  0.03740000  0.96889000  1.0 0.0654069526
C  C32  1  0.96260000  0.65300000  0.46889000  1.0 0.0654069526
C  C33  1  0.50000000  0.83500000  0.67270000  1.0 -0.3633365477
C  C34  1  0.50000000  0.16500000  0.67270000  1.0 -0.3633365477
C  C35  1  0.67360000  0.00000000  0.59460000  1.0 -0.4915845128
C  C36  1  0.32640000  0.00000000  0.59460000  1.0 -0.4915845128
C  C37  1  0.83500000  0.50000000  0.17270000  1.0 -0.3633365477
C  C38  1  0.16500000  0.50000000  0.17270000  1.0 -0.3633365477
C  C39  1  0.00000000  0.32640000  0.09460000  1.0 -0.4915845128
C  C40  1  0.00000000  0.67360000  0.09460000  1.0 -0.4915845128
C  C41  1  0.50000000  0.83500000  0.32730000  1.0 -0.3633365477
C  C42  1  0.50000000  0.16500000  0.32730000  1.0 -0.3633365477
C  C43  1  0.32640000  0.00000000  0.40540000  1.0 -0.4915845128
C  C44  1  0.67360000  0.00000000  0.40540000  1.0 -0.4915845128
C  C45  1  0.83500000  0.50000000  0.82730000  1.0 -0.3633365477
C  C46  1  0.16500000  0.50000000  0.82730000  1.0 -0.3633365477
C  C47  1  0.00000000  0.67360000  0.90540000  1.0 -0.4915845128
C  C48  1  0.00000000  0.32640000  0.90540000  1.0 -0.4915845128
N  N1  1  0.78400000  0.00000000  0.80295000  1.0 -0.4387288759
N  N2  1  0.00000000  0.78400000  0.30295000  1.0 -0.4387288759
N  N3  1  0.21600000  0.00000000  0.80295000  1.0 -0.4387288759
N  N4  1  0.00000000  0.21600000  0.30295000  1.0 -0.4387288759
N  N5  1  0.78400000  0.00000000  0.19705000  1.0 -0.4387288759
N  N6  1  0.00000000  0.78400000  0.69705000  1.0 -0.4387288759
N  N7  1  0.21600000  0.00000000  0.19705000  1.0 -0.4387288759
N  N8  1  0.00000000  0.21600000  0.69705000  1.0 -0.4387288759
N  N9  1  0.50000000  0.00000000  0.63190000  1.0 0.3864261402
N  N10  1  0.00000000  0.50000000  0.13190000  1.0 0.3864261402
N  N11  1  0.50000000  0.00000000  0.36810000  1.0 0.3864261402
N  N12  1  0.00000000  0.50000000  0.86810000  1.0 0.3864261402
F  F1  1  0.81150000  0.93410000  0.94124000  1.0 -0.0073135286
F  F2  1  0.06590000  0.81150000  0.44124000  1.0 -0.0073135286
F  F3  1  0.18850000  0.06590000  0.94124000  1.0 -0.0073135286
F  F4  1  0.93410000  0.18850000  0.44124000  1.0 -0.0073135286
F  F5  1  0.81150000  0.06590000  0.05876000  1.0 -0.0073135286
F  F6  1  0.93410000  0.81150000  0.55876000  1.0 -0.0073135286
F  F7  1  0.18850000  0.93410000  0.05876000  1.0 -0.0073135286
F  F8  1  0.06590000  0.18850000  0.55876000  1.0 -0.0073135286
F  F9  1  0.18850000  0.06590000  0.05876000  1.0 -0.0073135286
F  F10  1  0.93410000  0.18850000  0.55876000  1.0 -0.0073135286
F  F11  1  0.81150000  0.93410000  0.05876000  1.0 -0.0073135286
F  F12  1  0.06590000  0.81150000  0.55876000  1.0 -0.0073135286
F  F13  1  0.18850000  0.93410000  0.94124000  1.0 -0.0073135286
F  F14  1  0.06590000  0.18850000  0.44124000  1.0 -0.0073135286
F  F15  1  0.81150000  0.06590000  0.94124000  1.0 -0.0073135286
F  F16  1  0.93410000  0.81150000  0.44124000  1.0 -0.0073135286
