# DDEC6 charges by PACMAN v1.1 (https://github.com/mtap-research/PACMAN-charge/)
data_KINPUU_FSR_pacman
_symmetry_space_group_name_H-M   'P 1'
_cell_length_a   15.53530000
_cell_length_b   15.53530000
_cell_length_c   9.02640000
_cell_angle_alpha   75.15570000
_cell_angle_beta   104.84400000
_cell_angle_gamma   121.83300000
_symmetry_Int_Tables_number   1
_chemical_formula_structural   CoH37C36N8O5
_chemical_formula_sum   'Co2 H74 C72 N16 O10'
_cell_volume   1769.49901345
_cell_formula_units_Z   2
loop_
 _symmetry_equiv_pos_site_id
 _symmetry_equiv_pos_as_xyz
  1  'x, y, z'
loop_
 _atom_site_type_symbol
 _atom_site_label
 _atom_site_symmetry_multiplicity
 _atom_site_fract_x
 _atom_site_fract_y
 _atom_site_fract_z
 _atom_site_occupancy
 _atom_site_charge
Co  Co1  1  0.33284000  0.75084000  0.48461000  1.0 0.7258834003
Co  Co2  1  0.75084000  0.33284000  0.51539000  1.0 0.7258834003
H  H1  1  0.42690000  0.95670000  0.64450000  1.0 0.1213874532
H  H2  1  0.95670000  0.42690000  0.35550000  1.0 0.1213874532
H  H3  1  0.34720000  0.06100000  0.60390000  1.0 0.1213874532
H  H4  1  0.06100000  0.34720000  0.39610000  1.0 0.1213874532
H  H5  1  0.19800000  0.85740000  0.31860000  1.0 0.1116440102
H  H6  1  0.85740000  0.19800000  0.68140000  1.0 0.1116440102
H  H7  1  0.21820000  0.75760000  0.75480000  1.0 0.1213874532
H  H8  1  0.75760000  0.21820000  0.24520000  1.0 0.1213874532
H  H9  1  0.12220000  0.61020000  0.93200000  1.0 0.1213874532
H  H10  1  0.61020000  0.12220000  0.06800000  1.0 0.1213874532
H  H11  1  0.20100000  0.52220000  0.64310000  1.0 0.1116440102
H  H12  1  0.52220000  0.20100000  0.35690000  1.0 0.1116440102
H  H13  1  0.55940000  0.91300000  0.40970000  1.0 0.1116440102
H  H14  1  0.91300000  0.55940000  0.59030000  1.0 0.1116440102
H  H15  1  0.49450000  0.82950000  0.99910000  1.0 0.1213874532
H  H16  1  0.82950000  0.49450000  0.00090000  1.0 0.1213874532
H  H17  1  0.33720000  0.74120000  0.12100000  1.0 0.1116440102
H  H18  1  0.74120000  0.33720000  0.87900000  1.0 0.1116440102
H  H19  1  0.05430000  0.87590000  0.30820000  1.0 0.1213874532
H  H20  1  0.87590000  0.05430000  0.69180000  1.0 0.1213874532
H  H21  1  0.94800000  0.94360000  0.17950000  1.0 0.1421507532
H  H22  1  0.94360000  0.94800000  0.82050000  1.0 0.1421507532
H  H23  1  0.16460000  0.21960000  0.29320000  1.0 0.1213874532
H  H24  1  0.21960000  0.16460000  0.70680000  1.0 0.1213874532
H  H25  1  0.27500000  0.15500000  0.40800000  1.0 0.1213874532
H  H26  1  0.15500000  0.27500000  0.59200000  1.0 0.1213874532
H  H27  1  0.89670000  0.05130000  0.38800000  1.0 0.1213874532
H  H28  1  0.05130000  0.89670000  0.61200000  1.0 0.1213874532
H  H29  1  0.72430000  0.95570000  0.41360000  1.0 0.1213874532
H  H30  1  0.95570000  0.72430000  0.58640000  1.0 0.1213874532
H  H31  1  0.65010000  0.97650000  0.95040000  1.0 0.1275627038
H  H32  1  0.97650000  0.65010000  0.04960000  1.0 0.1275627038
H  H33  1  0.82250000  0.07210000  0.92470000  1.0 0.1213874532
H  H34  1  0.07210000  0.82250000  0.07530000  1.0 0.1213874532
H  H35  1  0.92050000  0.26250000  0.09240000  1.0 0.1275627038
H  H36  1  0.26250000  0.92050000  0.90760000  1.0 0.1275627038
H  H37  1  0.98520000  0.42180000  0.95730000  1.0 0.1275627038
H  H38  1  0.42180000  0.98520000  0.04270000  1.0 0.1275627038
H  H39  1  0.19670000  0.39030000  0.84210000  1.0 0.1275627038
H  H40  1  0.39030000  0.19670000  0.15790000  1.0 0.1275627038
H  H41  1  0.12740000  0.22600000  0.96940000  1.0 0.1213874532
H  H42  1  0.22600000  0.12740000  0.03060000  1.0 0.1213874532
H  H43  1  0.59580000  0.76880000  0.85250000  1.0 0.0837254881
H  H44  1  0.76880000  0.59580000  0.14750000  1.0 0.0837254881
H  H45  1  0.50820000  0.65600000  0.87810000  1.0 0.0916113465
H  H46  1  0.65600000  0.50820000  0.12190000  1.0 0.0916113465
H  H47  1  0.64960000  0.66000000  0.84900000  1.0 0.0371850117
H  H48  1  0.66000000  0.64960000  0.15100000  1.0 0.0371850117
H  H49  1  0.56360000  0.61400000  0.70920000  1.0 0.0706169347
H  H50  1  0.61400000  0.56360000  0.29080000  1.0 0.0706169347
H  H51  1  0.63660000  0.78500000  0.56070000  1.0 0.0706169347
H  H52  1  0.78500000  0.63660000  0.43930000  1.0 0.0706169347
H  H53  1  0.72930000  0.81950000  0.69700000  1.0 0.046251165
H  H54  1  0.81950000  0.72930000  0.30300000  1.0 0.046251165
H  H55  1  0.69460000  0.63760000  0.61860000  1.0 0.0614463037
H  H56  1  0.63760000  0.69460000  0.38140000  1.0 0.0614463037
H  H57  1  0.79910000  0.74130000  0.61860000  1.0 0.0706169347
H  H58  1  0.74130000  0.79910000  0.38140000  1.0 0.0706169347
H  H59  1  0.57270000  0.74450000  0.92980000  1.0 0.0614463037
H  H60  1  0.74450000  0.57270000  0.07020000  1.0 0.0614463037
H  H61  1  0.51990000  0.63630000  0.88120000  1.0 0.0916113465
H  H62  1  0.63630000  0.51990000  0.11880000  1.0 0.0916113465
H  H63  1  0.68690000  0.71150000  0.83040000  1.0 0.046251165
H  H64  1  0.71150000  0.68690000  0.16960000  1.0 0.046251165
H  H65  1  0.68870000  0.81390000  0.75370000  1.0 0.0614463037
H  H66  1  0.81390000  0.68870000  0.24630000  1.0 0.0614463037
H  H67  1  0.60410000  0.64390000  0.60210000  1.0 0.0614463037
H  H68  1  0.64390000  0.60410000  0.39790000  1.0 0.0614463037
H  H69  1  0.59970000  0.74370000  0.52120000  1.0 0.0614463037
H  H70  1  0.74370000  0.59970000  0.47880000  1.0 0.0614463037
H  H71  1  0.78470000  0.73610000  0.65980000  1.0 0.0706169347
H  H72  1  0.73610000  0.78470000  0.34020000  1.0 0.0706169347
H  H73  1  0.78020000  0.83600000  0.57870000  1.0 0.0614463037
H  H74  1  0.83600000  0.78020000  0.42130000  1.0 0.0614463037
C  C1  1  0.36880000  0.94860000  0.57360000  1.0 -0.0224475376
C  C2  1  0.94860000  0.36880000  0.42640000  1.0 -0.0224475376
C  C3  1  0.32600000  0.00720000  0.55130000  1.0 -0.1003382892
C  C4  1  0.00720000  0.32600000  0.44870000  1.0 -0.1003382892
C  C5  1  0.24491000  0.89429000  0.39710000  1.0 0.1213874532
C  C6  1  0.89429000  0.24491000  0.60290000  1.0 0.1213874532
C  C7  1  0.20350000  0.69130000  0.75470000  1.0 -0.0338712947
C  C8  1  0.69130000  0.20350000  0.24530000  1.0 -0.0338712947
C  C9  1  0.15070000  0.61070000  0.85260000  1.0 -0.1003382892
C  C10  1  0.61070000  0.15070000  0.14740000  1.0 -0.1003382892
C  C11  1  0.19470000  0.56330000  0.69380000  1.0 0.1116440102
C  C12  1  0.56330000  0.19470000  0.30620000  1.0 0.1116440102
C  C13  1  0.52290000  0.88070000  0.32270000  1.0 0.0837254881
C  C14  1  0.88070000  0.52290000  0.67730000  1.0 0.0837254881
C  C15  1  0.48900000  0.83580000  0.09550000  1.0 -0.1293540389
C  C16  1  0.83580000  0.48900000  0.90450000  1.0 -0.1293540389
C  C17  1  0.40220000  0.78720000  0.16480000  1.0 -0.0224475376
C  C18  1  0.78720000  0.40220000  0.83520000  1.0 -0.0224475376
C  C19  1  0.47940000  0.73620000  0.69620000  1.0 0.4228137194
C  C20  1  0.73620000  0.47940000  0.30380000  1.0 0.4228137194
C  C21  1  0.17775000  0.01225000  0.36860000  1.0 0.1421507532
C  C22  1  0.01225000  0.17775000  0.63140000  1.0 0.1421507532
C  C23  1  0.07718000  0.94522000  0.30160000  1.0 -0.230006987
C  C24  1  0.94522000  0.07718000  0.69840000  1.0 -0.230006987
C  C25  1  0.01365000  0.98615000  0.22570000  1.0 -0.2077632339
C  C26  1  0.98615000  0.01365000  0.77430000  1.0 -0.2077632339
C  C27  1  0.04634000  0.08826000  0.21780000  1.0 0.1693608198
C  C28  1  0.08826000  0.04634000  0.78220000  1.0 0.1693608198
C  C29  1  0.14363000  0.15157000  0.29170000  1.0 -0.1673531753
C  C30  1  0.15157000  0.14363000  0.70830000  1.0 -0.1673531753
C  C31  1  0.20894000  0.11206000  0.36330000  1.0 -0.1599946765
C  C32  1  0.11206000  0.20894000  0.63670000  1.0 -0.1599946765
C  C33  1  0.87669000  0.07111000  0.15380000  1.0 0.1693608198
C  C34  1  0.07111000  0.87669000  0.84620000  1.0 0.1693608198
C  C35  1  0.84730000  0.03630000  0.30020000  1.0 -0.2077632339
C  C36  1  0.03630000  0.84730000  0.69980000  1.0 -0.2077632339
C  C37  1  0.74400000  0.97900000  0.31560000  1.0 -0.2638526798
C  C38  1  0.97900000  0.74400000  0.68440000  1.0 -0.2638526798
C  C39  1  0.67001000  0.95659000  0.18450000  1.0 0.1421507532
C  C40  1  0.95659000  0.67001000  0.81550000  1.0 0.1421507532
C  C41  1  0.69950000  0.99150000  0.03810000  1.0 -0.1599946765
C  C42  1  0.99150000  0.69950000  0.96190000  1.0 -0.1599946765
C  C43  1  0.80280000  0.04880000  0.02270000  1.0 -0.1673531753
C  C44  1  0.04880000  0.80280000  0.97730000  1.0 -0.1673531753
C  C45  1  0.02051000  0.22689000  0.05400000  1.0 0.1693608198
C  C46  1  0.22689000  0.02051000  0.94600000  1.0 0.1693608198
C  C47  1  0.97710000  0.28810000  0.04370000  1.0 -0.1599946765
C  C48  1  0.28810000  0.97710000  0.95630000  1.0 -0.1599946765
C  C49  1  0.01650000  0.38350000  0.96430000  1.0 -0.136740023
C  C50  1  0.38350000  0.01650000  0.03570000  1.0 -0.136740023
C  C51  1  0.10190000  0.42610000  0.89280000  1.0 0.1451554506
C  C52  1  0.42610000  0.10190000  0.10720000  1.0 0.1451554506
C  C53  1  0.14154000  0.36486000  0.89430000  1.0 -0.1673531753
C  C54  1  0.36486000  0.14154000  0.10570000  1.0 -0.1673531753
C  C55  1  0.10057000  0.26663000  0.97200000  1.0 -0.1673531753
C  C56  1  0.26663000  0.10057000  0.02800000  1.0 -0.1673531753
C  C57  1  0.54780000  0.71020000  0.80000000  1.0 -0.2077632339
C  C58  1  0.71020000  0.54780000  0.20000000  1.0 -0.2077632339
C  C59  1  0.60820000  0.67540000  0.75760000  1.0 -0.0716559232
C  C60  1  0.67540000  0.60820000  0.24240000  1.0 -0.0716559232
C  C61  1  0.67630000  0.76190000  0.64500000  1.0 -0.0716559232
C  C62  1  0.76190000  0.67630000  0.35500000  1.0 -0.0716559232
C  C63  1  0.72630000  0.71050000  0.58070000  1.0 -0.1003382892
C  C64  1  0.71050000  0.72630000  0.41930000  1.0 -0.1003382892
C  C65  1  0.55400000  0.70800000  0.84500000  1.0 -0.2017828167
C  C66  1  0.70800000  0.55400000  0.15500000  1.0 -0.2017828167
C  C67  1  0.64620000  0.73980000  0.75900000  1.0 -0.0633923837
C  C68  1  0.73980000  0.64620000  0.24100000  1.0 -0.0633923837
C  C69  1  0.63750000  0.71650000  0.60000000  1.0 -0.0913345159
C  C70  1  0.71650000  0.63750000  0.40000000  1.0 -0.0913345159
C  C71  1  0.74830000  0.76370000  0.57900000  1.0 -0.0833163277
C  C72  1  0.76370000  0.74830000  0.42100000  1.0 -0.0833163277
N  N1  1  0.31634000  0.87546000  0.47900000  1.0 -0.2774243296
N  N2  1  0.87546000  0.31634000  0.52100000  1.0 -0.2774243296
N  N3  1  0.24510000  0.97230000  0.43620000  1.0 -0.0077617273
N  N4  1  0.97230000  0.24510000  0.56380000  1.0 -0.0077617273
N  N5  1  0.23365000  0.66395000  0.65280000  1.0 -0.2905459345
N  N6  1  0.66395000  0.23365000  0.34720000  1.0 -0.2905459345
N  N7  1  0.14576000  0.52824000  0.81560000  1.0 0.0069452443
N  N8  1  0.52824000  0.14576000  0.18440000  1.0 0.0069452443
N  N9  1  0.42480000  0.81600000  0.30640000  1.0 -0.2905459345
N  N10  1  0.81600000  0.42480000  0.69360000  1.0 -0.2905459345
N  N11  1  0.56548000  0.89532000  0.20040000  1.0 -0.0224475376
N  N12  1  0.89532000  0.56548000  0.79960000  1.0 -0.0224475376
N  N13  1  0.98069000  0.12771000  0.13810000  1.0 -0.1599946765
N  N14  1  0.12771000  0.98069000  0.86190000  1.0 -0.1599946765
N  N15  1  0.17270000  0.61250000  0.28510000  1.0 0.6515162646
N  N16  1  0.61250000  0.17270000  0.71490000  1.0 0.6515162646
O  O1  1  0.41506000  0.67294000  0.60620000  1.0 -0.4796480478
O  O2  1  0.67294000  0.41506000  0.39380000  1.0 -0.4796480478
O  O3  1  0.48319000  0.81981000  0.68180000  1.0 -0.4796480478
O  O4  1  0.81981000  0.48319000  0.31820000  1.0 -0.4796480478
O  O5  1  0.19127000  0.69693000  0.30780000  1.0 -0.4078646095
O  O6  1  0.69693000  0.19127000  0.69220000  1.0 -0.4078646095
O  O7  1  0.23766000  0.59014000  0.35560000  1.0 -0.3844132365
O  O8  1  0.59014000  0.23766000  0.64440000  1.0 -0.3844132365
O  O9  1  0.09689000  0.56011000  0.20880000  1.0 -0.3690097571
O  O10  1  0.56011000  0.09689000  0.79120000  1.0 -0.3690097571
