# DDEC6 charges by PACMAN v1.1 (https://github.com/mtap-research/PACMAN-charge/)
data_KINQAB_ASR_pacman
_symmetry_space_group_name_H-M   'P 1'
_cell_length_a   15.64280000
_cell_length_b   15.64280000
_cell_length_c   9.07170000
_cell_angle_alpha   74.79070000
_cell_angle_beta   105.20900000
_cell_angle_gamma   122.95100000
_symmetry_Int_Tables_number   1
_chemical_formula_structural   NiH37C35N7O2
_chemical_formula_sum   'Ni2 H74 C70 N14 O4'
_cell_volume   1777.75672744
_cell_formula_units_Z   2
loop_
 _symmetry_equiv_pos_site_id
 _symmetry_equiv_pos_as_xyz
  1  'x, y, z'
loop_
 _atom_site_type_symbol
 _atom_site_label
 _atom_site_symmetry_multiplicity
 _atom_site_fract_x
 _atom_site_fract_y
 _atom_site_fract_z
 _atom_site_occupancy
 _atom_site_charge
Ni  Ni1  1  0.66721000  0.24179000  0.50166000  1.0 0.4610382957
Ni  Ni2  1  0.24179000  0.66721000  0.49834000  1.0 0.4610382957
H  H1  1  0.57970000  0.04030000  0.34900000  1.0 0.1274639321
H  H2  1  0.04030000  0.57970000  0.65100000  1.0 0.1274639321
H  H3  1  0.65330000  0.93150000  0.41040000  1.0 0.1199394016
H  H4  1  0.93150000  0.65330000  0.58960000  1.0 0.1199394016
H  H5  1  0.81910000  0.15550000  0.66760000  1.0 0.1005873052
H  H6  1  0.15550000  0.81910000  0.33240000  1.0 0.1005873052
H  H7  1  0.77110000  0.23730000  0.23280000  1.0 0.1199394016
H  H8  1  0.23730000  0.77110000  0.76720000  1.0 0.1199394016
H  H9  1  0.86770000  0.38930000  0.04930000  1.0 0.1199394016
H  H10  1  0.38930000  0.86770000  0.95070000  1.0 0.1199394016
H  H11  1  0.78480000  0.46620000  0.34140000  1.0 0.1118557339
H  H12  1  0.46620000  0.78480000  0.65860000  1.0 0.1118557339
H  H13  1  0.43650000  0.08210000  0.57850000  1.0 0.1118557339
H  H14  1  0.08210000  0.43650000  0.42150000  1.0 0.1118557339
H  H15  1  0.52090000  0.16130000  0.99300000  1.0 0.1274639321
H  H16  1  0.16130000  0.52090000  0.00700000  1.0 0.1274639321
H  H17  1  0.67350000  0.25010000  0.86650000  1.0 0.1199394016
H  H18  1  0.25010000  0.67350000  0.13350000  1.0 0.1199394016
H  H19  1  0.95510000  0.13030000  0.69380000  1.0 0.1199394016
H  H20  1  0.13030000  0.95510000  0.30620000  1.0 0.1199394016
H  H21  1  0.06100000  0.06400000  0.82540000  1.0 0.1474708063
H  H22  1  0.06400000  0.06100000  0.17460000  1.0 0.1474708063
H  H23  1  0.84190000  0.78510000  0.71240000  1.0 0.1199394016
H  H24  1  0.78510000  0.84190000  0.28760000  1.0 0.1199394016
H  H25  1  0.73220000  0.84860000  0.59140000  1.0 0.1199394016
H  H26  1  0.84860000  0.73220000  0.40860000  1.0 0.1199394016
H  H27  1  0.10640000  0.95980000  0.61490000  1.0 0.1199394016
H  H28  1  0.95980000  0.10640000  0.38510000  1.0 0.1199394016
H  H29  1  0.27860000  0.04920000  0.58430000  1.0 0.1199394016
H  H30  1  0.04920000  0.27860000  0.41570000  1.0 0.1199394016
H  H31  1  0.35820000  0.01160000  0.04510000  1.0 0.1274639321
H  H32  1  0.01160000  0.35820000  0.95490000  1.0 0.1274639321
H  H33  1  0.18590000  0.92230000  0.07570000  1.0 0.1199394016
H  H34  1  0.92230000  0.18590000  0.92430000  1.0 0.1199394016
H  H35  1  0.07250000  0.73730000  0.88740000  1.0 0.1199394016
H  H36  1  0.73730000  0.07250000  0.11260000  1.0 0.1199394016
H  H37  1  0.00240000  0.56980000  0.02320000  1.0 0.1118557339
H  H38  1  0.56980000  0.00240000  0.97680000  1.0 0.1118557339
H  H39  1  0.80200000  0.61100000  0.15620000  1.0 0.1274639321
H  H40  1  0.61100000  0.80200000  0.84380000  1.0 0.1274639321
H  H41  1  0.88612000  0.78052000  0.04830000  1.0 0.1118557339
H  H42  1  0.78052000  0.88612000  0.95170000  1.0 0.1118557339
H  H43  1  0.48800000  0.33520000  0.10800000  1.0 0.0598605599
H  H44  1  0.33520000  0.48800000  0.89200000  1.0 0.0598605599
H  H45  1  0.39980000  0.22260000  0.15600000  1.0 0.0598605599
H  H46  1  0.22260000  0.39980000  0.84400000  1.0 0.0598605599
H  H47  1  0.36300000  0.35320000  0.17350000  1.0 0.0598605599
H  H48  1  0.35320000  0.36300000  0.82650000  1.0 0.0598605599
H  H49  1  0.45500000  0.38780000  0.31130000  1.0 0.067888583
H  H50  1  0.38780000  0.45500000  0.68870000  1.0 0.067888583
H  H51  1  0.28910000  0.18290000  0.31230000  1.0 0.0598605599
H  H52  1  0.18290000  0.28910000  0.68770000  1.0 0.0598605599
H  H53  1  0.37600000  0.22600000  0.45330000  1.0 0.067888583
H  H54  1  0.22600000  0.37600000  0.54670000  1.0 0.067888583
H  H55  1  0.19800000  0.23900000  0.37390000  1.0 0.067888583
H  H56  1  0.23900000  0.19800000  0.62610000  1.0 0.067888583
H  H57  1  0.29340000  0.35120000  0.37060000  1.0 0.0598605599
H  H58  1  0.35120000  0.29340000  0.62940000  1.0 0.0598605599
H  H59  1  0.44290000  0.25790000  0.10380000  1.0 0.0512086854
H  H60  1  0.25790000  0.44290000  0.89620000  1.0 0.0512086854
H  H61  1  0.47930000  0.36010000  0.16340000  1.0 0.067888583
H  H62  1  0.36010000  0.47930000  0.83660000  1.0 0.067888583
H  H63  1  0.30110000  0.24350000  0.16970000  1.0 0.0598605599
H  H64  1  0.24350000  0.30110000  0.83030000  1.0 0.0598605599
H  H65  1  0.32590000  0.16270000  0.28340000  1.0 0.0598605599
H  H66  1  0.16270000  0.32590000  0.71660000  1.0 0.0598605599
H  H67  1  0.40090000  0.35530000  0.37660000  1.0 0.0512086854
H  H68  1  0.35530000  0.40090000  0.62340000  1.0 0.0512086854
H  H69  1  0.38970000  0.25490000  0.48670000  1.0 0.0598605599
H  H70  1  0.25490000  0.38970000  0.51330000  1.0 0.0598605599
H  H71  1  0.23490000  0.29990000  0.34780000  1.0 0.067888583
H  H72  1  0.29990000  0.23490000  0.65220000  1.0 0.067888583
H  H73  1  0.20430000  0.18370000  0.39100000  1.0 0.0598605599
H  H74  1  0.18370000  0.20430000  0.60900000  1.0 0.0598605599
C  C1  1  0.63665000  0.04855000  0.42290000  1.0 -0.053238672
C  C2  1  0.04855000  0.63665000  0.57710000  1.0 -0.053238672
C  C3  1  0.67723000  0.98951000  0.45420000  1.0 -0.1329023646
C  C4  1  0.98951000  0.67723000  0.54580000  1.0 -0.1329023646
C  C5  1  0.76810000  0.11270000  0.59760000  1.0 0.1118557339
C  C6  1  0.11270000  0.76810000  0.40240000  1.0 0.1118557339
C  C7  1  0.78630000  0.30370000  0.23180000  1.0 -0.0254319305
C  C8  1  0.30370000  0.78630000  0.76820000  1.0 -0.0254319305
C  C9  1  0.84040000  0.38800000  0.12990000  1.0 -0.1114053544
C  C10  1  0.38800000  0.84040000  0.87010000  1.0 -0.1114053544
C  C11  1  0.79413000  0.42807000  0.29070000  1.0 0.1005873052
C  C12  1  0.42807000  0.79413000  0.70930000  1.0 0.1005873052
C  C13  1  0.47752000  0.11248000  0.66590000  1.0 0.0512086854
C  C14  1  0.11248000  0.47752000  0.33410000  1.0 0.0512086854
C  C15  1  0.52306000  0.15634000  0.89430000  1.0 -0.1114053544
C  C16  1  0.15634000  0.52306000  0.10570000  1.0 -0.1114053544
C  C17  1  0.60710000  0.20410000  0.82440000  1.0 -0.053238672
C  C18  1  0.20410000  0.60710000  0.17560000  1.0 -0.053238672
C  C19  1  0.52951000  0.26869000  0.32080000  1.0 0.5227187915
C  C20  1  0.26869000  0.52951000  0.67920000  1.0 0.5227187915
C  C21  1  0.83160000  0.99340000  0.63380000  1.0 0.1409250056
C  C22  1  0.99340000  0.83160000  0.36620000  1.0 0.1409250056
C  C23  1  0.93165000  0.06075000  0.70110000  1.0 -0.2382148238
C  C24  1  0.06075000  0.93165000  0.29890000  1.0 -0.2382148238
C  C25  1  0.99486000  0.02074000  0.77900000  1.0 -0.210353251
C  C26  1  0.02074000  0.99486000  0.22100000  1.0 -0.210353251
C  C27  1  0.96002000  0.91638000  0.78800000  1.0 0.1623376576
C  C28  1  0.91638000  0.96002000  0.21200000  1.0 0.1623376576
C  C29  1  0.86358000  0.85342000  0.71310000  1.0 -0.1710412956
C  C30  1  0.85342000  0.86358000  0.28690000  1.0 -0.1710412956
C  C31  1  0.79826000  0.89194000  0.63820000  1.0 -0.1786418067
C  C32  1  0.89194000  0.79826000  0.36180000  1.0 -0.1786418067
C  C33  1  0.12909000  0.93215000  0.84830000  1.0 0.1623376576
C  C34  1  0.93215000  0.12909000  0.15170000  1.0 0.1623376576
C  C35  1  0.15685000  0.97017000  0.70110000  1.0 -0.2266360926
C  C36  1  0.97017000  0.15685000  0.29890000  1.0 -0.2234711455
C  C37  1  0.26005000  0.02375000  0.68280000  1.0 -0.2706175851
C  C38  1  0.02375000  0.26005000  0.31720000  1.0 -0.2706175851
C  C39  1  0.33550000  0.03930000  0.81170000  1.0 0.1274639321
C  C40  1  0.03930000  0.33550000  0.18830000  1.0 0.1274639321
C  C41  1  0.30773000  0.00127000  0.95890000  1.0 -0.1710412956
C  C42  1  0.00127000  0.30773000  0.04110000  1.0 -0.1710412956
C  C43  1  0.20452000  0.94768000  0.97720000  1.0 -0.1710412956
C  C44  1  0.94768000  0.20452000  0.02280000  1.0 -0.1710412956
C  C45  1  0.98177000  0.77583000  0.94540000  1.0 0.1710724426
C  C46  1  0.77583000  0.98177000  0.05460000  1.0 0.1710724426
C  C47  1  0.01893000  0.71207000  0.94250000  1.0 -0.1987836095
C  C48  1  0.71207000  0.01893000  0.05750000  1.0 -0.1987836095
C  C49  1  0.97590000  0.61070000  0.02220000  1.0 -0.1786418067
C  C50  1  0.61070000  0.97590000  0.97780000  1.0 -0.1786418067
C  C51  1  0.89487000  0.57333000  0.09800000  1.0 0.1409250056
C  C52  1  0.57333000  0.89487000  0.90200000  1.0 0.1409250056
C  C53  1  0.85763000  0.63677000  0.10510000  1.0 -0.1873167561
C  C54  1  0.63677000  0.85763000  0.89490000  1.0 -0.1873167561
C  C55  1  0.90562000  0.73678000  0.03510000  1.0 -0.1618866803
C  C56  1  0.73678000  0.90562000  0.96490000  1.0 -0.1618866803
C  C57  1  0.45290000  0.28690000  0.19360000  1.0 -0.2555528687
C  C58  1  0.28690000  0.45290000  0.80640000  1.0 -0.2555528687
C  C59  1  0.40280000  0.33040000  0.25700000  1.0 -0.1114053544
C  C60  1  0.33040000  0.40280000  0.74300000  1.0 -0.1114053544
C  C61  1  0.33510000  0.24310000  0.36400000  1.0 -0.0235573318
C  C62  1  0.24310000  0.33510000  0.63600000  1.0 -0.0235573318
C  C63  1  0.27010000  0.27990000  0.41500000  1.0 -0.1450492697
C  C64  1  0.27990000  0.27010000  0.58500000  1.0 -0.1450492697
C  C65  1  0.35100000  0.23580000  0.25300000  1.0 -0.1114053544
C  C66  1  0.23580000  0.35100000  0.74700000  1.0 -0.1114053544
C  C67  1  0.35750000  0.28050000  0.39400000  1.0 -0.053238672
C  C68  1  0.28050000  0.35750000  0.60600000  1.0 -0.053238672
C  C69  1  0.25410000  0.25190000  0.41700000  1.0 -0.1329023646
C  C70  1  0.25190000  0.25410000  0.58300000  1.0 -0.1329023646
N  N1  1  0.69185000  0.12495000  0.51770000  1.0 -0.2706175851
N  N2  1  0.12495000  0.69185000  0.48230000  1.0 -0.2706175851
N  N3  1  0.76438000  0.03242000  0.56740000  1.0 -0.0089344224
N  N4  1  0.03242000  0.76438000  0.43260000  1.0 -0.0089344224
N  N5  1  0.75893000  0.33127000  0.32820000  1.0 -0.2477885144
N  N6  1  0.33127000  0.75893000  0.67180000  1.0 -0.2477885144
N  N7  1  0.84663000  0.46897000  0.16880000  1.0 0.0031504152
N  N8  1  0.46897000  0.84663000  0.83120000  1.0 0.0031504152
N  N9  1  0.57982000  0.17478000  0.68070000  1.0 -0.2820293861
N  N10  1  0.17478000  0.57982000  0.31930000  1.0 -0.2820293861
N  N11  1  0.44257000  0.09983000  0.79290000  1.0 -0.0089344224
N  N12  1  0.09983000  0.44257000  0.20710000  1.0 -0.0089344224
N  N13  1  0.02363000  0.87577000  0.86750000  1.0 -0.1618866803
N  N14  1  0.87577000  0.02363000  0.13250000  1.0 -0.1618866803
O  O1  1  0.59239000  0.33341000  0.40700000  1.0 -0.4921697931
O  O2  1  0.33341000  0.59239000  0.59300000  1.0 -0.4921697931
O  O3  1  0.53132000  0.18828000  0.33300000  1.0 -0.5051682549
O  O4  1  0.18828000  0.53132000  0.66700000  1.0 -0.5051682549
