# DDEC6 charges by PACMAN v1.1 (https://github.com/mtap-research/PACMAN-charge/)
data_KIRFOI_ASR_pacman
_symmetry_space_group_name_H-M   'P 1'
_cell_length_a   20.99110000
_cell_length_b   20.99110000
_cell_length_c   18.68100000
_cell_angle_alpha   90.00000000
_cell_angle_beta   90.00000000
_cell_angle_gamma   105.91200000
_symmetry_Int_Tables_number   1
_chemical_formula_structural   Cu6H59C63N3O32
_chemical_formula_sum   'Cu12 H118 C126 N6 O64'
_cell_volume   7915.94678069
_cell_formula_units_Z   2
loop_
 _symmetry_equiv_pos_site_id
 _symmetry_equiv_pos_as_xyz
  1  'x, y, z'
loop_
 _atom_site_type_symbol
 _atom_site_label
 _atom_site_symmetry_multiplicity
 _atom_site_fract_x
 _atom_site_fract_y
 _atom_site_fract_z
 _atom_site_occupancy
 _atom_site_charge
Cu  Cu1  1  0.56407000  0.43593000  0.75000000  1.0 0.8391366603
Cu  Cu2  1  0.43593000  0.56407000  0.25000000  1.0 0.8391366603
Cu  Cu3  1  0.64320000  0.35680000  0.75000000  1.0 0.8391366603
Cu  Cu4  1  0.35680000  0.64320000  0.25000000  1.0 0.8391366603
Cu  Cu5  1  0.02073000  0.55685000  0.46484000  1.0 0.8203656675
Cu  Cu6  1  0.97927000  0.44315000  0.96484000  1.0 0.8203656675
Cu  Cu7  1  0.55685000  0.02073000  0.53516000  1.0 0.8281193228
Cu  Cu8  1  0.44315000  0.97927000  0.03516000  1.0 0.8281193228
Cu  Cu9  1  0.97927000  0.44315000  0.53516000  1.0 0.8203656675
Cu  Cu10  1  0.02073000  0.55685000  0.03516000  1.0 0.8203656675
Cu  Cu11  1  0.44315000  0.97927000  0.46484000  1.0 0.8281193228
Cu  Cu12  1  0.55685000  0.02073000  0.96484000  1.0 0.8281193228
H  H1  1  0.78790000  0.45730000  0.60050000  1.0 0.1362832786
H  H2  1  0.21210000  0.54270000  0.10050000  1.0 0.1362832786
H  H3  1  0.45730000  0.78790000  0.39950000  1.0 0.1362832786
H  H4  1  0.54270000  0.21210000  0.89950000  1.0 0.1362832786
H  H5  1  0.21210000  0.54270000  0.39950000  1.0 0.1362832786
H  H6  1  0.78790000  0.45730000  0.89950000  1.0 0.1362832786
H  H7  1  0.54270000  0.21210000  0.60050000  1.0 0.1362832786
H  H8  1  0.45730000  0.78790000  0.10050000  1.0 0.1362832786
H  H9  1  0.84680000  0.62600000  0.48970000  1.0 0.0971872572
H  H10  1  0.15320000  0.37400000  0.98970000  1.0 0.0971872572
H  H11  1  0.62600000  0.84680000  0.51030000  1.0 0.0971872572
H  H12  1  0.37400000  0.15320000  0.01030000  1.0 0.0971872572
H  H13  1  0.15320000  0.37400000  0.51030000  1.0 0.0971872572
H  H14  1  0.84680000  0.62600000  0.01030000  1.0 0.0971872572
H  H15  1  0.37400000  0.15320000  0.48970000  1.0 0.0971872572
H  H16  1  0.62600000  0.84680000  0.98970000  1.0 0.0971872572
H  H17  1  0.67500000  0.58400000  0.59940000  1.0 0.1095138022
H  H18  1  0.32500000  0.41600000  0.09940000  1.0 0.1095138022
H  H19  1  0.58400000  0.67500000  0.40060000  1.0 0.1095138022
H  H20  1  0.41600000  0.32500000  0.90060000  1.0 0.1095138022
H  H21  1  0.32500000  0.41600000  0.40060000  1.0 0.1095138022
H  H22  1  0.67500000  0.58400000  0.90060000  1.0 0.1095138022
H  H23  1  0.41600000  0.32500000  0.59940000  1.0 0.1095138022
H  H24  1  0.58400000  0.67500000  0.09940000  1.0 0.1095138022
H  H25  1  0.64970000  0.64970000  0.50000000  1.0 0.1095138022
H  H26  1  0.35030000  0.35030000  0.00000000  1.0 0.1095138022
H  H27  1  0.35030000  0.35030000  0.50000000  1.0 0.1095138022
H  H28  1  0.64970000  0.64970000  0.00000000  1.0 0.1095138022
H  H29  1  0.84330000  0.73070000  0.53340000  1.0 0.1095138022
H  H30  1  0.15670000  0.26930000  0.03340000  1.0 0.1095138022
H  H31  1  0.73070000  0.84330000  0.46660000  1.0 0.1095138022
H  H32  1  0.26930000  0.15670000  0.96660000  1.0 0.1095138022
H  H33  1  0.15670000  0.26930000  0.46660000  1.0 0.1095138022
H  H34  1  0.84330000  0.73070000  0.96660000  1.0 0.1095138022
H  H35  1  0.26930000  0.15670000  0.53340000  1.0 0.1095138022
H  H36  1  0.73070000  0.84330000  0.03340000  1.0 0.1095138022
H  H37  1  0.02660000  0.51500000  0.75000000  1.0 0.1735373663
H  H38  1  0.97340000  0.48500000  0.25000000  1.0 0.1735373663
H  H39  1  0.51500000  0.02660000  0.25000000  1.0 0.1735373663
H  H40  1  0.48500000  0.97340000  0.75000000  1.0 0.1735373663
H  H41  1  0.09890000  0.68490000  0.64270000  1.0 0.1095138022
H  H42  1  0.90110000  0.31510000  0.14270000  1.0 0.1150992216
H  H43  1  0.68490000  0.09890000  0.35730000  1.0 0.1150992216
H  H44  1  0.31510000  0.90110000  0.85730000  1.0 0.1095138022
H  H45  1  0.90110000  0.31510000  0.35730000  1.0 0.1150992216
H  H46  1  0.09890000  0.68490000  0.85730000  1.0 0.1095138022
H  H47  1  0.31510000  0.90110000  0.64270000  1.0 0.1095138022
H  H48  1  0.68490000  0.09890000  0.14270000  1.0 0.1150992216
H  H49  1  0.22890000  0.77110000  0.75000000  1.0 0.1095138022
H  H50  1  0.77110000  0.22890000  0.25000000  1.0 0.1095138022
H  H51  1  0.04500000  0.79200000  0.75000000  1.0 0.0971872572
H  H52  1  0.95500000  0.20800000  0.25000000  1.0 0.0971872572
H  H53  1  0.79200000  0.04500000  0.25000000  1.0 0.0971872572
H  H54  1  0.20800000  0.95500000  0.75000000  1.0 0.0971872572
H  H55  1  0.01150000  0.66030000  0.39890000  1.0 0.2599475317
H  H56  1  0.98850000  0.33970000  0.89890000  1.0 0.2599475317
H  H57  1  0.66030000  0.01150000  0.60110000  1.0 0.2599475317
H  H58  1  0.33970000  0.98850000  0.10110000  1.0 0.2599475317
H  H59  1  0.98850000  0.33970000  0.60110000  1.0 0.2599475317
H  H60  1  0.01150000  0.66030000  0.10110000  1.0 0.2599475317
H  H61  1  0.33970000  0.98850000  0.39890000  1.0 0.2599475317
H  H62  1  0.66030000  0.01150000  0.89890000  1.0 0.2599475317
H  H63  1  0.07930000  0.65550000  0.37730000  1.0 0.250426911
H  H64  1  0.92070000  0.34450000  0.87730000  1.0 0.250426911
H  H65  1  0.65550000  0.07930000  0.62270000  1.0 0.250426911
H  H66  1  0.34450000  0.92070000  0.12270000  1.0 0.250426911
H  H67  1  0.92070000  0.34450000  0.62270000  1.0 0.250426911
H  H68  1  0.07930000  0.65550000  0.12270000  1.0 0.250426911
H  H69  1  0.34450000  0.92070000  0.37730000  1.0 0.250426911
H  H70  1  0.65550000  0.07930000  0.87730000  1.0 0.250426911
H  H71  1  0.08210000  0.65210000  0.38290000  1.0 0.2838344203
H  H72  1  0.91790000  0.34790000  0.88290000  1.0 0.2888154935
H  H73  1  0.65210000  0.08210000  0.61710000  1.0 0.2888154935
H  H74  1  0.34790000  0.91790000  0.11710000  1.0 0.2838344203
H  H75  1  0.91790000  0.34790000  0.61710000  1.0 0.2888154935
H  H76  1  0.08210000  0.65210000  0.11710000  1.0 0.2838344203
H  H77  1  0.34790000  0.91790000  0.38290000  1.0 0.2838344203
H  H78  1  0.65210000  0.08210000  0.88290000  1.0 0.2888154935
H  H79  1  0.09660000  0.67040000  0.42590000  1.0 0.2706341064
H  H80  1  0.90340000  0.32960000  0.92590000  1.0 0.2706341064
H  H81  1  0.67040000  0.09660000  0.57410000  1.0 0.2706341064
H  H82  1  0.32960000  0.90340000  0.07410000  1.0 0.2706341064
H  H83  1  0.90340000  0.32960000  0.57410000  1.0 0.2706341064
H  H84  1  0.09660000  0.67040000  0.07410000  1.0 0.2706341064
H  H85  1  0.32960000  0.90340000  0.42590000  1.0 0.2706341064
H  H86  1  0.67040000  0.09660000  0.92590000  1.0 0.2706341064
H  H87  1  0.02590000  0.67850000  0.44190000  1.0 0.2599475317
H  H88  1  0.97410000  0.32150000  0.94190000  1.0 0.2706341064
H  H89  1  0.67850000  0.02590000  0.55810000  1.0 0.2599475317
H  H90  1  0.32150000  0.97410000  0.05810000  1.0 0.2599475317
H  H91  1  0.97410000  0.32150000  0.55810000  1.0 0.2706341064
H  H92  1  0.02590000  0.67850000  0.05810000  1.0 0.2599475317
H  H93  1  0.32150000  0.97410000  0.44190000  1.0 0.2599475317
H  H94  1  0.67850000  0.02590000  0.94190000  1.0 0.2599475317
H  H95  1  0.00860000  0.66360000  0.39340000  1.0 0.2599475317
H  H96  1  0.99140000  0.33640000  0.89340000  1.0 0.2599475317
H  H97  1  0.66360000  0.00860000  0.60660000  1.0 0.2599475317
H  H98  1  0.33640000  0.99140000  0.10660000  1.0 0.2599475317
H  H99  1  0.99140000  0.33640000  0.60660000  1.0 0.2599475317
H  H100  1  0.00860000  0.66360000  0.10660000  1.0 0.2599475317
H  H101  1  0.33640000  0.99140000  0.39340000  1.0 0.2599475317
H  H102  1  0.66360000  0.00860000  0.89340000  1.0 0.2599475317
H  H103  1  0.09370000  0.67370000  0.42030000  1.0 0.2599475317
H  H104  1  0.90630000  0.32630000  0.92030000  1.0 0.2706341064
H  H105  1  0.67370000  0.09370000  0.57970000  1.0 0.2706341064
H  H106  1  0.32630000  0.90630000  0.07970000  1.0 0.2599475317
H  H107  1  0.90630000  0.32630000  0.57970000  1.0 0.2706341064
H  H108  1  0.09370000  0.67370000  0.07970000  1.0 0.2599475317
H  H109  1  0.32630000  0.90630000  0.42030000  1.0 0.2599475317
H  H110  1  0.67370000  0.09370000  0.92030000  1.0 0.2706341064
H  H111  1  0.02300000  0.68180000  0.43640000  1.0 0.2888154935
H  H112  1  0.97700000  0.31820000  0.93640000  1.0 0.2888154935
H  H113  1  0.68180000  0.02300000  0.56360000  1.0 0.2888154935
H  H114  1  0.31820000  0.97700000  0.06360000  1.0 0.2888154935
H  H115  1  0.97700000  0.31820000  0.56360000  1.0 0.2888154935
H  H116  1  0.02300000  0.68180000  0.06360000  1.0 0.2888154935
H  H117  1  0.31820000  0.97700000  0.43640000  1.0 0.2888154935
H  H118  1  0.68180000  0.02300000  0.93640000  1.0 0.2888154935
C  C1  1  0.72341000  0.51347000  0.60593000  1.0 -0.0325736795
C  C2  1  0.27659000  0.48653000  0.10593000  1.0 -0.0325736795
C  C3  1  0.51347000  0.72341000  0.39407000  1.0 -0.0325736795
C  C4  1  0.48653000  0.27659000  0.89407000  1.0 -0.0325736795
C  C5  1  0.27659000  0.48653000  0.39407000  1.0 -0.0325736795
C  C6  1  0.72341000  0.51347000  0.89407000  1.0 -0.0325736795
C  C7  1  0.48653000  0.27659000  0.60593000  1.0 -0.0325736795
C  C8  1  0.51347000  0.72341000  0.10593000  1.0 -0.0325736795
C  C9  1  0.78063000  0.49693000  0.58524000  1.0 -0.1377884317
C  C10  1  0.21937000  0.50307000  0.08524000  1.0 -0.1377884317
C  C11  1  0.49693000  0.78063000  0.41476000  1.0 -0.1377884317
C  C12  1  0.50307000  0.21937000  0.91476000  1.0 -0.1377884317
C  C13  1  0.21937000  0.50307000  0.41476000  1.0 -0.1377884317
C  C14  1  0.78063000  0.49693000  0.91476000  1.0 -0.1377884317
C  C15  1  0.50307000  0.21937000  0.58524000  1.0 -0.1377884317
C  C16  1  0.49693000  0.78063000  0.08524000  1.0 -0.1377884317
C  C17  1  0.82578000  0.53872000  0.54275000  1.0 -0.0028309227
C  C18  1  0.17422000  0.46128000  0.04275000  1.0 -0.0028309227
C  C19  1  0.53872000  0.82578000  0.45725000  1.0 -0.0028309227
C  C20  1  0.46128000  0.17422000  0.95725000  1.0 -0.0028309227
C  C21  1  0.17422000  0.46128000  0.45725000  1.0 -0.0028309227
C  C22  1  0.82578000  0.53872000  0.95725000  1.0 -0.0028309227
C  C23  1  0.46128000  0.17422000  0.54275000  1.0 -0.0028309227
C  C24  1  0.53872000  0.82578000  0.04275000  1.0 -0.0028309227
C  C25  1  0.81581000  0.59797000  0.51929000  1.0 -0.2256226737
C  C26  1  0.18419000  0.40203000  0.01929000  1.0 -0.2256226737
C  C27  1  0.59797000  0.81581000  0.48071000  1.0 -0.2256226737
C  C28  1  0.40203000  0.18419000  0.98071000  1.0 -0.2230399696
C  C29  1  0.18419000  0.40203000  0.48071000  1.0 -0.2256226737
C  C30  1  0.81581000  0.59797000  0.98071000  1.0 -0.2256226737
C  C31  1  0.40203000  0.18419000  0.51929000  1.0 -0.2230399696
C  C32  1  0.59797000  0.81581000  0.01929000  1.0 -0.2256226737
C  C33  1  0.75870000  0.61522000  0.54050000  1.0 0.0401306179
C  C34  1  0.24130000  0.38478000  0.04050000  1.0 0.0401306179
C  C35  1  0.61522000  0.75870000  0.45950000  1.0 0.0401306179
C  C36  1  0.38478000  0.24130000  0.95950000  1.0 0.0401306179
C  C37  1  0.24130000  0.38478000  0.45950000  1.0 0.0401306179
C  C38  1  0.75870000  0.61522000  0.95950000  1.0 0.0401306179
C  C39  1  0.38478000  0.24130000  0.54050000  1.0 0.0401306179
C  C40  1  0.61522000  0.75870000  0.04050000  1.0 0.0401306179
C  C41  1  0.71280000  0.57266000  0.58446000  1.0 -0.1802682726
C  C42  1  0.28720000  0.42734000  0.08446000  1.0 -0.1802682726
C  C43  1  0.57266000  0.71280000  0.41554000  1.0 -0.1802682726
C  C44  1  0.42734000  0.28720000  0.91554000  1.0 -0.1802682726
C  C45  1  0.28720000  0.42734000  0.41554000  1.0 -0.1802682726
C  C46  1  0.71280000  0.57266000  0.91554000  1.0 -0.1802682726
C  C47  1  0.42734000  0.28720000  0.58446000  1.0 -0.1802682726
C  C48  1  0.57266000  0.71280000  0.08446000  1.0 -0.1802682726
C  C49  1  0.67583000  0.46851000  0.65667000  1.0 0.5621639939
C  C50  1  0.32417000  0.53149000  0.15667000  1.0 0.5621639939
C  C51  1  0.46851000  0.67583000  0.34333000  1.0 0.5621639939
C  C52  1  0.53149000  0.32417000  0.84333000  1.0 0.5621639939
C  C53  1  0.32417000  0.53149000  0.34333000  1.0 0.5621639939
C  C54  1  0.67583000  0.46851000  0.84333000  1.0 0.5621639939
C  C55  1  0.53149000  0.32417000  0.65667000  1.0 0.5621639939
C  C56  1  0.46851000  0.67583000  0.15667000  1.0 0.5621639939
C  C57  1  0.88917000  0.52325000  0.52236000  1.0 0.4879630458
C  C58  1  0.11083000  0.47675000  0.02236000  1.0 0.4788276644
C  C59  1  0.52325000  0.88917000  0.47764000  1.0 0.4879630458
C  C60  1  0.47675000  0.11083000  0.97764000  1.0 0.4879630458
C  C61  1  0.11083000  0.47675000  0.47764000  1.0 0.4788276644
C  C62  1  0.88917000  0.52325000  0.97764000  1.0 0.4879630458
C  C63  1  0.47675000  0.11083000  0.52236000  1.0 0.4879630458
C  C64  1  0.52325000  0.88917000  0.02236000  1.0 0.4879630458
C  C65  1  0.68644000  0.68644000  0.50000000  1.0 -0.2069508531
C  C66  1  0.31356000  0.31356000  0.00000000  1.0 -0.2069508531
C  C67  1  0.31356000  0.31356000  0.50000000  1.0 -0.2069508531
C  C68  1  0.68644000  0.68644000  0.00000000  1.0 -0.2069508531
C  C69  1  0.74797000  0.67995000  0.51973000  1.0 0.0199694756
C  C70  1  0.25203000  0.32005000  0.01973000  1.0 0.0199694756
C  C71  1  0.67995000  0.74797000  0.48027000  1.0 0.0199694756
C  C72  1  0.32005000  0.25203000  0.98027000  1.0 0.0199694756
C  C73  1  0.25203000  0.32005000  0.48027000  1.0 0.0199694756
C  C74  1  0.74797000  0.67995000  0.98027000  1.0 0.0199694756
C  C75  1  0.32005000  0.25203000  0.51973000  1.0 0.0199694756
C  C76  1  0.67995000  0.74797000  0.01973000  1.0 0.0199694756
C  C77  1  0.80203000  0.73491000  0.51976000  1.0 -0.0722551204
C  C78  1  0.19797000  0.26509000  0.01976000  1.0 -0.0722551204
C  C79  1  0.73491000  0.80203000  0.48024000  1.0 -0.0722551204
C  C80  1  0.26509000  0.19797000  0.98024000  1.0 -0.0722551204
C  C81  1  0.19797000  0.26509000  0.48024000  1.0 -0.0722551204
C  C82  1  0.80203000  0.73491000  0.98024000  1.0 -0.0722551204
C  C83  1  0.26509000  0.19797000  0.51976000  1.0 -0.0722551204
C  C84  1  0.73491000  0.80203000  0.01976000  1.0 -0.0722551204
C  C85  1  0.04536000  0.56070000  0.75000000  1.0 -0.1303168548
C  C86  1  0.95464000  0.43930000  0.25000000  1.0 -0.1377884317
C  C87  1  0.56070000  0.04536000  0.25000000  1.0 -0.1377884317
C  C88  1  0.43930000  0.95464000  0.75000000  1.0 -0.1377884317
C  C89  1  0.05905000  0.59401000  0.68565000  1.0 -0.0028309227
C  C90  1  0.94095000  0.40599000  0.18565000  1.0 -0.0028309227
C  C91  1  0.59401000  0.05905000  0.31435000  1.0 0.0007640591
C  C92  1  0.40599000  0.94095000  0.81435000  1.0 0.0007640591
C  C93  1  0.94095000  0.40599000  0.31435000  1.0 -0.0028309227
C  C94  1  0.05905000  0.59401000  0.81435000  1.0 -0.0028309227
C  C95  1  0.40599000  0.94095000  0.68565000  1.0 0.0007640591
C  C96  1  0.59401000  0.05905000  0.18565000  1.0 0.0007640591
C  C97  1  0.08907000  0.66177000  0.68553000  1.0 -0.2069508531
C  C98  1  0.91093000  0.33823000  0.18553000  1.0 -0.2069508531
C  C99  1  0.66177000  0.08907000  0.31447000  1.0 -0.2069508531
C  C100  1  0.33823000  0.91093000  0.81447000  1.0 -0.2034593104
C  C101  1  0.91093000  0.33823000  0.31447000  1.0 -0.2069508531
C  C102  1  0.08907000  0.66177000  0.81447000  1.0 -0.2069508531
C  C103  1  0.33823000  0.91093000  0.68553000  1.0 -0.2034593104
C  C104  1  0.66177000  0.08907000  0.18553000  1.0 -0.2034593104
C  C105  1  0.10403000  0.69401000  0.75000000  1.0 0.0401306179
C  C106  1  0.89597000  0.30599000  0.25000000  1.0 0.0401306179
C  C107  1  0.69401000  0.10403000  0.25000000  1.0 0.0401306179
C  C108  1  0.30599000  0.89597000  0.75000000  1.0 0.0401306179
C  C109  1  0.03932000  0.55784000  0.61566000  1.0 0.4788276644
C  C110  1  0.96068000  0.44216000  0.11566000  1.0 0.4788276644
C  C111  1  0.55784000  0.03932000  0.38434000  1.0 0.4788276644
C  C112  1  0.44216000  0.96068000  0.88434000  1.0 0.4788276644
C  C113  1  0.96068000  0.44216000  0.38434000  1.0 0.4788276644
C  C114  1  0.03932000  0.55784000  0.88434000  1.0 0.4788276644
C  C115  1  0.44216000  0.96068000  0.61566000  1.0 0.4788276644
C  C116  1  0.55784000  0.03932000  0.11566000  1.0 0.4788276644
C  C117  1  0.20116000  0.79884000  0.75000000  1.0 -0.2034593104
C  C118  1  0.79884000  0.20116000  0.25000000  1.0 -0.2034593104
C  C119  1  0.13224000  0.76896000  0.75000000  1.0 0.0199694756
C  C120  1  0.86776000  0.23104000  0.25000000  1.0 0.0199694756
C  C121  1  0.76896000  0.13224000  0.25000000  1.0 0.0199694756
C  C122  1  0.23104000  0.86776000  0.75000000  1.0 0.0199694756
C  C123  1  0.09072000  0.81018000  0.75000000  1.0 -0.0325736795
C  C124  1  0.90928000  0.18982000  0.25000000  1.0 -0.0228909467
C  C125  1  0.81018000  0.09072000  0.25000000  1.0 -0.0228909467
C  C126  1  0.18982000  0.90928000  0.75000000  1.0 -0.0325736795
N  N1  1  0.79563000  0.79563000  0.50000000  1.0 -0.1303168548
N  N2  1  0.20437000  0.20437000  0.00000000  1.0 -0.1303168548
N  N3  1  0.20437000  0.20437000  0.50000000  1.0 -0.1303168548
N  N4  1  0.79563000  0.79563000  0.00000000  1.0 -0.1303168548
N  N5  1  0.11835000  0.88165000  0.75000000  1.0 -0.272040203
N  N6  1  0.88165000  0.11835000  0.25000000  1.0 -0.2765023558
O  O1  1  0.62579000  0.48427000  0.67648000  1.0 -0.5415458287
O  O2  1  0.37421000  0.51573000  0.17648000  1.0 -0.5415458287
O  O3  1  0.48427000  0.62579000  0.32352000  1.0 -0.5415458287
O  O4  1  0.51573000  0.37421000  0.82352000  1.0 -0.5415458287
O  O5  1  0.37421000  0.51573000  0.32352000  1.0 -0.5415458287
O  O6  1  0.62579000  0.48427000  0.82352000  1.0 -0.5415458287
O  O7  1  0.51573000  0.37421000  0.67648000  1.0 -0.5415458287
O  O8  1  0.48427000  0.62579000  0.17648000  1.0 -0.5415458287
O  O9  1  0.69118000  0.41828000  0.67711000  1.0 -0.5502626541
O  O10  1  0.30882000  0.58172000  0.17711000  1.0 -0.5502626541
O  O11  1  0.41828000  0.69118000  0.32289000  1.0 -0.5502626541
O  O12  1  0.58172000  0.30882000  0.82289000  1.0 -0.5502626541
O  O13  1  0.30882000  0.58172000  0.32289000  1.0 -0.5502626541
O  O14  1  0.69118000  0.41828000  0.82289000  1.0 -0.5502626541
O  O15  1  0.58172000  0.30882000  0.67711000  1.0 -0.5502626541
O  O16  1  0.41828000  0.69118000  0.17711000  1.0 -0.5502626541
O  O17  1  0.93164000  0.56446000  0.48768000  1.0 -0.5415458287
O  O18  1  0.06836000  0.43554000  0.98768000  1.0 -0.5502626541
O  O19  1  0.56446000  0.93164000  0.51232000  1.0 -0.5415458287
O  O20  1  0.43554000  0.06836000  0.01232000  1.0 -0.5415458287
O  O21  1  0.06836000  0.43554000  0.51232000  1.0 -0.5502626541
O  O22  1  0.93164000  0.56446000  0.01232000  1.0 -0.5415458287
O  O23  1  0.43554000  0.06836000  0.48768000  1.0 -0.5415458287
O  O24  1  0.56446000  0.93164000  0.98768000  1.0 -0.5415458287
O  O25  1  0.89736000  0.46938000  0.54748000  1.0 -0.5676063893
O  O26  1  0.10264000  0.53062000  0.04748000  1.0 -0.5676063893
O  O27  1  0.46938000  0.89736000  0.45252000  1.0 -0.5676063893
O  O28  1  0.53062000  0.10264000  0.95252000  1.0 -0.5676063893
O  O29  1  0.10264000  0.53062000  0.45252000  1.0 -0.5676063893
O  O30  1  0.89736000  0.46938000  0.95252000  1.0 -0.5676063893
O  O31  1  0.53062000  0.10264000  0.54748000  1.0 -0.5676063893
O  O32  1  0.46938000  0.89736000  0.04748000  1.0 -0.5676063893
O  O33  1  0.04983000  0.59233000  0.56085000  1.0 -0.5502626541
O  O34  1  0.95017000  0.40767000  0.06085000  1.0 -0.5415458287
O  O35  1  0.59233000  0.04983000  0.43915000  1.0 -0.5415458287
O  O36  1  0.40767000  0.95017000  0.93915000  1.0 -0.5415458287
O  O37  1  0.95017000  0.40767000  0.43915000  1.0 -0.5415458287
O  O38  1  0.04983000  0.59233000  0.93915000  1.0 -0.5415458287
O  O39  1  0.40767000  0.95017000  0.56085000  1.0 -0.5415458287
O  O40  1  0.59233000  0.04983000  0.06085000  1.0 -0.5415458287
O  O41  1  0.01423000  0.49707000  0.61894000  1.0 -0.5502626541
O  O42  1  0.98577000  0.50293000  0.11894000  1.0 -0.5502626541
O  O43  1  0.49707000  0.01423000  0.38106000  1.0 -0.5502626541
O  O44  1  0.50293000  0.98577000  0.88106000  1.0 -0.5502626541
O  O45  1  0.98577000  0.50293000  0.38106000  1.0 -0.5502626541
O  O46  1  0.01423000  0.49707000  0.88106000  1.0 -0.5502626541
O  O47  1  0.50293000  0.98577000  0.61894000  1.0 -0.5502626541
O  O48  1  0.49707000  0.01423000  0.11894000  1.0 -0.5502626541
O  O49  1  0.04900000  0.65100000  0.42000000  1.0 -0.6229785232
O  O50  1  0.95100000  0.34900000  0.92000000  1.0 -0.6312552897
O  O51  1  0.65100000  0.04900000  0.58000000  1.0 -0.6312552897
O  O52  1  0.34900000  0.95100000  0.08000000  1.0 -0.6312552897
O  O53  1  0.95100000  0.34900000  0.58000000  1.0 -0.6312552897
O  O54  1  0.04900000  0.65100000  0.08000000  1.0 -0.6229785232
O  O55  1  0.34900000  0.95100000  0.42000000  1.0 -0.6312552897
O  O56  1  0.65100000  0.04900000  0.92000000  1.0 -0.6312552897
O  O57  1  0.04700000  0.65500000  0.41400000  1.0 -0.6312552897
O  O58  1  0.95300000  0.34500000  0.91400000  1.0 -0.6376552431
O  O59  1  0.65500000  0.04700000  0.58600000  1.0 -0.6376552431
O  O60  1  0.34500000  0.95300000  0.08600000  1.0 -0.6312552897
O  O61  1  0.95300000  0.34500000  0.58600000  1.0 -0.6376552431
O  O62  1  0.04700000  0.65500000  0.08600000  1.0 -0.6312552897
O  O63  1  0.34500000  0.95300000  0.41400000  1.0 -0.6312552897
O  O64  1  0.65500000  0.04700000  0.91400000  1.0 -0.6376552431
