# DDEC6 charges by PACMAN v1.1 (https://github.com/mtap-research/PACMAN-charge/)
data_KIRTOW_FSR_pacman
_symmetry_space_group_name_H-M   'P 1'
_cell_length_a   13.13020000
_cell_length_b   13.13020000
_cell_length_c   17.45590000
_cell_angle_alpha   90.00000000
_cell_angle_beta   90.00000000
_cell_angle_gamma   120.00000000
_symmetry_Int_Tables_number   1
_chemical_formula_structural   Al4P7H13O24
_chemical_formula_sum   'Al16 P28 H52 O96'
_cell_volume   2606.24692357
_cell_formula_units_Z   4
loop_
 _symmetry_equiv_pos_site_id
 _symmetry_equiv_pos_as_xyz
  1  'x, y, z'
loop_
 _atom_site_type_symbol
 _atom_site_label
 _atom_site_symmetry_multiplicity
 _atom_site_fract_x
 _atom_site_fract_y
 _atom_site_fract_z
 _atom_site_occupancy
 _atom_site_charge
Al  Al1  1  0.29204000  0.85678000  0.45859000  1.0 1.7367579552
Al  Al2  1  0.14322000  0.43526000  0.45859000  1.0 1.7367579552
Al  Al3  1  0.56474000  0.70796000  0.45859000  1.0 1.7367579552
Al  Al4  1  0.85678000  0.29204000  0.04141000  1.0 1.7367579552
Al  Al5  1  0.43526000  0.14322000  0.04141000  1.0 1.7367579552
Al  Al6  1  0.70796000  0.56474000  0.04141000  1.0 1.7367579552
Al  Al7  1  0.70796000  0.14322000  0.54141000  1.0 1.7367579552
Al  Al8  1  0.85678000  0.56474000  0.54141000  1.0 1.7367579552
Al  Al9  1  0.43526000  0.29204000  0.54141000  1.0 1.7367579552
Al  Al10  1  0.14322000  0.70796000  0.95859000  1.0 1.7367579552
Al  Al11  1  0.56474000  0.85678000  0.95859000  1.0 1.7367579552
Al  Al12  1  0.29204000  0.43526000  0.95859000  1.0 1.7367579552
Al  Al13  1  0.00000000  0.00000000  0.25000000  1.0 1.6975839746
Al  Al14  1  0.00000000  0.00000000  0.75000000  1.0 1.6975839746
Al  Al15  1  0.00000000  0.00000000  0.50000000  1.0 1.686439575
Al  Al16  1  0.00000000  0.00000000  0.00000000  1.0 1.686439575
P  P1  1  0.16009000  0.97326000  0.37118000  1.0 1.1780252071
P  P2  1  0.02674000  0.18683000  0.37118000  1.0 1.1780252071
P  P3  1  0.81317000  0.83991000  0.37118000  1.0 1.1780252071
P  P4  1  0.97326000  0.16009000  0.12882000  1.0 1.1780252071
P  P5  1  0.18683000  0.02674000  0.12882000  1.0 1.1780252071
P  P6  1  0.83991000  0.81317000  0.12882000  1.0 1.1780252071
P  P7  1  0.83991000  0.02674000  0.62882000  1.0 1.1780252071
P  P8  1  0.97326000  0.81317000  0.62882000  1.0 1.1780252071
P  P9  1  0.18683000  0.16009000  0.62882000  1.0 1.1780252071
P  P10  1  0.02674000  0.83991000  0.87118000  1.0 1.1780252071
P  P11  1  0.81317000  0.97326000  0.87118000  1.0 1.1780252071
P  P12  1  0.16009000  0.18683000  0.87118000  1.0 1.1780252071
P  P13  1  0.12623000  0.63092000  0.55515000  1.0 1.3761598877
P  P14  1  0.36908000  0.49531000  0.55515000  1.0 1.3761598877
P  P15  1  0.50469000  0.87377000  0.55515000  1.0 1.3761598877
P  P16  1  0.63092000  0.12623000  0.94485000  1.0 1.3761598877
P  P17  1  0.49531000  0.36908000  0.94485000  1.0 1.3761598877
P  P18  1  0.87377000  0.50469000  0.94485000  1.0 1.3761598877
P  P19  1  0.87377000  0.36908000  0.44485000  1.0 1.3761598877
P  P20  1  0.63092000  0.50469000  0.44485000  1.0 1.3761598877
P  P21  1  0.49531000  0.12623000  0.44485000  1.0 1.3761598877
P  P22  1  0.36908000  0.87377000  0.05515000  1.0 1.3761598877
P  P23  1  0.50469000  0.63092000  0.05515000  1.0 1.3761598877
P  P24  1  0.12623000  0.49531000  0.05515000  1.0 1.3761598877
P  P25  1  0.33333333  0.66666667  0.36305000  1.0 1.3903943114
P  P26  1  0.66666667  0.33333333  0.13695000  1.0 1.3903943114
P  P27  1  0.66666667  0.33333333  0.63695000  1.0 1.3903943114
P  P28  1  0.33333333  0.66666667  0.86305000  1.0 1.3952801836
H  H1  1  0.25000000  0.05500000  0.34130000  1.0 -0.0594125723
H  H2  1  0.94500000  0.19500000  0.34130000  1.0 -0.0594125723
H  H3  1  0.80500000  0.75000000  0.34130000  1.0 -0.0594125723
H  H4  1  0.05500000  0.25000000  0.15870000  1.0 -0.0594125723
H  H5  1  0.19500000  0.94500000  0.15870000  1.0 -0.0594125723
H  H6  1  0.75000000  0.80500000  0.15870000  1.0 -0.0594125723
H  H7  1  0.75000000  0.94500000  0.65870000  1.0 -0.0594125723
H  H8  1  0.05500000  0.80500000  0.65870000  1.0 -0.0594125723
H  H9  1  0.19500000  0.25000000  0.65870000  1.0 -0.0594125723
H  H10  1  0.94500000  0.75000000  0.84130000  1.0 -0.0594125723
H  H11  1  0.80500000  0.05500000  0.84130000  1.0 -0.0594125723
H  H12  1  0.25000000  0.19500000  0.84130000  1.0 -0.0594125723
H  H13  1  0.19100000  0.69200000  0.62400000  1.0 -0.1093160479
H  H14  1  0.30800000  0.49900000  0.62400000  1.0 -0.1093160479
H  H15  1  0.50100000  0.80900000  0.62400000  1.0 -0.1093160479
H  H16  1  0.69200000  0.19100000  0.87600000  1.0 -0.1093160479
H  H17  1  0.49900000  0.30800000  0.87600000  1.0 -0.1093160479
H  H18  1  0.80900000  0.50100000  0.87600000  1.0 -0.1093160479
H  H19  1  0.80900000  0.30800000  0.37600000  1.0 -0.1093160479
H  H20  1  0.69200000  0.50100000  0.37600000  1.0 -0.1093160479
H  H21  1  0.49900000  0.19100000  0.37600000  1.0 -0.1093160479
H  H22  1  0.30800000  0.80900000  0.12400000  1.0 -0.1093160479
H  H23  1  0.50100000  0.69200000  0.12400000  1.0 -0.1093160479
H  H24  1  0.19100000  0.49900000  0.12400000  1.0 -0.1093160479
H  H25  1  0.33333333  0.66666667  0.28100000  1.0 -0.1093160479
H  H26  1  0.66666667  0.33333333  0.21900000  1.0 -0.1093160479
H  H27  1  0.66666667  0.33333333  0.71900000  1.0 -0.1093160479
H  H28  1  0.33333333  0.66666667  0.78100000  1.0 -0.1093160479
H  H29  1  0.29650000  0.01230000  0.56050000  1.0 0.3817914761
H  H30  1  0.98770000  0.28420000  0.56050000  1.0 0.3817914761
H  H31  1  0.71580000  0.70350000  0.56050000  1.0 0.3817914761
H  H32  1  0.01230000  0.29650000  0.93950000  1.0 0.3817914761
H  H33  1  0.28420000  0.98770000  0.93950000  1.0 0.3817914761
H  H34  1  0.70350000  0.71580000  0.93950000  1.0 0.3817914761
H  H35  1  0.70350000  0.98770000  0.43950000  1.0 0.3817914761
H  H36  1  0.01230000  0.71580000  0.43950000  1.0 0.3817914761
H  H37  1  0.28420000  0.29650000  0.43950000  1.0 0.3817914761
H  H38  1  0.98770000  0.70350000  0.06050000  1.0 0.3817914761
H  H39  1  0.71580000  0.01230000  0.06050000  1.0 0.3817914761
H  H40  1  0.29650000  0.28420000  0.06050000  1.0 0.3817914761
H  H41  1  0.19060000  0.93580000  0.53980000  1.0 0.364599706
H  H42  1  0.06420000  0.25480000  0.53980000  1.0 0.3650868249
H  H43  1  0.74520000  0.80940000  0.53980000  1.0 0.364599706
H  H44  1  0.93580000  0.19060000  0.96020000  1.0 0.3650868249
H  H45  1  0.25480000  0.06420000  0.96020000  1.0 0.3650868249
H  H46  1  0.80940000  0.74520000  0.96020000  1.0 0.3650868249
H  H47  1  0.80940000  0.06420000  0.46020000  1.0 0.3650868249
H  H48  1  0.93580000  0.74520000  0.46020000  1.0 0.3650868249
H  H49  1  0.25480000  0.19060000  0.46020000  1.0 0.3650868249
H  H50  1  0.06420000  0.80940000  0.03980000  1.0 0.3650868249
H  H51  1  0.74520000  0.93580000  0.03980000  1.0 0.3650868249
H  H52  1  0.19060000  0.25480000  0.03980000  1.0 0.3650868249
O  O1  1  0.19040000  0.87950000  0.39237000  1.0 -0.714535842
O  O2  1  0.12050000  0.31090000  0.39237000  1.0 -0.714535842
O  O3  1  0.68910000  0.80960000  0.39237000  1.0 -0.714535842
O  O4  1  0.87950000  0.19040000  0.10763000  1.0 -0.7218105506
O  O5  1  0.31090000  0.12050000  0.10763000  1.0 -0.714535842
O  O6  1  0.80960000  0.68910000  0.10763000  1.0 -0.714535842
O  O7  1  0.80960000  0.12050000  0.60763000  1.0 -0.714535842
O  O8  1  0.87950000  0.68910000  0.60763000  1.0 -0.714535842
O  O9  1  0.31090000  0.19040000  0.60763000  1.0 -0.714535842
O  O10  1  0.12050000  0.80960000  0.89237000  1.0 -0.714535842
O  O11  1  0.68910000  0.87950000  0.89237000  1.0 -0.714535842
O  O12  1  0.19040000  0.31090000  0.89237000  1.0 -0.714535842
O  O13  1  0.13120000  0.02490000  0.44015000  1.0 -0.7261557567
O  O14  1  0.97510000  0.10630000  0.44015000  1.0 -0.7261557567
O  O15  1  0.89370000  0.86880000  0.44015000  1.0 -0.7261557567
O  O16  1  0.02490000  0.13120000  0.05985000  1.0 -0.7261557567
O  O17  1  0.10630000  0.97510000  0.05985000  1.0 -0.7261557567
O  O18  1  0.86880000  0.89370000  0.05985000  1.0 -0.7261557567
O  O19  1  0.86880000  0.97510000  0.55985000  1.0 -0.7261557567
O  O20  1  0.02490000  0.89370000  0.55985000  1.0 -0.7261557567
O  O21  1  0.10630000  0.13120000  0.55985000  1.0 -0.7261557567
O  O22  1  0.97510000  0.86880000  0.94015000  1.0 -0.7261557567
O  O23  1  0.89370000  0.02490000  0.94015000  1.0 -0.7261557567
O  O24  1  0.13120000  0.10630000  0.94015000  1.0 -0.7261557567
O  O25  1  0.06530000  0.92630000  0.30983000  1.0 -0.7218105506
O  O26  1  0.07370000  0.13900000  0.30983000  1.0 -0.7218105506
O  O27  1  0.86100000  0.93470000  0.30983000  1.0 -0.7218105506
O  O28  1  0.92630000  0.06530000  0.19017000  1.0 -0.7218105506
O  O29  1  0.13900000  0.07370000  0.19017000  1.0 -0.7218105506
O  O30  1  0.93470000  0.86100000  0.19017000  1.0 -0.7218105506
O  O31  1  0.93470000  0.07370000  0.69017000  1.0 -0.7218105506
O  O32  1  0.92630000  0.86100000  0.69017000  1.0 -0.7218105506
O  O33  1  0.13900000  0.06530000  0.69017000  1.0 -0.7218105506
O  O34  1  0.07370000  0.93470000  0.80983000  1.0 -0.7218105506
O  O35  1  0.86100000  0.92630000  0.80983000  1.0 -0.7218105506
O  O36  1  0.06530000  0.13900000  0.80983000  1.0 -0.7218105506
O  O37  1  0.15660000  0.72480000  0.49440000  1.0 -0.7400814282
O  O38  1  0.27520000  0.43180000  0.49440000  1.0 -0.7400814282
O  O39  1  0.56820000  0.84340000  0.49440000  1.0 -0.7400814282
O  O40  1  0.72480000  0.15660000  0.00560000  1.0 -0.7400814282
O  O41  1  0.43180000  0.27520000  0.00560000  1.0 -0.7400814282
O  O42  1  0.84340000  0.56820000  0.00560000  1.0 -0.7400814282
O  O43  1  0.84340000  0.27520000  0.50560000  1.0 -0.7400814282
O  O44  1  0.72480000  0.56820000  0.50560000  1.0 -0.7400814282
O  O45  1  0.43180000  0.15660000  0.50560000  1.0 -0.7400814282
O  O46  1  0.27520000  0.84340000  0.99440000  1.0 -0.7400814282
O  O47  1  0.56820000  0.72480000  0.99440000  1.0 -0.7400814282
O  O48  1  0.15660000  0.43180000  0.99440000  1.0 -0.7400814282
O  O49  1  0.99670000  0.57470000  0.57520000  1.0 -0.7678790875
O  O50  1  0.42530000  0.42200000  0.57520000  1.0 -0.7678790875
O  O51  1  0.57800000  0.00330000  0.57520000  1.0 -0.7678790875
O  O52  1  0.57470000  0.99670000  0.92480000  1.0 -0.7678790875
O  O53  1  0.42200000  0.42530000  0.92480000  1.0 -0.7678790875
O  O54  1  0.00330000  0.57800000  0.92480000  1.0 -0.7678790875
O  O55  1  0.00330000  0.42530000  0.42480000  1.0 -0.7678790875
O  O56  1  0.57470000  0.57800000  0.42480000  1.0 -0.7678790875
O  O57  1  0.42200000  0.99670000  0.42480000  1.0 -0.7678790875
O  O58  1  0.42530000  0.00330000  0.07520000  1.0 -0.7678790875
O  O59  1  0.57800000  0.57470000  0.07520000  1.0 -0.7678790875
O  O60  1  0.99670000  0.42200000  0.07520000  1.0 -0.7678790875
O  O61  1  0.16470000  0.54450000  0.53450000  1.0 -0.7605220117
O  O62  1  0.45550000  0.62020000  0.53450000  1.0 -0.7605220117
O  O63  1  0.37980000  0.83530000  0.53450000  1.0 -0.7605220117
O  O64  1  0.54450000  0.16470000  0.96550000  1.0 -0.7605220117
O  O65  1  0.62020000  0.45550000  0.96550000  1.0 -0.7605220117
O  O66  1  0.83530000  0.37980000  0.96550000  1.0 -0.7605220117
O  O67  1  0.83530000  0.45550000  0.46550000  1.0 -0.7605220117
O  O68  1  0.54450000  0.37980000  0.46550000  1.0 -0.7605220117
O  O69  1  0.62020000  0.16470000  0.46550000  1.0 -0.7605220117
O  O70  1  0.45550000  0.83530000  0.03450000  1.0 -0.7605220117
O  O71  1  0.37980000  0.54450000  0.03450000  1.0 -0.7605220117
O  O72  1  0.16470000  0.62020000  0.03450000  1.0 -0.7605220117
O  O73  1  0.32010000  0.77150000  0.38440000  1.0 -0.7463870036
O  O74  1  0.22850000  0.54860000  0.38440000  1.0 -0.7463870036
O  O75  1  0.45140000  0.67990000  0.38440000  1.0 -0.7463870036
O  O76  1  0.77150000  0.32010000  0.11560000  1.0 -0.7463870036
O  O77  1  0.54860000  0.22850000  0.11560000  1.0 -0.7463870036
O  O78  1  0.67990000  0.45140000  0.11560000  1.0 -0.7463870036
O  O79  1  0.67990000  0.22850000  0.61560000  1.0 -0.7400814282
O  O80  1  0.77150000  0.45140000  0.61560000  1.0 -0.7400814282
O  O81  1  0.54860000  0.32010000  0.61560000  1.0 -0.7400814282
O  O82  1  0.22850000  0.67990000  0.88440000  1.0 -0.7463870036
O  O83  1  0.45140000  0.77150000  0.88440000  1.0 -0.7463870036
O  O84  1  0.32010000  0.54860000  0.88440000  1.0 -0.7463870036
O  O85  1  0.25900000  0.94400000  0.54082000  1.0 -0.684047201
O  O86  1  0.05600000  0.31500000  0.54082000  1.0 -0.684047201
O  O87  1  0.68500000  0.74100000  0.54082000  1.0 -0.684047201
O  O88  1  0.94400000  0.25900000  0.95918000  1.0 -0.684047201
O  O89  1  0.31500000  0.05600000  0.95918000  1.0 -0.684047201
O  O90  1  0.74100000  0.68500000  0.95918000  1.0 -0.684047201
O  O91  1  0.74100000  0.05600000  0.45918000  1.0 -0.684047201
O  O92  1  0.94400000  0.68500000  0.45918000  1.0 -0.684047201
O  O93  1  0.31500000  0.25900000  0.45918000  1.0 -0.684047201
O  O94  1  0.05600000  0.74100000  0.04082000  1.0 -0.684047201
O  O95  1  0.68500000  0.94400000  0.04082000  1.0 -0.684047201
O  O96  1  0.25900000  0.31500000  0.04082000  1.0 -0.684047201
