# DDEC6 charges by PACMAN v1.1 (https://github.com/mtap-research/PACMAN-charge/)
data_KIRTUC_ASR_pacman
_symmetry_space_group_name_H-M   'P 1'
_cell_length_a   8.47870000
_cell_length_b   13.38060000
_cell_length_c   15.24560000
_cell_angle_alpha   90.00000000
_cell_angle_beta   90.00000000
_cell_angle_gamma   90.00000000
_symmetry_Int_Tables_number   1
_chemical_formula_structural   Be3P4(HO3)4
_chemical_formula_sum   'Be12 P16 H16 O48'
_cell_volume   1729.61474119
_cell_formula_units_Z   4
loop_
 _symmetry_equiv_pos_site_id
 _symmetry_equiv_pos_as_xyz
  1  'x, y, z'
loop_
 _atom_site_type_symbol
 _atom_site_label
 _atom_site_symmetry_multiplicity
 _atom_site_fract_x
 _atom_site_fract_y
 _atom_site_fract_z
 _atom_site_occupancy
 _atom_site_charge
Be  Be1  1  0.00000000  0.75000000  0.23770000  1.0 0.9370179348
Be  Be2  1  0.50000000  0.25000000  0.26230000  1.0 0.9300886863
Be  Be3  1  0.00000000  0.25000000  0.76230000  1.0 0.9370179348
Be  Be4  1  0.50000000  0.75000000  0.73770000  1.0 0.9300886863
Be  Be5  1  0.46540000  0.60950000  0.41170000  1.0 0.8771395558
Be  Be6  1  0.03460000  0.10950000  0.08830000  1.0 0.8692907565
Be  Be7  1  0.53460000  0.89050000  0.41170000  1.0 0.8602075749
Be  Be8  1  0.96540000  0.39050000  0.08830000  1.0 0.8602075749
Be  Be9  1  0.53460000  0.39050000  0.58830000  1.0 0.8602075749
Be  Be10  1  0.96540000  0.89050000  0.91170000  1.0 0.8545617932
Be  Be11  1  0.46540000  0.10950000  0.58830000  1.0 0.8771395558
Be  Be12  1  0.03460000  0.60950000  0.91170000  1.0 0.8602075749
P  P1  1  0.02482000  0.88852000  0.09831000  1.0 0.8377315277
P  P2  1  0.47518000  0.38852000  0.40169000  1.0 0.8310170857
P  P3  1  0.97518000  0.61148000  0.09831000  1.0 0.8310170857
P  P4  1  0.52482000  0.11148000  0.40169000  1.0 0.8310170857
P  P5  1  0.97518000  0.11148000  0.90169000  1.0 0.8310170857
P  P6  1  0.52482000  0.61148000  0.59831000  1.0 0.8310170857
P  P7  1  0.02482000  0.38852000  0.90169000  1.0 0.8310170857
P  P8  1  0.47518000  0.88852000  0.59831000  1.0 0.8310170857
P  P9  1  0.25259000  0.77111000  0.36997000  1.0 0.8310170857
P  P10  1  0.24741000  0.27111000  0.13003000  1.0 0.8310170857
P  P11  1  0.74741000  0.72889000  0.36997000  1.0 0.8310170857
P  P12  1  0.75259000  0.22889000  0.13003000  1.0 0.8310170857
P  P13  1  0.74741000  0.22889000  0.63003000  1.0 0.8310170857
P  P14  1  0.75259000  0.72889000  0.86997000  1.0 0.8310170857
P  P15  1  0.25259000  0.27111000  0.63003000  1.0 0.8215523833
P  P16  1  0.24741000  0.77111000  0.86997000  1.0 0.8310170857
H  H1  1  0.15600000  0.83970000  0.08760000  1.0 -0.1121563706
H  H2  1  0.34400000  0.33970000  0.41240000  1.0 -0.1121563706
H  H3  1  0.84400000  0.66030000  0.08760000  1.0 -0.1121563706
H  H4  1  0.65600000  0.16030000  0.41240000  1.0 -0.1121563706
H  H5  1  0.84400000  0.16030000  0.91240000  1.0 -0.1121563706
H  H6  1  0.65600000  0.66030000  0.58760000  1.0 -0.1121563706
H  H7  1  0.15600000  0.33970000  0.91240000  1.0 -0.1121563706
H  H8  1  0.34400000  0.83970000  0.58760000  1.0 -0.1121563706
H  H9  1  0.16300000  0.75660000  0.44240000  1.0 -0.1121563706
H  H10  1  0.33700000  0.25660000  0.05760000  1.0 -0.1121563706
H  H11  1  0.83700000  0.74340000  0.44240000  1.0 -0.1121563706
H  H12  1  0.66300000  0.24340000  0.05760000  1.0 -0.1121563706
H  H13  1  0.83700000  0.24340000  0.55760000  1.0 -0.1121563706
H  H14  1  0.66300000  0.74340000  0.94240000  1.0 -0.1121563706
H  H15  1  0.16300000  0.25660000  0.55760000  1.0 -0.1121563706
H  H16  1  0.33700000  0.75660000  0.94240000  1.0 -0.1121563706
O  O1  1  0.93700000  0.84023000  0.17426000  1.0 -0.4610672775
O  O2  1  0.56300000  0.34023000  0.32574000  1.0 -0.4610672775
O  O3  1  0.06300000  0.65977000  0.17426000  1.0 -0.4610672775
O  O4  1  0.43700000  0.15977000  0.32574000  1.0 -0.4610672775
O  O5  1  0.06300000  0.15977000  0.82574000  1.0 -0.4610672775
O  O6  1  0.43700000  0.65977000  0.67426000  1.0 -0.4610672775
O  O7  1  0.93700000  0.34023000  0.82574000  1.0 -0.4610672775
O  O8  1  0.56300000  0.84023000  0.67426000  1.0 -0.4610672775
O  O9  1  0.06690000  0.99505000  0.12166000  1.0 -0.4610672775
O  O10  1  0.43310000  0.49505000  0.37834000  1.0 -0.4610672775
O  O11  1  0.93310000  0.50495000  0.12166000  1.0 -0.4610672775
O  O12  1  0.56690000  0.00495000  0.37834000  1.0 -0.4610672775
O  O13  1  0.93310000  0.00495000  0.87834000  1.0 -0.4610672775
O  O14  1  0.56690000  0.50495000  0.62166000  1.0 -0.4610672775
O  O15  1  0.06690000  0.49505000  0.87834000  1.0 -0.4610672775
O  O16  1  0.43310000  0.99505000  0.62166000  1.0 -0.4610672775
O  O17  1  0.93190000  0.87943000  0.01468000  1.0 -0.4703070837
O  O18  1  0.56810000  0.37943000  0.48532000  1.0 -0.4703070837
O  O19  1  0.06810000  0.62057000  0.01468000  1.0 -0.4703070837
O  O20  1  0.43190000  0.12057000  0.48532000  1.0 -0.4703070837
O  O21  1  0.06810000  0.12057000  0.98532000  1.0 -0.4703070837
O  O22  1  0.43190000  0.62057000  0.51468000  1.0 -0.4703070837
O  O23  1  0.93190000  0.37943000  0.98532000  1.0 -0.4703070837
O  O24  1  0.56810000  0.87943000  0.51468000  1.0 -0.4703070837
O  O25  1  0.14170000  0.79400000  0.29540000  1.0 -0.435414148
O  O26  1  0.35830000  0.29400000  0.20460000  1.0 -0.4347008848
O  O27  1  0.85830000  0.70600000  0.29540000  1.0 -0.4347008848
O  O28  1  0.64170000  0.20600000  0.20460000  1.0 -0.4347008848
O  O29  1  0.85830000  0.20600000  0.70460000  1.0 -0.4347008848
O  O30  1  0.64170000  0.70600000  0.79540000  1.0 -0.4347008848
O  O31  1  0.14170000  0.29400000  0.70460000  1.0 -0.4347008848
O  O32  1  0.35830000  0.79400000  0.79540000  1.0 -0.4347008848
O  O33  1  0.34390000  0.67627000  0.35508000  1.0 -0.4703070837
O  O34  1  0.15610000  0.17627000  0.14492000  1.0 -0.4703070837
O  O35  1  0.65610000  0.82373000  0.35508000  1.0 -0.4703070837
O  O36  1  0.84390000  0.32373000  0.14492000  1.0 -0.4703070837
O  O37  1  0.65610000  0.32373000  0.64492000  1.0 -0.4703070837
O  O38  1  0.84390000  0.82373000  0.85508000  1.0 -0.4703070837
O  O39  1  0.34390000  0.17627000  0.64492000  1.0 -0.4703070837
O  O40  1  0.15610000  0.67627000  0.85508000  1.0 -0.4703070837
O  O41  1  0.35280000  0.86288000  0.38701000  1.0 -0.4703070837
O  O42  1  0.14720000  0.36288000  0.11299000  1.0 -0.4703070837
O  O43  1  0.64720000  0.63712000  0.38701000  1.0 -0.4750218815
O  O44  1  0.85280000  0.13712000  0.11299000  1.0 -0.4703070837
O  O45  1  0.64720000  0.13712000  0.61299000  1.0 -0.4750218815
O  O46  1  0.85280000  0.63712000  0.88701000  1.0 -0.4703070837
O  O47  1  0.35280000  0.36288000  0.61299000  1.0 -0.4703070837
O  O48  1  0.14720000  0.86288000  0.88701000  1.0 -0.4703070837
