# DDEC6 charges by PACMAN v1.1 (https://github.com/mtap-research/PACMAN-charge/)
data_KISVEO_FSR_pacman
_symmetry_space_group_name_H-M   'P 1'
_cell_length_a   22.12490000
_cell_length_b   22.12490000
_cell_length_c   22.12490000
_cell_angle_alpha   101.41300000
_cell_angle_beta   101.41300000
_cell_angle_gamma   127.17400000
_symmetry_Int_Tables_number   1
_chemical_formula_structural   U14S19O108
_chemical_formula_sum   'U28 S38 O216'
_cell_volume   7728.86449014
_cell_formula_units_Z   2
loop_
 _symmetry_equiv_pos_site_id
 _symmetry_equiv_pos_as_xyz
  1  'x, y, z'
loop_
 _atom_site_type_symbol
 _atom_site_label
 _atom_site_symmetry_multiplicity
 _atom_site_fract_x
 _atom_site_fract_y
 _atom_site_fract_z
 _atom_site_occupancy
 _atom_site_charge
U  U1  1  0.21721000  0.58827000  0.37184000  1.0 2.5518654014
U  U2  1  0.84537000  0.21721000  0.62894000  1.0 2.5518654014
U  U3  1  0.58827000  0.21643000  0.37106000  1.0 2.5518654014
U  U4  1  0.21643000  0.84537000  0.62816000  1.0 2.5518654014
U  U5  1  0.78279000  0.41173000  0.62816000  1.0 2.5518654014
U  U6  1  0.15464000  0.78280000  0.37106000  1.0 2.5518654014
U  U7  1  0.41174000  0.78358000  0.62894000  1.0 2.5518654014
U  U8  1  0.78358000  0.15463000  0.37184000  1.0 2.5518654014
U  U9  1  0.61374000  0.13594000  0.14054000  1.0 2.4996447788
U  U10  1  0.47320000  0.61374000  0.47780000  1.0 2.5105610714
U  U11  1  0.13594000  0.99540000  0.52220000  1.0 2.4996447788
U  U12  1  0.99540000  0.47320000  0.85946000  1.0 2.5105610714
U  U13  1  0.38626000  0.86406000  0.85946000  1.0 2.5105610714
U  U14  1  0.52680000  0.38626000  0.52220000  1.0 2.5105610714
U  U15  1  0.86406000  0.00460000  0.47780000  1.0 2.4996447788
U  U16  1  0.00460000  0.52680000  0.14054000  1.0 2.4996447788
U  U17  1  0.82397000  0.46495000  0.28892000  1.0 2.5518654014
U  U18  1  0.53505000  0.82397000  0.35902000  1.0 2.5518654014
U  U19  1  0.46495000  0.17603000  0.64098000  1.0 2.5518654014
U  U20  1  0.17603000  0.53505000  0.71108000  1.0 2.5518654014
U  U21  1  0.54487000  0.40308000  0.27283000  1.0 2.3621940042
U  U22  1  0.27204000  0.54487000  0.14179000  1.0 2.3824433074
U  U23  1  0.40308000  0.13025000  0.85821000  1.0 2.3621940042
U  U24  1  0.13025000  0.27204000  0.72717000  1.0 2.3824433074
U  U25  1  0.45513000  0.59692000  0.72717000  1.0 2.3824433074
U  U26  1  0.72796000  0.45513000  0.85821000  1.0 2.3824433074
U  U27  1  0.59692000  0.86975000  0.14179000  1.0 2.3824433074
U  U28  1  0.86975000  0.72796000  0.27283000  1.0 2.3621940042
S  S1  1  0.25000000  0.75000000  0.50000000  1.0 1.4934575782
S  S2  1  0.75000000  0.25000000  0.50000000  1.0 1.4934575782
S  S3  1  0.03282000  0.55344000  0.32046000  1.0 1.4964421764
S  S4  1  0.71236000  0.03282000  0.47938000  1.0 1.4964421764
S  S5  1  0.55344000  0.23298000  0.52062000  1.0 1.4964421764
S  S6  1  0.23298000  0.71236000  0.67954000  1.0 1.4964421764
S  S7  1  0.96718000  0.44656000  0.67954000  1.0 1.4964421764
S  S8  1  0.28764000  0.96718000  0.52062000  1.0 1.4964421764
S  S9  1  0.44656000  0.76702000  0.47938000  1.0 1.4964421764
S  S10  1  0.76702000  0.28764000  0.32046000  1.0 1.4964421764
S  S11  1  0.60089000  0.28294000  0.23065000  1.0 1.47389891
S  S12  1  0.37024000  0.60089000  0.31795000  1.0 1.4790736491
S  S13  1  0.28294000  0.05229000  0.68205000  1.0 1.4790736491
S  S14  1  0.05229000  0.37024000  0.76935000  1.0 1.4790736491
S  S15  1  0.39911000  0.71706000  0.76935000  1.0 1.4790736491
S  S16  1  0.62976000  0.39911000  0.68205000  1.0 1.4790736491
S  S17  1  0.71706000  0.94771000  0.31795000  1.0 1.4790736491
S  S18  1  0.94771000  0.62976000  0.23065000  1.0 1.4790736491
S  S19  1  0.69719000  0.49899000  0.19618000  1.0 1.3403632865
S  S20  1  0.50101000  0.69719000  0.19820000  1.0 1.352634798
S  S21  1  0.49899000  0.30281000  0.80180000  1.0 1.352634798
S  S22  1  0.30281000  0.50101000  0.80382000  1.0 1.352634798
S  S23  1  0.10125000  0.44642000  0.19709000  1.0 1.3795027786
S  S24  1  0.90416000  0.10125000  0.65483000  1.0 1.3795027786
S  S25  1  0.44642000  0.24933000  0.34517000  1.0 1.3677605615
S  S26  1  0.24933000  0.90416000  0.80291000  1.0 1.3795027786
S  S27  1  0.89875000  0.55358000  0.80291000  1.0 1.3795027786
S  S28  1  0.09584000  0.89875000  0.34517000  1.0 1.3795027786
S  S29  1  0.55358000  0.75067000  0.65483000  1.0 1.3795027786
S  S30  1  0.75067000  0.09584000  0.19709000  1.0 1.3795027786
S  S31  1  0.51591000  0.92775000  0.02778000  1.0 1.352634798
S  S32  1  0.48813000  0.51591000  0.58816000  1.0 1.3403632865
S  S33  1  0.92775000  0.89997000  0.41184000  1.0 1.352634798
S  S34  1  0.89997000  0.48813000  0.97222000  1.0 1.352634798
S  S35  1  0.48409000  0.07225000  0.97222000  1.0 1.352634798
S  S36  1  0.51187000  0.48409000  0.41184000  1.0 1.352634798
S  S37  1  0.07225000  0.10003000  0.58816000  1.0 1.352634798
S  S38  1  0.10003000  0.51187000  0.02778000  1.0 1.352634798
O  O1  1  0.21440000  0.66450000  0.46610000  1.0 -0.638718757
O  O2  1  0.74830000  0.21440000  0.54990000  1.0 -0.638718757
O  O3  1  0.66450000  0.19840000  0.45010000  1.0 -0.638718757
O  O4  1  0.19840000  0.74830000  0.53390000  1.0 -0.638718757
O  O5  1  0.78560000  0.33550000  0.53390000  1.0 -0.638718757
O  O6  1  0.25170000  0.78560000  0.45010000  1.0 -0.638718757
O  O7  1  0.33550000  0.80160000  0.54990000  1.0 -0.638718757
O  O8  1  0.80160000  0.25170000  0.46610000  1.0 -0.638718757
O  O9  1  0.55130000  0.30500000  0.21070000  1.0 -0.6241453264
O  O10  1  0.34060000  0.55130000  0.24630000  1.0 -0.6307637539
O  O11  1  0.30500000  0.09430000  0.75370000  1.0 -0.6241453264
O  O12  1  0.09430000  0.34060000  0.78930000  1.0 -0.6307637539
O  O13  1  0.44870000  0.69500000  0.78930000  1.0 -0.6307637539
O  O14  1  0.65940000  0.44870000  0.75370000  1.0 -0.6307637539
O  O15  1  0.69500000  0.90570000  0.24630000  1.0 -0.6307637539
O  O16  1  0.90570000  0.65940000  0.21070000  1.0 -0.6241453264
O  O17  1  0.96310000  0.51860000  0.34050000  1.0 -0.6082285456
O  O18  1  0.62260000  0.96310000  0.44450000  1.0 -0.6082285456
O  O19  1  0.51860000  0.17810000  0.55550000  1.0 -0.6082285456
O  O20  1  0.17810000  0.62260000  0.65950000  1.0 -0.6082285456
O  O21  1  0.03690000  0.48140000  0.65950000  1.0 -0.6082285456
O  O22  1  0.37740000  0.03690000  0.55550000  1.0 -0.6082285456
O  O23  1  0.48140000  0.82190000  0.44450000  1.0 -0.6082285456
O  O24  1  0.82190000  0.37740000  0.34050000  1.0 -0.6082285456
O  O25  1  0.59830000  0.23840000  0.16970000  1.0 -0.6082285456
O  O26  1  0.42860000  0.59830000  0.35990000  1.0 -0.6082285456
O  O27  1  0.23840000  0.06870000  0.64010000  1.0 -0.6082285456
O  O28  1  0.06870000  0.42860000  0.83030000  1.0 -0.6082285456
O  O29  1  0.40170000  0.76160000  0.83030000  1.0 -0.6082285456
O  O30  1  0.57140000  0.40170000  0.64010000  1.0 -0.6082285456
O  O31  1  0.76160000  0.93130000  0.35990000  1.0 -0.6082285456
O  O32  1  0.93130000  0.57140000  0.16970000  1.0 -0.6082285456
O  O33  1  0.07520000  0.52570000  0.34510000  1.0 -0.6307637539
O  O34  1  0.73010000  0.07520000  0.54950000  1.0 -0.6307637539
O  O35  1  0.52570000  0.18060000  0.45050000  1.0 -0.6307637539
O  O36  1  0.18060000  0.73010000  0.65490000  1.0 -0.638718757
O  O37  1  0.92480000  0.47430000  0.65490000  1.0 -0.6307637539
O  O38  1  0.26990000  0.92480000  0.45050000  1.0 -0.638718757
O  O39  1  0.47430000  0.81940000  0.54950000  1.0 -0.6307637539
O  O40  1  0.81940000  0.26990000  0.34510000  1.0 -0.638718757
O  O41  1  0.54110000  0.07810000  0.17300000  1.0 -0.5215011984
O  O42  1  0.36810000  0.54110000  0.46300000  1.0 -0.5215011984
O  O43  1  0.07810000  0.90510000  0.53700000  1.0 -0.5215011984
O  O44  1  0.90510000  0.36810000  0.82700000  1.0 -0.5215011984
O  O45  1  0.45890000  0.92190000  0.82700000  1.0 -0.5215011984
O  O46  1  0.63190000  0.45890000  0.53700000  1.0 -0.5215011984
O  O47  1  0.92190000  0.09490000  0.46300000  1.0 -0.5215011984
O  O48  1  0.09490000  0.63190000  0.17300000  1.0 -0.5215011984
O  O49  1  0.56980000  0.01860000  0.05340000  1.0 -0.6888080576
O  O50  1  0.51640000  0.56980000  0.55120000  1.0 -0.698491849
O  O51  1  0.01860000  0.96520000  0.44880000  1.0 -0.698491849
O  O52  1  0.96520000  0.51640000  0.94660000  1.0 -0.698491849
O  O53  1  0.43020000  0.98140000  0.94660000  1.0 -0.698491849
O  O54  1  0.48360000  0.43020000  0.44880000  1.0 -0.698491849
O  O55  1  0.98140000  0.03480000  0.55120000  1.0 -0.698491849
O  O56  1  0.03480000  0.48360000  0.05340000  1.0 -0.6888080576
O  O57  1  0.56650000  0.22910000  0.26700000  1.0 -0.6807612275
O  O58  1  0.29950000  0.56650000  0.33740000  1.0 -0.6807612275
O  O59  1  0.22910000  0.96210000  0.66260000  1.0 -0.6807612275
O  O60  1  0.96210000  0.29950000  0.73300000  1.0 -0.6807612275
O  O61  1  0.43350000  0.77090000  0.73300000  1.0 -0.6807612275
O  O62  1  0.70050000  0.43350000  0.66260000  1.0 -0.6807612275
O  O63  1  0.77090000  0.03790000  0.33740000  1.0 -0.6807612275
O  O64  1  0.03790000  0.70050000  0.26700000  1.0 -0.6702644686
O  O65  1  0.02490000  0.36090000  0.16060000  1.0 -0.4124026849
O  O66  1  0.86430000  0.02490000  0.66400000  1.0 -0.4197991777
O  O67  1  0.36090000  0.20030000  0.33600000  1.0 -0.4124026849
O  O68  1  0.20030000  0.86430000  0.83940000  1.0 -0.4124026849
O  O69  1  0.97510000  0.63910000  0.83940000  1.0 -0.4124026849
O  O70  1  0.13570000  0.97510000  0.33600000  1.0 -0.4197991777
O  O71  1  0.63910000  0.79970000  0.66400000  1.0 -0.4124026849
O  O72  1  0.79970000  0.13570000  0.16060000  1.0 -0.4197991777
O  O73  1  0.16620000  0.45980000  0.17580000  1.0 -0.6807612275
O  O74  1  0.99040000  0.16620000  0.70640000  1.0 -0.6807612275
O  O75  1  0.45980000  0.28400000  0.29360000  1.0 -0.6807612275
O  O76  1  0.28400000  0.99040000  0.82420000  1.0 -0.6807612275
O  O77  1  0.83380000  0.54020000  0.82420000  1.0 -0.6807612275
O  O78  1  0.00960000  0.83380000  0.29360000  1.0 -0.6888080576
O  O79  1  0.54020000  0.71600000  0.70640000  1.0 -0.6807612275
O  O80  1  0.71600000  0.00960000  0.17580000  1.0 -0.6807612275
O  O81  1  0.22830000  0.64750000  0.32560000  1.0 -0.5339920694
O  O82  1  0.90270000  0.22830000  0.58080000  1.0 -0.5339920694
O  O83  1  0.64750000  0.32190000  0.41920000  1.0 -0.5339920694
O  O84  1  0.32190000  0.90270000  0.67440000  1.0 -0.5354058518
O  O85  1  0.77170000  0.35250000  0.67440000  1.0 -0.5354058518
O  O86  1  0.09730000  0.77170000  0.41920000  1.0 -0.5339920694
O  O87  1  0.35250000  0.67810000  0.58080000  1.0 -0.5339920694
O  O88  1  0.67810000  0.09730000  0.32560000  1.0 -0.5339920694
O  O89  1  0.68680000  0.35870000  0.27550000  1.0 -0.698491849
O  O90  1  0.41130000  0.68680000  0.32810000  1.0 -0.6888080576
O  O91  1  0.35870000  0.08320000  0.67190000  1.0 -0.6888080576
O  O92  1  0.08320000  0.41130000  0.72450000  1.0 -0.6888080576
O  O93  1  0.31320000  0.64130000  0.72450000  1.0 -0.6888080576
O  O94  1  0.58870000  0.31320000  0.67190000  1.0 -0.6888080576
O  O95  1  0.64130000  0.91680000  0.32810000  1.0 -0.6888080576
O  O96  1  0.91680000  0.58870000  0.27550000  1.0 -0.6888080576
O  O97  1  0.45840000  0.36100000  0.20120000  1.0 -0.638718757
O  O98  1  0.25720000  0.45840000  0.09740000  1.0 -0.638718757
O  O99  1  0.36100000  0.15980000  0.90260000  1.0 -0.638718757
O  O100  1  0.15980000  0.25720000  0.79880000  1.0 -0.6307637539
O  O101  1  0.54160000  0.63900000  0.79880000  1.0 -0.6307637539
O  O102  1  0.74280000  0.54160000  0.90260000  1.0 -0.6476021185
O  O103  1  0.63900000  0.84020000  0.09740000  1.0 -0.638718757
O  O104  1  0.84020000  0.74280000  0.20120000  1.0 -0.638718757
O  O105  1  0.56600000  0.90910000  0.05550000  1.0 -0.6307637539
O  O106  1  0.51050000  0.56600000  0.65690000  1.0 -0.6307637539
O  O107  1  0.90910000  0.85360000  0.34310000  1.0 -0.6307637539
O  O108  1  0.85360000  0.51050000  0.94450000  1.0 -0.6307637539
O  O109  1  0.43400000  0.09090000  0.94450000  1.0 -0.6307637539
O  O110  1  0.48950000  0.43400000  0.34310000  1.0 -0.6307637539
O  O111  1  0.09090000  0.14640000  0.65690000  1.0 -0.6307637539
O  O112  1  0.14640000  0.48950000  0.05550000  1.0 -0.6307637539
O  O113  1  0.09120000  0.64330000  0.35030000  1.0 -0.6888080576
O  O114  1  0.74090000  0.09120000  0.44790000  1.0 -0.6807612275
O  O115  1  0.64330000  0.29300000  0.55210000  1.0 -0.6888080576
O  O116  1  0.29300000  0.74090000  0.64970000  1.0 -0.6888080576
O  O117  1  0.90880000  0.35670000  0.64970000  1.0 -0.6888080576
O  O118  1  0.25910000  0.90880000  0.55210000  1.0 -0.6888080576
O  O119  1  0.35670000  0.70700000  0.44790000  1.0 -0.6888080576
O  O120  1  0.70700000  0.25910000  0.35030000  1.0 -0.6888080576
O  O121  1  0.20340000  0.52630000  0.41650000  1.0 -0.5015248358
O  O122  1  0.78690000  0.20340000  0.67710000  1.0 -0.5015248358
O  O123  1  0.52630000  0.10980000  0.32290000  1.0 -0.5015248358
O  O124  1  0.10980000  0.78690000  0.58350000  1.0 -0.5015248358
O  O125  1  0.79660000  0.47370000  0.58350000  1.0 -0.5015248358
O  O126  1  0.21310000  0.79660000  0.32290000  1.0 -0.5015248358
O  O127  1  0.47370000  0.89020000  0.67710000  1.0 -0.5015248358
O  O128  1  0.89020000  0.21310000  0.41650000  1.0 -0.5015248358
O  O129  1  0.68600000  0.19590000  0.10790000  1.0 -0.5015248358
O  O130  1  0.57810000  0.68600000  0.49010000  1.0 -0.5077351257
O  O131  1  0.19590000  0.08800000  0.50990000  1.0 -0.5015248358
O  O132  1  0.08800000  0.57810000  0.89210000  1.0 -0.5077351257
O  O133  1  0.31400000  0.80410000  0.89210000  1.0 -0.5077351257
O  O134  1  0.42190000  0.31400000  0.50990000  1.0 -0.5077351257
O  O135  1  0.80410000  0.91200000  0.49010000  1.0 -0.5015248358
O  O136  1  0.91200000  0.42190000  0.10790000  1.0 -0.5015248358
O  O137  1  0.12890000  0.46570000  0.27000000  1.0 -0.6702644686
O  O138  1  0.85890000  0.12890000  0.66320000  1.0 -0.6702644686
O  O139  1  0.46570000  0.19570000  0.33680000  1.0 -0.6702644686
O  O140  1  0.19570000  0.85890000  0.73000000  1.0 -0.6702644686
O  O141  1  0.87110000  0.53430000  0.73000000  1.0 -0.6702644686
O  O142  1  0.14110000  0.87110000  0.33680000  1.0 -0.6702644686
O  O143  1  0.53430000  0.80430000  0.66320000  1.0 -0.6702644686
O  O144  1  0.80430000  0.14110000  0.27000000  1.0 -0.6702644686
O  O145  1  0.63100000  0.44450000  0.34270000  1.0 -0.5611618906
O  O146  1  0.28830000  0.63100000  0.18650000  1.0 -0.5671342089
O  O147  1  0.44450000  0.10180000  0.81350000  1.0 -0.5611618906
O  O148  1  0.10180000  0.28830000  0.65730000  1.0 -0.5611618906
O  O149  1  0.36900000  0.55550000  0.65730000  1.0 -0.5611618906
O  O150  1  0.71170000  0.36900000  0.81350000  1.0 -0.5611618906
O  O151  1  0.55550000  0.89820000  0.18650000  1.0 -0.5611618906
O  O152  1  0.89820000  0.71170000  0.34270000  1.0 -0.5611618906
O  O153  1  0.49140000  0.89750000  0.95390000  1.0 -0.6307637539
O  O154  1  0.53750000  0.49140000  0.59390000  1.0 -0.6307637539
O  O155  1  0.89750000  0.94360000  0.40610000  1.0 -0.638718757
O  O156  1  0.94360000  0.53750000  0.04610000  1.0 -0.6307637539
O  O157  1  0.50860000  0.10250000  0.04610000  1.0 -0.638718757
O  O158  1  0.46250000  0.50860000  0.40610000  1.0 -0.638718757
O  O159  1  0.10250000  0.05640000  0.59390000  1.0 -0.6307637539
O  O160  1  0.05640000  0.46250000  0.95390000  1.0 -0.6307637539
O  O161  1  0.09240000  0.50400000  0.18600000  1.0 -0.6702644686
O  O162  1  0.90640000  0.09240000  0.58840000  1.0 -0.6702644686
O  O163  1  0.50400000  0.31800000  0.41160000  1.0 -0.6702644686
O  O164  1  0.31800000  0.90640000  0.81400000  1.0 -0.6702644686
O  O165  1  0.90760000  0.49600000  0.81400000  1.0 -0.6702644686
O  O166  1  0.09360000  0.90760000  0.41160000  1.0 -0.6702644686
O  O167  1  0.49600000  0.68200000  0.58840000  1.0 -0.6702644686
O  O168  1  0.68200000  0.09360000  0.18600000  1.0 -0.6702644686
O  O169  1  0.00100000  0.52160000  0.24720000  1.0 -0.6604257673
O  O170  1  0.75380000  0.00100000  0.47940000  1.0 -0.6604257673
O  O171  1  0.52160000  0.27440000  0.52060000  1.0 -0.6604257673
O  O172  1  0.27440000  0.75380000  0.75280000  1.0 -0.6604257673
O  O173  1  0.99900000  0.47840000  0.75280000  1.0 -0.6604257673
O  O174  1  0.24620000  0.99900000  0.52060000  1.0 -0.6604257673
O  O175  1  0.47840000  0.72560000  0.47940000  1.0 -0.6604257673
O  O176  1  0.72560000  0.24620000  0.24720000  1.0 -0.6604257673
O  O177  1  0.80800000  0.40370000  0.21170000  1.0 -0.5671342089
O  O178  1  0.59630000  0.80800000  0.40430000  1.0 -0.5611618906
O  O179  1  0.40370000  0.19200000  0.59570000  1.0 -0.5671342089
O  O180  1  0.19200000  0.59630000  0.78830000  1.0 -0.5671342089
O  O181  1  0.84040000  0.52490000  0.36530000  1.0 -0.5015248358
O  O182  1  0.47510000  0.84040000  0.31550000  1.0 -0.5015248358
O  O183  1  0.52490000  0.15960000  0.68450000  1.0 -0.5015248358
O  O184  1  0.15960000  0.47510000  0.63470000  1.0 -0.5015248358
O  O185  1  0.44510000  0.89060000  0.04330000  1.0 -0.4791169129
O  O186  1  0.40180000  0.44510000  0.55450000  1.0 -0.4791169129
O  O187  1  0.89060000  0.84730000  0.44550000  1.0 -0.4791169129
O  O188  1  0.84730000  0.40180000  0.95670000  1.0 -0.4791169129
O  O189  1  0.55490000  0.10940000  0.95670000  1.0 -0.4791169129
O  O190  1  0.59820000  0.55490000  0.44550000  1.0 -0.4791169129
O  O191  1  0.10940000  0.15270000  0.55450000  1.0 -0.4791169129
O  O192  1  0.15270000  0.59820000  0.04330000  1.0 -0.4791169129
O  O193  1  0.59810000  0.54350000  0.29520000  1.0 0.2426853777
O  O194  1  0.30290000  0.59810000  0.05460000  1.0 0.2279636458
O  O195  1  0.54350000  0.24830000  0.94540000  1.0 0.2279636458
O  O196  1  0.24830000  0.30290000  0.70480000  1.0 0.2248226032
O  O197  1  0.40190000  0.45650000  0.70480000  1.0 0.2279636458
O  O198  1  0.69710000  0.40190000  0.94540000  1.0 0.2279636458
O  O199  1  0.45650000  0.75170000  0.05460000  1.0 0.2279636458
O  O200  1  0.75170000  0.69710000  0.29520000  1.0 0.2426853777
O  O201  1  0.74560000  0.58440000  0.20940000  1.0 -0.638718757
O  O202  1  0.53620000  0.74560000  0.16120000  1.0 -0.638718757
O  O203  1  0.58440000  0.37500000  0.83880000  1.0 -0.638718757
O  O204  1  0.37500000  0.53620000  0.79060000  1.0 -0.638718757
O  O205  1  0.25440000  0.41560000  0.79060000  1.0 -0.638718757
O  O206  1  0.46380000  0.25440000  0.83880000  1.0 -0.638718757
O  O207  1  0.41560000  0.62500000  0.16120000  1.0 -0.638718757
O  O208  1  0.62500000  0.46380000  0.20940000  1.0 -0.638718757
O  O209  1  0.74470000  0.48690000  0.23160000  1.0 -0.6702644686
O  O210  1  0.51310000  0.74470000  0.25780000  1.0 -0.6702644686
O  O211  1  0.48690000  0.25530000  0.74220000  1.0 -0.6702644686
O  O212  1  0.25530000  0.51310000  0.76840000  1.0 -0.6702644686
O  O213  1  0.66490000  0.46050000  0.12540000  1.0 -0.4197991777
O  O214  1  0.53950000  0.66490000  0.20440000  1.0 -0.4197991777
O  O215  1  0.46050000  0.33510000  0.79560000  1.0 -0.4197991777
O  O216  1  0.33510000  0.53950000  0.87460000  1.0 -0.4197991777
