# DDEC6 charges by PACMAN v1.1 (https://github.com/mtap-research/PACMAN-charge/)
data_KITVEQ_FSR_pacman
_symmetry_space_group_name_H-M   'P 1'
_cell_length_a   15.72500000
_cell_length_b   15.74900000
_cell_length_c   16.42500000
_cell_angle_alpha   90.00000000
_cell_angle_beta   90.00000000
_cell_angle_gamma   90.00000000
_symmetry_Int_Tables_number   1
_chemical_formula_structural   ZnH26C41N2O5
_chemical_formula_sum   'Zn4 H104 C164 N8 O20'
_cell_volume   4067.70093563
_cell_formula_units_Z   4
loop_
 _symmetry_equiv_pos_site_id
 _symmetry_equiv_pos_as_xyz
  1  'x, y, z'
loop_
 _atom_site_type_symbol
 _atom_site_label
 _atom_site_symmetry_multiplicity
 _atom_site_fract_x
 _atom_site_fract_y
 _atom_site_fract_z
 _atom_site_occupancy
 _atom_site_charge
Zn  Zn1  1  0.13500000  0.37410000  0.03660000  1.0 0.8026239252
Zn  Zn2  1  0.13500000  0.62590000  0.96340000  1.0 0.8026239252
Zn  Zn3  1  0.13500000  0.12590000  0.53660000  1.0 0.8026239252
Zn  Zn4  1  0.13500000  0.87410000  0.46340000  1.0 0.8026239252
H  H1  1  0.29580000  0.36660000  0.92460000  1.0 0.1195864212
H  H2  1  0.29580000  0.63340000  0.07540000  1.0 0.1195864212
H  H3  1  0.29580000  0.13340000  0.42460000  1.0 0.1195864212
H  H4  1  0.29580000  0.86660000  0.57540000  1.0 0.1195864212
H  H5  1  0.17860000  0.55530000  0.75560000  1.0 0.1319366771
H  H6  1  0.17860000  0.44470000  0.24440000  1.0 0.1319366771
H  H7  1  0.17860000  0.94470000  0.25560000  1.0 0.1319366771
H  H8  1  0.17860000  0.05530000  0.74440000  1.0 0.1319366771
H  H9  1  0.43460000  0.35220000  0.92440000  1.0 0.1195864212
H  H10  1  0.43460000  0.64780000  0.07560000  1.0 0.1195864212
H  H11  1  0.43460000  0.14780000  0.42440000  1.0 0.1195864212
H  H12  1  0.43460000  0.85220000  0.57560000  1.0 0.1195864212
H  H13  1  0.85160000  0.43210000  0.15720000  1.0 0.1415588608
H  H14  1  0.85160000  0.56790000  0.84280000  1.0 0.1415588608
H  H15  1  0.85160000  0.06790000  0.65720000  1.0 0.1415588608
H  H16  1  0.85160000  0.93210000  0.34280000  1.0 0.1415588608
H  H17  1  0.14820000  0.41780000  0.55890000  1.0 0.1456583119
H  H18  1  0.14820000  0.58220000  0.44110000  1.0 0.1456583119
H  H19  1  0.14820000  0.08220000  0.05890000  1.0 0.1456583119
H  H20  1  0.14820000  0.91780000  0.94110000  1.0 0.1456583119
H  H21  1  0.12300000  0.30580000  0.77410000  1.0 0.1195864212
H  H22  1  0.12300000  0.69420000  0.22590000  1.0 0.1195864212
H  H23  1  0.12300000  0.19420000  0.27410000  1.0 0.1195864212
H  H24  1  0.12300000  0.80580000  0.72590000  1.0 0.1195864212
H  H25  1  0.28680000  0.40080000  0.15950000  1.0 0.1110158481
H  H26  1  0.28680000  0.59920000  0.84050000  1.0 0.1110158481
H  H27  1  0.28680000  0.09920000  0.65950000  1.0 0.1110158481
H  H28  1  0.28680000  0.90080000  0.34050000  1.0 0.1110158481
H  H29  1  0.98670000  0.42930000  0.14990000  1.0 0.1319366771
H  H30  1  0.98670000  0.57070000  0.85010000  1.0 0.1319366771
H  H31  1  0.98670000  0.07070000  0.64990000  1.0 0.1319366771
H  H32  1  0.98670000  0.92930000  0.35010000  1.0 0.1319366771
H  H33  1  0.85020000  0.35420000  0.94530000  1.0 0.1319366771
H  H34  1  0.85020000  0.64580000  0.05470000  1.0 0.1319366771
H  H35  1  0.85020000  0.14580000  0.44530000  1.0 0.1319366771
H  H36  1  0.85020000  0.85420000  0.55470000  1.0 0.1319366771
H  H37  1  0.43610000  0.40310000  0.16250000  1.0 0.1319366771
H  H38  1  0.43610000  0.59690000  0.83750000  1.0 0.1319366771
H  H39  1  0.43610000  0.09690000  0.66250000  1.0 0.1319366771
H  H40  1  0.43610000  0.90310000  0.33750000  1.0 0.1319366771
H  H41  1  0.26700000  0.78910000  0.71810000  1.0 0.1110158481
H  H42  1  0.26700000  0.21090000  0.28190000  1.0 0.1110158481
H  H43  1  0.26700000  0.71090000  0.21810000  1.0 0.1110158481
H  H44  1  0.26700000  0.28910000  0.78190000  1.0 0.1110158481
H  H45  1  0.35060000  0.90370000  0.76670000  1.0 0.1008777418
H  H46  1  0.35060000  0.09630000  0.23330000  1.0 0.1008777418
H  H47  1  0.35060000  0.59630000  0.26670000  1.0 0.1008777418
H  H48  1  0.35060000  0.40370000  0.73330000  1.0 0.1008777418
H  H49  1  0.17330000  0.65840000  0.68510000  1.0 0.1110158481
H  H50  1  0.17330000  0.34160000  0.31490000  1.0 0.1110158481
H  H51  1  0.17330000  0.84160000  0.18510000  1.0 0.1110158481
H  H52  1  0.17330000  0.15840000  0.81490000  1.0 0.1110158481
H  H53  1  0.18280000  0.69540000  0.59670000  1.0 0.1319366771
H  H54  1  0.18280000  0.30460000  0.40330000  1.0 0.1319366771
H  H55  1  0.18280000  0.80460000  0.09670000  1.0 0.1319366771
H  H56  1  0.18280000  0.19540000  0.90330000  1.0 0.1319366771
H  H57  1  0.45940000  0.53950000  0.58240000  1.0 0.1319366771
H  H58  1  0.45940000  0.46050000  0.41760000  1.0 0.1319366771
H  H59  1  0.45940000  0.96050000  0.08240000  1.0 0.1319366771
H  H60  1  0.45940000  0.03950000  0.91760000  1.0 0.1319366771
H  H61  1  0.32760000  0.51710000  0.58140000  1.0 0.1415588608
H  H62  1  0.32760000  0.48290000  0.41860000  1.0 0.1415588608
H  H63  1  0.32760000  0.98290000  0.08140000  1.0 0.1415588608
H  H64  1  0.32760000  0.01710000  0.91860000  1.0 0.1415588608
H  H65  1  0.67320000  0.68070000  0.66420000  1.0 0.1195864212
H  H66  1  0.67320000  0.31930000  0.33580000  1.0 0.1195864212
H  H67  1  0.67320000  0.81930000  0.16420000  1.0 0.1195864212
H  H68  1  0.67320000  0.18070000  0.83580000  1.0 0.1195864212
H  H69  1  0.67590000  0.85310000  0.71950000  1.0 0.1008777418
H  H70  1  0.67590000  0.14690000  0.28050000  1.0 0.1008777418
H  H71  1  0.67590000  0.64690000  0.21950000  1.0 0.1008777418
H  H72  1  0.67590000  0.35310000  0.78050000  1.0 0.1008777418
H  H73  1  0.44740000  0.94950000  0.81820000  1.0 0.0876083127
H  H74  1  0.44740000  0.05050000  0.18180000  1.0 0.0876083127
H  H75  1  0.44740000  0.55050000  0.31820000  1.0 0.0876083127
H  H76  1  0.44740000  0.44950000  0.68180000  1.0 0.0876083127
H  H77  1  0.59900000  0.55600000  0.61450000  1.0 0.1195864212
H  H78  1  0.59900000  0.44400000  0.38550000  1.0 0.1195864212
H  H79  1  0.59900000  0.94400000  0.11450000  1.0 0.1195864212
H  H80  1  0.59900000  0.05600000  0.88550000  1.0 0.1195864212
H  H81  1  0.59840000  0.96110000  0.77550000  1.0 0.1110158481
H  H82  1  0.59840000  0.03890000  0.22450000  1.0 0.1110158481
H  H83  1  0.59840000  0.53890000  0.27550000  1.0 0.1110158481
H  H84  1  0.59840000  0.46110000  0.72450000  1.0 0.1110158481
H  H85  1  0.55630000  0.32880000  0.94790000  1.0 0.1195864212
H  H86  1  0.55630000  0.67120000  0.05210000  1.0 0.1195864212
H  H87  1  0.55630000  0.17120000  0.44790000  1.0 0.1195864212
H  H88  1  0.55630000  0.82880000  0.55210000  1.0 0.1195864212
H  H89  1  0.71820000  0.44670000  0.15030000  1.0 0.1195864212
H  H90  1  0.71820000  0.55330000  0.84970000  1.0 0.1195864212
H  H91  1  0.71820000  0.05330000  0.65030000  1.0 0.1195864212
H  H92  1  0.71820000  0.94670000  0.34970000  1.0 0.1195864212
H  H93  1  0.70310000  0.32590000  0.94220000  1.0 0.1110158481
H  H94  1  0.70310000  0.67410000  0.05780000  1.0 0.1110158481
H  H95  1  0.70310000  0.17410000  0.44220000  1.0 0.1110158481
H  H96  1  0.70310000  0.82590000  0.55780000  1.0 0.1110158481
H  H97  1  0.57060000  0.43390000  0.15910000  1.0 0.1110158481
H  H98  1  0.57060000  0.56610000  0.84090000  1.0 0.1110158481
H  H99  1  0.57060000  0.06610000  0.65910000  1.0 0.1110158481
H  H100  1  0.57060000  0.93390000  0.34090000  1.0 0.1110158481
H  H101  1  0.99000000  0.31210000  0.94600000  1.0 0.1319366771
H  H102  1  0.99000000  0.68790000  0.05400000  1.0 0.1319366771
H  H103  1  0.99000000  0.18790000  0.44600000  1.0 0.1319366771
H  H104  1  0.99000000  0.81210000  0.55400000  1.0 0.1319366771
C  C1  1  0.13100000  0.43500000  0.78100000  1.0 -0.0140401847
C  C2  1  0.13100000  0.56500000  0.21900000  1.0 -0.0140401847
C  C3  1  0.13100000  0.06500000  0.28100000  1.0 -0.0140401847
C  C4  1  0.13100000  0.93500000  0.71900000  1.0 -0.0140401847
C  C5  1  0.13700000  0.44100000  0.87300000  1.0 0.5583024001
C  C6  1  0.13700000  0.55900000  0.12700000  1.0 0.5583024001
C  C7  1  0.13700000  0.05900000  0.37300000  1.0 0.5583024001
C  C8  1  0.13700000  0.94100000  0.62700000  1.0 0.5583024001
C  C9  1  0.81800000  0.39000000  0.05000000  1.0 0.0613387567
C  C10  1  0.81800000  0.61000000  0.95000000  1.0 0.0613387567
C  C11  1  0.81800000  0.11000000  0.55000000  1.0 0.0613387567
C  C12  1  0.81800000  0.89000000  0.45000000  1.0 0.0613387567
C  C13  1  0.32300000  0.36900000  0.97500000  1.0 0.0792391565
C  C14  1  0.32300000  0.63100000  0.02500000  1.0 0.0792391565
C  C15  1  0.32300000  0.13100000  0.47500000  1.0 0.0792391565
C  C16  1  0.32300000  0.86900000  0.52500000  1.0 0.0792391565
C  C17  1  0.15000000  0.50800000  0.73600000  1.0 -0.2194032134
C  C18  1  0.15000000  0.49200000  0.26400000  1.0 -0.2194032134
C  C19  1  0.15000000  0.99200000  0.23600000  1.0 -0.2194032134
C  C20  1  0.15000000  0.00800000  0.76400000  1.0 -0.2194032134
C  C21  1  0.40700000  0.36500000  0.97300000  1.0 -0.1820739978
C  C22  1  0.40700000  0.63500000  0.02700000  1.0 -0.1820739978
C  C23  1  0.40700000  0.13500000  0.47300000  1.0 -0.1820739978
C  C24  1  0.40700000  0.86500000  0.52700000  1.0 -0.1820739978
C  C25  1  0.12300000  0.26500000  0.61900000  1.0 0.5534547544
C  C26  1  0.12300000  0.73500000  0.38100000  1.0 0.5534547544
C  C27  1  0.12300000  0.23500000  0.11900000  1.0 0.5534547544
C  C28  1  0.12300000  0.76500000  0.88100000  1.0 0.5534547544
C  C29  1  0.12100000  0.35000000  0.66000000  1.0 0.00143236
C  C30  1  0.12100000  0.65000000  0.34000000  1.0 0.00143236
C  C31  1  0.12100000  0.15000000  0.16000000  1.0 0.00143236
C  C32  1  0.12100000  0.85000000  0.84000000  1.0 0.00143236
C  C33  1  0.11600000  0.50000000  0.65000000  1.0 0.2660746178
C  C34  1  0.11600000  0.50000000  0.35000000  1.0 0.2660746178
C  C35  1  0.11600000  0.00000000  0.15000000  1.0 0.2660746178
C  C36  1  0.11600000  0.00000000  0.85000000  1.0 0.2660746178
C  C37  1  0.87500000  0.41300000  0.10900000  1.0 -0.1900255022
C  C38  1  0.87500000  0.58700000  0.89100000  1.0 -0.1900255022
C  C39  1  0.87500000  0.08700000  0.60900000  1.0 -0.2025626266
C  C40  1  0.87500000  0.91300000  0.39100000  1.0 -0.1900255022
C  C41  1  0.72600000  0.38900000  0.04800000  1.0 0.0792391565
C  C42  1  0.72600000  0.61100000  0.95200000  1.0 0.0792391565
C  C43  1  0.72600000  0.11100000  0.54800000  1.0 0.0792391565
C  C44  1  0.72600000  0.88900000  0.45200000  1.0 0.0792391565
C  C45  1  0.13200000  0.42200000  0.61300000  1.0 -0.2025626266
C  C46  1  0.13200000  0.57800000  0.38700000  1.0 -0.2025626266
C  C47  1  0.13200000  0.07800000  0.11300000  1.0 -0.2025626266
C  C48  1  0.13200000  0.92200000  0.88700000  1.0 -0.2025626266
C  C49  1  0.12500000  0.35500000  0.74300000  1.0 -0.1498535597
C  C50  1  0.12500000  0.64500000  0.25700000  1.0 -0.1498535597
C  C51  1  0.12500000  0.14500000  0.24300000  1.0 -0.1498535597
C  C52  1  0.12500000  0.85500000  0.75700000  1.0 -0.1498535597
C  C53  1  0.31700000  0.39200000  0.11100000  1.0 0.0714390683
C  C54  1  0.31700000  0.60800000  0.88900000  1.0 0.0714390683
C  C55  1  0.31700000  0.10800000  0.61100000  1.0 0.0714390683
C  C56  1  0.31700000  0.89200000  0.38900000  1.0 0.0714390683
C  C57  1  0.95600000  0.41000000  0.10500000  1.0 0.0411582566
C  C58  1  0.95600000  0.59000000  0.89500000  1.0 0.0411582566
C  C59  1  0.95600000  0.09000000  0.60500000  1.0 0.0411582566
C  C60  1  0.95600000  0.91000000  0.39500000  1.0 0.0411582566
C  C61  1  0.87700000  0.36400000  0.99500000  1.0 -0.1820739978
C  C62  1  0.87700000  0.63600000  0.00500000  1.0 -0.1820739978
C  C63  1  0.87700000  0.13600000  0.49500000  1.0 -0.1820739978
C  C64  1  0.87700000  0.86400000  0.50500000  1.0 -0.1820739978
C  C65  1  0.40800000  0.39400000  0.11400000  1.0 -0.1820739978
C  C66  1  0.40800000  0.60600000  0.88600000  1.0 -0.1820739978
C  C67  1  0.40800000  0.10600000  0.61400000  1.0 -0.1820739978
C  C68  1  0.40800000  0.89400000  0.38600000  1.0 -0.1820739978
C  C69  1  0.45400000  0.38100000  0.04400000  1.0 0.1110158481
C  C70  1  0.45400000  0.61900000  0.95600000  1.0 0.1110158481
C  C71  1  0.45400000  0.11900000  0.54400000  1.0 0.1110158481
C  C72  1  0.45400000  0.88100000  0.45600000  1.0 0.1110158481
C  C73  1  0.43200000  0.69600000  0.69000000  1.0 -0.039250637
C  C74  1  0.43200000  0.30400000  0.31000000  1.0 -0.039250637
C  C75  1  0.43200000  0.80400000  0.19000000  1.0 -0.039250637
C  C76  1  0.43200000  0.19600000  0.81000000  1.0 -0.039250637
C  C77  1  0.34300000  0.69000000  0.69600000  1.0 0.0199018941
C  C78  1  0.34300000  0.31000000  0.30400000  1.0 0.0199018941
C  C79  1  0.34300000  0.81000000  0.19600000  1.0 0.0199018941
C  C80  1  0.34300000  0.19000000  0.80400000  1.0 0.0199018941
C  C81  1  0.32500000  0.77800000  0.71900000  1.0 -0.1712174711
C  C82  1  0.32500000  0.22200000  0.28100000  1.0 -0.1712174711
C  C83  1  0.32500000  0.72200000  0.21900000  1.0 -0.1712174711
C  C84  1  0.32500000  0.27800000  0.78100000  1.0 -0.1712174711
C  C85  1  0.49100000  0.63200000  0.64400000  1.0 0.052986817
C  C86  1  0.49100000  0.36800000  0.35600000  1.0 0.052986817
C  C87  1  0.49100000  0.86800000  0.14400000  1.0 0.052986817
C  C88  1  0.49100000  0.13200000  0.85600000  1.0 0.052986817
C  C89  1  0.37600000  0.85600000  0.74300000  1.0 -0.132692389
C  C90  1  0.37600000  0.14400000  0.25700000  1.0 -0.1352815056
C  C91  1  0.37600000  0.64400000  0.24300000  1.0 -0.1352815056
C  C92  1  0.37600000  0.35600000  0.75700000  1.0 -0.132692389
C  C93  1  0.46800000  0.85200000  0.72700000  1.0 0.0714390683
C  C94  1  0.46800000  0.14800000  0.27300000  1.0 0.0714390683
C  C95  1  0.46800000  0.64800000  0.22700000  1.0 0.0714390683
C  C96  1  0.46800000  0.35200000  0.77300000  1.0 0.0714390683
C  C97  1  0.30400000  0.64400000  0.64100000  1.0 0.0271772621
C  C98  1  0.30400000  0.35600000  0.35900000  1.0 0.0271772621
C  C99  1  0.30400000  0.85600000  0.14100000  1.0 0.0271772621
C  C100  1  0.30400000  0.14400000  0.85900000  1.0 0.0271772621
C  C101  1  0.19800000  0.64800000  0.63200000  1.0 -0.0770925158
C  C102  1  0.19800000  0.35200000  0.36800000  1.0 -0.0770925158
C  C103  1  0.19800000  0.85200000  0.13200000  1.0 -0.0770925158
C  C104  1  0.19800000  0.14800000  0.86800000  1.0 -0.0770925158
C  C105  1  0.43100000  0.58100000  0.61200000  1.0 -0.1712174711
C  C106  1  0.43100000  0.41900000  0.38800000  1.0 -0.1712174711
C  C107  1  0.43100000  0.91900000  0.11200000  1.0 -0.1712174711
C  C108  1  0.43100000  0.08100000  0.88800000  1.0 -0.1712174711
C  C109  1  0.35200000  0.56500000  0.60400000  1.0 -0.1110067457
C  C110  1  0.35200000  0.43500000  0.39600000  1.0 -0.1110067457
C  C111  1  0.35200000  0.93500000  0.10400000  1.0 -0.1110067457
C  C112  1  0.35200000  0.06500000  0.89600000  1.0 -0.1110067457
C  C113  1  0.49400000  0.76100000  0.71400000  1.0 0.0199018941
C  C114  1  0.49400000  0.23900000  0.28600000  1.0 0.0199018941
C  C115  1  0.49400000  0.73900000  0.21400000  1.0 0.0199018941
C  C116  1  0.49400000  0.26100000  0.78600000  1.0 0.0199018941
C  C117  1  0.61500000  0.67900000  0.67400000  1.0 -0.2065877938
C  C118  1  0.61500000  0.32100000  0.32600000  1.0 -0.2065877938
C  C119  1  0.61500000  0.82100000  0.17400000  1.0 -0.2065877938
C  C120  1  0.61500000  0.17900000  0.82600000  1.0 -0.2065877938
C  C121  1  0.62000000  0.84200000  0.73400000  1.0 -0.1900255022
C  C122  1  0.62000000  0.15800000  0.26600000  1.0 -0.1900255022
C  C123  1  0.62000000  0.65800000  0.23400000  1.0 -0.1900255022
C  C124  1  0.62000000  0.34200000  0.76600000  1.0 -0.1900255022
C  C125  1  0.48000000  0.92000000  0.78400000  1.0 -0.1613610559
C  C126  1  0.48000000  0.08000000  0.21600000  1.0 -0.1613610559
C  C127  1  0.48000000  0.58000000  0.28400000  1.0 -0.1712174711
C  C128  1  0.48000000  0.42000000  0.71600000  1.0 -0.1613610559
C  C129  1  0.57600000  0.60500000  0.63600000  1.0 -0.1712174711
C  C130  1  0.57600000  0.39500000  0.36400000  1.0 -0.1712174711
C  C131  1  0.57600000  0.89500000  0.13600000  1.0 -0.1712174711
C  C132  1  0.57600000  0.10500000  0.86400000  1.0 -0.1712174711
C  C133  1  0.59000000  0.75400000  0.72300000  1.0 0.0792391565
C  C134  1  0.59000000  0.24600000  0.27700000  1.0 0.0792391565
C  C135  1  0.59000000  0.74600000  0.22300000  1.0 0.0792391565
C  C136  1  0.59000000  0.25400000  0.77700000  1.0 0.0792391565
C  C137  1  0.56800000  0.91100000  0.76600000  1.0 -0.1110067457
C  C138  1  0.56800000  0.08900000  0.23400000  1.0 -0.1110067457
C  C139  1  0.56800000  0.58900000  0.26600000  1.0 -0.1110067457
C  C140  1  0.56800000  0.41100000  0.73400000  1.0 -0.1110067457
C  C141  1  0.58600000  0.35000000  0.99200000  1.0 -0.1004741875
C  C142  1  0.58600000  0.65000000  0.00800000  1.0 -0.1004741875
C  C143  1  0.58600000  0.15000000  0.49200000  1.0 -0.1004741875
C  C144  1  0.58600000  0.85000000  0.50800000  1.0 -0.1004741875
C  C145  1  0.68800000  0.42000000  0.10900000  1.0 -0.132692389
C  C146  1  0.68800000  0.58000000  0.89100000  1.0 -0.132692389
C  C147  1  0.68800000  0.08000000  0.60900000  1.0 -0.132692389
C  C148  1  0.68800000  0.92000000  0.39100000  1.0 -0.132692389
C  C149  1  0.67700000  0.35100000  0.98700000  1.0 -0.1712174711
C  C150  1  0.67700000  0.64900000  0.01300000  1.0 -0.1712174711
C  C151  1  0.67700000  0.14900000  0.48700000  1.0 -0.1712174711
C  C152  1  0.67700000  0.85100000  0.51300000  1.0 -0.1712174711
C  C153  1  0.59800000  0.41300000  0.11300000  1.0 -0.1613610559
C  C154  1  0.59800000  0.58700000  0.88700000  1.0 -0.1613610559
C  C155  1  0.59800000  0.08700000  0.61300000  1.0 -0.1613610559
C  C156  1  0.59800000  0.91300000  0.38700000  1.0 -0.1613610559
C  C157  1  0.54500000  0.37400000  0.04700000  1.0 0.0714390683
C  C158  1  0.54500000  0.62600000  0.95300000  1.0 0.0714390683
C  C159  1  0.54500000  0.12600000  0.54700000  1.0 0.0714390683
C  C160  1  0.54500000  0.87400000  0.45300000  1.0 0.0714390683
C  C161  1  0.96400000  0.34500000  0.98600000  1.0 0.0792391565
C  C162  1  0.96400000  0.65500000  0.01400000  1.0 0.0792391565
C  C163  1  0.96400000  0.15500000  0.48600000  1.0 0.0792391565
C  C164  1  0.96400000  0.84500000  0.51400000  1.0 0.0792391565
N  N1  1  0.27100000  0.37700000  0.04000000  1.0 -0.2410167107
N  N2  1  0.27100000  0.62300000  0.96000000  1.0 -0.2410167107
N  N3  1  0.27100000  0.12300000  0.54000000  1.0 -0.2410167107
N  N4  1  0.27100000  0.87700000  0.46000000  1.0 -0.2410167107
N  N5  1  0.99600000  0.38400000  0.04400000  1.0 -0.1110067457
N  N6  1  0.99600000  0.61600000  0.95600000  1.0 -0.1004741875
N  N7  1  0.99600000  0.11600000  0.54400000  1.0 -0.1004741875
N  N8  1  0.99600000  0.88400000  0.45600000  1.0 -0.1004741875
O  O1  1  0.14200000  0.37400000  0.91310000  1.0 -0.5312115574
O  O2  1  0.14200000  0.62600000  0.08690000  1.0 -0.5312115574
O  O3  1  0.14200000  0.12600000  0.41310000  1.0 -0.5312115574
O  O4  1  0.14200000  0.87400000  0.58690000  1.0 -0.5312115574
O  O5  1  0.13600000  0.26000000  0.54200000  1.0 -0.53720999
O  O6  1  0.13600000  0.74000000  0.45800000  1.0 -0.53720999
O  O7  1  0.13600000  0.24000000  0.04200000  1.0 -0.53720999
O  O8  1  0.13600000  0.76000000  0.95800000  1.0 -0.53720999
O  O9  1  0.14400000  0.19800000  0.66300000  1.0 -0.590957942
O  O10  1  0.14400000  0.80200000  0.33700000  1.0 -0.590957942
O  O11  1  0.14400000  0.30200000  0.16300000  1.0 -0.590957942
O  O12  1  0.14400000  0.69800000  0.83700000  1.0 -0.590957942
O  O13  1  0.13700000  0.51200000  0.90300000  1.0 -0.5312115574
O  O14  1  0.13700000  0.48800000  0.09700000  1.0 -0.5312115574
O  O15  1  0.13700000  0.98800000  0.40300000  1.0 -0.5312115574
O  O16  1  0.13700000  0.01200000  0.59700000  1.0 -0.5312115574
O  O17  1  0.16600000  0.57000000  0.59900000  1.0 -0.2194032134
O  O18  1  0.16600000  0.43000000  0.40100000  1.0 -0.2194032134
O  O19  1  0.16600000  0.93000000  0.09900000  1.0 -0.2194032134
O  O20  1  0.16600000  0.07000000  0.90100000  1.0 -0.2194032134
