# DDEC6 charges by PACMAN v1.1 (https://github.com/mtap-research/PACMAN-charge/)
data_KIVFAY_ASR_pacman
_symmetry_space_group_name_H-M   'P 1'
_cell_length_a   10.81900000
_cell_length_b   16.73000000
_cell_length_c   17.37000000
_cell_angle_alpha   114.65000000
_cell_angle_beta   93.04000000
_cell_angle_gamma   99.62000000
_symmetry_Int_Tables_number   1
_chemical_formula_structural   KCe3H10(C6O5)5
_chemical_formula_sum   'K2 Ce6 H20 C60 O50'
_cell_volume   2790.76457209
_cell_formula_units_Z   2
loop_
 _symmetry_equiv_pos_site_id
 _symmetry_equiv_pos_as_xyz
  1  'x, y, z'
loop_
 _atom_site_type_symbol
 _atom_site_label
 _atom_site_symmetry_multiplicity
 _atom_site_fract_x
 _atom_site_fract_y
 _atom_site_fract_z
 _atom_site_occupancy
 _atom_site_charge
K  K1  1  0.73215000  0.25778000  0.02000000  1.0 0.8699613536
K  K2  1  0.26785000  0.74222000  0.98000000  1.0 0.8699613536
Ce  Ce1  1  0.08282000  0.14097000  0.01280000  1.0 2.0324802721
Ce  Ce2  1  0.91718000  0.85903000  0.98720000  1.0 2.035374912
Ce  Ce3  1  0.37144000  0.34357000  0.99600000  1.0 2.0129713142
Ce  Ce4  1  0.62856000  0.65643000  0.00400000  1.0 2.0129713142
Ce  Ce5  1  0.43799000  0.86573000  0.40561000  1.0 1.9280568683
Ce  Ce6  1  0.56201000  0.13427000  0.59439000  1.0 1.9280568683
H  H1  1  0.11850000  0.97650000  0.79540000  1.0 0.1426792973
H  H2  1  0.88150000  0.02350000  0.20460000  1.0 0.1426792973
H  H3  1  0.05700000  0.43980000  0.87030000  1.0 0.1426792973
H  H4  1  0.94300000  0.56020000  0.12970000  1.0 0.1426792973
H  H5  1  0.86120000  0.50510000  0.87730000  1.0 0.1339994097
H  H6  1  0.13880000  0.49490000  0.12270000  1.0 0.1339994097
H  H7  1  0.39410000  0.05430000  0.13900000  1.0 0.1426792973
H  H8  1  0.60590000  0.94570000  0.86100000  1.0 0.1426792973
H  H9  1  0.13140000  0.86890000  0.64500000  1.0 0.1467237962
H  H10  1  0.86860000  0.13110000  0.35500000  1.0 0.1467237962
H  H11  1  0.80830000  0.78010000  0.72260000  1.0 0.1467237962
H  H12  1  0.19170000  0.21990000  0.27740000  1.0 0.1467237962
H  H13  1  0.58940000  0.98510000  0.12720000  1.0 0.1426792973
H  H14  1  0.41060000  0.01490000  0.87280000  1.0 0.1426792973
H  H15  1  0.18250000  0.58760000  0.40080000  1.0 0.1467237962
H  H16  1  0.81750000  0.41240000  0.59920000  1.0 0.1467237962
H  H17  1  0.66160000  0.76550000  0.59650000  1.0 0.1467237962
H  H18  1  0.33840000  0.23450000  0.40350000  1.0 0.1467237962
H  H19  1  0.06050000  0.42980000  0.31230000  1.0 0.1426792973
H  H20  1  0.93950000  0.57020000  0.68770000  1.0 0.1426792973
C  C1  1  0.41430000  0.18930000  0.07240000  1.0 0.5951040709
C  C2  1  0.58570000  0.81070000  0.92760000  1.0 0.5951040709
C  C3  1  0.49310000  0.13340000  0.09030000  1.0 0.0795553956
C  C4  1  0.50690000  0.86660000  0.90970000  1.0 0.0795553956
C  C5  1  0.26070000  0.97230000  0.64250000  1.0 0.0795553956
C  C6  1  0.73930000  0.02770000  0.35750000  1.0 0.0795553956
C  C7  1  0.19280000  0.42080000  0.23320000  1.0 0.0516636973
C  C8  1  0.80720000  0.57920000  0.76680000  1.0 0.0516636973
C  C9  1  0.66340000  0.43050000  0.95090000  1.0 0.607663008
C  C10  1  0.33660000  0.56950000  0.04910000  1.0 0.607663008
C  C11  1  0.24940000  0.06540000  0.77390000  1.0 0.0795553956
C  C12  1  0.75060000  0.93460000  0.22610000  1.0 0.0795553956
C  C13  1  0.78830000  0.06140000  0.05410000  1.0 0.5899588549
C  C14  1  0.21170000  0.93860000  0.94590000  1.0 0.5899588549
C  C15  1  0.96240000  0.36350000  0.92340000  1.0 0.0608828911
C  C16  1  0.03760000  0.63650000  0.07660000  1.0 0.0608828911
C  C17  1  0.66230000  0.07350000  0.08050000  1.0 0.0707909601
C  C18  1  0.33770000  0.92650000  0.91950000  1.0 0.0707909601
C  C19  1  0.04210000  0.30870000  0.94170000  1.0 0.5899588549
C  C20  1  0.95790000  0.69130000  0.05830000  1.0 0.5951040709
C  C21  1  0.16270000  0.33590000  0.15450000  1.0 0.5618654961
C  C22  1  0.83730000  0.66410000  0.84550000  1.0 0.5618654961
C  C23  1  0.79020000  0.42000000  0.92890000  1.0 0.0608828911
C  C24  1  0.20980000  0.58000000  0.07110000  1.0 0.0608828911
C  C25  1  0.16900000  0.98800000  0.75790000  1.0 -0.1697670983
C  C26  1  0.83100000  0.01200000  0.24210000  1.0 -0.1697670983
C  C27  1  0.28530000  0.15220000  0.85130000  1.0 0.5714755678
C  C28  1  0.71470000  0.84780000  0.14870000  1.0 0.5714755678
C  C29  1  0.98370000  0.42460000  0.89110000  1.0 -0.1594824213
C  C30  1  0.01630000  0.57540000  0.10890000  1.0 -0.1594824213
C  C31  1  0.89880000  0.96670000  0.84810000  1.0 0.5714755678
C  C32  1  0.10120000  0.03330000  0.15190000  1.0 0.5714755678
C  C33  1  0.87350000  0.46130000  0.89490000  1.0 -0.1697670983
C  C34  1  0.12650000  0.53870000  0.10510000  1.0 -0.1697670983
C  C35  1  0.61950000  0.93830000  0.60620000  1.0 0.5899588549
C  C36  1  0.38050000  0.06170000  0.39380000  1.0 0.5899588549
C  C37  1  0.46800000  0.07000000  0.11890000  1.0 -0.1594824213
C  C38  1  0.53200000  0.93000000  0.88110000  1.0 -0.1697670983
C  C39  1  0.69210000  0.90230000  0.65630000  1.0 0.0962088281
C  C40  1  0.30790000  0.09770000  0.34370000  1.0 0.0962088281
C  C41  1  0.81660000  0.91530000  0.76520000  1.0 0.0707909601
C  C42  1  0.18340000  0.08470000  0.23480000  1.0 0.0707909601
C  C43  1  0.17620000  0.92800000  0.67400000  1.0 -0.1594824213
C  C44  1  0.82380000  0.07200000  0.32600000  1.0 -0.1594824213
C  C45  1  0.30950000  0.94480000  0.56030000  1.0 0.5618654961
C  C46  1  0.69050000  0.05520000  0.43970000  1.0 0.5618654961
C  C47  1  0.78320000  0.82650000  0.71370000  1.0 -0.1697670983
C  C48  1  0.21680000  0.17350000  0.28630000  1.0 -0.1697670983
C  C49  1  0.57840000  0.03100000  0.11230000  1.0 -0.1697670983
C  C50  1  0.42160000  0.96900000  0.88770000  1.0 -0.1697670983
C  C51  1  0.20230000  0.54600000  0.35000000  1.0 -0.1783000281
C  C52  1  0.79770000  0.45400000  0.65000000  1.0 -0.1783000281
C  C53  1  0.30020000  0.55860000  0.31070000  1.0 0.0795553956
C  C54  1  0.69980000  0.44140000  0.68930000  1.0 0.0795553956
C  C55  1  0.70130000  0.81860000  0.64310000  1.0 -0.187233833
C  C56  1  0.29870000  0.18140000  0.35690000  1.0 -0.187233833
C  C57  1  0.13380000  0.45750000  0.30030000  1.0 -0.1783000281
C  C58  1  0.86620000  0.54250000  0.69970000  1.0 -0.1783000281
C  C59  1  0.40660000  0.63480000  0.32900000  1.0 0.5377450312
C  C60  1  0.59340000  0.36520000  0.67100000  1.0 0.5377450312
O  O1  1  0.81760000  0.99050000  0.04920000  1.0 -0.6119688129
O  O2  1  0.18240000  0.00950000  0.95080000  1.0 -0.6119688129
O  O3  1  0.46290000  0.23980000  0.03940000  1.0 -0.6673660254
O  O4  1  0.53710000  0.76020000  0.96060000  1.0 -0.6673660254
O  O5  1  0.30300000  0.17930000  0.08980000  1.0 -0.6024553901
O  O6  1  0.69700000  0.82070000  0.91020000  1.0 -0.6024553901
O  O7  1  0.92940000  0.92280000  0.88610000  1.0 -0.6314206248
O  O8  1  0.07060000  0.07720000  0.11390000  1.0 -0.6314206248
O  O9  1  0.99360000  0.25130000  0.96680000  1.0 -0.6395289054
O  O10  1  0.00640000  0.74870000  0.03320000  1.0 -0.6395289054
O  O11  1  0.61190000  0.13760000  0.06680000  1.0 -0.1697670983
O  O12  1  0.38810000  0.86240000  0.93320000  1.0 -0.1697670983
O  O13  1  0.84110000  0.35870000  0.94650000  1.0 -0.1594824213
O  O14  1  0.15890000  0.64130000  0.05350000  1.0 -0.1594824213
O  O15  1  0.85410000  0.12260000  0.04050000  1.0 -0.6314206248
O  O16  1  0.14590000  0.87740000  0.95950000  1.0 -0.6314206248
O  O17  1  0.22630000  0.16520000  0.91390000  1.0 -0.6582816815
O  O18  1  0.77370000  0.83480000  0.08610000  1.0 -0.6582816815
O  O19  1  0.59980000  0.37390000  0.97230000  1.0 -0.6582816815
O  O20  1  0.40020000  0.62610000  0.02770000  1.0 -0.6582816815
O  O21  1  0.15480000  0.32610000  0.93070000  1.0 -0.6161717748
O  O22  1  0.84520000  0.67390000  0.06930000  1.0 -0.6161717748
O  O23  1  0.93660000  0.05010000  0.87380000  1.0 -0.5917389071
O  O24  1  0.06340000  0.94990000  0.12620000  1.0 -0.5917389071
O  O25  1  0.76140000  0.96290000  0.73130000  1.0 -0.100210134
O  O26  1  0.23860000  0.03710000  0.26870000  1.0 -0.100210134
O  O27  1  0.37610000  0.21130000  0.85170000  1.0 -0.6024553901
O  O28  1  0.62390000  0.78870000  0.14830000  1.0 -0.6024553901
O  O29  1  0.22280000  0.33040000  0.09300000  1.0 -0.6782657778
O  O30  1  0.77720000  0.66960000  0.90700000  1.0 -0.6782657778
O  O31  1  0.38350000  0.00180000  0.54570000  1.0 -0.6673660254
O  O32  1  0.61650000  0.99820000  0.45430000  1.0 -0.6673660254
O  O33  1  0.29780000  0.48240000  0.23850000  1.0 -0.100210134
O  O34  1  0.70220000  0.51760000  0.76150000  1.0 -0.100210134
O  O35  1  0.62560000  0.49580000  0.94670000  1.0 -0.6395289054
O  O36  1  0.37440000  0.50420000  0.05330000  1.0 -0.6395289054
O  O37  1  0.07730000  0.27500000  0.15330000  1.0 -0.5757274306
O  O38  1  0.92270000  0.72500000  0.84670000  1.0 -0.5757274306
O  O39  1  0.30690000  0.05740000  0.70390000  1.0 -0.100210134
O  O40  1  0.69310000  0.94260000  0.29610000  1.0 -0.100210134
O  O41  1  0.62820000  0.02210000  0.63860000  1.0 -0.6395289054
O  O42  1  0.37180000  0.97790000  0.36140000  1.0 -0.6395289054
O  O43  1  0.27230000  0.86450000  0.50690000  1.0 -0.564481256
O  O44  1  0.72770000  0.13550000  0.49310000  1.0 -0.564481256
O  O45  1  0.55490000  0.88020000  0.53770000  1.0 -0.6119688129
O  O46  1  0.44510000  0.11980000  0.46230000  1.0 -0.6119688129
O  O47  1  0.39360000  0.70940000  0.38440000  1.0 -0.6395289054
O  O48  1  0.60640000  0.29060000  0.61560000  1.0 -0.6395289054
O  O49  1  0.49810000  0.62010000  0.28800000  1.0 -0.5250731385
O  O50  1  0.50190000  0.37990000  0.71200000  1.0 -0.5237984335
