# DDEC6 charges by PACMAN v1.1 (https://github.com/mtap-research/PACMAN-charge/)
data_KIYMIQ_ASR_pacman
_symmetry_space_group_name_H-M   'P 1'
_cell_length_a   18.21860000
_cell_length_b   18.21860000
_cell_length_c   8.68800000
_cell_angle_alpha   90.00000000
_cell_angle_beta   90.00000000
_cell_angle_gamma   120.00000000
_symmetry_Int_Tables_number   1
_chemical_formula_structural   NaH3(C3O)2
_chemical_formula_sum   'Na12 H36 C72 O24'
_cell_volume   2497.35594067
_cell_formula_units_Z   12
loop_
 _symmetry_equiv_pos_site_id
 _symmetry_equiv_pos_as_xyz
  1  'x, y, z'
loop_
 _atom_site_type_symbol
 _atom_site_label
 _atom_site_symmetry_multiplicity
 _atom_site_fract_x
 _atom_site_fract_y
 _atom_site_fract_z
 _atom_site_occupancy
 _atom_site_charge
Na  Na1  1  0.63835000  0.36356000  0.17632000  1.0 0.8368728686
Na  Na2  1  0.63644000  0.27479000  0.84299000  1.0 0.8368728686
Na  Na3  1  0.72521000  0.36165000  0.50965000  1.0 0.8368728686
Na  Na4  1  0.36165000  0.63644000  0.67632000  1.0 0.8368728686
Na  Na5  1  0.36356000  0.72521000  0.34299000  1.0 0.8368728686
Na  Na6  1  0.27479000  0.63835000  0.00965000  1.0 0.8368728686
Na  Na7  1  0.74092000  0.25197000  0.17839000  1.0 0.8532490858
Na  Na8  1  0.74803000  0.48895000  0.84506000  1.0 0.8532490858
Na  Na9  1  0.51105000  0.25908000  0.51172000  1.0 0.8532490858
Na  Na10  1  0.25908000  0.74803000  0.67839000  1.0 0.8532490858
Na  Na11  1  0.25197000  0.51105000  0.34506000  1.0 0.8532490858
Na  Na12  1  0.48895000  0.74092000  0.01172000  1.0 0.8532490858
H  H1  1  0.94360000  0.43590000  0.11650000  1.0 0.1123279076
H  H2  1  0.56410000  0.50770000  0.78317000  1.0 0.1123279076
H  H3  1  0.49230000  0.05640000  0.44983000  1.0 0.1123279076
H  H4  1  0.05640000  0.56410000  0.61650000  1.0 0.1123279076
H  H5  1  0.43590000  0.49230000  0.28317000  1.0 0.1123279076
H  H6  1  0.50770000  0.94360000  0.94983000  1.0 0.1123279076
H  H7  1  0.12470000  0.74620000  0.44720000  1.0 0.1123279076
H  H8  1  0.25380000  0.37850000  0.11387000  1.0 0.1123279076
H  H9  1  0.62150000  0.87530000  0.78053000  1.0 0.1123279076
H  H10  1  0.87530000  0.25380000  0.94720000  1.0 0.1123279076
H  H11  1  0.74620000  0.62150000  0.61387000  1.0 0.1123279076
H  H12  1  0.37850000  0.12470000  0.28053000  1.0 0.1123279076
H  H13  1  0.83690000  0.59160000  0.34360000  1.0 0.1260917265
H  H14  1  0.40840000  0.24530000  0.01027000  1.0 0.1260917265
H  H15  1  0.75470000  0.16310000  0.67693000  1.0 0.1260917265
H  H16  1  0.16310000  0.40840000  0.84360000  1.0 0.1260917265
H  H17  1  0.59160000  0.75470000  0.51027000  1.0 0.1260917265
H  H18  1  0.24530000  0.83690000  0.17693000  1.0 0.1260917265
H  H19  1  0.03560000  0.79250000  0.52630000  1.0 0.1123279076
H  H20  1  0.20750000  0.24310000  0.19297000  1.0 0.1123279076
H  H21  1  0.75690000  0.96440000  0.85963000  1.0 0.1123279076
H  H22  1  0.96440000  0.20750000  0.02630000  1.0 0.1123279076
H  H23  1  0.79250000  0.75690000  0.69297000  1.0 0.1123279076
H  H24  1  0.24310000  0.03560000  0.35963000  1.0 0.1123279076
H  H25  1  0.89230000  0.71510000  0.47480000  1.0 0.1041324217
H  H26  1  0.28490000  0.17720000  0.14147000  1.0 0.1041324217
H  H27  1  0.82280000  0.10770000  0.80813000  1.0 0.1041324217
H  H28  1  0.10770000  0.28490000  0.97480000  1.0 0.1041324217
H  H29  1  0.71510000  0.82280000  0.64147000  1.0 0.1041324217
H  H30  1  0.17720000  0.89230000  0.30813000  1.0 0.1041324217
H  H31  1  0.08650000  0.51170000  0.16530000  1.0 0.1123279076
H  H32  1  0.48830000  0.57480000  0.83197000  1.0 0.1123279076
H  H33  1  0.42520000  0.91350000  0.49863000  1.0 0.1123279076
H  H34  1  0.91350000  0.48830000  0.66530000  1.0 0.1123279076
H  H35  1  0.51170000  0.42520000  0.33197000  1.0 0.1123279076
H  H36  1  0.57480000  0.08650000  0.99863000  1.0 0.1123279076
C  C1  1  0.81851000  0.45941000  0.19400000  1.0 0.6018942821
C  C2  1  0.54059000  0.35910000  0.86067000  1.0 0.6018942821
C  C3  1  0.64090000  0.18149000  0.52733000  1.0 0.6018942821
C  C4  1  0.18149000  0.54059000  0.69400000  1.0 0.6018942821
C  C5  1  0.45941000  0.64090000  0.36067000  1.0 0.6018942821
C  C6  1  0.35910000  0.81851000  0.02733000  1.0 0.6018942821
C  C7  1  0.91269000  0.51320000  0.22520000  1.0 -0.0584129936
C  C8  1  0.48680000  0.39949000  0.89187000  1.0 -0.0584129936
C  C9  1  0.60051000  0.08731000  0.55853000  1.0 -0.0584129936
C  C10  1  0.08731000  0.48680000  0.72520000  1.0 -0.0584129936
C  C11  1  0.51320000  0.60051000  0.39187000  1.0 -0.0584129936
C  C12  1  0.39949000  0.91269000  0.05853000  1.0 -0.0584129936
C  C13  1  0.03583000  0.63697000  0.34150000  1.0 0.0572874177
C  C14  1  0.36303000  0.39886000  0.00817000  1.0 0.0572874177
C  C15  1  0.60114000  0.96417000  0.67483000  1.0 0.0572874177
C  C16  1  0.96417000  0.36303000  0.84150000  1.0 0.0572874177
C  C17  1  0.63697000  0.60114000  0.50817000  1.0 0.0572874177
C  C18  1  0.39886000  0.03583000  0.17483000  1.0 0.0572874177
C  C19  1  0.94699000  0.59041000  0.30770000  1.0 0.0498650251
C  C20  1  0.40959000  0.35658000  0.97437000  1.0 0.0498650251
C  C21  1  0.64342000  0.05301000  0.64103000  1.0 0.0498650251
C  C22  1  0.05301000  0.40959000  0.80770000  1.0 0.0498650251
C  C23  1  0.59041000  0.64342000  0.47437000  1.0 0.0498650251
C  C24  1  0.35658000  0.94699000  0.14103000  1.0 0.0498650251
C  C25  1  0.96565000  0.48575000  0.17320000  1.0 -0.1237266383
C  C26  1  0.51425000  0.47990000  0.83987000  1.0 -0.1237266383
C  C27  1  0.52010000  0.03435000  0.50653000  1.0 -0.1237266383
C  C28  1  0.03435000  0.51425000  0.67320000  1.0 -0.1237266383
C  C29  1  0.48575000  0.52010000  0.33987000  1.0 -0.1237266383
C  C30  1  0.47990000  0.96565000  0.00653000  1.0 -0.1237266383
C  C31  1  0.06715000  0.71423000  0.42490000  1.0 -0.1498583726
C  C32  1  0.28577000  0.35292000  0.09157000  1.0 -0.1498583726
C  C33  1  0.64708000  0.93285000  0.75823000  1.0 -0.1498583726
C  C34  1  0.93285000  0.28577000  0.92490000  1.0 -0.1498583726
C  C35  1  0.71423000  0.64708000  0.59157000  1.0 -0.1498583726
C  C36  1  0.35292000  0.06715000  0.25823000  1.0 -0.1498583726
C  C37  1  0.89489000  0.62207000  0.36240000  1.0 -0.1371242499
C  C38  1  0.37793000  0.27282000  0.02907000  1.0 -0.1371242499
C  C39  1  0.72718000  0.10511000  0.69573000  1.0 -0.1371242499
C  C40  1  0.10511000  0.37793000  0.86240000  1.0 -0.1371242499
C  C41  1  0.62207000  0.72718000  0.52907000  1.0 -0.1371242499
C  C42  1  0.27282000  0.89489000  0.19573000  1.0 -0.1371242499
C  C43  1  0.01390000  0.74180000  0.47220000  1.0 -0.1136450217
C  C44  1  0.25820000  0.27210000  0.13887000  1.0 -0.1136450217
C  C45  1  0.72790000  0.98610000  0.80553000  1.0 -0.1136450217
C  C46  1  0.98610000  0.25820000  0.97220000  1.0 -0.1136450217
C  C47  1  0.74180000  0.72790000  0.63887000  1.0 -0.1136450217
C  C48  1  0.27210000  0.01390000  0.30553000  1.0 -0.1136450217
C  C49  1  0.92770000  0.69530000  0.44100000  1.0 -0.0962622709
C  C50  1  0.30470000  0.23240000  0.10767000  1.0 -0.0962622709
C  C51  1  0.76760000  0.07230000  0.77433000  1.0 -0.0962622709
C  C52  1  0.07230000  0.30470000  0.94100000  1.0 -0.0962622709
C  C53  1  0.69530000  0.76760000  0.60767000  1.0 -0.0962622709
C  C54  1  0.23240000  0.92770000  0.27433000  1.0 -0.0962622709
C  C55  1  0.05213000  0.53159000  0.20400000  1.0 -0.1136450217
C  C56  1  0.46841000  0.52054000  0.87067000  1.0 -0.1136450217
C  C57  1  0.47946000  0.94787000  0.53733000  1.0 -0.1136450217
C  C58  1  0.94787000  0.46841000  0.70400000  1.0 -0.1136450217
C  C59  1  0.53159000  0.47946000  0.37067000  1.0 -0.1136450217
C  C60  1  0.52054000  0.05213000  0.03733000  1.0 -0.1136450217
C  C61  1  0.08883000  0.60468000  0.28890000  1.0 -0.0884785338
C  C62  1  0.39532000  0.48415000  0.95557000  1.0 -0.0884785338
C  C63  1  0.51585000  0.91117000  0.62223000  1.0 -0.0884785338
C  C64  1  0.91117000  0.39532000  0.78890000  1.0 -0.0884785338
C  C65  1  0.60468000  0.51585000  0.45557000  1.0 -0.0884785338
C  C66  1  0.48415000  0.08883000  0.12223000  1.0 -0.0884785338
C  C67  1  0.18162000  0.64328000  0.32840000  1.0 0.6018942821
C  C68  1  0.35672000  0.53834000  0.99507000  1.0 0.6018942821
C  C69  1  0.46166000  0.81838000  0.66173000  1.0 0.6018942821
C  C70  1  0.81838000  0.35672000  0.82840000  1.0 0.6018942821
C  C71  1  0.64328000  0.46166000  0.49507000  1.0 0.6018942821
C  C72  1  0.53834000  0.18162000  0.16173000  1.0 0.6018942821
O  O1  1  0.78050000  0.39047000  0.26660000  1.0 -0.7400094541
O  O2  1  0.60953000  0.39003000  0.93327000  1.0 -0.7400094541
O  O3  1  0.60997000  0.21950000  0.59993000  1.0 -0.7400094541
O  O4  1  0.21950000  0.60953000  0.76660000  1.0 -0.7400094541
O  O5  1  0.39047000  0.60997000  0.43327000  1.0 -0.7400094541
O  O6  1  0.39003000  0.78050000  0.09993000  1.0 -0.7400094541
O  O7  1  0.78413000  0.48498000  0.10220000  1.0 -0.6470682791
O  O8  1  0.51502000  0.29915000  0.76887000  1.0 -0.6470682791
O  O9  1  0.70085000  0.21587000  0.43553000  1.0 -0.6470682791
O  O10  1  0.21587000  0.51502000  0.60220000  1.0 -0.6470682791
O  O11  1  0.48498000  0.70085000  0.26887000  1.0 -0.6470682791
O  O12  1  0.29915000  0.78413000  0.93553000  1.0 -0.6470682791
O  O13  1  0.22335000  0.61764000  0.25250000  1.0 -0.7534980348
O  O14  1  0.38236000  0.60571000  0.91917000  1.0 -0.7534980348
O  O15  1  0.39429000  0.77665000  0.58583000  1.0 -0.7534980348
O  O16  1  0.77665000  0.38236000  0.75250000  1.0 -0.7534980348
O  O17  1  0.61764000  0.39429000  0.41917000  1.0 -0.7534980348
O  O18  1  0.60571000  0.22335000  0.08583000  1.0 -0.7534980348
O  O19  1  0.21330000  0.69580000  0.43440000  1.0 -0.6588698696
O  O20  1  0.30420000  0.51750000  0.10107000  1.0 -0.6588698696
O  O21  1  0.48250000  0.78670000  0.76773000  1.0 -0.6588698696
O  O22  1  0.78670000  0.30420000  0.93440000  1.0 -0.6588698696
O  O23  1  0.69580000  0.48250000  0.60107000  1.0 -0.6588698696
O  O24  1  0.51750000  0.21330000  0.26773000  1.0 -0.6588698696
