# DDEC6 charges by PACMAN v1.1 (https://github.com/mtap-research/PACMAN-charge/)
data_KOBPEZ_FSR_pacman
_symmetry_space_group_name_H-M   'P 1'
_cell_length_a   12.21350000
_cell_length_b   12.21350000
_cell_length_c   13.77660000
_cell_angle_alpha   88.92740000
_cell_angle_beta   91.07260000
_cell_angle_gamma   125.96200000
_symmetry_Int_Tables_number   1
_chemical_formula_structural   CdH12C14(NO)4
_chemical_formula_sum   'Cd4 H48 C56 N16 O16'
_cell_volume   1663.00360879
_cell_formula_units_Z   4
loop_
 _symmetry_equiv_pos_site_id
 _symmetry_equiv_pos_as_xyz
  1  'x, y, z'
loop_
 _atom_site_type_symbol
 _atom_site_label
 _atom_site_symmetry_multiplicity
 _atom_site_fract_x
 _atom_site_fract_y
 _atom_site_fract_z
 _atom_site_occupancy
 _atom_site_charge
Cd  Cd1  1  0.09570000  0.53932000  0.38254000  1.0 0.8504255067
Cd  Cd2  1  0.53932000  0.09570000  0.11746000  1.0 0.8504255067
Cd  Cd3  1  0.90430000  0.46068000  0.61746000  1.0 0.8504255067
Cd  Cd4  1  0.46068000  0.90430000  0.88254000  1.0 0.8504255067
H  H1  1  0.02151000  0.75181000  0.39751000  1.0 0.1105047416
H  H2  1  0.80718000  0.24268000  0.34226000  1.0 0.1189693636
H  H3  1  0.71117000  0.01583000  0.33368000  1.0 0.1463131856
H  H4  1  0.16400000  0.32598000  0.38592000  1.0 0.1289877522
H  H5  1  0.36705000  0.64297000  0.08664000  1.0 0.1400939624
H  H6  1  0.52148000  0.70492000  0.08812000  1.0 0.1289877522
H  H7  1  0.48075000  0.06043000  0.40128000  1.0 0.1400939624
H  H8  1  0.38016000  0.83220000  0.40509000  1.0 0.1189693636
H  H9  1  0.51704000  0.69118000  0.25879000  1.0 0.1289877522
H  H10  1  0.42261000  0.54843000  0.21125000  1.0 0.1289877522
H  H11  1  0.84579000  0.94029000  0.35501000  1.0 0.1189693636
H  H12  1  0.34598000  0.13744000  0.39197000  1.0 0.1289877522
H  H13  1  0.75181000  0.02151000  0.10249000  1.0 0.1105047416
H  H14  1  0.24268000  0.80718000  0.15774000  1.0 0.1189693636
H  H15  1  0.01583000  0.71117000  0.16632000  1.0 0.1463131856
H  H16  1  0.32598000  0.16400000  0.11408000  1.0 0.1289877522
H  H17  1  0.64297000  0.36705000  0.41336000  1.0 0.1400939624
H  H18  1  0.70492000  0.52148000  0.41188000  1.0 0.1289877522
H  H19  1  0.06043000  0.48075000  0.09872000  1.0 0.1400939624
H  H20  1  0.83220000  0.38016000  0.09491000  1.0 0.1189693636
H  H21  1  0.69118000  0.51704000  0.24121000  1.0 0.1289877522
H  H22  1  0.54843000  0.42261000  0.28875000  1.0 0.1289877522
H  H23  1  0.94029000  0.84579000  0.14499000  1.0 0.1189693636
H  H24  1  0.13744000  0.34598000  0.10803000  1.0 0.1289877522
H  H25  1  0.97849000  0.24819000  0.60249000  1.0 0.1105047416
H  H26  1  0.19282000  0.75732000  0.65774000  1.0 0.1189693636
H  H27  1  0.28883000  0.98417000  0.66632000  1.0 0.1463131856
H  H28  1  0.83600000  0.67402000  0.61408000  1.0 0.1289877522
H  H29  1  0.63295000  0.35703000  0.91336000  1.0 0.1400939624
H  H30  1  0.47852000  0.29508000  0.91188000  1.0 0.1289877522
H  H31  1  0.51925000  0.93957000  0.59872000  1.0 0.1400939624
H  H32  1  0.61984000  0.16780000  0.59491000  1.0 0.1189693636
H  H33  1  0.48296000  0.30882000  0.74121000  1.0 0.1289877522
H  H34  1  0.57739000  0.45157000  0.78875000  1.0 0.1289877522
H  H35  1  0.15421000  0.05971000  0.64499000  1.0 0.1189693636
H  H36  1  0.65402000  0.86256000  0.60803000  1.0 0.1289877522
H  H37  1  0.24819000  0.97849000  0.89751000  1.0 0.1105047416
H  H38  1  0.75732000  0.19282000  0.84226000  1.0 0.1189693636
H  H39  1  0.98417000  0.28883000  0.83368000  1.0 0.1463131856
H  H40  1  0.67402000  0.83600000  0.88592000  1.0 0.1289877522
H  H41  1  0.35703000  0.63295000  0.58664000  1.0 0.1400939624
H  H42  1  0.29508000  0.47852000  0.58812000  1.0 0.1289877522
H  H43  1  0.93957000  0.51925000  0.90128000  1.0 0.1400939624
H  H44  1  0.16780000  0.61984000  0.90509000  1.0 0.1189693636
H  H45  1  0.30882000  0.48296000  0.75879000  1.0 0.1289877522
H  H46  1  0.45157000  0.57739000  0.71125000  1.0 0.1289877522
H  H47  1  0.05971000  0.15421000  0.85501000  1.0 0.1189693636
H  H48  1  0.86256000  0.65402000  0.89197000  1.0 0.1289877522
C  C1  1  0.16850000  0.95050000  0.39420000  1.0 0.1034500774
C  C2  1  0.11504000  0.81476000  0.39780000  1.0 0.0090672329
C  C3  1  0.86228000  0.21372000  0.35010000  1.0 0.0779681157
C  C4  1  0.80362000  0.07698000  0.34510000  1.0 -0.1296393045
C  C5  1  0.02026000  0.12734000  0.37300000  1.0 0.1105047416
C  C6  1  0.31718000  0.60542000  0.27950000  1.0 0.6015387427
C  C7  1  0.07150000  0.26250000  0.37610000  1.0 0.0090672329
C  C8  1  0.45056000  0.69964000  0.12350000  1.0 -0.3000811014
C  C9  1  0.38699000  0.99961000  0.39980000  1.0 -0.120491436
C  C10  1  0.32551000  0.86209000  0.40250000  1.0 0.0779681157
C  C11  1  0.43442000  0.63318000  0.22130000  1.0 -0.2908761997
C  C12  1  0.88303000  0.03197000  0.35730000  1.0 -0.1092401047
C  C13  1  0.30742000  0.04538000  0.39480000  1.0 -0.0983320896
C  C14  1  0.48436000  0.83864000  0.12990000  1.0 0.6111949336
C  C15  1  0.95050000  0.16850000  0.10580000  1.0 0.1034500774
C  C16  1  0.81476000  0.11504000  0.10220000  1.0 0.0090672329
C  C17  1  0.21372000  0.86228000  0.14990000  1.0 0.0779681157
C  C18  1  0.07698000  0.80362000  0.15490000  1.0 -0.1296393045
C  C19  1  0.12734000  0.02026000  0.12700000  1.0 0.1105047416
C  C20  1  0.60542000  0.31718000  0.22050000  1.0 0.6015387427
C  C21  1  0.26250000  0.07150000  0.12390000  1.0 0.0090672329
C  C22  1  0.69964000  0.45056000  0.37650000  1.0 -0.3000811014
C  C23  1  0.99961000  0.38699000  0.10020000  1.0 -0.120491436
C  C24  1  0.86209000  0.32551000  0.09750000  1.0 0.0779681157
C  C25  1  0.63318000  0.43442000  0.27870000  1.0 -0.2908761997
C  C26  1  0.03197000  0.88303000  0.14270000  1.0 -0.1092401047
C  C27  1  0.04538000  0.30742000  0.10520000  1.0 -0.0983320896
C  C28  1  0.83864000  0.48436000  0.37010000  1.0 0.6111949336
C  C29  1  0.83150000  0.04950000  0.60580000  1.0 0.1034500774
C  C30  1  0.88496000  0.18524000  0.60220000  1.0 0.0090672329
C  C31  1  0.13772000  0.78628000  0.64990000  1.0 0.0779681157
C  C32  1  0.19638000  0.92302000  0.65490000  1.0 -0.1296393045
C  C33  1  0.97974000  0.87266000  0.62700000  1.0 0.1105047416
C  C34  1  0.68282000  0.39458000  0.72050000  1.0 0.6015387427
C  C35  1  0.92850000  0.73750000  0.62390000  1.0 0.0090672329
C  C36  1  0.54944000  0.30036000  0.87650000  1.0 -0.3000811014
C  C37  1  0.61301000  0.00039000  0.60020000  1.0 -0.120491436
C  C38  1  0.67449000  0.13791000  0.59750000  1.0 0.0779681157
C  C39  1  0.56558000  0.36682000  0.77870000  1.0 -0.2908761997
C  C40  1  0.11697000  0.96803000  0.64270000  1.0 -0.1092401047
C  C41  1  0.69258000  0.95462000  0.60520000  1.0 -0.0983320896
C  C42  1  0.51564000  0.16136000  0.87010000  1.0 0.6111949336
C  C43  1  0.04950000  0.83150000  0.89420000  1.0 0.1034500774
C  C44  1  0.18524000  0.88496000  0.89780000  1.0 0.0090672329
C  C45  1  0.78628000  0.13772000  0.85010000  1.0 0.0779681157
C  C46  1  0.92302000  0.19638000  0.84510000  1.0 -0.1296393045
C  C47  1  0.87266000  0.97974000  0.87300000  1.0 0.1105047416
C  C48  1  0.39458000  0.68282000  0.77950000  1.0 0.6015387427
C  C49  1  0.73750000  0.92850000  0.87610000  1.0 0.0090672329
C  C50  1  0.30036000  0.54944000  0.62350000  1.0 -0.3000811014
C  C51  1  0.00039000  0.61301000  0.89980000  1.0 -0.120491436
C  C52  1  0.13791000  0.67449000  0.90250000  1.0 0.0779681157
C  C53  1  0.36682000  0.56558000  0.72130000  1.0 -0.2908761997
C  C54  1  0.96803000  0.11697000  0.85730000  1.0 -0.1092401047
C  C55  1  0.95462000  0.69258000  0.89480000  1.0 -0.0983320896
C  C56  1  0.16136000  0.51564000  0.62990000  1.0 0.6111949336
N  N1  1  0.19187000  0.76993000  0.40160000  1.0 -0.2208404031
N  N2  1  0.11887000  0.09993000  0.38340000  1.0 -0.120491436
N  N3  1  0.99403000  0.30597000  0.36560000  1.0 -0.2208404031
N  N4  1  0.07005000  0.97815000  0.38660000  1.0 -0.1296393045
N  N5  1  0.76993000  0.19187000  0.09840000  1.0 -0.2208404031
N  N6  1  0.09993000  0.11887000  0.11660000  1.0 -0.120491436
N  N7  1  0.30597000  0.99403000  0.13440000  1.0 -0.2208404031
N  N8  1  0.97815000  0.07005000  0.11340000  1.0 -0.1296393045
N  N9  1  0.80813000  0.23007000  0.59840000  1.0 -0.2208404031
N  N10  1  0.88113000  0.90007000  0.61660000  1.0 -0.120491436
N  N11  1  0.00597000  0.69403000  0.63440000  1.0 -0.2208404031
N  N12  1  0.92995000  0.02185000  0.61340000  1.0 -0.1296393045
N  N13  1  0.23007000  0.80813000  0.90160000  1.0 -0.2208404031
N  N14  1  0.90007000  0.88113000  0.88340000  1.0 -0.120491436
N  N15  1  0.69403000  0.00597000  0.86560000  1.0 -0.2208404031
N  N16  1  0.02185000  0.92995000  0.88660000  1.0 -0.1296393045
O  O1  1  0.48607000  0.89473000  0.05089000  1.0 -0.568012168
O  O2  1  0.22291000  0.60149000  0.23834000  1.0 -0.5572714705
O  O3  1  0.31391000  0.58229000  0.36951000  1.0 -0.5851253022
O  O4  1  0.51138000  0.89902000  0.20817000  1.0 -0.5394115795
O  O5  1  0.89473000  0.48607000  0.44911000  1.0 -0.568012168
O  O6  1  0.60149000  0.22291000  0.26166000  1.0 -0.5572714705
O  O7  1  0.58229000  0.31391000  0.13049000  1.0 -0.5847854365
O  O8  1  0.89902000  0.51138000  0.29183000  1.0 -0.5394115795
O  O9  1  0.51393000  0.10527000  0.94911000  1.0 -0.568012168
O  O10  1  0.77709000  0.39851000  0.76166000  1.0 -0.5572714705
O  O11  1  0.68609000  0.41771000  0.63049000  1.0 -0.5847854365
O  O12  1  0.48862000  0.10098000  0.79183000  1.0 -0.5394115795
O  O13  1  0.10527000  0.51393000  0.55089000  1.0 -0.568012168
O  O14  1  0.39851000  0.77709000  0.73834000  1.0 -0.5572714705
O  O15  1  0.41771000  0.68609000  0.86951000  1.0 -0.5847854365
O  O16  1  0.10098000  0.48862000  0.70817000  1.0 -0.5394115795
