# DDEC6 charges by PACMAN v1.1 (https://github.com/mtap-research/PACMAN-charge/)
data_KOBXIL_ASR_pacman
_symmetry_space_group_name_H-M   'P 1'
_cell_length_a   26.65920000
_cell_length_b   26.65920000
_cell_length_c   26.65920000
_cell_angle_alpha   94.90810000
_cell_angle_beta   94.90810000
_cell_angle_gamma   145.98400000
_symmetry_Int_Tables_number   1
_chemical_formula_structural   In3Cu16C72I16(NO)24
_chemical_formula_sum   'In6 Cu32 C144 I32 N48 O48'
_cell_volume   10135.87477065
_cell_formula_units_Z   2
loop_
 _symmetry_equiv_pos_site_id
 _symmetry_equiv_pos_as_xyz
  1  'x, y, z'
loop_
 _atom_site_type_symbol
 _atom_site_label
 _atom_site_symmetry_multiplicity
 _atom_site_fract_x
 _atom_site_fract_y
 _atom_site_fract_z
 _atom_site_occupancy
 _atom_site_charge
In  In1  1  0.21547000  0.28453000  0.50000000  1.0 1.353209187
In  In2  1  0.78453000  0.71547000  0.50000000  1.0 1.353209187
In  In3  1  0.28453000  0.78453000  0.06906000  1.0 1.353209187
In  In4  1  0.71547000  0.21547000  0.93094000  1.0 1.353209187
In  In5  1  0.50000000  0.50000000  0.00000000  1.0 1.1990441576
In  In6  1  0.00000000  0.00000000  0.00000000  1.0 1.1990441576
Cu  Cu1  1  0.48508000  0.75215000  0.26625000  1.0 0.2108172691
Cu  Cu2  1  0.40731000  0.64363000  0.32612000  1.0 0.4733130421
Cu  Cu3  1  0.56219000  0.73443000  0.31628000  1.0 0.2175387735
Cu  Cu4  1  0.41595000  0.60190000  0.23265000  1.0 0.202982643
Cu  Cu5  1  0.48590000  0.21883000  0.73375000  1.0 0.2108172691
Cu  Cu6  1  0.31751000  0.08119000  0.67388000  1.0 0.4765614047
Cu  Cu7  1  0.41815000  0.24591000  0.68372000  1.0 0.2175387735
Cu  Cu8  1  0.36925000  0.18330000  0.76735000  1.0 0.202982643
Cu  Cu9  1  0.78117000  0.51492000  0.26707000  1.0 0.2175387735
Cu  Cu10  1  0.91881000  0.59269000  0.23632000  1.0 0.4765614047
Cu  Cu11  1  0.75409000  0.43781000  0.17224000  1.0 0.2256753489
Cu  Cu12  1  0.81670000  0.58405000  0.18595000  1.0 0.2108172691
Cu  Cu13  1  0.24785000  0.51410000  0.73293000  1.0 0.2108172691
Cu  Cu14  1  0.35637000  0.68249000  0.76368000  1.0 0.4733130421
Cu  Cu15  1  0.26557000  0.58185000  0.82776000  1.0 0.2175387735
Cu  Cu16  1  0.39810000  0.63075000  0.81405000  1.0 0.202982643
Cu  Cu17  1  0.98508000  0.71883000  0.73293000  1.0 0.2175387735
Cu  Cu18  1  0.90731000  0.58119000  0.76368000  1.0 0.4733130421
Cu  Cu19  1  0.06219000  0.74591000  0.82776000  1.0 0.2175387735
Cu  Cu20  1  0.91595000  0.68330000  0.81405000  1.0 0.202982643
Cu  Cu21  1  0.98590000  0.25215000  0.26707000  1.0 0.2175387735
Cu  Cu22  1  0.81751000  0.14363000  0.23632000  1.0 0.4765614047
Cu  Cu23  1  0.91815000  0.23443000  0.17224000  1.0 0.2108172691
Cu  Cu24  1  0.86925000  0.10190000  0.18595000  1.0 0.202982643
Cu  Cu25  1  0.28117000  0.01410000  0.26625000  1.0 0.2108172691
Cu  Cu26  1  0.41881000  0.18249000  0.32612000  1.0 0.4733130421
Cu  Cu27  1  0.25409000  0.08185000  0.31628000  1.0 0.2175387735
Cu  Cu28  1  0.31670000  0.13075000  0.23265000  1.0 0.202982643
Cu  Cu29  1  0.74785000  0.01492000  0.73375000  1.0 0.2108172691
Cu  Cu30  1  0.85637000  0.09269000  0.67388000  1.0 0.4733130421
Cu  Cu31  1  0.76557000  0.93781000  0.68372000  1.0 0.2175387735
Cu  Cu32  1  0.89810000  0.08405000  0.76735000  1.0 0.202982643
C  C1  1  0.34510000  0.34160000  0.56030000  1.0 0.6091042056
C  C2  1  0.41950000  0.36960000  0.59070000  1.0 -0.0386157084
C  C3  1  0.51040000  0.44730000  0.58550000  1.0 0.0685661306
C  C4  1  0.39300000  0.31420000  0.62080000  1.0 0.082371292
C  C5  1  0.57210000  0.46490000  0.61320000  1.0 0.1493998288
C  C6  1  0.54400000  0.40430000  0.64290000  1.0 0.1185688812
C  C7  1  0.27000000  0.47350000  0.40710000  1.0 0.1024014528
C  C8  1  0.25850000  0.50360000  0.37350000  1.0 0.181406864
C  C9  1  0.19530000  0.37690000  0.39760000  1.0 -0.0889463977
C  C10  1  0.17230000  0.43570000  0.33500000  1.0 0.0615253555
C  C11  1  0.11280000  0.31430000  0.35970000  1.0 0.0938411048
C  C12  1  0.20230000  0.34240000  0.43390000  1.0 0.5971190974
C  C13  1  0.36280000  0.44430000  0.09890000  1.0 -0.0715378873
C  C14  1  0.27990000  0.35280000  0.10050000  1.0 0.0165088171
C  C15  1  0.23490000  0.33400000  0.13710000  1.0 0.181406864
C  C16  1  0.27260000  0.40660000  0.17200000  1.0 0.0685661306
C  C17  1  0.40050000  0.51690000  0.13380000  1.0 0.1347758069
C  C18  1  0.39500000  0.47360000  0.05180000  1.0 0.4733130421
C  C19  1  0.78130000  0.78480000  0.43970000  1.0 0.6091042056
C  C20  1  0.77890000  0.82880000  0.40930000  1.0 -0.0386157084
C  C21  1  0.86180000  0.92490000  0.41450000  1.0 0.0615253555
C  C22  1  0.69340000  0.77220000  0.37920000  1.0 0.082371292
C  C23  1  0.85170000  0.95890000  0.38680000  1.0 0.1493998288
C  C24  1  0.76140000  0.90110000  0.35710000  1.0 0.1185688812
C  C25  1  0.06640000  0.86290000  0.59290000  1.0 0.1024014528
C  C26  1  0.13010000  0.88500000  0.62650000  1.0 0.181406864
C  C27  1  0.97930000  0.79770000  0.60240000  1.0 -0.0889463977
C  C28  1  0.10070000  0.83730000  0.66500000  1.0 0.0615253555
C  C29  1  0.95460000  0.75310000  0.64030000  1.0 0.0938411048
C  C30  1  0.90850000  0.76840000  0.56610000  1.0 0.5971190974
C  C31  1  0.34540000  0.26390000  0.90110000  1.0 -0.0715378873
C  C32  1  0.25230000  0.17940000  0.89950000  1.0 0.0165088171
C  C33  1  0.19690000  0.09780000  0.86290000  1.0 0.181406864
C  C34  1  0.23460000  0.10060000  0.82800000  1.0 0.0685661306
C  C35  1  0.38310000  0.26670000  0.86620000  1.0 0.1363393023
C  C36  1  0.42180000  0.34320000  0.94820000  1.0 0.4733130421
C  C37  1  0.21520000  0.65490000  0.99650000  1.0 0.6091042056
C  C38  1  0.17120000  0.58050000  0.95010000  1.0 -0.0386157084
C  C39  1  0.07510000  0.48960000  0.93690000  1.0 0.0685661306
C  C40  1  0.22780000  0.60700000  0.92120000  1.0 0.082371292
C  C41  1  0.04110000  0.42790000  0.89280000  1.0 0.1493998288
C  C42  1  0.09890000  0.45600000  0.86030000  1.0 0.1185688812
C  C43  1  0.13710000  0.73000000  0.20350000  1.0 0.1024014528
C  C44  1  0.11500000  0.74150000  0.24510000  1.0 0.181406864
C  C45  1  0.20230000  0.80470000  0.18160000  1.0 -0.0889463977
C  C46  1  0.16270000  0.82770000  0.26340000  1.0 0.0615253555
C  C47  1  0.24690000  0.88720000  0.20150000  1.0 0.0938411048
C  C48  1  0.23160000  0.79770000  0.14010000  1.0 0.5971190974
C  C49  1  0.73610000  0.63720000  0.08150000  1.0 -0.0715378873
C  C50  1  0.82060000  0.72010000  0.07290000  1.0 0.0165088171
C  C51  1  0.90220000  0.76510000  0.09910000  1.0 0.181406864
C  C52  1  0.89940000  0.72740000  0.13400000  1.0 0.0685661306
C  C53  1  0.73330000  0.59950000  0.11640000  1.0 0.1347758069
C  C54  1  0.65680000  0.60500000  0.07860000  1.0 0.4733130421
C  C55  1  0.65840000  0.21870000  0.00350000  1.0 0.6091042056
C  C56  1  0.63040000  0.22110000  0.04990000  1.0 -0.0386157084
C  C57  1  0.55270000  0.13820000  0.06310000  1.0 0.0685661306
C  C58  1  0.68580000  0.30660000  0.07880000  1.0 0.082371292
C  C59  1  0.53510000  0.14830000  0.10720000  1.0 0.1493998288
C  C60  1  0.59570000  0.23860000  0.13970000  1.0 0.1185688812
C  C61  1  0.52650000  0.93360000  0.79650000  1.0 0.1024014528
C  C62  1  0.49640000  0.86990000  0.75490000  1.0 0.181406864
C  C63  1  0.62310000  0.02070000  0.81840000  1.0 -0.0889463977
C  C64  1  0.56430000  0.89930000  0.73660000  1.0 0.0615253555
C  C65  1  0.68570000  0.04540000  0.79850000  1.0 0.1024014528
C  C66  1  0.65760000  0.09150000  0.85990000  1.0 0.5971190974
C  C67  1  0.55570000  0.65460000  0.91850000  1.0 -0.0715378873
C  C68  1  0.64720000  0.74770000  0.92710000  1.0 0.0148979339
C  C69  1  0.66600000  0.80310000  0.90090000  1.0 0.181406864
C  C70  1  0.59340000  0.76540000  0.86600000  1.0 0.0685661306
C  C71  1  0.48310000  0.61690000  0.88360000  1.0 0.1363393023
C  C72  1  0.52640000  0.57820000  0.92140000  1.0 0.4765614047
C  C73  1  0.84510000  0.28480000  0.00350000  1.0 0.6091042056
C  C74  1  0.91950000  0.32880000  0.04990000  1.0 -0.0386157084
C  C75  1  0.01040000  0.42490000  0.06310000  1.0 0.0615253555
C  C76  1  0.89300000  0.27220000  0.07880000  1.0 0.082371292
C  C77  1  0.07210000  0.45890000  0.10720000  1.0 0.1493998288
C  C78  1  0.04400000  0.40110000  0.13970000  1.0 0.1185688812
C  C79  1  0.77000000  0.36290000  0.79650000  1.0 0.1024014528
C  C80  1  0.75850000  0.38500000  0.75490000  1.0 0.181406864
C  C81  1  0.69530000  0.29770000  0.81840000  1.0 -0.0889463977
C  C82  1  0.67230000  0.33730000  0.73660000  1.0 0.0615253555
C  C83  1  0.61280000  0.25310000  0.79850000  1.0 0.0938411048
C  C84  1  0.70230000  0.26840000  0.85990000  1.0 0.5971190974
C  C85  1  0.86280000  0.76390000  0.91850000  1.0 -0.0715378873
C  C86  1  0.77990000  0.67940000  0.92710000  1.0 0.0148979339
C  C87  1  0.73490000  0.59780000  0.90090000  1.0 0.181406864
C  C88  1  0.77260000  0.60060000  0.86600000  1.0 0.0685661306
C  C89  1  0.90050000  0.76670000  0.88360000  1.0 0.1363393023
C  C90  1  0.89500000  0.84320000  0.92140000  1.0 0.4765614047
C  C91  1  0.28130000  0.84160000  0.99650000  1.0 0.6091042056
C  C92  1  0.27890000  0.86960000  0.95010000  1.0 -0.0386157084
C  C93  1  0.36180000  0.94730000  0.93690000  1.0 0.0615253555
C  C94  1  0.19340000  0.81420000  0.92120000  1.0 0.082371292
C  C95  1  0.35170000  0.96490000  0.89280000  1.0 0.1493998288
C  C96  1  0.26140000  0.90430000  0.86030000  1.0 0.1185688812
C  C97  1  0.56640000  0.97350000  0.20350000  1.0 0.1024014528
C  C98  1  0.63010000  0.00360000  0.24510000  1.0 0.181406864
C  C99  1  0.47930000  0.87690000  0.18160000  1.0 -0.0889463977
C  C100  1  0.60070000  0.93570000  0.26340000  1.0 0.0615253555
C  C101  1  0.45460000  0.81430000  0.20150000  1.0 0.0938411048
C  C102  1  0.40850000  0.84240000  0.14010000  1.0 0.5971190974
C  C103  1  0.84540000  0.94430000  0.08150000  1.0 -0.0715378873
C  C104  1  0.75230000  0.85280000  0.07290000  1.0 0.0165088171
C  C105  1  0.69690000  0.83400000  0.09910000  1.0 0.181406864
C  C106  1  0.73460000  0.90660000  0.13400000  1.0 0.0685661306
C  C107  1  0.88310000  0.01690000  0.11640000  1.0 0.1363393023
C  C108  1  0.92180000  0.97360000  0.07860000  1.0 0.4733130421
C  C109  1  0.71520000  0.71870000  0.56030000  1.0 0.6091042056
C  C110  1  0.67120000  0.72110000  0.59070000  1.0 -0.0386157084
C  C111  1  0.57510000  0.63820000  0.58550000  1.0 0.0685661306
C  C112  1  0.72780000  0.80660000  0.62080000  1.0 0.082371292
C  C113  1  0.54110000  0.64830000  0.61320000  1.0 0.1493998288
C  C114  1  0.59890000  0.73860000  0.64290000  1.0 0.1185688812
C  C115  1  0.63710000  0.43360000  0.40710000  1.0 0.1051388427
C  C116  1  0.61500000  0.36990000  0.37350000  1.0 0.1890526458
C  C117  1  0.70230000  0.52070000  0.39760000  1.0 -0.0889463977
C  C118  1  0.66270000  0.39930000  0.33500000  1.0 0.0615253555
C  C119  1  0.74690000  0.54540000  0.35970000  1.0 0.0938411048
C  C120  1  0.73160000  0.59150000  0.43390000  1.0 0.5971190974
C  C121  1  0.23610000  0.15460000  0.09890000  1.0 -0.0789591551
C  C122  1  0.32060000  0.24770000  0.10050000  1.0 0.0165088171
C  C123  1  0.40220000  0.30310000  0.13710000  1.0 0.181406864
C  C124  1  0.39940000  0.26540000  0.17200000  1.0 0.0615253555
C  C125  1  0.23330000  0.11690000  0.13380000  1.0 0.1363393023
C  C126  1  0.15680000  0.07820000  0.05180000  1.0 0.4733130421
C  C127  1  0.15840000  0.15490000  0.43970000  1.0 0.6091042056
C  C128  1  0.13040000  0.08050000  0.40930000  1.0 -0.0386157084
C  C129  1  0.05270000  0.98960000  0.41450000  1.0 0.0685661306
C  C130  1  0.18580000  0.10700000  0.37920000  1.0 0.082371292
C  C131  1  0.03510000  0.92790000  0.38680000  1.0 0.1493998288
C  C132  1  0.09570000  0.95600000  0.35710000  1.0 0.1185688812
C  C133  1  0.02650000  0.23000000  0.59290000  1.0 0.1024014528
C  C134  1  0.99640000  0.24150000  0.62650000  1.0 0.181406864
C  C135  1  0.12310000  0.30470000  0.60240000  1.0 -0.0889463977
C  C136  1  0.06430000  0.32770000  0.66500000  1.0 0.0615253555
C  C137  1  0.18570000  0.38720000  0.64030000  1.0 0.0938411048
C  C138  1  0.15760000  0.29770000  0.56610000  1.0 0.5971190974
C  C139  1  0.05570000  0.13720000  0.90110000  1.0 -0.0715378873
C  C140  1  0.14720000  0.22010000  0.89950000  1.0 0.0165088171
C  C141  1  0.16600000  0.26510000  0.86290000  1.0 0.181406864
C  C142  1  0.09340000  0.22740000  0.82800000  1.0 0.0685661306
C  C143  1  0.98310000  0.09950000  0.86620000  1.0 0.1347758069
C  C144  1  0.02640000  0.10500000  0.94820000  1.0 0.4733130421
I  I1  1  0.30072000  0.58310000  0.23206000  1.0 -0.2776496403
I  I2  1  0.56417000  0.82885000  0.36960000  1.0 -0.2873709437
I  I3  1  0.42329000  0.55755000  0.31682000  1.0 -0.2989030865
I  I4  1  0.58151000  0.76509000  0.22200000  1.0 -0.2873709437
I  I5  1  0.35104000  0.06866000  0.76794000  1.0 -0.2776496403
I  I6  1  0.45925000  0.19457000  0.63040000  1.0 -0.2873709437
I  I7  1  0.24073000  0.10647000  0.68318000  1.0 -0.2989030865
I  I8  1  0.54309000  0.35951000  0.77800000  1.0 -0.2873709437
I  I9  1  0.93134000  0.69928000  0.28238000  1.0 -0.2776496403
I  I10  1  0.80543000  0.43583000  0.26468000  1.0 -0.2873709437
I  I11  1  0.89353000  0.57671000  0.13426000  1.0 -0.2989030865
I  I12  1  0.64049000  0.41849000  0.18358000  1.0 -0.2873709437
I  I13  1  0.41690000  0.64896000  0.71762000  1.0 -0.2776496403
I  I14  1  0.17115000  0.54075000  0.73532000  1.0 -0.2873709437
I  I15  1  0.44245000  0.75927000  0.86574000  1.0 -0.2989030865
I  I16  1  0.23491000  0.45691000  0.81642000  1.0 -0.2873709437
I  I17  1  0.80072000  0.56866000  0.71762000  1.0 -0.2776496403
I  I18  1  0.06417000  0.69457000  0.73532000  1.0 -0.2873709437
I  I19  1  0.92329000  0.60647000  0.86574000  1.0 -0.2989030865
I  I20  1  0.08151000  0.85951000  0.81642000  1.0 -0.2873709437
I  I21  1  0.85104000  0.08310000  0.28238000  1.0 -0.2776496403
I  I22  1  0.95925000  0.32885000  0.26468000  1.0 -0.2873709437
I  I23  1  0.74073000  0.05755000  0.13426000  1.0 -0.2989030865
I  I24  1  0.04309000  0.26509000  0.18358000  1.0 -0.2873709437
I  I25  1  0.43134000  0.14896000  0.23206000  1.0 -0.2776496403
I  I26  1  0.30543000  0.04075000  0.36960000  1.0 -0.2873709437
I  I27  1  0.39353000  0.25927000  0.31682000  1.0 -0.2989030865
I  I28  1  0.14049000  0.95691000  0.22200000  1.0 -0.2873709437
I  I29  1  0.91690000  0.19928000  0.76794000  1.0 -0.2776496403
I  I30  1  0.67115000  0.93583000  0.63040000  1.0 -0.2873709437
I  I31  1  0.94245000  0.07671000  0.68318000  1.0 -0.2989030865
I  I32  1  0.73491000  0.91849000  0.77800000  1.0 -0.2873709437
N  N1  1  0.66460000  0.53680000  0.60820000  1.0 -0.0990940195
N  N2  1  0.45710000  0.33280000  0.64470000  1.0 -0.1270611265
N  N3  1  0.33050000  0.59990000  0.37920000  1.0 -0.3855279312
N  N4  1  0.10230000  0.34470000  0.32780000  1.0 -0.1270611265
N  N5  1  0.35530000  0.49800000  0.17030000  1.0 -0.1589215488
N  N6  1  0.15640000  0.24030000  0.14870000  1.0 -0.1523700014
N  N7  1  0.92860000  0.05640000  0.39180000  1.0 -0.0990940195
N  N8  1  0.68810000  0.81240000  0.35530000  1.0 -0.1238654062
N  N9  1  0.22070000  0.95130000  0.62080000  1.0 -0.3832604891
N  N10  1  0.01690000  0.77450000  0.67220000  1.0 -0.1270611265
N  N11  1  0.32770000  0.18500000  0.82970000  1.0 -0.1589215488
N  N12  1  0.09160000  0.00770000  0.85130000  1.0 -0.1589215488
N  N13  1  0.94360000  0.33540000  0.87220000  1.0 -0.0990940195
N  N14  1  0.18760000  0.54290000  0.87570000  1.0 -0.1270611265
N  N15  1  0.04870000  0.66950000  0.26940000  1.0 -0.3832604891
N  N16  1  0.22550000  0.89770000  0.24240000  1.0 -0.1238654062
N  N17  1  0.81500000  0.64470000  0.14270000  1.0 -0.1589215488
N  N18  1  0.99230000  0.84360000  0.08390000  1.0 -0.1523700014
N  N19  1  0.46320000  0.07140000  0.12780000  1.0 -0.0990940195
N  N20  1  0.66720000  0.31190000  0.12430000  1.0 -0.1270611265
N  N21  1  0.40010000  0.77930000  0.73060000  1.0 -0.3855279312
N  N22  1  0.65530000  0.98310000  0.75760000  1.0 -0.1270611265
N  N23  1  0.50200000  0.67230000  0.85730000  1.0 -0.1589215488
N  N24  1  0.75970000  0.90840000  0.91610000  1.0 -0.1523700014
N  N25  1  0.16460000  0.55640000  0.12780000  1.0 -0.0990940195
N  N26  1  0.95710000  0.31240000  0.12430000  1.0 -0.1270611265
N  N27  1  0.83050000  0.45130000  0.73060000  1.0 -0.3832604891
N  N28  1  0.60230000  0.27450000  0.75760000  1.0 -0.1270611265
N  N29  1  0.85530000  0.68500000  0.85730000  1.0 -0.1589215488
N  N30  1  0.65640000  0.50770000  0.91610000  1.0 -0.1589215488
N  N31  1  0.42860000  0.03680000  0.87220000  1.0 -0.0990940195
N  N32  1  0.18810000  0.83280000  0.87570000  1.0 -0.1270611265
N  N33  1  0.72070000  0.09990000  0.26940000  1.0 -0.3855279312
N  N34  1  0.51690000  0.84470000  0.24240000  1.0 -0.1238654062
N  N35  1  0.82770000  0.99800000  0.14270000  1.0 -0.1589215488
N  N36  1  0.59160000  0.74030000  0.08390000  1.0 -0.1523700014
N  N37  1  0.44360000  0.57140000  0.60820000  1.0 -0.0990940195
N  N38  1  0.68760000  0.81190000  0.64470000  1.0 -0.1270611265
N  N39  1  0.54870000  0.27930000  0.37920000  1.0 -0.3855279312
N  N40  1  0.72550000  0.48310000  0.32780000  1.0 -0.1270611265
N  N41  1  0.31500000  0.17230000  0.17030000  1.0 -0.1696704582
N  N42  1  0.49230000  0.40840000  0.14870000  1.0 -0.1523700014
N  N43  1  0.96320000  0.83540000  0.39180000  1.0 -0.0990940195
N  N44  1  0.16720000  0.04290000  0.35530000  1.0 -0.1270611265
N  N45  1  0.90010000  0.16950000  0.62080000  1.0 -0.3855279312
N  N46  1  0.15530000  0.39770000  0.67220000  1.0 -0.1270611265
N  N47  1  0.00200000  0.14470000  0.82970000  1.0 -0.1589215488
N  N48  1  0.25970000  0.34360000  0.85130000  1.0 -0.1589215488
O  O1  1  0.26253000  0.26620000  0.55813000  1.0 -0.5005449534
O  O2  1  0.37250000  0.39930000  0.53780000  1.0 -0.4829932333
O  O3  1  0.27930000  0.39860000  0.46610000  1.0 -0.4921909042
O  O4  1  0.13030000  0.25630000  0.42900000  1.0 -0.4921909042
O  O5  1  0.39260000  0.41370000  0.03970000  1.0 -0.2989030865
O  O6  1  0.48410000  0.53990000  0.06080000  1.0 -0.3554055736
O  O7  1  0.70807000  0.70440000  0.44187000  1.0 -0.5005449534
O  O8  1  0.86150000  0.83470000  0.46220000  1.0 -0.4829932333
O  O9  1  0.93250000  0.81320000  0.53390000  1.0 -0.4921909042
O  O10  1  0.82730000  0.70130000  0.57100000  1.0 -0.4921909042
O  O11  1  0.37400000  0.35290000  0.96030000  1.0 -0.2989030865
O  O12  1  0.47910000  0.42330000  0.93920000  1.0 -0.3545597598
O  O13  1  0.29560000  0.73747000  0.00367000  1.0 -0.5005449534
O  O14  1  0.16530000  0.62750000  0.02680000  1.0 -0.4829932333
O  O15  1  0.18680000  0.72070000  0.11930000  1.0 -0.4921909042
O  O16  1  0.29870000  0.86970000  0.12600000  1.0 -0.4921909042
O  O17  1  0.64710000  0.60740000  0.02110000  1.0 -0.2989030865
O  O18  1  0.57670000  0.51590000  0.05580000  1.0 -0.3554055736
O  O19  1  0.73380000  0.29193000  0.99633000  1.0 -0.5005449534
O  O20  1  0.60070000  0.13850000  0.97320000  1.0 -0.4829932333
O  O21  1  0.60140000  0.06750000  0.88070000  1.0 -0.4921909042
O  O22  1  0.74370000  0.17270000  0.87400000  1.0 -0.4921909042
O  O23  1  0.58630000  0.62600000  0.97890000  1.0 -0.2989030865
O  O24  1  0.46010000  0.52090000  0.94420000  1.0 -0.3545597598
O  O25  1  0.76253000  0.20440000  0.99633000  1.0 -0.5005449534
O  O26  1  0.87250000  0.33470000  0.97320000  1.0 -0.4829932333
O  O27  1  0.77930000  0.31320000  0.88070000  1.0 -0.4921909042
O  O28  1  0.63030000  0.20130000  0.87400000  1.0 -0.4921909042
O  O29  1  0.89260000  0.85290000  0.97890000  1.0 -0.2989030865
O  O30  1  0.98410000  0.92330000  0.94420000  1.0 -0.3554055736
O  O31  1  0.20807000  0.76620000  0.00367000  1.0 -0.5005449534
O  O32  1  0.36150000  0.89930000  0.02680000  1.0 -0.4829932333
O  O33  1  0.43250000  0.89860000  0.11930000  1.0 -0.4921909042
O  O34  1  0.32730000  0.75630000  0.12600000  1.0 -0.4921909042
O  O35  1  0.87400000  0.91370000  0.02110000  1.0 -0.2989030865
O  O36  1  0.97910000  0.03990000  0.05580000  1.0 -0.3554055736
O  O37  1  0.79560000  0.79193000  0.55813000  1.0 -0.5005449534
O  O38  1  0.66530000  0.63850000  0.53780000  1.0 -0.4829932333
O  O39  1  0.68680000  0.56750000  0.46610000  1.0 -0.4921909042
O  O40  1  0.79870000  0.67270000  0.42900000  1.0 -0.4921909042
O  O41  1  0.14710000  0.12600000  0.03970000  1.0 -0.2989030865
O  O42  1  0.07670000  0.02090000  0.06080000  1.0 -0.3554055736
O  O43  1  0.23380000  0.23747000  0.44187000  1.0 -0.5005449534
O  O44  1  0.10070000  0.12750000  0.46220000  1.0 -0.4829932333
O  O45  1  0.10140000  0.22070000  0.53390000  1.0 -0.4921909042
O  O46  1  0.24370000  0.36970000  0.57100000  1.0 -0.4921909042
O  O47  1  0.08630000  0.10740000  0.96030000  1.0 -0.2989030865
O  O48  1  0.96010000  0.01590000  0.93920000  1.0 -0.3545597598
