# DDEC6 charges by PACMAN v1.1 (https://github.com/mtap-research/PACMAN-charge/)
data_KOCCUC_ASR_pacman
_symmetry_space_group_name_H-M   'P 1'
_cell_length_a   9.30280000
_cell_length_b   14.90430000
_cell_length_c   15.20920000
_cell_angle_alpha   70.59400000
_cell_angle_beta   83.47200000
_cell_angle_gamma   84.97800000
_symmetry_Int_Tables_number   1
_chemical_formula_structural   Cd3H32C54(NO6)2
_chemical_formula_sum   'Cd3 H32 C54 N2 O12'
_cell_volume   1973.29321096
_cell_formula_units_Z   1
loop_
 _symmetry_equiv_pos_site_id
 _symmetry_equiv_pos_as_xyz
  1  'x, y, z'
loop_
 _atom_site_type_symbol
 _atom_site_label
 _atom_site_symmetry_multiplicity
 _atom_site_fract_x
 _atom_site_fract_y
 _atom_site_fract_z
 _atom_site_occupancy
 _atom_site_charge
Cd  Cd1  1  0.50000000  0.50000000  0.00000000  1.0 1.0990804761
Cd  Cd2  1  0.65692000  0.72132000  0.03472000  1.0 0.8984257906
Cd  Cd3  1  0.34308000  0.27868000  0.96528000  1.0 0.8984257906
H  H1  1  0.19720000  0.22050000  0.90240000  1.0 0.2560378045
H  H2  1  0.80280000  0.77950000  0.09760000  1.0 0.2560378045
H  H3  1  0.10490000  0.30850000  0.89780000  1.0 0.3050923675
H  H4  1  0.89510000  0.69150000  0.10220000  1.0 0.3050923675
H  H5  1  0.15590000  0.50200000  0.59220000  1.0 0.121101499
H  H6  1  0.84410000  0.49800000  0.40780000  1.0 0.121101499
H  H7  1  0.30890000  0.57240000  0.47220000  1.0 0.112051927
H  H8  1  0.69110000  0.42760000  0.52780000  1.0 0.112051927
H  H9  1  0.65770000  0.06060000  0.86470000  1.0 0.121101499
H  H10  1  0.34230000  0.93940000  0.13530000  1.0 0.121101499
H  H11  1  0.39400000  0.63820000  0.31730000  1.0 0.121101499
H  H12  1  0.60600000  0.36180000  0.68270000  1.0 0.121101499
H  H13  1  0.55640000  0.20780000  0.78040000  1.0 0.121101499
H  H14  1  0.44360000  0.79220000  0.21960000  1.0 0.121101499
H  H15  1  0.40290000  0.26560000  0.60270000  1.0 0.112051927
H  H16  1  0.59710000  0.73440000  0.39730000  1.0 0.112051927
H  H17  1  0.48280000  0.37720000  0.29800000  1.0 0.1275546282
H  H18  1  0.51720000  0.62280000  0.70200000  1.0 0.1275546282
H  H19  1  0.27710000  0.94420000  0.88580000  1.0 0.121101499
H  H20  1  0.72290000  0.05580000  0.11420000  1.0 0.121101499
H  H21  1  0.39790000  0.31090000  0.45270000  1.0 0.121101499
H  H22  1  0.60210000  0.68910000  0.54730000  1.0 0.121101499
H  H23  1  0.08750000  0.58510000  0.91190000  1.0 0.121101499
H  H24  1  0.91250000  0.41490000  0.08810000  1.0 0.121101499
H  H25  1  0.17740000  0.09010000  0.80210000  1.0 0.121101499
H  H26  1  0.82260000  0.90990000  0.19790000  1.0 0.121101499
H  H27  1  0.73090000  0.55010000  0.80600000  1.0 0.112051927
H  H28  1  0.26910000  0.44990000  0.19400000  1.0 0.112051927
H  H29  1  0.86760000  0.46530000  0.72010000  1.0 0.121101499
H  H30  1  0.13240000  0.53470000  0.27990000  1.0 0.121101499
H  H31  1  0.22150000  0.49130000  0.83440000  1.0 0.121101499
H  H32  1  0.77850000  0.50870000  0.16560000  1.0 0.121101499
C  C1  1  0.35590000  0.16430000  0.78110000  1.0 0.0649063766
C  C2  1  0.64410000  0.83570000  0.21890000  1.0 0.0649063766
C  C3  1  0.47870000  0.98770000  0.88330000  1.0 -0.0319122437
C  C4  1  0.52130000  0.01230000  0.11670000  1.0 -0.0319122437
C  C5  1  0.44510000  0.51440000  0.29110000  1.0 -0.0513199464
C  C6  1  0.55490000  0.48560000  0.70890000  1.0 -0.0513199464
C  C7  1  0.80910000  0.62780000  0.92420000  1.0 0.5698116452
C  C8  1  0.19090000  0.37220000  0.07580000  1.0 0.5698116452
C  C9  1  0.54670000  0.89320000  0.93670000  1.0 0.5502648979
C  C10  1  0.45330000  0.10680000  0.06330000  1.0 0.5502648979
C  C11  1  0.05950000  0.46440000  0.77080000  1.0 0.0807084769
C  C12  1  0.94050000  0.53560000  0.22920000  1.0 0.0807084769
C  C13  1  0.19270000  0.44200000  0.62630000  1.0 -0.1815544002
C  C14  1  0.80730000  0.55800000  0.37370000  1.0 -0.1815544002
C  C15  1  0.34260000  0.53280000  0.43740000  1.0 -0.1489340142
C  C16  1  0.65740000  0.46720000  0.56260000  1.0 -0.1489340142
C  C17  1  0.28880000  0.39150000  0.58010000  1.0 0.0700591571
C  C18  1  0.71120000  0.60850000  0.41990000  1.0 0.0700591571
C  C19  1  0.56120000  0.06640000  0.85190000  1.0 -0.0835089132
C  C20  1  0.43880000  0.93360000  0.14810000  1.0 -0.0835089132
C  C21  1  0.39380000  0.57230000  0.34440000  1.0 -0.1010917619
C  C22  1  0.60620000  0.42770000  0.65560000  1.0 -0.1010917619
C  C23  1  0.89480000  0.57240000  0.86960000  1.0 -0.0319122437
C  C24  1  0.10520000  0.42760000  0.13040000  1.0 -0.0319122437
C  C25  1  0.29400000  0.25930000  0.72730000  1.0 -0.012061088
C  C26  1  0.70600000  0.74070000  0.27270000  1.0 -0.012061088
C  C27  1  0.34100000  0.43380000  0.47970000  1.0 0.0700591571
C  C28  1  0.65900000  0.56620000  0.52030000  1.0 0.0700591571
C  C29  1  0.50040000  0.15480000  0.80110000  1.0 -0.1489340142
C  C30  1  0.49960000  0.84520000  0.19890000  1.0 -0.1489340142
C  C31  1  0.49630000  0.55610000  0.18940000  1.0 0.5698116452
C  C32  1  0.50370000  0.44390000  0.81060000  1.0 0.5698116452
C  C33  1  0.33840000  0.30020000  0.63210000  1.0 -0.1815544002
C  C34  1  0.66160000  0.69980000  0.36790000  1.0 -0.1815544002
C  C35  1  0.20070000  0.31260000  0.77160000  1.0 0.1576365858
C  C36  1  0.79930000  0.68740000  0.22840000  1.0 0.1576365858
C  C37  1  0.44700000  0.41660000  0.33270000  1.0 -0.1010917619
C  C38  1  0.55300000  0.58340000  0.66730000  1.0 -0.1010917619
C  C39  1  0.33360000  0.99700000  0.86440000  1.0 -0.0835089132
C  C40  1  0.66640000  0.00300000  0.13560000  1.0 -0.0835089132
C  C41  1  0.39570000  0.37680000  0.42570000  1.0 -0.1489340142
C  C42  1  0.60430000  0.62320000  0.57430000  1.0 -0.1489340142
C  C43  1  0.15040000  0.40560000  0.72130000  1.0 -0.012061088
C  C44  1  0.84960000  0.59440000  0.27870000  1.0 -0.012061088
C  C45  1  0.04230000  0.55810000  0.87600000  1.0 -0.093777404
C  C46  1  0.95770000  0.44190000  0.12400000  1.0 -0.093777404
C  C47  1  0.27420000  0.08450000  0.81410000  1.0 -0.1489340142
C  C48  1  0.72580000  0.91550000  0.18590000  1.0 -0.1489340142
C  C49  1  0.82990000  0.53840000  0.81160000  1.0 -0.1087326936
C  C50  1  0.17010000  0.46160000  0.18840000  1.0 -0.1087326936
C  C51  1  0.91200000  0.48610000  0.76110000  1.0 -0.1333144278
C  C52  1  0.08800000  0.51390000  0.23890000  1.0 -0.1333144278
C  C53  1  0.12270000  0.50280000  0.82810000  1.0 -0.1489340142
C  C54  1  0.87730000  0.49720000  0.17190000  1.0 -0.1489340142
N  N1  1  0.16250000  0.27560000  0.87040000  1.0 -0.5305627853
N  N2  1  0.83750000  0.72440000  0.12960000  1.0 -0.5305627853
O  O1  1  0.46920000  0.81985000  0.96240000  1.0 -0.5492181152
O  O2  1  0.53080000  0.18015000  0.03760000  1.0 -0.5492181152
O  O3  1  0.67420000  0.88614000  0.95700000  1.0 -0.5444372565
O  O4  1  0.32580000  0.11386000  0.04300000  1.0 -0.5444372565
O  O5  1  0.67420000  0.61568000  0.94734000  1.0 -0.5967686444
O  O6  1  0.32580000  0.38432000  0.05266000  1.0 -0.5967686444
O  O7  1  0.86780000  0.68860000  0.94640000  1.0 -0.5158593327
O  O8  1  0.13220000  0.31140000  0.05360000  1.0 -0.5158593327
O  O9  1  0.52350000  0.49959000  0.14368000  1.0 -0.5789439351
O  O10  1  0.47650000  0.50041000  0.85632000  1.0 -0.5789439351
O  O11  1  0.50940000  0.64498000  0.15702000  1.0 -0.5492181152
O  O12  1  0.49060000  0.35502000  0.84298000  1.0 -0.5492181152
