# DDEC6 charges by PACMAN v1.1 (https://github.com/mtap-research/PACMAN-charge/)
data_KOCGOC_ASR_pacman
_symmetry_space_group_name_H-M   'P 1'
_cell_length_a   20.75790000
_cell_length_b   20.75790000
_cell_length_c   13.22710000
_cell_angle_alpha   90.00000000
_cell_angle_beta   90.00000000
_cell_angle_gamma   120.00000000
_symmetry_Int_Tables_number   1
_chemical_formula_structural   Mn2NiH12C24(N2O)6
_chemical_formula_sum   'Mn4 Ni2 H24 C48 N24 O12'
_cell_volume   4935.85166418
_cell_formula_units_Z   2
loop_
 _symmetry_equiv_pos_site_id
 _symmetry_equiv_pos_as_xyz
  1  'x, y, z'
loop_
 _atom_site_type_symbol
 _atom_site_label
 _atom_site_symmetry_multiplicity
 _atom_site_fract_x
 _atom_site_fract_y
 _atom_site_fract_z
 _atom_site_occupancy
 _atom_site_charge
Mn  Mn1  1  0.66666667  0.33333333  0.10848000  1.0 0.6074267752
Mn  Mn2  1  0.66666667  0.33333333  0.39152000  1.0 0.6074267752
Mn  Mn3  1  0.33333333  0.66666667  0.60848000  1.0 0.6074267752
Mn  Mn4  1  0.33333333  0.66666667  0.89152000  1.0 0.6074267752
Ni  Ni1  1  0.33333333  0.66666667  0.25000000  1.0 0.9172965414
Ni  Ni2  1  0.66666667  0.33333333  0.75000000  1.0 0.9172965414
H  H1  1  0.45190000  0.54810000  0.09930000  1.0 0.1336050309
H  H2  1  0.45190000  0.90380000  0.09930000  1.0 0.1336050309
H  H3  1  0.09620000  0.54810000  0.09930000  1.0 0.1336050309
H  H4  1  0.45190000  0.54810000  0.40070000  1.0 0.1336050309
H  H5  1  0.09620000  0.54810000  0.40070000  1.0 0.1336050309
H  H6  1  0.45190000  0.90380000  0.40070000  1.0 0.1336050309
H  H7  1  0.51600000  0.48400000  0.09900000  1.0 0.1191805578
H  H8  1  0.51600000  0.03200000  0.09900000  1.0 0.1191805578
H  H9  1  0.96800000  0.48400000  0.09900000  1.0 0.1191805578
H  H10  1  0.51600000  0.48400000  0.40100000  1.0 0.1191805578
H  H11  1  0.96800000  0.48400000  0.40100000  1.0 0.1191805578
H  H12  1  0.51600000  0.03200000  0.40100000  1.0 0.1191805578
H  H13  1  0.54810000  0.45190000  0.59930000  1.0 0.1336050309
H  H14  1  0.54810000  0.09620000  0.59930000  1.0 0.1336050309
H  H15  1  0.90380000  0.45190000  0.59930000  1.0 0.1336050309
H  H16  1  0.54810000  0.45190000  0.90070000  1.0 0.1336050309
H  H17  1  0.90380000  0.45190000  0.90070000  1.0 0.1336050309
H  H18  1  0.54810000  0.09620000  0.90070000  1.0 0.1336050309
H  H19  1  0.48400000  0.51600000  0.59900000  1.0 0.1191805578
H  H20  1  0.48400000  0.96800000  0.59900000  1.0 0.1191805578
H  H21  1  0.03200000  0.51600000  0.59900000  1.0 0.1191805578
H  H22  1  0.48400000  0.51600000  0.90100000  1.0 0.1191805578
H  H23  1  0.03200000  0.51600000  0.90100000  1.0 0.1191805578
H  H24  1  0.48400000  0.96800000  0.90100000  1.0 0.1191805578
C  C1  1  0.40386000  0.59614000  0.25000000  1.0 0.5386012323
C  C2  1  0.40386000  0.80772000  0.25000000  1.0 0.5386012323
C  C3  1  0.19228000  0.59614000  0.25000000  1.0 0.5386012323
C  C4  1  0.44548000  0.55452000  0.25000000  1.0 0.0082388703
C  C5  1  0.44548000  0.89096000  0.25000000  1.0 0.0082388703
C  C6  1  0.10904000  0.55452000  0.25000000  1.0 0.0082388703
C  C7  1  0.46479000  0.53521000  0.16030000  1.0 -0.0871698767
C  C8  1  0.46479000  0.92958000  0.16030000  1.0 -0.0871698767
C  C9  1  0.07042000  0.53521000  0.16030000  1.0 -0.0871698767
C  C10  1  0.46479000  0.53521000  0.33970000  1.0 -0.0871698767
C  C11  1  0.07042000  0.53521000  0.33970000  1.0 -0.0871698767
C  C12  1  0.46479000  0.92958000  0.33970000  1.0 -0.0871698767
C  C13  1  0.50327000  0.49673000  0.16020000  1.0 -0.1139878108
C  C14  1  0.50327000  0.00654000  0.16020000  1.0 -0.1139878108
C  C15  1  0.99346000  0.49673000  0.16020000  1.0 -0.1139878108
C  C16  1  0.50327000  0.49673000  0.33980000  1.0 -0.1139878108
C  C17  1  0.99346000  0.49673000  0.33980000  1.0 -0.1139878108
C  C18  1  0.50327000  0.00654000  0.33980000  1.0 -0.1139878108
C  C19  1  0.52319000  0.47681000  0.25000000  1.0 0.0434467515
C  C20  1  0.52319000  0.04638000  0.25000000  1.0 0.0434467515
C  C21  1  0.95362000  0.47681000  0.25000000  1.0 0.0434467515
C  C22  1  0.56352000  0.43648000  0.25000000  1.0 0.2322628773
C  C23  1  0.56352000  0.12704000  0.25000000  1.0 0.2322628773
C  C24  1  0.87296000  0.43648000  0.25000000  1.0 0.2322628773
C  C25  1  0.59614000  0.40386000  0.75000000  1.0 0.5386012323
C  C26  1  0.59614000  0.19228000  0.75000000  1.0 0.5386012323
C  C27  1  0.80772000  0.40386000  0.75000000  1.0 0.5386012323
C  C28  1  0.55452000  0.44548000  0.75000000  1.0 0.0082388703
C  C29  1  0.55452000  0.10904000  0.75000000  1.0 0.0082388703
C  C30  1  0.89096000  0.44548000  0.75000000  1.0 0.0082388703
C  C31  1  0.53521000  0.46479000  0.66030000  1.0 -0.0871698767
C  C32  1  0.53521000  0.07042000  0.66030000  1.0 -0.0871698767
C  C33  1  0.92958000  0.46479000  0.66030000  1.0 -0.0871698767
C  C34  1  0.53521000  0.46479000  0.83970000  1.0 -0.0871698767
C  C35  1  0.92958000  0.46479000  0.83970000  1.0 -0.0871698767
C  C36  1  0.53521000  0.07042000  0.83970000  1.0 -0.0871698767
C  C37  1  0.49673000  0.50327000  0.66020000  1.0 -0.1139878108
C  C38  1  0.49673000  0.99346000  0.66020000  1.0 -0.1139878108
C  C39  1  0.00654000  0.50327000  0.66020000  1.0 -0.1139878108
C  C40  1  0.49673000  0.50327000  0.83980000  1.0 -0.1139878108
C  C41  1  0.00654000  0.50327000  0.83980000  1.0 -0.1139878108
C  C42  1  0.49673000  0.99346000  0.83980000  1.0 -0.1139878108
C  C43  1  0.47681000  0.52319000  0.75000000  1.0 0.0434467515
C  C44  1  0.47681000  0.95362000  0.75000000  1.0 0.0434467515
C  C45  1  0.04638000  0.52319000  0.75000000  1.0 0.0434467515
C  C46  1  0.43648000  0.56352000  0.75000000  1.0 0.2322628773
C  C47  1  0.43648000  0.87296000  0.75000000  1.0 0.2322628773
C  C48  1  0.12704000  0.56352000  0.75000000  1.0 0.2322628773
N  N1  1  0.61895000  0.38105000  0.20010000  1.0 -0.0284551921
N  N2  1  0.61895000  0.23790000  0.20010000  1.0 -0.0284551921
N  N3  1  0.76210000  0.38105000  0.20010000  1.0 -0.0284551921
N  N4  1  0.61895000  0.38105000  0.29990000  1.0 -0.0284551921
N  N5  1  0.76210000  0.38105000  0.29990000  1.0 -0.0284551921
N  N6  1  0.61895000  0.23790000  0.29990000  1.0 -0.0284551921
N  N7  1  0.58429000  0.41571000  0.16599000  1.0 -0.2425330155
N  N8  1  0.58429000  0.16858000  0.16599000  1.0 -0.2425330155
N  N9  1  0.83142000  0.41571000  0.16599000  1.0 -0.2425330155
N  N10  1  0.58429000  0.41571000  0.33401000  1.0 -0.2425330155
N  N11  1  0.83142000  0.41571000  0.33401000  1.0 -0.2425330155
N  N12  1  0.58429000  0.16858000  0.33401000  1.0 -0.2425330155
N  N13  1  0.38105000  0.61895000  0.70010000  1.0 -0.0284551921
N  N14  1  0.38105000  0.76210000  0.70010000  1.0 -0.0284551921
N  N15  1  0.23790000  0.61895000  0.70010000  1.0 -0.0284551921
N  N16  1  0.38105000  0.61895000  0.79990000  1.0 -0.0284551921
N  N17  1  0.23790000  0.61895000  0.79990000  1.0 -0.0284551921
N  N18  1  0.38105000  0.76210000  0.79990000  1.0 -0.0284551921
N  N19  1  0.41571000  0.58429000  0.66599000  1.0 -0.2425330155
N  N20  1  0.41571000  0.83142000  0.66599000  1.0 -0.2425330155
N  N21  1  0.16858000  0.58429000  0.66599000  1.0 -0.2425330155
N  N22  1  0.41571000  0.58429000  0.83401000  1.0 -0.2425330155
N  N23  1  0.16858000  0.58429000  0.83401000  1.0 -0.2425330155
N  N24  1  0.41571000  0.83142000  0.83401000  1.0 -0.2425330155
O  O1  1  0.38645000  0.61355000  0.16773000  1.0 -0.547272908
O  O2  1  0.38645000  0.77290000  0.16773000  1.0 -0.547272908
O  O3  1  0.22710000  0.61355000  0.16773000  1.0 -0.547272908
O  O4  1  0.38645000  0.61355000  0.33227000  1.0 -0.547272908
O  O5  1  0.22710000  0.61355000  0.33227000  1.0 -0.547272908
O  O6  1  0.38645000  0.77290000  0.33227000  1.0 -0.547272908
O  O7  1  0.61355000  0.38645000  0.66773000  1.0 -0.547272908
O  O8  1  0.61355000  0.22710000  0.66773000  1.0 -0.547272908
O  O9  1  0.77290000  0.38645000  0.66773000  1.0 -0.547272908
O  O10  1  0.61355000  0.38645000  0.83227000  1.0 -0.547272908
O  O11  1  0.77290000  0.38645000  0.83227000  1.0 -0.547272908
O  O12  1  0.61355000  0.22710000  0.83227000  1.0 -0.547272908
