# DDEC6 charges by PACMAN v1.1 (https://github.com/mtap-research/PACMAN-charge/)
data_KODDUF_ASR_pacman
_symmetry_space_group_name_H-M   'P 1'
_cell_length_a   11.80270000
_cell_length_b   11.80270000
_cell_length_c   22.92230000
_cell_angle_alpha   67.24660000
_cell_angle_beta   112.75300000
_cell_angle_gamma   121.93400000
_symmetry_Int_Tables_number   1
_chemical_formula_structural   CoH56C54(SN3)2
_chemical_formula_sum   'Co2 H112 C108 S4 N12'
_cell_volume   2430.35849390
_cell_formula_units_Z   2
loop_
 _symmetry_equiv_pos_site_id
 _symmetry_equiv_pos_as_xyz
  1  'x, y, z'
loop_
 _atom_site_type_symbol
 _atom_site_label
 _atom_site_symmetry_multiplicity
 _atom_site_fract_x
 _atom_site_fract_y
 _atom_site_fract_z
 _atom_site_occupancy
 _atom_site_charge
Co  Co1  1  0.00018000  0.00018000  0.75000000  1.0 0.7040796349
Co  Co2  1  0.99982000  0.99982000  0.25000000  1.0 0.7040796349
H  H1  1  0.32070000  0.50290000  0.66590000  1.0 0.1360085377
H  H2  1  0.48010000  0.69810000  0.69960000  1.0 0.1360085377
H  H3  1  0.12250000  0.29950000  0.66770000  1.0 0.1080252843
H  H4  1  0.68400000  0.89580000  0.70280000  1.0 0.1080252843
H  H5  1  0.03190000  0.83490000  0.89560000  1.0 0.1080252843
H  H6  1  0.03460000  0.83380000  0.99620000  1.0 0.1293485606
H  H7  1  0.96700000  0.16640000  0.91430000  1.0 0.1293485606
H  H8  1  0.97040000  0.16020000  0.81700000  1.0 0.1080252843
H  H9  1  0.50290000  0.32070000  0.83410000  1.0 0.1360085377
H  H10  1  0.69810000  0.48010000  0.80040000  1.0 0.1360085377
H  H11  1  0.29950000  0.12250000  0.83230000  1.0 0.1080252843
H  H12  1  0.89580000  0.68400000  0.79720000  1.0 0.1080252843
H  H13  1  0.83490000  0.03190000  0.60440000  1.0 0.1080252843
H  H14  1  0.83380000  0.03460000  0.50380000  1.0 0.1293485606
H  H15  1  0.16640000  0.96700000  0.58570000  1.0 0.1293485606
H  H16  1  0.16020000  0.97040000  0.68300000  1.0 0.1080252843
H  H17  1  0.67930000  0.49710000  0.33410000  1.0 0.1360085377
H  H18  1  0.51990000  0.30190000  0.30040000  1.0 0.1360085377
H  H19  1  0.87750000  0.70050000  0.33230000  1.0 0.1080252843
H  H20  1  0.31600000  0.10420000  0.29720000  1.0 0.1080252843
H  H21  1  0.96810000  0.16510000  0.10440000  1.0 0.1080252843
H  H22  1  0.96540000  0.16620000  0.00380000  1.0 0.1293485606
H  H23  1  0.03300000  0.83360000  0.08570000  1.0 0.1293485606
H  H24  1  0.02960000  0.83980000  0.18300000  1.0 0.1080252843
H  H25  1  0.49710000  0.67930000  0.16590000  1.0 0.1360085377
H  H26  1  0.30190000  0.51990000  0.19960000  1.0 0.1360085377
H  H27  1  0.70050000  0.87750000  0.16770000  1.0 0.1080252843
H  H28  1  0.10420000  0.31600000  0.20280000  1.0 0.1080252843
H  H29  1  0.16510000  0.96810000  0.39560000  1.0 0.1080252843
H  H30  1  0.16620000  0.96540000  0.49620000  1.0 0.1293485606
H  H31  1  0.83360000  0.03300000  0.41430000  1.0 0.1293485606
H  H32  1  0.83980000  0.02960000  0.31700000  1.0 0.1080252843
H  H33  1  0.26680000  0.32560000  0.35480000  1.0 0.0808586148
H  H34  1  0.16770000  0.38410000  0.40250000  1.0 0.1165160903
H  H35  1  0.51850000  0.25450000  0.52970000  1.0 0.0903858627
H  H36  1  0.44220000  0.26080000  0.41830000  1.0 0.067609009
H  H37  1  0.51190000  0.27010000  0.62440000  1.0 0.0808586148
H  H38  1  0.48930000  0.39890000  0.61510000  1.0 0.0903858627
H  H39  1  0.36890000  0.24650000  0.62910000  1.0 0.0903858627
H  H40  1  0.16760000  0.43020000  0.49380000  1.0 0.0989970201
H  H41  1  0.17350000  0.30630000  0.55510000  1.0 0.0808586148
H  H42  1  0.30170000  0.45530000  0.55230000  1.0 0.0989970201
H  H43  1  0.65710000  0.82350000  0.35970000  1.0 0.0808586148
H  H44  1  0.42360000  0.67460000  0.33220000  1.0 0.0989970201
H  H45  1  0.72750000  0.50490000  0.48960000  1.0 0.0989970201
H  H46  1  0.80910000  0.73870000  0.43840000  1.0 0.0903858627
H  H47  1  0.53110000  0.27910000  0.46270000  1.0 0.0808586148
H  H48  1  0.38330000  0.26690000  0.45240000  1.0 0.0808586148
H  H49  1  0.49850000  0.30330000  0.51730000  1.0 0.0989970201
H  H50  1  0.26340000  0.44440000  0.32960000  1.0 0.0903858627
H  H51  1  0.24680000  0.42300000  0.39970000  1.0 0.1080252843
H  H52  1  0.28180000  0.32080000  0.38780000  1.0 0.0903858627
H  H53  1  0.73320000  0.67440000  0.64520000  1.0 0.0808586148
H  H54  1  0.83230000  0.61590000  0.59750000  1.0 0.1165160903
H  H55  1  0.48150000  0.74550000  0.47030000  1.0 0.0903858627
H  H56  1  0.55780000  0.73920000  0.58170000  1.0 0.067609009
H  H57  1  0.48810000  0.72990000  0.37560000  1.0 0.0808586148
H  H58  1  0.51070000  0.60110000  0.38490000  1.0 0.0903858627
H  H59  1  0.63110000  0.75350000  0.37090000  1.0 0.0903858627
H  H60  1  0.83240000  0.56980000  0.50620000  1.0 0.0989970201
H  H61  1  0.82650000  0.69370000  0.44490000  1.0 0.0808586148
H  H62  1  0.69830000  0.54470000  0.44770000  1.0 0.0989970201
H  H63  1  0.34290000  0.17650000  0.64030000  1.0 0.0808586148
H  H64  1  0.57640000  0.32540000  0.66780000  1.0 0.0989970201
H  H65  1  0.27250000  0.49510000  0.51040000  1.0 0.0989970201
H  H66  1  0.19090000  0.26130000  0.56160000  1.0 0.0903858627
H  H67  1  0.46890000  0.72090000  0.53730000  1.0 0.0808586148
H  H68  1  0.61670000  0.73310000  0.54760000  1.0 0.0808586148
H  H69  1  0.50150000  0.69670000  0.48270000  1.0 0.0989970201
H  H70  1  0.73660000  0.55560000  0.67040000  1.0 0.0903858627
H  H71  1  0.75320000  0.57700000  0.60030000  1.0 0.1080252843
H  H72  1  0.71820000  0.67920000  0.61220000  1.0 0.0903858627
H  H73  1  0.32560000  0.26680000  0.14520000  1.0 0.0808586148
H  H74  1  0.38410000  0.16770000  0.09750000  1.0 0.1165160903
H  H75  1  0.25450000  0.51850000  0.97030000  1.0 0.0903858627
H  H76  1  0.26080000  0.44220000  0.08170000  1.0 0.067609009
H  H77  1  0.27010000  0.51190000  0.87560000  1.0 0.0808586148
H  H78  1  0.39890000  0.48930000  0.88490000  1.0 0.0903858627
H  H79  1  0.24650000  0.36890000  0.87090000  1.0 0.0903858627
H  H80  1  0.43020000  0.16760000  0.00620000  1.0 0.0989970201
H  H81  1  0.30630000  0.17350000  0.94490000  1.0 0.0808586148
H  H82  1  0.45530000  0.30170000  0.94770000  1.0 0.0989970201
H  H83  1  0.82350000  0.65710000  0.14030000  1.0 0.0808586148
H  H84  1  0.67460000  0.42360000  0.16780000  1.0 0.0989970201
H  H85  1  0.50490000  0.72750000  0.01040000  1.0 0.0989970201
H  H86  1  0.73870000  0.80910000  0.06160000  1.0 0.0903858627
H  H87  1  0.27910000  0.53110000  0.03730000  1.0 0.0808586148
H  H88  1  0.26690000  0.38330000  0.04760000  1.0 0.0808586148
H  H89  1  0.30330000  0.49850000  0.98270000  1.0 0.0989970201
H  H90  1  0.44440000  0.26340000  0.17040000  1.0 0.0903858627
H  H91  1  0.42300000  0.24680000  0.10030000  1.0 0.1080252843
H  H92  1  0.32080000  0.28180000  0.11220000  1.0 0.0903858627
H  H93  1  0.67440000  0.73320000  0.85480000  1.0 0.0808586148
H  H94  1  0.61590000  0.83230000  0.90250000  1.0 0.1165160903
H  H95  1  0.74550000  0.48150000  0.02970000  1.0 0.0903858627
H  H96  1  0.73920000  0.55780000  0.91830000  1.0 0.067609009
H  H97  1  0.72990000  0.48810000  0.12440000  1.0 0.0808586148
H  H98  1  0.60110000  0.51070000  0.11510000  1.0 0.0903858627
H  H99  1  0.75350000  0.63110000  0.12910000  1.0 0.0903858627
H  H100  1  0.56980000  0.83240000  0.99380000  1.0 0.0989970201
H  H101  1  0.69370000  0.82650000  0.05510000  1.0 0.0808586148
H  H102  1  0.54470000  0.69830000  0.05230000  1.0 0.0989970201
H  H103  1  0.17650000  0.34290000  0.85970000  1.0 0.0808586148
H  H104  1  0.32540000  0.57640000  0.83220000  1.0 0.0989970201
H  H105  1  0.49510000  0.27250000  0.98960000  1.0 0.0989970201
H  H106  1  0.26130000  0.19090000  0.93840000  1.0 0.0903858627
H  H107  1  0.72090000  0.46890000  0.96270000  1.0 0.0808586148
H  H108  1  0.73310000  0.61670000  0.95240000  1.0 0.0808586148
H  H109  1  0.69670000  0.50150000  0.01730000  1.0 0.0989970201
H  H110  1  0.55560000  0.73660000  0.82960000  1.0 0.0903858627
H  H111  1  0.57700000  0.75320000  0.89970000  1.0 0.1080252843
H  H112  1  0.67920000  0.71820000  0.88780000  1.0 0.0903858627
C  C1  1  0.31870000  0.42530000  0.70070000  1.0 -0.2304938126
C  C2  1  0.56430000  0.69230000  0.72070000  1.0 -0.2304938126
C  C3  1  0.00050000  0.99950000  0.96840000  1.0 0.0643135229
C  C4  1  0.20110000  0.30390000  0.70220000  1.0 0.0527070755
C  C5  1  0.84920000  0.19460000  0.67220000  1.0 0.2484961221
C  C6  1  0.68660000  0.80980000  0.72230000  1.0 0.0417502602
C  C7  1  0.01960000  0.90500000  0.89940000  1.0 0.0417502602
C  C8  1  0.02020000  0.90300000  0.95980000  1.0 -0.2304938126
C  C9  1  0.98160000  0.09640000  0.91230000  1.0 -0.2304938126
C  C10  1  0.98370000  0.09170000  0.85420000  1.0 0.0417502602
C  C11  1  0.42530000  0.31870000  0.79930000  1.0 -0.2304938126
C  C12  1  0.69230000  0.56430000  0.77930000  1.0 -0.2304938126
C  C13  1  0.99950000  0.00050000  0.53160000  1.0 0.067609009
C  C14  1  0.30390000  0.20110000  0.79780000  1.0 0.0527070755
C  C15  1  0.19460000  0.84920000  0.82780000  1.0 0.2484961221
C  C16  1  0.80980000  0.68660000  0.77770000  1.0 0.0417502602
C  C17  1  0.90500000  0.01960000  0.60060000  1.0 0.0417502602
C  C18  1  0.90300000  0.02020000  0.54020000  1.0 -0.2247351637
C  C19  1  0.09640000  0.98160000  0.58770000  1.0 -0.2351036152
C  C20  1  0.09170000  0.98370000  0.64580000  1.0 0.0417502602
C  C21  1  0.68130000  0.57470000  0.29930000  1.0 -0.2304938126
C  C22  1  0.43570000  0.30770000  0.27930000  1.0 -0.2304938126
C  C23  1  0.99950000  0.00050000  0.03160000  1.0 0.067609009
C  C24  1  0.79890000  0.69610000  0.29780000  1.0 0.0527070755
C  C25  1  0.15080000  0.80540000  0.32780000  1.0 0.2484961221
C  C26  1  0.31340000  0.19020000  0.27770000  1.0 0.0417502602
C  C27  1  0.98040000  0.09500000  0.10060000  1.0 0.0417502602
C  C28  1  0.97980000  0.09700000  0.04020000  1.0 -0.2247351637
C  C29  1  0.01840000  0.90360000  0.08770000  1.0 -0.2351036152
C  C30  1  0.01630000  0.90830000  0.14580000  1.0 0.0417502602
C  C31  1  0.57470000  0.68130000  0.20070000  1.0 -0.2304938126
C  C32  1  0.30770000  0.43570000  0.22070000  1.0 -0.2351036152
C  C33  1  0.00050000  0.99950000  0.46840000  1.0 0.0643135229
C  C34  1  0.69610000  0.79890000  0.20220000  1.0 0.0527070755
C  C35  1  0.80540000  0.15080000  0.17220000  1.0 0.2484961221
C  C36  1  0.19020000  0.31340000  0.22230000  1.0 0.0417502602
C  C37  1  0.09500000  0.98040000  0.39940000  1.0 0.0417502602
C  C38  1  0.09700000  0.97980000  0.45980000  1.0 -0.2304938126
C  C39  1  0.90360000  0.01840000  0.41230000  1.0 -0.2304938126
C  C40  1  0.90830000  0.01630000  0.35420000  1.0 0.0417502602
C  C41  1  0.43410000  0.43410000  0.75000000  1.0 0.0417502602
C  C42  1  0.56430000  0.56430000  0.75000000  1.0 0.0808586148
C  C43  1  0.56590000  0.56590000  0.25000000  1.0 0.0417502602
C  C44  1  0.43570000  0.43570000  0.25000000  1.0 0.0808586148
C  C45  1  0.29780000  0.32300000  0.40000000  1.0 -0.0391033745
C  C46  1  0.23880000  0.35780000  0.42830000  1.0 -0.1511146823
C  C47  1  0.28420000  0.35400000  0.49450000  1.0 -0.006770054
C  C48  1  0.38840000  0.31560000  0.53220000  1.0 -0.006770054
C  C49  1  0.44730000  0.28070000  0.50390000  1.0 -0.1278925544
C  C50  1  0.40200000  0.28460000  0.43770000  1.0 -0.0391033745
C  C51  1  0.44490000  0.30690000  0.60720000  1.0 -0.1004194139
C  C52  1  0.22720000  0.38920000  0.52650000  1.0 -0.2013979635
C  C53  1  0.62400000  0.72860000  0.38050000  1.0 -0.0610871246
C  C54  1  0.48520000  0.64020000  0.36410000  1.0 -0.1355948678
C  C55  1  0.43670000  0.50130000  0.39450000  1.0 -0.0940684571
C  C56  1  0.52710000  0.45090000  0.44130000  1.0 -0.0281738696
C  C57  1  0.66580000  0.53940000  0.45770000  1.0 -0.1004194139
C  C58  1  0.71430000  0.67830000  0.42730000  1.0 -0.0520274645
C  C59  1  0.48200000  0.31600000  0.47040000  1.0 -0.1511146823
C  C60  1  0.29640000  0.41560000  0.37660000  1.0 -0.161671572
C  C61  1  0.70220000  0.67700000  0.60000000  1.0 -0.0391033745
C  C62  1  0.76120000  0.64220000  0.57170000  1.0 -0.1511146823
C  C63  1  0.71580000  0.64600000  0.50550000  1.0 -0.006770054
C  C64  1  0.61160000  0.68440000  0.46780000  1.0 -0.006770054
C  C65  1  0.55270000  0.71930000  0.49610000  1.0 -0.1278925544
C  C66  1  0.59800000  0.71540000  0.56230000  1.0 -0.0391033745
C  C67  1  0.55510000  0.69310000  0.39280000  1.0 -0.1004194139
C  C68  1  0.77280000  0.61080000  0.47350000  1.0 -0.2013979635
C  C69  1  0.37600000  0.27140000  0.61950000  1.0 -0.0610871246
C  C70  1  0.51480000  0.35980000  0.63590000  1.0 -0.1355948678
C  C71  1  0.56330000  0.49870000  0.60550000  1.0 -0.0940684571
C  C72  1  0.47290000  0.54910000  0.55870000  1.0 -0.0281738696
C  C73  1  0.33420000  0.46060000  0.54230000  1.0 -0.1004194139
C  C74  1  0.28570000  0.32170000  0.57270000  1.0 -0.0520274645
C  C75  1  0.51800000  0.68400000  0.52960000  1.0 -0.1511146823
C  C76  1  0.70360000  0.58440000  0.62340000  1.0 -0.161671572
C  C77  1  0.32300000  0.29780000  0.10000000  1.0 -0.0391033745
C  C78  1  0.35780000  0.23880000  0.07170000  1.0 -0.1511146823
C  C79  1  0.35400000  0.28420000  0.00550000  1.0 -0.0046005413
C  C80  1  0.31560000  0.38840000  0.96780000  1.0 -0.006770054
C  C81  1  0.28070000  0.44730000  0.99610000  1.0 -0.1278925544
C  C82  1  0.28460000  0.40200000  0.06230000  1.0 -0.0391033745
C  C83  1  0.30690000  0.44490000  0.89280000  1.0 -0.1004194139
C  C84  1  0.38920000  0.22720000  0.97350000  1.0 -0.2013979635
C  C85  1  0.72860000  0.62400000  0.11950000  1.0 -0.0610871246
C  C86  1  0.64020000  0.48520000  0.13590000  1.0 -0.1355948678
C  C87  1  0.50130000  0.43670000  0.10550000  1.0 -0.0940684571
C  C88  1  0.45090000  0.52710000  0.05870000  1.0 -0.0281738696
C  C89  1  0.53940000  0.66580000  0.04230000  1.0 -0.1004194139
C  C90  1  0.67830000  0.71430000  0.07270000  1.0 -0.0520274645
C  C91  1  0.31600000  0.48200000  0.02960000  1.0 -0.1511146823
C  C92  1  0.41560000  0.29640000  0.12340000  1.0 -0.161671572
C  C93  1  0.67700000  0.70220000  0.90000000  1.0 -0.0391033745
C  C94  1  0.64220000  0.76120000  0.92830000  1.0 -0.1511146823
C  C95  1  0.64600000  0.71580000  0.99450000  1.0 -0.006770054
C  C96  1  0.68440000  0.61160000  0.03220000  1.0 -0.006770054
C  C97  1  0.71930000  0.55270000  0.00390000  1.0 -0.1278925544
C  C98  1  0.71540000  0.59800000  0.93770000  1.0 -0.0391033745
C  C99  1  0.69310000  0.55510000  0.10720000  1.0 -0.1004194139
C  C100  1  0.61080000  0.77280000  0.02650000  1.0 -0.2013979635
C  C101  1  0.27140000  0.37600000  0.88050000  1.0 -0.0610871246
C  C102  1  0.35980000  0.51480000  0.86410000  1.0 -0.1355948678
C  C103  1  0.49870000  0.56330000  0.89450000  1.0 -0.0940684571
C  C104  1  0.54910000  0.47290000  0.94130000  1.0 -0.0281738696
C  C105  1  0.46060000  0.33420000  0.95770000  1.0 -0.1004194139
C  C106  1  0.32170000  0.28570000  0.92730000  1.0 -0.0520274645
C  C107  1  0.68400000  0.51800000  0.97040000  1.0 -0.1511146823
C  C108  1  0.58440000  0.70360000  0.87660000  1.0 -0.161671572
S  S1  1  0.78649000  0.30111000  0.62494000  1.0 -0.3923586836
S  S2  1  0.30111000  0.78649000  0.87506000  1.0 -0.4010411135
S  S3  1  0.21351000  0.69889000  0.37506000  1.0 -0.4010411135
S  S4  1  0.69889000  0.21351000  0.12494000  1.0 -0.3923586836
N  N1  1  0.00290000  0.99890000  0.84580000  1.0 -0.2098367146
N  N2  1  0.89360000  0.11740000  0.70630000  1.0 -0.4777354828
N  N3  1  0.99890000  0.00290000  0.65420000  1.0 -0.2098367146
N  N4  1  0.11740000  0.89360000  0.79370000  1.0 -0.4777354828
N  N5  1  0.99710000  0.00110000  0.15420000  1.0 -0.2098367146
N  N6  1  0.10640000  0.88260000  0.29370000  1.0 -0.4777354828
N  N7  1  0.00110000  0.99710000  0.34580000  1.0 -0.2098367146
N  N8  1  0.88260000  0.10640000  0.20630000  1.0 -0.4777354828
N  N9  1  0.19110000  0.19110000  0.75000000  1.0 -0.2098367146
N  N10  1  0.80900000  0.80900000  0.75000000  1.0 -0.2304938126
N  N11  1  0.80890000  0.80890000  0.25000000  1.0 -0.2098367146
N  N12  1  0.19100000  0.19100000  0.25000000  1.0 -0.2304938126
