# DDEC6 charges by PACMAN v1.1 (https://github.com/mtap-research/PACMAN-charge/)
data_KODPUP_FSR_pacman
_symmetry_space_group_name_H-M   'P 1'
_cell_length_a   7.77800000
_cell_length_b   19.72400000
_cell_length_c   22.01200000
_cell_angle_alpha   90.00000000
_cell_angle_beta   90.00000000
_cell_angle_gamma   90.00000000
_symmetry_Int_Tables_number   1
_chemical_formula_structural   NdC13O7
_chemical_formula_sum   'Nd8 C104 O56'
_cell_volume   3376.93294326
_cell_formula_units_Z   8
loop_
 _symmetry_equiv_pos_site_id
 _symmetry_equiv_pos_as_xyz
  1  'x, y, z'
loop_
 _atom_site_type_symbol
 _atom_site_label
 _atom_site_symmetry_multiplicity
 _atom_site_fract_x
 _atom_site_fract_y
 _atom_site_fract_z
 _atom_site_occupancy
 _atom_site_charge
Nd  Nd1  1  0.42280000  0.05520000  0.28110000  1.0 1.998019299
Nd  Nd2  1  0.07720000  0.55520000  0.21890000  1.0 1.998019299
Nd  Nd3  1  0.07720000  0.94480000  0.78110000  1.0 1.998019299
Nd  Nd4  1  0.42280000  0.44480000  0.71890000  1.0 1.998019299
Nd  Nd5  1  0.57720000  0.94480000  0.71890000  1.0 1.998019299
Nd  Nd6  1  0.92280000  0.44480000  0.78110000  1.0 1.998019299
Nd  Nd7  1  0.92280000  0.05520000  0.21890000  1.0 1.998019299
Nd  Nd8  1  0.57720000  0.55520000  0.28110000  1.0 1.998019299
C  C1  1  0.14950000  0.17170000  0.20060000  1.0 0.5064156265
C  C2  1  0.35050000  0.67170000  0.29940000  1.0 0.5064156265
C  C3  1  0.35050000  0.82830000  0.70060000  1.0 0.5064156265
C  C4  1  0.14950000  0.32830000  0.79940000  1.0 0.5064156265
C  C5  1  0.85050000  0.82830000  0.79940000  1.0 0.5064156265
C  C6  1  0.64950000  0.32830000  0.70060000  1.0 0.5064156265
C  C7  1  0.64950000  0.17170000  0.29940000  1.0 0.5064156265
C  C8  1  0.85050000  0.67170000  0.20060000  1.0 0.5064156265
C  C9  1  0.28880000  0.22860000  0.19740000  1.0 0.0157681336
C  C10  1  0.21120000  0.72860000  0.30260000  1.0 0.0157681336
C  C11  1  0.21120000  0.77140000  0.69740000  1.0 0.0149161429
C  C12  1  0.28880000  0.27140000  0.80260000  1.0 0.0149161429
C  C13  1  0.71120000  0.77140000  0.80260000  1.0 0.0157681336
C  C14  1  0.78880000  0.27140000  0.69740000  1.0 0.0157681336
C  C15  1  0.78880000  0.22860000  0.30260000  1.0 0.0157681336
C  C16  1  0.71120000  0.72860000  0.19740000  1.0 0.0157681336
C  C17  1  0.24030000  0.28380000  0.15330000  1.0 0.0323278573
C  C18  1  0.25970000  0.78380000  0.34670000  1.0 0.0323278573
C  C19  1  0.25970000  0.71620000  0.65330000  1.0 0.0323278573
C  C20  1  0.24030000  0.21620000  0.84670000  1.0 0.0323278573
C  C21  1  0.75970000  0.71620000  0.84670000  1.0 0.0323278573
C  C22  1  0.74030000  0.21620000  0.65330000  1.0 0.0323278573
C  C23  1  0.74030000  0.28380000  0.34670000  1.0 0.0323278573
C  C24  1  0.75970000  0.78380000  0.15330000  1.0 0.0323278573
C  C25  1  0.00410000  0.07040000  0.43800000  1.0 -0.1591180577
C  C26  1  0.49590000  0.57040000  0.06200000  1.0 -0.1591180577
C  C27  1  0.49590000  0.92960000  0.93800000  1.0 -0.1591180577
C  C28  1  0.00410000  0.42960000  0.56200000  1.0 -0.1591180577
C  C29  1  0.99590000  0.92960000  0.56200000  1.0 -0.1591180577
C  C30  1  0.50410000  0.42960000  0.93800000  1.0 -0.1591180577
C  C31  1  0.50410000  0.07040000  0.06200000  1.0 -0.1591180577
C  C32  1  0.99590000  0.57040000  0.43800000  1.0 -0.1591180577
C  C33  1  0.38010000  0.33510000  0.14090000  1.0 0.1226774068
C  C34  1  0.11990000  0.83510000  0.35910000  1.0 0.1226774068
C  C35  1  0.11990000  0.66490000  0.64090000  1.0 0.1226774068
C  C36  1  0.38010000  0.16490000  0.85910000  1.0 0.1226774068
C  C37  1  0.61990000  0.66490000  0.85910000  1.0 0.1226774068
C  C38  1  0.88010000  0.16490000  0.64090000  1.0 0.1226774068
C  C39  1  0.88010000  0.33510000  0.35910000  1.0 0.1226774068
C  C40  1  0.61990000  0.83510000  0.14090000  1.0 0.1226774068
C  C41  1  0.42690000  0.37990000  0.19420000  1.0 -0.0513979173
C  C42  1  0.07310000  0.87990000  0.30580000  1.0 -0.0513979173
C  C43  1  0.07310000  0.62010000  0.69420000  1.0 -0.0513979173
C  C44  1  0.42690000  0.12010000  0.80580000  1.0 -0.0513979173
C  C45  1  0.57310000  0.62010000  0.80580000  1.0 -0.0513979173
C  C46  1  0.92690000  0.12010000  0.69420000  1.0 -0.0513979173
C  C47  1  0.92690000  0.37990000  0.30580000  1.0 -0.0513979173
C  C48  1  0.57310000  0.87990000  0.19420000  1.0 -0.0513979173
C  C49  1  0.30180000  0.43660000  0.20800000  1.0 0.4813949675
C  C50  1  0.19820000  0.93660000  0.29200000  1.0 0.4813949675
C  C51  1  0.19820000  0.56340000  0.70800000  1.0 0.4813949675
C  C52  1  0.30180000  0.06340000  0.79200000  1.0 0.4813949675
C  C53  1  0.69820000  0.56340000  0.79200000  1.0 0.4813949675
C  C54  1  0.80180000  0.06340000  0.70800000  1.0 0.4813949675
C  C55  1  0.80180000  0.43660000  0.29200000  1.0 0.4813949675
C  C56  1  0.69820000  0.93660000  0.20800000  1.0 0.4813949675
C  C57  1  0.06060000  0.06820000  0.37210000  1.0 0.6517211632
C  C58  1  0.43940000  0.56820000  0.12790000  1.0 0.6517211632
C  C59  1  0.43940000  0.93180000  0.87210000  1.0 0.6517211632
C  C60  1  0.06060000  0.43180000  0.62790000  1.0 0.6517211632
C  C61  1  0.93940000  0.93180000  0.62790000  1.0 0.6517211632
C  C62  1  0.56060000  0.43180000  0.87210000  1.0 0.6517211632
C  C63  1  0.56060000  0.06820000  0.12790000  1.0 0.6517211632
C  C64  1  0.93940000  0.56820000  0.37210000  1.0 0.6517211632
C  C65  1  0.02550000  0.00110000  0.46660000  1.0 0.059647989
C  C66  1  0.47450000  0.50110000  0.03340000  1.0 0.059647989
C  C67  1  0.47450000  0.99890000  0.96660000  1.0 0.059647989
C  C68  1  0.02550000  0.49890000  0.53340000  1.0 0.059647989
C  C69  1  0.97450000  0.99890000  0.53340000  1.0 0.059647989
C  C70  1  0.52550000  0.49890000  0.96660000  1.0 0.059647989
C  C71  1  0.52550000  0.00110000  0.03340000  1.0 0.059647989
C  C72  1  0.97450000  0.50110000  0.46660000  1.0 0.059647989
C  C73  1  0.27800000  0.21440000  0.16430000  1.0 0.0393495769
C  C74  1  0.22200000  0.71440000  0.33570000  1.0 0.0393495769
C  C75  1  0.22200000  0.78560000  0.66430000  1.0 0.0393495769
C  C76  1  0.27800000  0.28560000  0.83570000  1.0 0.0393495769
C  C77  1  0.72200000  0.78560000  0.83570000  1.0 0.0393495769
C  C78  1  0.77800000  0.28560000  0.66430000  1.0 0.0393495769
C  C79  1  0.77800000  0.21440000  0.33570000  1.0 0.0393495769
C  C80  1  0.72200000  0.71440000  0.16430000  1.0 0.0393495769
C  C81  1  0.29400000  0.28350000  0.19650000  1.0 -0.0208561729
C  C82  1  0.20600000  0.78350000  0.30350000  1.0 -0.0208561729
C  C83  1  0.20600000  0.71650000  0.69650000  1.0 -0.0208561729
C  C84  1  0.29400000  0.21650000  0.80350000  1.0 -0.0208561729
C  C85  1  0.70600000  0.71650000  0.80350000  1.0 -0.0208561729
C  C86  1  0.79400000  0.21650000  0.69650000  1.0 -0.0208561729
C  C87  1  0.79400000  0.28350000  0.30350000  1.0 -0.0208561729
C  C88  1  0.70600000  0.78350000  0.19650000  1.0 -0.0208561729
C  C89  1  0.41800000  0.32920000  0.16130000  1.0 0.0847526402
C  C90  1  0.08200000  0.82920000  0.33870000  1.0 0.0847526402
C  C91  1  0.08200000  0.67080000  0.66130000  1.0 0.0847526402
C  C92  1  0.41800000  0.17080000  0.83870000  1.0 0.0847526402
C  C93  1  0.58200000  0.67080000  0.83870000  1.0 0.085215515
C  C94  1  0.91800000  0.17080000  0.66130000  1.0 0.085215515
C  C95  1  0.91800000  0.32920000  0.33870000  1.0 0.085215515
C  C96  1  0.58200000  0.82920000  0.16130000  1.0 0.085215515
C  C97  1  0.46120000  0.39270000  0.19880000  1.0 -0.0266089046
C  C98  1  0.03880000  0.89270000  0.30120000  1.0 -0.0266089046
C  C99  1  0.03880000  0.60730000  0.69880000  1.0 -0.0266089046
C  C100  1  0.46120000  0.10730000  0.80120000  1.0 -0.0266089046
C  C101  1  0.53880000  0.60730000  0.80120000  1.0 -0.0266089046
C  C102  1  0.96120000  0.10730000  0.69880000  1.0 -0.0266089046
C  C103  1  0.96120000  0.39270000  0.30120000  1.0 -0.0266089046
C  C104  1  0.53880000  0.89270000  0.19880000  1.0 -0.0266089046
O  O1  1  0.19240000  0.12430000  0.23760000  1.0 -0.685053864
O  O2  1  0.30760000  0.62430000  0.26240000  1.0 -0.685053864
O  O3  1  0.30760000  0.87570000  0.73760000  1.0 -0.685053864
O  O4  1  0.19240000  0.37570000  0.76240000  1.0 -0.685053864
O  O5  1  0.80760000  0.87570000  0.76240000  1.0 -0.685053864
O  O6  1  0.69240000  0.37570000  0.73760000  1.0 -0.6847854643
O  O7  1  0.69240000  0.12430000  0.26240000  1.0 -0.6847854643
O  O8  1  0.80760000  0.62430000  0.23760000  1.0 -0.6847854643
O  O9  1  0.00150000  0.17460000  0.18030000  1.0 -0.5140581518
O  O10  1  0.49850000  0.67460000  0.31970000  1.0 -0.5155328899
O  O11  1  0.49850000  0.82540000  0.68030000  1.0 -0.5155328899
O  O12  1  0.00150000  0.32540000  0.81970000  1.0 -0.5140581518
O  O13  1  0.99850000  0.82540000  0.81970000  1.0 -0.5155328899
O  O14  1  0.50150000  0.32540000  0.68030000  1.0 -0.5140581518
O  O15  1  0.50150000  0.17460000  0.31970000  1.0 -0.5140581518
O  O16  1  0.99850000  0.67460000  0.18030000  1.0 -0.5155328899
O  O17  1  0.33210000  0.48070000  0.25070000  1.0 -0.6469286024
O  O18  1  0.16790000  0.98070000  0.24930000  1.0 -0.6469286024
O  O19  1  0.16790000  0.51930000  0.75070000  1.0 -0.6469286024
O  O20  1  0.33210000  0.01930000  0.74930000  1.0 -0.6469286024
O  O21  1  0.66790000  0.51930000  0.74930000  1.0 -0.6469286024
O  O22  1  0.83210000  0.01930000  0.75070000  1.0 -0.6469286024
O  O23  1  0.83210000  0.48070000  0.24930000  1.0 -0.6469286024
O  O24  1  0.66790000  0.98070000  0.25070000  1.0 -0.6469286024
O  O25  1  0.16540000  0.43910000  0.17940000  1.0 -0.4660435109
O  O26  1  0.33460000  0.93910000  0.32060000  1.0 -0.4660435109
O  O27  1  0.33460000  0.56090000  0.67940000  1.0 -0.4660435109
O  O28  1  0.16540000  0.06090000  0.82060000  1.0 -0.4660435109
O  O29  1  0.83460000  0.56090000  0.82060000  1.0 -0.4660435109
O  O30  1  0.66540000  0.06090000  0.67940000  1.0 -0.4660435109
O  O31  1  0.66540000  0.43910000  0.32060000  1.0 -0.4660435109
O  O32  1  0.83460000  0.93910000  0.17940000  1.0 -0.4660435109
O  O33  1  0.21640000  0.07530000  0.36100000  1.0 -0.609325388
O  O34  1  0.28360000  0.57530000  0.13900000  1.0 -0.609325388
O  O35  1  0.28360000  0.92470000  0.86100000  1.0 -0.609325388
O  O36  1  0.21640000  0.42470000  0.63900000  1.0 -0.609325388
O  O37  1  0.78360000  0.92470000  0.63900000  1.0 -0.609325388
O  O38  1  0.71640000  0.42470000  0.86100000  1.0 -0.609325388
O  O39  1  0.71640000  0.07530000  0.13900000  1.0 -0.609325388
O  O40  1  0.78360000  0.57530000  0.36100000  1.0 -0.609325388
O  O41  1  0.60800000  0.03610000  0.37100000  1.0 -0.1865036449
O  O42  1  0.89200000  0.53610000  0.12900000  1.0 -0.1830266356
O  O43  1  0.89200000  0.96390000  0.87100000  1.0 -0.1865036449
O  O44  1  0.60800000  0.46390000  0.62900000  1.0 -0.1865036449
O  O45  1  0.39200000  0.96390000  0.62900000  1.0 -0.1865036449
O  O46  1  0.10800000  0.46390000  0.87100000  1.0 -0.1865036449
O  O47  1  0.10800000  0.03610000  0.12900000  1.0 -0.1865036449
O  O48  1  0.39200000  0.53610000  0.37100000  1.0 -0.1865036449
O  O49  1  0.94670000  0.05570000  0.33230000  1.0 -0.6259967922
O  O50  1  0.55330000  0.55570000  0.16770000  1.0 -0.6259967922
O  O51  1  0.55330000  0.94430000  0.83230000  1.0 -0.6259967922
O  O52  1  0.94670000  0.44430000  0.66770000  1.0 -0.6259967922
O  O53  1  0.05330000  0.94430000  0.66770000  1.0 -0.6259967922
O  O54  1  0.44670000  0.44430000  0.83230000  1.0 -0.6259967922
O  O55  1  0.44670000  0.05570000  0.16770000  1.0 -0.6259967922
O  O56  1  0.05330000  0.55570000  0.33230000  1.0 -0.6259967922
