# DDEC6 charges by PACMAN v1.1 (https://github.com/mtap-research/PACMAN-charge/)
data_KODSUT_ion_pacman
_symmetry_space_group_name_H-M   'P 1'
_cell_length_a   16.94120000
_cell_length_b   16.94120000
_cell_length_c   16.94120000
_cell_angle_alpha   123.90200000
_cell_angle_beta   123.90200000
_cell_angle_gamma   83.36540000
_symmetry_Int_Tables_number   1
_chemical_formula_structural   AgH14C12N5O6
_chemical_formula_sum   'Ag8 H112 C96 N40 O48'
_cell_volume   3211.69052902
_cell_formula_units_Z   8
loop_
 _symmetry_equiv_pos_site_id
 _symmetry_equiv_pos_as_xyz
  1  'x, y, z'
loop_
 _atom_site_type_symbol
 _atom_site_label
 _atom_site_symmetry_multiplicity
 _atom_site_fract_x
 _atom_site_fract_y
 _atom_site_fract_z
 _atom_site_occupancy
 _atom_site_charge
Ag  Ag1  1  0.56808000  0.93192000  0.50000000  1.0 0.2618050262
Ag  Ag2  1  0.43192000  0.06808000  0.50000000  1.0 0.2618050262
Ag  Ag3  1  0.68192000  0.68192000  0.86384000  1.0 0.2618050262
Ag  Ag4  1  0.81808000  0.81808000  0.13616000  1.0 0.2618050262
Ag  Ag5  1  0.18192000  0.31808000  0.00000000  1.0 0.2618050262
Ag  Ag6  1  0.31808000  0.18192000  0.00000000  1.0 0.2618050262
Ag  Ag7  1  0.06808000  0.56808000  0.63616000  1.0 0.2618050262
Ag  Ag8  1  0.93192000  0.43192000  0.36384000  1.0 0.2618050262
H  H1  1  0.73930000  0.34810000  0.88800000  1.0 0.1732418969
H  H2  1  0.46010000  0.85130000  0.11200000  1.0 0.1732418969
H  H3  1  0.09810000  0.71010000  0.10880000  1.0 0.1732418969
H  H4  1  0.60130000  0.98930000  0.89120000  1.0 0.1732418969
H  H5  1  0.78990000  0.40190000  0.89120000  1.0 0.1732418969
H  H6  1  0.51070000  0.89870000  0.10880000  1.0 0.1732418969
H  H7  1  0.64870000  0.03990000  0.88800000  1.0 0.1732418969
H  H8  1  0.15190000  0.76070000  0.11200000  1.0 0.1732418969
H  H9  1  0.92080000  0.32880000  0.93900000  1.0 0.1221633006
H  H10  1  0.38980000  0.98180000  0.06100000  1.0 0.1221633006
H  H11  1  0.07880000  0.63980000  0.90800000  1.0 0.1221633006
H  H12  1  0.73180000  0.17080000  0.09200000  1.0 0.1221633006
H  H13  1  0.86020000  0.42120000  0.09200000  1.0 0.1221633006
H  H14  1  0.32920000  0.76820000  0.90800000  1.0 0.1221633006
H  H15  1  0.51820000  0.11020000  0.93900000  1.0 0.1221633006
H  H16  1  0.17120000  0.57920000  0.06100000  1.0 0.1221633006
H  H17  1  0.85820000  0.26750000  0.93910000  1.0 0.1221633006
H  H18  1  0.32840000  0.91910000  0.06090000  1.0 0.1221633006
H  H19  1  0.01750000  0.57840000  0.90930000  1.0 0.1221633006
H  H20  1  0.66910000  0.10820000  0.09070000  1.0 0.1221633006
H  H21  1  0.92160000  0.48250000  0.09070000  1.0 0.1221633006
H  H22  1  0.39180000  0.83090000  0.90930000  1.0 0.1221633006
H  H23  1  0.58090000  0.17160000  0.93910000  1.0 0.1221633006
H  H24  1  0.23250000  0.64180000  0.06090000  1.0 0.1221633006
H  H25  1  0.71580000  0.12890000  0.75350000  1.0 0.109455055
H  H26  1  0.37540000  0.96230000  0.24650000  1.0 0.109455055
H  H27  1  0.87890000  0.62540000  0.91310000  1.0 0.109455055
H  H28  1  0.71230000  0.96580000  0.08690000  1.0 0.109455055
H  H29  1  0.87460000  0.62110000  0.08690000  1.0 0.109455055
H  H30  1  0.53420000  0.78770000  0.91310000  1.0 0.109455055
H  H31  1  0.53770000  0.12460000  0.75350000  1.0 0.109455055
H  H32  1  0.37110000  0.78420000  0.24650000  1.0 0.109455055
H  H33  1  0.87430000  0.27960000  0.74790000  1.0 0.1221633006
H  H34  1  0.53170000  0.12640000  0.25210000  1.0 0.1221633006
H  H35  1  0.02960000  0.78170000  0.90530000  1.0 0.1221633006
H  H36  1  0.87640000  0.12430000  0.09470000  1.0 0.1221633006
H  H37  1  0.71830000  0.47040000  0.09470000  1.0 0.1221633006
H  H38  1  0.37570000  0.62360000  0.90530000  1.0 0.1221633006
H  H39  1  0.37360000  0.96830000  0.74790000  1.0 0.1221633006
H  H40  1  0.22040000  0.62570000  0.25210000  1.0 0.1221633006
H  H41  1  0.79530000  0.15120000  0.54770000  1.0 0.1314795747
H  H42  1  0.60350000  0.24760000  0.45230000  1.0 0.1314795747
H  H43  1  0.90120000  0.85350000  0.85590000  1.0 0.1314795747
H  H44  1  0.99760000  0.04530000  0.14410000  1.0 0.1314795747
H  H45  1  0.64650000  0.59880000  0.14410000  1.0 0.1314795747
H  H46  1  0.45470000  0.50240000  0.85590000  1.0 0.1314795747
H  H47  1  0.25240000  0.89650000  0.54770000  1.0 0.1314795747
H  H48  1  0.34880000  0.70470000  0.45230000  1.0 0.1314795747
H  H49  1  0.67690000  0.01720000  0.45710000  1.0 0.1002569705
H  H50  1  0.56010000  0.21980000  0.54290000  1.0 0.1002569705
H  H51  1  0.76720000  0.81010000  0.84030000  1.0 0.1002569705
H  H52  1  0.96980000  0.92690000  0.15970000  1.0 0.1002569705
H  H53  1  0.68990000  0.73280000  0.15970000  1.0 0.1002569705
H  H54  1  0.57310000  0.53020000  0.84030000  1.0 0.1002569705
H  H55  1  0.28020000  0.93990000  0.45710000  1.0 0.1002569705
H  H56  1  0.48280000  0.82310000  0.54290000  1.0 0.1002569705
H  H57  1  0.01070000  0.90190000  0.61200000  1.0 0.1732418969
H  H58  1  0.28990000  0.39870000  0.38800000  1.0 0.1732418969
H  H59  1  0.65190000  0.53990000  0.39120000  1.0 0.1732418969
H  H60  1  0.14870000  0.26070000  0.60880000  1.0 0.1732418969
H  H61  1  0.96010000  0.84810000  0.60880000  1.0 0.1732418969
H  H62  1  0.23930000  0.35130000  0.39120000  1.0 0.1732418969
H  H63  1  0.10130000  0.21010000  0.61200000  1.0 0.1732418969
H  H64  1  0.59810000  0.48930000  0.38800000  1.0 0.1732418969
H  H65  1  0.82920000  0.92120000  0.56100000  1.0 0.1221633006
H  H66  1  0.36020000  0.26820000  0.43900000  1.0 0.1221633006
H  H67  1  0.67120000  0.61020000  0.59200000  1.0 0.1221633006
H  H68  1  0.01820000  0.07920000  0.40800000  1.0 0.1221633006
H  H69  1  0.88980000  0.82880000  0.40800000  1.0 0.1221633006
H  H70  1  0.42080000  0.48180000  0.59200000  1.0 0.1221633006
H  H71  1  0.23180000  0.13980000  0.56100000  1.0 0.1221633006
H  H72  1  0.57880000  0.67080000  0.43900000  1.0 0.1221633006
H  H73  1  0.89180000  0.98250000  0.56090000  1.0 0.1221633006
H  H74  1  0.42160000  0.33090000  0.43910000  1.0 0.1221633006
H  H75  1  0.73250000  0.67160000  0.59070000  1.0 0.1221633006
H  H76  1  0.08090000  0.14180000  0.40930000  1.0 0.1221633006
H  H77  1  0.82840000  0.76750000  0.40930000  1.0 0.1221633006
H  H78  1  0.35820000  0.41910000  0.59070000  1.0 0.1221633006
H  H79  1  0.16910000  0.07840000  0.56090000  1.0 0.1221633006
H  H80  1  0.51750000  0.60820000  0.43910000  1.0 0.1221633006
H  H81  1  0.03420000  0.12110000  0.74650000  1.0 0.109455055
H  H82  1  0.37460000  0.28770000  0.25350000  1.0 0.109455055
H  H83  1  0.87110000  0.62460000  0.58690000  1.0 0.109455055
H  H84  1  0.03770000  0.28420000  0.41310000  1.0 0.109455055
H  H85  1  0.87540000  0.62890000  0.41310000  1.0 0.109455055
H  H86  1  0.21580000  0.46230000  0.58690000  1.0 0.109455055
H  H87  1  0.21230000  0.12540000  0.74650000  1.0 0.109455055
H  H88  1  0.37890000  0.46580000  0.25350000  1.0 0.109455055
H  H89  1  0.87570000  0.97040000  0.75210000  1.0 0.1221633006
H  H90  1  0.21830000  0.12360000  0.24790000  1.0 0.1221633006
H  H91  1  0.72040000  0.46830000  0.59470000  1.0 0.1221633006
H  H92  1  0.87360000  0.12570000  0.40530000  1.0 0.1221633006
H  H93  1  0.03170000  0.77960000  0.40530000  1.0 0.1221633006
H  H94  1  0.37430000  0.62640000  0.59470000  1.0 0.1221633006
H  H95  1  0.37640000  0.28170000  0.75210000  1.0 0.1221633006
H  H96  1  0.52960000  0.62430000  0.24790000  1.0 0.1221633006
H  H97  1  0.95470000  0.09880000  0.95230000  1.0 0.1314795747
H  H98  1  0.14650000  0.00240000  0.04770000  1.0 0.1314795747
H  H99  1  0.84880000  0.39650000  0.64410000  1.0 0.1314795747
H  H100  1  0.75240000  0.20470000  0.35590000  1.0 0.1314795747
H  H101  1  0.10350000  0.65120000  0.35590000  1.0 0.1314795747
H  H102  1  0.29530000  0.74760000  0.64410000  1.0 0.1314795747
H  H103  1  0.49760000  0.35350000  0.95230000  1.0 0.1314795747
H  H104  1  0.40120000  0.54530000  0.04770000  1.0 0.1314795747
H  H105  1  0.07310000  0.23280000  0.04290000  1.0 0.1002569705
H  H106  1  0.18990000  0.03020000  0.95710000  1.0 0.1002569705
H  H107  1  0.98280000  0.43990000  0.65970000  1.0 0.1002569705
H  H108  1  0.78020000  0.32310000  0.34030000  1.0 0.1002569705
H  H109  1  0.06010000  0.51720000  0.34030000  1.0 0.1002569705
H  H110  1  0.17690000  0.71980000  0.65970000  1.0 0.1002569705
H  H111  1  0.46980000  0.31010000  0.04290000  1.0 0.1002569705
H  H112  1  0.26720000  0.42690000  0.95710000  1.0 0.1002569705
C  C1  1  0.85377000  0.29756000  0.90243000  1.0 -0.1202747288
C  C2  1  0.39513000  0.95134000  0.09757000  1.0 -0.1202747288
C  C3  1  0.04756000  0.64513000  0.94379000  1.0 -0.1202747288
C  C4  1  0.70134000  0.10377000  0.05621000  1.0 -0.1202747288
C  C5  1  0.85487000  0.45244000  0.05621000  1.0 -0.1202747288
C  C6  1  0.39623000  0.79866000  0.94379000  1.0 -0.1202747288
C  C7  1  0.54866000  0.10487000  0.90243000  1.0 -0.1202747288
C  C8  1  0.20244000  0.64623000  0.09757000  1.0 -0.1202747288
C  C9  1  0.73170000  0.13404000  0.71180000  1.0 -0.0004757116
C  C10  1  0.42224000  0.01990000  0.28820000  1.0 -0.0004757116
C  C11  1  0.88404000  0.67224000  0.90234000  1.0 -0.0004757116
C  C12  1  0.76990000  0.98170000  0.09766000  1.0 -0.0004757116
C  C13  1  0.82776000  0.61596000  0.09766000  1.0 -0.0004757116
C  C14  1  0.51830000  0.73010000  0.90234000  1.0 -0.0004757116
C  C15  1  0.48010000  0.07776000  0.71180000  1.0 -0.0004757116
C  C16  1  0.36596000  0.76830000  0.28820000  1.0 -0.0004757116
C  C17  1  0.80267000  0.21775000  0.77182000  1.0 0.0584681131
C  C18  1  0.44593000  0.03085000  0.22818000  1.0 0.0584681131
C  C19  1  0.96775000  0.69593000  0.91508000  1.0 0.0584681131
C  C20  1  0.78085000  0.05267000  0.08492000  1.0 0.0584681131
C  C21  1  0.80407000  0.53225000  0.08492000  1.0 0.0584681131
C  C22  1  0.44733000  0.71915000  0.91508000  1.0 0.0584681131
C  C23  1  0.46915000  0.05407000  0.77182000  1.0 0.0584681131
C  C24  1  0.28225000  0.69733000  0.22818000  1.0 0.0584681131
C  C25  1  0.82674000  0.22434000  0.70984000  1.0 -0.0900199707
C  C26  1  0.51450000  0.11690000  0.29016000  1.0 -0.0900199707
C  C27  1  0.97434000  0.76450000  0.89760000  1.0 -0.0900199707
C  C28  1  0.86690000  0.07674000  0.10240000  1.0 -0.0900199707
C  C29  1  0.73550000  0.52566000  0.10240000  1.0 -0.0900199707
C  C30  1  0.42326000  0.63310000  0.89760000  1.0 -0.0900199707
C  C31  1  0.38310000  0.98550000  0.70984000  1.0 -0.0900199707
C  C32  1  0.27566000  0.67326000  0.29016000  1.0 -0.0900199707
C  C33  1  0.77965000  0.14823000  0.59080000  1.0 -0.1202747288
C  C34  1  0.55743000  0.18885000  0.40920000  1.0 -0.1202747288
C  C35  1  0.89823000  0.80743000  0.86858000  1.0 -0.1202747288
C  C36  1  0.93885000  0.02965000  0.13142000  1.0 -0.1202747288
C  C37  1  0.69257000  0.60177000  0.13142000  1.0 -0.1202747288
C  C38  1  0.47035000  0.56115000  0.86858000  1.0 -0.1202747288
C  C39  1  0.31115000  0.94257000  0.59080000  1.0 -0.1202747288
C  C40  1  0.35177000  0.72035000  0.40920000  1.0 -0.1202747288
C  C41  1  0.70914000  0.06808000  0.53748000  1.0 0.0430459514
C  C42  1  0.53060000  0.17166000  0.46252000  1.0 0.0430459514
C  C43  1  0.81808000  0.78060000  0.85894000  1.0 0.0430459514
C  C44  1  0.92166000  0.95914000  0.14106000  1.0 0.0430459514
C  C45  1  0.71940000  0.68192000  0.14106000  1.0 0.0430459514
C  C46  1  0.54086000  0.57834000  0.85894000  1.0 0.0430459514
C  C47  1  0.32834000  0.96940000  0.53748000  1.0 0.0430459514
C  C48  1  0.43192000  0.79086000  0.46252000  1.0 0.0430459514
C  C49  1  0.89623000  0.95244000  0.59757000  1.0 -0.1202747288
C  C50  1  0.35487000  0.29866000  0.40243000  1.0 -0.1202747288
C  C51  1  0.70244000  0.60487000  0.55621000  1.0 -0.1202747288
C  C52  1  0.04866000  0.14623000  0.44379000  1.0 -0.1202747288
C  C53  1  0.89513000  0.79756000  0.44379000  1.0 -0.1202747288
C  C54  1  0.35377000  0.45134000  0.55621000  1.0 -0.1202747288
C  C55  1  0.20134000  0.14513000  0.59757000  1.0 -0.1202747288
C  C56  1  0.54756000  0.60377000  0.40243000  1.0 -0.1202747288
C  C57  1  0.01830000  0.11596000  0.78820000  1.0 -0.0004757116
C  C58  1  0.32776000  0.23010000  0.21180000  1.0 -0.0004757116
C  C59  1  0.86596000  0.57776000  0.59766000  1.0 -0.0004757116
C  C60  1  0.98010000  0.26830000  0.40234000  1.0 -0.0004757116
C  C61  1  0.92224000  0.63404000  0.40234000  1.0 -0.0004757116
C  C62  1  0.23170000  0.51990000  0.59766000  1.0 -0.0004757116
C  C63  1  0.26990000  0.17224000  0.78820000  1.0 -0.0004757116
C  C64  1  0.38404000  0.48170000  0.21180000  1.0 -0.0004757116
C  C65  1  0.94733000  0.03225000  0.72818000  1.0 0.0584681131
C  C66  1  0.30407000  0.21915000  0.27182000  1.0 0.0584681131
C  C67  1  0.78225000  0.55407000  0.58492000  1.0 0.0584681131
C  C68  1  0.96915000  0.19733000  0.41508000  1.0 0.0584681131
C  C69  1  0.94593000  0.71775000  0.41508000  1.0 0.0584681131
C  C70  1  0.30267000  0.53085000  0.58492000  1.0 0.0584681131
C  C71  1  0.28085000  0.19593000  0.72818000  1.0 0.0584681131
C  C72  1  0.46775000  0.55267000  0.27182000  1.0 0.0584681131
C  C73  1  0.92326000  0.02566000  0.79016000  1.0 -0.0900199707
C  C74  1  0.23550000  0.13310000  0.20984000  1.0 -0.0900199707
C  C75  1  0.77566000  0.48550000  0.60240000  1.0 -0.0900199707
C  C76  1  0.88310000  0.17326000  0.39760000  1.0 -0.0900199707
C  C77  1  0.01450000  0.72434000  0.39760000  1.0 -0.0900199707
C  C78  1  0.32674000  0.61690000  0.60240000  1.0 -0.0900199707
C  C79  1  0.36690000  0.26450000  0.79016000  1.0 -0.0900199707
C  C80  1  0.47434000  0.57674000  0.20984000  1.0 -0.0900199707
C  C81  1  0.97035000  0.10177000  0.90920000  1.0 -0.1202747288
C  C82  1  0.19257000  0.06115000  0.09080000  1.0 -0.1202747288
C  C83  1  0.85177000  0.44257000  0.63142000  1.0 -0.1202747288
C  C84  1  0.81115000  0.22035000  0.36858000  1.0 -0.1202747288
C  C85  1  0.05743000  0.64823000  0.36858000  1.0 -0.1202747288
C  C86  1  0.27965000  0.68885000  0.63142000  1.0 -0.1202747288
C  C87  1  0.43885000  0.30743000  0.90920000  1.0 -0.1202747288
C  C88  1  0.39823000  0.52965000  0.09080000  1.0 -0.1202747288
C  C89  1  0.04086000  0.18192000  0.96252000  1.0 0.0430459514
C  C90  1  0.21940000  0.07834000  0.03748000  1.0 0.0430459514
C  C91  1  0.93192000  0.46940000  0.64106000  1.0 0.0430459514
C  C92  1  0.82834000  0.29086000  0.35894000  1.0 0.0430459514
C  C93  1  0.03060000  0.56808000  0.35894000  1.0 0.0430459514
C  C94  1  0.20914000  0.67166000  0.64106000  1.0 0.0430459514
C  C95  1  0.42166000  0.28060000  0.96252000  1.0 0.0430459514
C  C96  1  0.31808000  0.45914000  0.03748000  1.0 0.0430459514
N  N1  1  0.80074000  0.37500000  0.92574000  1.0 -0.1493630722
N  N2  1  0.44926000  0.87500000  0.07426000  1.0 -0.1493630722
N  N3  1  0.12500000  0.69926000  0.07426000  1.0 -0.1493630722
N  N4  1  0.62500000  0.05074000  0.92574000  1.0 -0.1493630722
N  N5  1  0.68477000  0.05982000  0.59585000  1.0 -0.1801021263
N  N6  1  0.46397000  0.08892000  0.40415000  1.0 -0.1801021263
N  N7  1  0.80982000  0.71397000  0.87505000  1.0 -0.1801021263
N  N8  1  0.83892000  0.93477000  0.12495000  1.0 -0.1801021263
N  N9  1  0.78603000  0.69018000  0.12495000  1.0 -0.1801021263
N  N10  1  0.56523000  0.66108000  0.87505000  1.0 -0.1801021263
N  N11  1  0.41108000  0.03603000  0.59585000  1.0 -0.1801021263
N  N12  1  0.44018000  0.81523000  0.40415000  1.0 -0.1801021263
N  N13  1  0.94926000  0.87500000  0.57426000  1.0 -0.1493630722
N  N14  1  0.30074000  0.37500000  0.42574000  1.0 -0.1493630722
N  N15  1  0.62500000  0.55074000  0.42574000  1.0 -0.1493630722
N  N16  1  0.12500000  0.19926000  0.57426000  1.0 -0.1493630722
N  N17  1  0.06523000  0.19018000  0.90415000  1.0 -0.1801021263
N  N18  1  0.28603000  0.16108000  0.09585000  1.0 -0.1801021263
N  N19  1  0.94018000  0.53603000  0.62495000  1.0 -0.1801021263
N  N20  1  0.91108000  0.31523000  0.37505000  1.0 -0.1801021263
N  N21  1  0.96397000  0.55982000  0.37505000  1.0 -0.1801021263
N  N22  1  0.18477000  0.58892000  0.62495000  1.0 -0.1801021263
N  N23  1  0.33892000  0.21397000  0.90415000  1.0 -0.1801021263
N  N24  1  0.30982000  0.43477000  0.09585000  1.0 -0.1801021263
N  N25  1  0.70266000  0.93582000  0.73748000  1.0 0.6404915251
N  N26  1  0.19834000  0.96518000  0.26252000  1.0 0.6404915251
N  N27  1  0.68582000  0.44834000  0.73316000  1.0 0.6404915251
N  N28  1  0.71518000  0.95266000  0.26684000  1.0 0.6404915251
N  N29  1  0.05166000  0.81418000  0.26684000  1.0 0.6404915251
N  N30  1  0.54734000  0.78482000  0.73316000  1.0 0.6404915251
N  N31  1  0.53482000  0.30166000  0.73748000  1.0 0.6404915251
N  N32  1  0.56418000  0.79734000  0.26252000  1.0 0.6404915251
N  N33  1  0.04734000  0.31418000  0.76252000  1.0 0.6404915251
N  N34  1  0.55166000  0.28482000  0.23748000  1.0 0.6404915251
N  N35  1  0.06418000  0.80166000  0.76684000  1.0 0.6404915251
N  N36  1  0.03482000  0.29734000  0.23316000  1.0 0.6404915251
N  N37  1  0.69834000  0.43582000  0.23316000  1.0 0.6404915251
N  N38  1  0.20266000  0.46518000  0.76684000  1.0 0.6404915251
N  N39  1  0.21518000  0.94834000  0.76252000  1.0 0.6404915251
N  N40  1  0.18582000  0.45266000  0.23748000  1.0 0.6404915251
O  O1  1  0.69553000  0.86847000  0.64814000  1.0 -0.3957732335
O  O2  1  0.63746000  0.97778000  0.72816000  1.0 -0.3957732335
O  O3  1  0.77504000  0.96584000  0.83620000  1.0 -0.3764562324
O  O4  1  0.22033000  0.04739000  0.35186000  1.0 -0.3957732335
O  O5  1  0.24962000  0.90930000  0.27184000  1.0 -0.3957732335
O  O6  1  0.12964000  0.93884000  0.16380000  1.0 -0.3764562324
O  O7  1  0.61847000  0.47033000  0.67294000  1.0 -0.3957732335
O  O8  1  0.72778000  0.49962000  0.84032000  1.0 -0.3957732335
O  O9  1  0.71584000  0.37964000  0.69080000  1.0 -0.3764562324
O  O10  1  0.79739000  0.94553000  0.32706000  1.0 -0.3957732335
O  O11  1  0.65930000  0.88746000  0.15968000  1.0 -0.3957732335
O  O12  1  0.68884000  0.02504000  0.30920000  1.0 -0.3764562324
O  O13  1  0.02967000  0.88153000  0.32706000  1.0 -0.3957732335
O  O14  1  0.00038000  0.77222000  0.15968000  1.0 -0.3957732335
O  O15  1  0.12036000  0.78416000  0.30920000  1.0 -0.3764562324
O  O16  1  0.55447000  0.70261000  0.67294000  1.0 -0.3957732335
O  O17  1  0.61254000  0.84070000  0.84032000  1.0 -0.3957732335
O  O18  1  0.47496000  0.81116000  0.69080000  1.0 -0.3764562324
O  O19  1  0.45261000  0.27967000  0.64814000  1.0 -0.3957732335
O  O20  1  0.59070000  0.25038000  0.72816000  1.0 -0.3957732335
O  O21  1  0.56116000  0.37036000  0.83620000  1.0 -0.3764562324
O  O22  1  0.63153000  0.80447000  0.35186000  1.0 -0.3957732335
O  O23  1  0.52222000  0.86254000  0.27184000  1.0 -0.3957732335
O  O24  1  0.53416000  0.72496000  0.16380000  1.0 -0.3764562324
O  O25  1  0.05447000  0.38153000  0.85186000  1.0 -0.3957732335
O  O26  1  0.11254000  0.27222000  0.77184000  1.0 -0.3957732335
O  O27  1  0.97496000  0.28416000  0.66380000  1.0 -0.3764562324
O  O28  1  0.52967000  0.20261000  0.14814000  1.0 -0.3957732335
O  O29  1  0.50038000  0.34070000  0.22816000  1.0 -0.3957732335
O  O30  1  0.62036000  0.31116000  0.33620000  1.0 -0.3764562324
O  O31  1  0.13153000  0.77967000  0.82706000  1.0 -0.3957732335
O  O32  1  0.02222000  0.75038000  0.65968000  1.0 -0.3957732335
O  O33  1  0.03416000  0.87036000  0.80920000  1.0 -0.3764562324
O  O34  1  0.95261000  0.30447000  0.17294000  1.0 -0.3957732335
O  O35  1  0.09070000  0.36254000  0.34032000  1.0 -0.3957732335
O  O36  1  0.06116000  0.22496000  0.19080000  1.0 -0.3764562324
O  O37  1  0.72033000  0.36847000  0.17294000  1.0 -0.3957732335
O  O38  1  0.74962000  0.47778000  0.34032000  1.0 -0.3957732335
O  O39  1  0.62964000  0.46584000  0.19080000  1.0 -0.3764562324
O  O40  1  0.19553000  0.54739000  0.82706000  1.0 -0.3957732335
O  O41  1  0.13746000  0.40930000  0.65968000  1.0 -0.3957732335
O  O42  1  0.27504000  0.43884000  0.80920000  1.0 -0.3764562324
O  O43  1  0.29739000  0.97033000  0.85186000  1.0 -0.3957732335
O  O44  1  0.15930000  0.99962000  0.77184000  1.0 -0.3957732335
O  O45  1  0.18884000  0.87964000  0.66380000  1.0 -0.3764562324
O  O46  1  0.11847000  0.44553000  0.14814000  1.0 -0.3957732335
O  O47  1  0.22778000  0.38746000  0.22816000  1.0 -0.3957732335
O  O48  1  0.21584000  0.52504000  0.33620000  1.0 -0.3764562324
