# DDEC6 charges by PACMAN v1.1 (https://github.com/mtap-research/PACMAN-charge/)
data_KOFVOS_ASR_pacman
_symmetry_space_group_name_H-M   'P 1'
_cell_length_a   13.85400000
_cell_length_b   11.41100000
_cell_length_c   17.71000000
_cell_angle_alpha   90.00000000
_cell_angle_beta   128.10900000
_cell_angle_gamma   90.00000000
_symmetry_Int_Tables_number   1
_chemical_formula_structural   Ni3H8C28(NO4)4
_chemical_formula_sum   'Ni6 H16 C56 N8 O32'
_cell_volume   2202.94079025
_cell_formula_units_Z   2
loop_
 _symmetry_equiv_pos_site_id
 _symmetry_equiv_pos_as_xyz
  1  'x, y, z'
loop_
 _atom_site_type_symbol
 _atom_site_label
 _atom_site_symmetry_multiplicity
 _atom_site_fract_x
 _atom_site_fract_y
 _atom_site_fract_z
 _atom_site_occupancy
 _atom_site_charge
Ni  Ni1  1  0.12142000  0.72402000  0.30141000  1.0 0.7898203146
Ni  Ni2  1  0.87858000  0.22402000  0.19859000  1.0 0.7898203146
Ni  Ni3  1  0.87858000  0.27598000  0.69859000  1.0 0.7898203146
Ni  Ni4  1  0.12142000  0.77598000  0.80141000  1.0 0.7898203146
Ni  Ni5  1  0.00000000  0.00000000  0.00000000  1.0 0.9846670788
Ni  Ni6  1  0.00000000  0.50000000  0.50000000  1.0 0.9867251676
H  H1  1  0.70520000  0.84630000  0.69890000  1.0 0.1551335018
H  H2  1  0.29480000  0.34630000  0.80110000  1.0 0.1551335018
H  H3  1  0.29480000  0.15370000  0.30110000  1.0 0.1551335018
H  H4  1  0.70520000  0.65370000  0.19890000  1.0 0.1551335018
H  H5  1  0.71880000  0.66520000  0.50670000  1.0 0.1535600316
H  H6  1  0.28120000  0.16520000  0.99330000  1.0 0.1535600316
H  H7  1  0.28120000  0.33480000  0.49330000  1.0 0.1535600316
H  H8  1  0.71880000  0.83480000  0.00670000  1.0 0.1535600316
H  H9  1  0.51360000  0.90370000  0.55880000  1.0 0.1431806844
H  H10  1  0.48640000  0.40370000  0.94120000  1.0 0.1431806844
H  H11  1  0.48640000  0.09630000  0.44120000  1.0 0.1431806844
H  H12  1  0.51360000  0.59630000  0.05880000  1.0 0.1431806844
H  H13  1  0.54510000  0.59170000  0.46450000  1.0 0.1431806844
H  H14  1  0.45490000  0.09170000  0.03550000  1.0 0.1431806844
H  H15  1  0.45490000  0.40830000  0.53550000  1.0 0.1431806844
H  H16  1  0.54510000  0.90830000  0.96450000  1.0 0.1431806844
C  C1  1  0.96030000  0.87120000  0.83830000  1.0 0.5586264592
C  C2  1  0.03970000  0.37120000  0.66170000  1.0 0.5586264592
C  C3  1  0.03970000  0.12880000  0.16170000  1.0 0.5586264592
C  C4  1  0.96030000  0.62880000  0.33830000  1.0 0.5586264592
C  C5  1  0.97130000  0.67270000  0.61140000  1.0 0.5586264592
C  C6  1  0.02870000  0.17270000  0.88860000  1.0 0.5586264592
C  C7  1  0.02870000  0.32730000  0.38860000  1.0 0.5586264592
C  C8  1  0.97130000  0.82730000  0.11140000  1.0 0.5586264592
C  C9  1  0.25750000  0.91110000  0.43730000  1.0 0.5186226678
C  C10  1  0.74250000  0.41110000  0.06270000  1.0 0.5186226678
C  C11  1  0.74250000  0.08890000  0.56270000  1.0 0.5186226678
C  C12  1  0.25750000  0.58890000  0.93730000  1.0 0.5186226678
C  C13  1  0.29460000  0.55510000  0.32650000  1.0 0.5186226678
C  C14  1  0.70540000  0.05510000  0.17350000  1.0 0.5186226678
C  C15  1  0.70540000  0.44490000  0.67350000  1.0 0.5186226678
C  C16  1  0.29460000  0.94490000  0.82650000  1.0 0.5186226678
C  C17  1  0.87830000  0.82030000  0.73950000  1.0 0.1535600316
C  C18  1  0.12170000  0.32030000  0.76050000  1.0 0.1551335018
C  C19  1  0.12170000  0.17970000  0.26050000  1.0 0.1551335018
C  C20  1  0.87830000  0.67970000  0.23950000  1.0 0.1551335018
C  C21  1  0.74980000  0.81500000  0.67910000  1.0 -0.1204150494
C  C22  1  0.25020000  0.31500000  0.82090000  1.0 -0.1204150494
C  C23  1  0.25020000  0.18500000  0.32090000  1.0 -0.1204150494
C  C24  1  0.74980000  0.68500000  0.17910000  1.0 -0.1204150494
C  C25  1  0.68830000  0.76210000  0.58830000  1.0 0.1431806844
C  C26  1  0.31170000  0.26210000  0.91170000  1.0 0.1431806844
C  C27  1  0.31170000  0.23790000  0.41170000  1.0 0.1431806844
C  C28  1  0.68830000  0.73790000  0.08830000  1.0 0.1431806844
C  C29  1  0.75790000  0.70780000  0.56490000  1.0 -0.1204150494
C  C30  1  0.24210000  0.20780000  0.93510000  1.0 -0.1204150494
C  C31  1  0.24210000  0.29220000  0.43510000  1.0 -0.1204150494
C  C32  1  0.75790000  0.79220000  0.06490000  1.0 -0.1204150494
C  C33  1  0.88490000  0.71750000  0.62850000  1.0 0.1431806844
C  C34  1  0.11510000  0.21750000  0.87150000  1.0 0.1431806844
C  C35  1  0.11510000  0.28250000  0.37150000  1.0 0.1431806844
C  C36  1  0.88490000  0.78250000  0.12850000  1.0 0.1431806844
C  C37  1  0.35270000  0.82770000  0.45280000  1.0 0.1275121078
C  C38  1  0.64730000  0.32770000  0.04720000  1.0 0.1275121078
C  C39  1  0.64730000  0.17230000  0.54720000  1.0 0.1275121078
C  C40  1  0.35270000  0.67230000  0.95280000  1.0 0.1275121078
C  C41  1  0.47790000  0.83760000  0.51740000  1.0 -0.1473748822
C  C42  1  0.52210000  0.33760000  0.98260000  1.0 -0.1473748822
C  C43  1  0.52210000  0.16240000  0.48260000  1.0 -0.1473748822
C  C44  1  0.47790000  0.66240000  0.01740000  1.0 -0.1473748822
C  C45  1  0.55300000  0.75130000  0.52270000  1.0 0.1275121078
C  C46  1  0.44700000  0.25130000  0.97730000  1.0 0.1275121078
C  C47  1  0.44700000  0.24870000  0.47730000  1.0 0.1275121078
C  C48  1  0.55300000  0.74870000  0.02270000  1.0 0.1275121078
C  C49  1  0.49670000  0.65340000  0.46150000  1.0 -0.1387257863
C  C50  1  0.50330000  0.15340000  0.03850000  1.0 -0.1387257863
C  C51  1  0.50330000  0.34660000  0.53850000  1.0 -0.1387257863
C  C52  1  0.49670000  0.84660000  0.96150000  1.0 -0.1387257863
C  C53  1  0.36930000  0.64850000  0.39660000  1.0 0.1058844824
C  C54  1  0.63070000  0.14850000  0.10340000  1.0 0.1058844824
C  C55  1  0.63070000  0.35150000  0.60340000  1.0 0.1058844824
C  C56  1  0.36930000  0.85150000  0.89660000  1.0 0.1058844824
N  N1  1  0.93920000  0.77500000  0.71100000  1.0 -0.2090358574
N  N2  1  0.06080000  0.27500000  0.78900000  1.0 -0.2090358574
N  N3  1  0.06080000  0.22500000  0.28900000  1.0 -0.2090358574
N  N4  1  0.93920000  0.72500000  0.21100000  1.0 -0.2090358574
N  N5  1  0.30150000  0.73400000  0.39400000  1.0 -0.219699635
N  N6  1  0.69850000  0.23400000  0.10600000  1.0 -0.219699635
N  N7  1  0.69850000  0.26600000  0.60600000  1.0 -0.219699635
N  N8  1  0.30150000  0.76600000  0.89400000  1.0 -0.219699635
O  O1  1  0.07470000  0.86150000  0.88200000  1.0 -0.4834962372
O  O2  1  0.92530000  0.36150000  0.61800000  1.0 -0.4834962372
O  O3  1  0.92530000  0.13850000  0.11800000  1.0 -0.4834962372
O  O4  1  0.07470000  0.63850000  0.38200000  1.0 -0.4834962372
O  O5  1  0.91190000  0.91520000  0.87140000  1.0 -0.4963748742
O  O6  1  0.08810000  0.41520000  0.62860000  1.0 -0.4963748742
O  O7  1  0.08810000  0.08480000  0.12860000  1.0 -0.4963748742
O  O8  1  0.91190000  0.58480000  0.37140000  1.0 -0.4963748742
O  O9  1  0.08310000  0.69400000  0.67490000  1.0 -0.4729788712
O  O10  1  0.91690000  0.19400000  0.82510000  1.0 -0.4729788712
O  O11  1  0.91690000  0.30600000  0.32510000  1.0 -0.4729788712
O  O12  1  0.08310000  0.80600000  0.17490000  1.0 -0.4729788712
O  O13  1  0.92440000  0.61520000  0.53630000  1.0 -0.5101359326
O  O14  1  0.07560000  0.11520000  0.96370000  1.0 -0.5101359326
O  O15  1  0.07560000  0.38480000  0.46370000  1.0 -0.5101359326
O  O16  1  0.92440000  0.88480000  0.03630000  1.0 -0.5101359326
O  O17  1  0.14710000  0.88130000  0.37250000  1.0 -0.4834962372
O  O18  1  0.85290000  0.38130000  0.12750000  1.0 -0.4729788712
O  O19  1  0.85290000  0.11870000  0.62750000  1.0 -0.4729788712
O  O20  1  0.14710000  0.61870000  0.87250000  1.0 -0.4729788712
O  O21  1  0.29190000  0.99810000  0.48900000  1.0 -0.4834962372
O  O22  1  0.70810000  0.49810000  0.01100000  1.0 -0.4834962372
O  O23  1  0.70810000  0.00190000  0.51100000  1.0 -0.4834962372
O  O24  1  0.29190000  0.50190000  0.98900000  1.0 -0.4834962372
O  O25  1  0.17900000  0.56840000  0.27440000  1.0 -0.4729788712
O  O26  1  0.82100000  0.06840000  0.22560000  1.0 -0.4729788712
O  O27  1  0.82100000  0.43160000  0.72560000  1.0 -0.4729788712
O  O28  1  0.17900000  0.93160000  0.77440000  1.0 -0.4729788712
O  O29  1  0.34730000  0.46930000  0.32170000  1.0 -0.4834962372
O  O30  1  0.65270000  0.96930000  0.17830000  1.0 -0.4834962372
O  O31  1  0.65270000  0.53070000  0.67830000  1.0 -0.4834962372
O  O32  1  0.34730000  0.03070000  0.82170000  1.0 -0.4834962372
