# DDEC6 charges by PACMAN v1.1 (https://github.com/mtap-research/PACMAN-charge/)
data_KOGMOL_ASR_pacman
_symmetry_space_group_name_H-M   'P 1'
_cell_length_a   15.48280000
_cell_length_b   15.48280000
_cell_length_c   15.48280000
_cell_angle_alpha   153.16900000
_cell_angle_beta   143.24900000
_cell_angle_gamma   46.08520000
_symmetry_Int_Tables_number   1
_chemical_formula_structural   EuH16C19I4N2O5
_chemical_formula_sum   'Eu2 H32 C38 I8 N4 O10'
_cell_volume   999.19873500
_cell_formula_units_Z   2
loop_
 _symmetry_equiv_pos_site_id
 _symmetry_equiv_pos_as_xyz
  1  'x, y, z'
loop_
 _atom_site_type_symbol
 _atom_site_label
 _atom_site_symmetry_multiplicity
 _atom_site_fract_x
 _atom_site_fract_y
 _atom_site_fract_z
 _atom_site_occupancy
 _atom_site_charge
Eu  Eu1  1  0.01792000  0.54132000  0.02340000  1.0 2.0946057521
Eu  Eu2  1  0.98208000  0.00548000  0.52340000  1.0 2.0966289722
H  H1  1  0.36430000  0.15090000  0.87000000  1.0 0.1205099212
H  H2  1  0.69370000  0.44760000  0.44390000  1.0 0.1205099212
H  H3  1  0.52860000  0.45790000  0.35050000  1.0 0.0767096066
H  H4  1  0.59620000  0.40620000  0.15200000  1.0 0.1034340196
H  H5  1  0.34160000  0.53060000  0.13780000  1.0 0.1205099212
H  H6  1  0.31540000  0.61610000  0.04810000  1.0 0.1205099212
H  H7  1  0.72800000  0.49170000  0.22030000  1.0 0.1034340196
H  H8  1  0.63570000  0.50570000  0.78660000  1.0 0.1205099212
H  H9  1  0.30630000  0.75020000  0.75390000  1.0 0.1205099212
H  H10  1  0.47140000  0.82190000  0.92930000  1.0 0.0767096066
H  H11  1  0.40380000  0.55580000  0.81000000  1.0 0.1034340196
H  H12  1  0.65840000  0.79620000  0.18900000  1.0 0.1205099212
H  H13  1  0.68460000  0.73270000  0.30070000  1.0 0.1205099212
H  H14  1  0.27200000  0.49230000  0.76370000  1.0 0.1034340196
H  H15  1  0.21910000  0.50570000  0.37000000  1.0 0.1205099212
H  H16  1  0.49630000  0.75020000  0.94390000  1.0 0.1205099212
H  H17  1  0.39260000  0.82190000  0.85050000  1.0 0.0767096066
H  H18  1  0.24580000  0.55580000  0.65200000  1.0 0.1034340196
H  H19  1  0.10720000  0.79620000  0.63780000  1.0 0.1205099212
H  H20  1  0.93200000  0.73270000  0.54810000  1.0 0.1205099212
H  H21  1  0.22860000  0.49230000  0.72030000  1.0 0.1034340196
H  H22  1  0.78090000  0.15090000  0.28660000  1.0 0.1205099212
H  H23  1  0.50370000  0.44760000  0.25390000  1.0 0.1205099212
H  H24  1  0.60740000  0.45790000  0.42930000  1.0 0.0767096066
H  H25  1  0.75420000  0.40620000  0.31000000  1.0 0.1034340196
H  H26  1  0.89280000  0.53060000  0.68900000  1.0 0.1205099212
H  H27  1  0.06800000  0.61610000  0.80070000  1.0 0.1205099212
H  H28  1  0.77140000  0.49170000  0.26370000  1.0 0.1034340196
H  H29  1  0.07560000  0.26400000  0.68840000  1.0 0.3499920451
H  H30  1  0.92440000  0.61280000  0.18840000  1.0 0.3499920451
H  H31  1  0.53350000  0.65470000  0.62120000  1.0 0.1205099212
H  H32  1  0.46650000  0.08770000  0.12120000  1.0 0.1205099212
C  C1  1  0.28680000  0.78110000  0.48570000  1.0 0.5881901466
C  C2  1  0.42790000  0.89190000  0.71800000  1.0 -0.0074126436
C  C3  1  0.44380000  0.08510000  0.89470000  1.0 -0.198469597
C  C4  1  0.42010000  0.52310000  0.15500000  1.0 -0.1305557853
C  C5  1  0.66550000  0.44850000  0.25700000  1.0 -0.0016840021
C  C6  1  0.40440000  0.57330000  0.10110000  1.0 -0.1505719519
C  C7  1  0.64980000  0.49980000  0.20400000  1.0 -0.1505719519
C  C8  1  0.51970000  0.56170000  0.12600000  1.0 -0.0296492275
C  C9  1  0.71320000  0.19890000  0.49430000  1.0 0.5881901466
C  C10  1  0.57210000  0.29010000  0.46400000  1.0 -0.0074126436
C  C11  1  0.55620000  0.45090000  0.64130000  1.0 -0.198469597
C  C12  1  0.57990000  0.73490000  0.10300000  1.0 -0.1305557853
C  C13  1  0.33450000  0.59150000  0.78300000  1.0 -0.0016840021
C  C14  1  0.59560000  0.69670000  0.16890000  1.0 -0.1505719519
C  C15  1  0.35020000  0.55420000  0.85000000  1.0 -0.1505719519
C  C16  1  0.48030000  0.60630000  0.04200000  1.0 -0.0296492275
C  C17  1  0.20460000  0.19890000  0.98570000  1.0 0.5881901466
C  C18  1  0.32610000  0.29010000  0.21800000  1.0 -0.0074126436
C  C19  1  0.30960000  0.45090000  0.39470000  1.0 -0.198469597
C  C20  1  0.13190000  0.73490000  0.65500000  1.0 -0.1305557853
C  C21  1  0.30850000  0.59150000  0.75700000  1.0 -0.0016840021
C  C22  1  0.02780000  0.69670000  0.60110000  1.0 -0.1505719519
C  C23  1  0.20420000  0.55420000  0.70400000  1.0 -0.1505719519
C  C24  1  0.06430000  0.60630000  0.62600000  1.0 -0.0296492275
C  C25  1  0.79540000  0.78110000  0.99430000  1.0 0.5881901466
C  C26  1  0.67390000  0.89190000  0.96400000  1.0 -0.0074126436
C  C27  1  0.69040000  0.08510000  0.14130000  1.0 -0.198469597
C  C28  1  0.86810000  0.52310000  0.60300000  1.0 -0.1305557853
C  C29  1  0.69150000  0.44850000  0.28300000  1.0 -0.0016840021
C  C30  1  0.97220000  0.57330000  0.66890000  1.0 -0.1505719519
C  C31  1  0.79580000  0.49980000  0.35000000  1.0 -0.1505719519
C  C32  1  0.93570000  0.56170000  0.54200000  1.0 -0.0296492275
C  C33  1  0.54350000  0.79050000  0.74700000  1.0 -0.1573046661
C  C34  1  0.57600000  0.19000000  0.11400000  1.0 -0.0074126436
C  C35  1  0.59240000  0.40040000  0.30800000  1.0 -0.1505719519
C  C36  1  0.45650000  0.20350000  0.24700000  1.0 -0.1573046661
C  C37  1  0.42400000  0.53800000  0.61400000  1.0 -0.0074126436
C  C38  1  0.40760000  0.71560000  0.80800000  1.0 -0.1505719519
I  I1  1  0.30660000  0.34560000  0.81300000  1.0 0.0855745346
I  I2  1  0.23740000  0.17440000  0.58900000  1.0 -0.097643328
I  I3  1  0.69340000  0.50640000  0.03900000  1.0 0.0855745346
I  I4  1  0.76260000  0.35160000  0.93700000  1.0 -0.097643328
I  I5  1  0.96740000  0.50640000  0.31300000  1.0 0.0855745346
I  I6  1  0.91460000  0.35160000  0.08900000  1.0 -0.097643328
I  I7  1  0.03260000  0.34560000  0.53900000  1.0 0.0855745346
I  I8  1  0.08540000  0.17440000  0.43700000  1.0 -0.097643328
N  N1  1  0.55020000  0.46020000  0.23200000  1.0 0.0441197277
N  N2  1  0.44980000  0.68180000  0.91000000  1.0 0.0441197277
N  N3  1  0.27180000  0.68180000  0.73200000  1.0 0.0441197277
N  N4  1  0.72820000  0.46020000  0.41000000  1.0 0.0441197277
O  O1  1  0.17270000  0.86910000  0.47080000  1.0 -0.695464424
O  O2  1  0.28420000  0.60560000  0.31220000  1.0 -0.5935295887
O  O3  1  0.82730000  0.29810000  0.69640000  1.0 -0.694953493
O  O4  1  0.71580000  0.02800000  0.32140000  1.0 -0.5935295887
O  O5  1  0.10170000  0.29810000  0.97080000  1.0 -0.694953493
O  O6  1  0.20660000  0.02800000  0.81220000  1.0 -0.5935295887
O  O7  1  0.89830000  0.86910000  0.19640000  1.0 -0.695464424
O  O8  1  0.79340000  0.60560000  0.82140000  1.0 -0.5935295887
O  O9  1  0.04700000  0.26800000  0.72100000  1.0 -1.1072394765
O  O10  1  0.95300000  0.67400000  0.22100000  1.0 -1.1072394765
