# DDEC6 charges by PACMAN v1.1 (https://github.com/mtap-research/PACMAN-charge/)
data_KOHSOR_FSR_pacman
_symmetry_space_group_name_H-M   'P 1'
_cell_length_a   13.61700000
_cell_length_b   14.31850000
_cell_length_c   18.62890000
_cell_angle_alpha   88.84100000
_cell_angle_beta   110.58700000
_cell_angle_gamma   100.31000000
_symmetry_Int_Tables_number   1
_chemical_formula_structural   Ni2H68C63(N5O4)2
_chemical_formula_sum   'Ni4 H136 C126 N20 O16'
_cell_volume   3341.71870455
_cell_formula_units_Z   2
loop_
 _symmetry_equiv_pos_site_id
 _symmetry_equiv_pos_as_xyz
  1  'x, y, z'
loop_
 _atom_site_type_symbol
 _atom_site_label
 _atom_site_symmetry_multiplicity
 _atom_site_fract_x
 _atom_site_fract_y
 _atom_site_fract_z
 _atom_site_occupancy
 _atom_site_charge
Ni  Ni1  1  0.00000000  0.00000000  0.00000000  1.0 0.6098327232
Ni  Ni2  1  0.50000000  0.50000000  0.00000000  1.0 0.6098327232
Ni  Ni3  1  0.20117000  0.80640000  0.52070000  1.0 0.5670345915
Ni  Ni4  1  0.79883000  0.19360000  0.47930000  1.0 0.5670345915
H  H1  1  0.42560000  0.03030000  0.22080000  1.0 0.1207237758
H  H2  1  0.57440000  0.96970000  0.77920000  1.0 0.1304124913
H  H3  1  0.48680000  0.24860000  0.36800000  1.0 0.1207237758
H  H4  1  0.51320000  0.75140000  0.63200000  1.0 0.1207237758
H  H5  1  0.20020000  0.18180000  0.20300000  1.0 0.1207237758
H  H6  1  0.79980000  0.81820000  0.79700000  1.0 0.1207237758
H  H7  1  0.22680000  0.31340000  0.29180000  1.0 0.1115854427
H  H8  1  0.77320000  0.68660000  0.70820000  1.0 0.1115854427
H  H9  1  0.26210000  0.25650000  0.36670000  1.0 0.1207237758
H  H10  1  0.73790000  0.74350000  0.63330000  1.0 0.1207237758
H  H11  1  0.30170000  0.45540000  0.28670000  1.0 0.1007251806
H  H12  1  0.69830000  0.54460000  0.71330000  1.0 0.1007251806
H  H13  1  0.39450000  0.41280000  0.27660000  1.0 0.1115854427
H  H14  1  0.60550000  0.58720000  0.72340000  1.0 0.1115854427
H  H15  1  0.41720000  0.56790000  0.37260000  1.0 0.1115854427
H  H16  1  0.58280000  0.43210000  0.62740000  1.0 0.1115854427
H  H17  1  0.44720000  0.57180000  0.29910000  1.0 0.1207237758
H  H18  1  0.55280000  0.42820000  0.70090000  1.0 0.1207237758
H  H19  1  0.56530000  0.48660000  0.43030000  1.0 0.1115854427
H  H20  1  0.43470000  0.51340000  0.56970000  1.0 0.1115854427
H  H21  1  0.59970000  0.51600000  0.36000000  1.0 0.1115854427
H  H22  1  0.40030000  0.48400000  0.64000000  1.0 0.1115854427
H  H23  1  0.65120000  0.75960000  0.40650000  1.0 0.1304124913
H  H24  1  0.34880000  0.24040000  0.59350000  1.0 0.1304124913
H  H25  1  0.55740000  0.69850000  0.34050000  1.0 0.1207237758
H  H26  1  0.44260000  0.30150000  0.65950000  1.0 0.1207237758
H  H27  1  0.59080000  0.63010000  0.23850000  1.0 0.1304124913
H  H28  1  0.40920000  0.36990000  0.76150000  1.0 0.1304124913
H  H29  1  0.83690000  0.75150000  0.42070000  1.0 0.1392426648
H  H30  1  0.16310000  0.24850000  0.57930000  1.0 0.1392426648
H  H31  1  0.88830000  0.66180000  0.23800000  1.0 0.1516206356
H  H32  1  0.11170000  0.33820000  0.76200000  1.0 0.1516206356
H  H33  1  0.81120000  0.81930000  0.14970000  1.0 0.1392426648
H  H34  1  0.18880000  0.18070000  0.85030000  1.0 0.1392426648
H  H35  1  0.73160000  0.86610000  0.08260000  1.0 0.1304124913
H  H36  1  0.26840000  0.13390000  0.91740000  1.0 0.1304124913
H  H37  1  0.76690000  0.90660000  0.16720000  1.0 0.1392426648
H  H38  1  0.23310000  0.09340000  0.83280000  1.0 0.1392426648
H  H39  1  0.00310000  0.91070000  0.21200000  1.0 0.1392426648
H  H40  1  0.99690000  0.08930000  0.78800000  1.0 0.1392426648
H  H41  1  0.95430000  0.99390000  0.23140000  1.0 0.1392426648
H  H42  1  0.04570000  0.00610000  0.76860000  1.0 0.1392426648
H  H43  1  0.03380000  0.01360000  0.18670000  1.0 0.1392426648
H  H44  1  0.96620000  0.98640000  0.81330000  1.0 0.1392426648
H  H45  1  0.78540000  0.02510000  0.04520000  1.0 0.1207237758
H  H46  1  0.21460000  0.97490000  0.95480000  1.0 0.1207237758
H  H47  1  0.81620000  0.05940000  0.13020000  1.0 0.1115854427
H  H48  1  0.18380000  0.94060000  0.86980000  1.0 0.1115854427
H  H49  1  0.96970000  0.25250000  0.98380000  1.0 0.0930800368
H  H50  1  0.03030000  0.74750000  0.01620000  1.0 0.0930800368
H  H51  1  0.07080000  0.21450000  0.03700000  1.0 0.1115854427
H  H52  1  0.92920000  0.78550000  0.96300000  1.0 0.1115854427
H  H53  1  0.08210000  0.23120000  0.91740000  1.0 0.1207237758
H  H54  1  0.91790000  0.76880000  0.08260000  1.0 0.1207237758
H  H55  1  0.96810000  0.16800000  0.87940000  1.0 0.1207237758
H  H56  1  0.03190000  0.83200000  0.12060000  1.0 0.1207237758
H  H57  1  0.56170000  0.19000000  0.08030000  1.0 0.1392426648
H  H58  1  0.43830000  0.81000000  0.91970000  1.0 0.1392426648
H  H59  1  0.44240000  0.17840000  0.02510000  1.0 0.1392426648
H  H60  1  0.55760000  0.82160000  0.97490000  1.0 0.1392426648
H  H61  1  0.46950000  0.16710000  0.11350000  1.0 0.1516206356
H  H62  1  0.53050000  0.83290000  0.88650000  1.0 0.1516206356
H  H63  1  0.64420000  0.34130000  0.17100000  1.0 0.1392426648
H  H64  1  0.35580000  0.65870000  0.82900000  1.0 0.1392426648
H  H65  1  0.55230000  0.31640000  0.20440000  1.0 0.1392426648
H  H66  1  0.44770000  0.68360000  0.79560000  1.0 0.1392426648
H  H67  1  0.57440000  0.41690000  0.17220000  1.0 0.1392426648
H  H68  1  0.42560000  0.58310000  0.82780000  1.0 0.1392426648
H  H69  1  0.33700000  0.30370000  0.02500000  1.0 0.1304124913
H  H70  1  0.66300000  0.69630000  0.97500000  1.0 0.1304124913
H  H71  1  0.35880000  0.27950000  0.11060000  1.0 0.1304124913
H  H72  1  0.64120000  0.72050000  0.88940000  1.0 0.1304124913
H  H73  1  0.41750000  0.44260000  0.14180000  1.0 0.0767194223
H  H74  1  0.58250000  0.55740000  0.85820000  1.0 0.0767194223
H  H75  1  0.23790000  0.46650000  0.11210000  1.0 0.1304124913
H  H76  1  0.76210000  0.53350000  0.88790000  1.0 0.1304124913
H  H77  1  0.24870000  0.36480000  0.14300000  1.0 0.1304124913
H  H78  1  0.75130000  0.63520000  0.85700000  1.0 0.1304124913
H  H79  1  0.19590000  0.37750000  0.05480000  1.0 0.1392426648
H  H80  1  0.80410000  0.62250000  0.94520000  1.0 0.1392426648
H  H81  1  0.40600000  0.60940000  0.09300000  1.0 0.1115854427
H  H82  1  0.59400000  0.39060000  0.90700000  1.0 0.1115854427
H  H83  1  0.28290000  0.57950000  0.04660000  1.0 0.1007251806
H  H84  1  0.71710000  0.42050000  0.95340000  1.0 0.1007251806
H  H85  1  0.31070000  0.61650000  0.93000000  1.0 0.1115854427
H  H86  1  0.68930000  0.38350000  0.07000000  1.0 0.1115854427
H  H87  1  0.36100000  0.70690000  0.98640000  1.0 0.1007251806
H  H88  1  0.63900000  0.29310000  0.01360000  1.0 0.1007251806
H  H89  1  0.10300000  0.65490000  0.68960000  1.0 0.1207237758
H  H90  1  0.89700000  0.34510000  0.31040000  1.0 0.1207237758
H  H91  1  0.20970000  0.71730000  0.69070000  1.0 0.1207237758
H  H92  1  0.79030000  0.28270000  0.30930000  1.0 0.1207237758
H  H93  1  0.94330000  0.79680000  0.57890000  1.0 0.1304124913
H  H94  1  0.05670000  0.20320000  0.42110000  1.0 0.1304124913
H  H95  1  0.94200000  0.70090000  0.62090000  1.0 0.1304124913
H  H96  1  0.05800000  0.29910000  0.37910000  1.0 0.1304124913
H  H97  1  0.97210000  0.70910000  0.54690000  1.0 0.1392426648
H  H98  1  0.02790000  0.29090000  0.45310000  1.0 0.1392426648
H  H99  1  0.04440000  0.86500000  0.70040000  1.0 0.1304124913
H  H100  1  0.95560000  0.13500000  0.29960000  1.0 0.1304124913
H  H101  1  0.15450000  0.83610000  0.74630000  1.0 0.1304124913
H  H102  1  0.84550000  0.16390000  0.25370000  1.0 0.1392426648
H  H103  1  0.04810000  0.76490000  0.73590000  1.0 0.1207237758
H  H104  1  0.95190000  0.23510000  0.26410000  1.0 0.1207237758
H  H105  1  0.03330000  0.92010000  0.53760000  1.0 0.1115854427
H  H106  1  0.96670000  0.07990000  0.46240000  1.0 0.1115854427
H  H107  1  0.10040000  0.97170000  0.61810000  1.0 0.1207237758
H  H108  1  0.89960000  0.02830000  0.38190000  1.0 0.1207237758
H  H109  1  0.14240000  0.04750000  0.52110000  1.0 0.1007251806
H  H110  1  0.85760000  0.95250000  0.47890000  1.0 0.1007251806
H  H111  1  0.24120000  0.01590000  0.58320000  1.0 0.1115854427
H  H112  1  0.75880000  0.98410000  0.41680000  1.0 0.1115854427
H  H113  1  0.36400000  0.69420000  0.50190000  1.0 0.1207237758
H  H114  1  0.63600000  0.30580000  0.49810000  1.0 0.1207237758
H  H115  1  0.29960000  0.64930000  0.41870000  1.0 0.1007251806
H  H116  1  0.70040000  0.35070000  0.58130000  1.0 0.1007251806
H  H117  1  0.24300000  0.55970000  0.50880000  1.0 0.0930800368
H  H118  1  0.75700000  0.44030000  0.49120000  1.0 0.0930800368
H  H119  1  0.14780000  0.60260000  0.45160000  1.0 0.1207237758
H  H120  1  0.85220000  0.39740000  0.54840000  1.0 0.1207237758
H  H121  1  0.89500000  0.10000000  0.97500000  1.0 0.2328310948
H  H122  1  0.10500000  0.90000000  0.02500000  1.0 0.2328310948
H  H123  1  0.15060000  0.12060000  0.95770000  1.0 0.2240526569
H  H124  1  0.84940000  0.87940000  0.04230000  1.0 0.2240526569
H  H125  1  0.30600000  0.46800000  0.99300000  1.0 0.2486621258
H  H126  1  0.69400000  0.53200000  0.00700000  1.0 0.2486621258
H  H127  1  0.50930000  0.67400000  0.01800000  1.0 0.2486621258
H  H128  1  0.49070000  0.32600000  0.98200000  1.0 0.2486621258
H  H129  1  0.27190000  0.67600000  0.59800000  1.0 0.2591380667
H  H130  1  0.72810000  0.32400000  0.40200000  1.0 0.2591380667
H  H131  1  0.21420000  0.87600000  0.62200000  1.0 0.2398419571
H  H132  1  0.78580000  0.12400000  0.37800000  1.0 0.2398419571
H  H133  1  0.12460000  0.93330000  0.44960000  1.0 0.2486621258
H  H134  1  0.87540000  0.06670000  0.55040000  1.0 0.2486621258
H  H135  1  0.19100000  0.74500000  0.41000000  1.0 0.2486621258
H  H136  1  0.80900000  0.25500000  0.59000000  1.0 0.2486621258
C  C1  1  0.30260000  0.09850000  0.19920000  1.0 -0.0200666539
C  C2  1  0.69740000  0.90150000  0.80080000  1.0 -0.0200666539
C  C3  1  0.40440000  0.08170000  0.23720000  1.0 -0.1202229421
C  C4  1  0.59560000  0.91830000  0.76280000  1.0 -0.1202229421
C  C5  1  0.47580000  0.13900000  0.29900000  1.0 -0.0349082272
C  C6  1  0.52420000  0.86100000  0.70100000  1.0 -0.0349082272
C  C7  1  0.43980000  0.21090000  0.32550000  1.0 -0.1796100794
C  C8  1  0.56020000  0.78910000  0.67450000  1.0 -0.1796100794
C  C9  1  0.33580000  0.23010000  0.29130000  1.0 0.1007251806
C  C10  1  0.66420000  0.76990000  0.70870000  1.0 0.1007251806
C  C11  1  0.26950000  0.17160000  0.22760000  1.0 -0.1903138976
C  C12  1  0.73050000  0.82840000  0.77240000  1.0 -0.1903138976
C  C13  1  0.22720000  0.03430000  0.13260000  1.0 0.5404892009
C  C14  1  0.77280000  0.96570000  0.86740000  1.0 0.5404892009
C  C15  1  0.58580000  0.12390000  0.33900000  1.0 0.5404892009
C  C16  1  0.41420000  0.87610000  0.66100000  1.0 0.5404892009
C  C17  1  0.28740000  0.29290000  0.33010000  1.0 -0.1796100794
C  C18  1  0.71260000  0.70710000  0.66990000  1.0 -0.1796100794
C  C19  1  0.37280000  0.44250000  0.31350000  1.0 -0.1111031711
C  C20  1  0.62720000  0.55750000  0.68650000  1.0 -0.1111031711
C  C21  1  0.44730000  0.53440000  0.34310000  1.0 -0.2178667444
C  C22  1  0.55270000  0.46560000  0.65690000  1.0 -0.2178667444
C  C23  1  0.56340000  0.53440000  0.39240000  1.0 -0.1403898257
C  C24  1  0.43660000  0.46560000  0.60760000  1.0 -0.1403898257
C  C25  1  0.60400000  0.64370000  0.49850000  1.0 -0.0670109077
C  C26  1  0.39600000  0.35630000  0.50150000  1.0 -0.0670109077
C  C27  1  0.66680000  0.58790000  0.56830000  1.0 -0.0983625335
C  C28  1  0.33320000  0.41210000  0.43170000  1.0 -0.0983625335
C  C29  1  0.62810000  0.69890000  0.37790000  1.0 -0.2178667444
C  C30  1  0.37190000  0.30110000  0.62210000  1.0 -0.2178667444
C  C31  1  0.99990000  0.74260000  0.37450000  1.0 0.5404892009
C  C32  1  0.00010000  0.25740000  0.62550000  1.0 0.5404892009
C  C33  1  0.69220000  0.59370000  0.14570000  1.0 0.5404892009
C  C34  1  0.30780000  0.40630000  0.85430000  1.0 0.5404892009
C  C35  1  0.73370000  0.64070000  0.22330000  1.0 -0.0200666539
C  C36  1  0.26630000  0.35930000  0.77670000  1.0 -0.0200666539
C  C37  1  0.66380000  0.65100000  0.26260000  1.0 -0.1903138976
C  C38  1  0.33620000  0.34900000  0.73740000  1.0 -0.1903138976
C  C39  1  0.70240000  0.69140000  0.33580000  1.0 0.1115854427
C  C40  1  0.29760000  0.30860000  0.66420000  1.0 0.1115854427
C  C41  1  0.81050000  0.72290000  0.37160000  1.0 -0.1796100794
C  C42  1  0.18950000  0.27710000  0.62840000  1.0 -0.1796100794
C  C43  1  0.88130000  0.71150000  0.33350000  1.0 -0.0080529615
C  C44  1  0.11870000  0.28850000  0.66650000  1.0 -0.0080529615
C  C45  1  0.84110000  0.67040000  0.26210000  1.0 -0.1202229421
C  C46  1  0.15890000  0.32960000  0.73790000  1.0 -0.1202229421
C  C47  1  0.78960000  0.87810000  0.13100000  1.0 -0.4814303029
C  C48  1  0.21040000  0.12190000  0.86900000  1.0 -0.4814303029
C  C49  1  0.97740000  0.96830000  0.19410000  1.0 -0.5118832547
C  C50  1  0.02260000  0.03170000  0.80590000  1.0 -0.5118832547
C  C51  1  0.88640000  0.94740000  0.12010000  1.0 0.3609893811
C  C52  1  0.11360000  0.05260000  0.87990000  1.0 0.3609893811
C  C53  1  0.84520000  0.04120000  0.09300000  1.0 -0.3631035197
C  C54  1  0.15480000  0.95880000  0.90700000  1.0 -0.3631035197
C  C55  1  0.91370000  0.12830000  0.08010000  1.0 0.2079463531
C  C56  1  0.08630000  0.87170000  0.91990000  1.0 0.2079463531
C  C57  1  0.83900000  0.19810000  0.07980000  1.0 -0.0670109077
C  C58  1  0.16100000  0.80190000  0.92020000  1.0 -0.0670109077
C  C59  1  0.00550000  0.19830000  0.99280000  1.0 -0.1202229421
C  C60  1  0.99450000  0.80170000  0.00720000  1.0 -0.1202229421
C  C61  1  0.03190000  0.17830000  0.92500000  1.0 -0.0983625335
C  C62  1  0.96810000  0.82170000  0.07500000  1.0 -0.0983625335
C  C63  1  0.49200000  0.20070000  0.07520000  1.0 -0.5207610238
C  C64  1  0.50800000  0.79930000  0.92480000  1.0 -0.5207610238
C  C65  1  0.57390000  0.35040000  0.16590000  1.0 -0.5307569611
C  C66  1  0.42610000  0.64960000  0.83410000  1.0 -0.5307569611
C  C67  1  0.49600000  0.31330000  0.08670000  1.0 0.3779860627
C  C68  1  0.50400000  0.68670000  0.91330000  1.0 0.3779860627
C  C69  1  0.38240000  0.32390000  0.07740000  1.0 -0.3476365465
C  C70  1  0.61760000  0.67610000  0.92260000  1.0 -0.3476365465
C  C71  1  0.36290000  0.41630000  0.09300000  1.0 0.1773147773
C  C72  1  0.63710000  0.58370000  0.90700000  1.0 0.1773147773
C  C73  1  0.25030000  0.40520000  0.10160000  1.0 -0.4577689874
C  C74  1  0.74970000  0.59480000  0.89840000  1.0 -0.4577689874
C  C75  1  0.35350000  0.58170000  0.04460000  1.0 -0.0983625335
C  C76  1  0.64650000  0.41830000  0.95540000  1.0 -0.0983625335
C  C77  1  0.36630000  0.64160000  0.97790000  1.0 -0.1111031711
C  C78  1  0.63370000  0.35840000  0.02210000  1.0 -0.1111031711
C  C79  1  0.15300000  0.50980000  0.61140000  1.0 -0.1202229421
C  C80  1  0.84700000  0.49020000  0.38860000  1.0 -0.1202229421
C  C81  1  0.14030000  0.62730000  0.59720000  1.0 0.2843075883
C  C82  1  0.85970000  0.37270000  0.40280000  1.0 0.2843075883
C  C83  1  0.13650000  0.69350000  0.65810000  1.0 -0.3299231637
C  C84  1  0.86350000  0.30650000  0.34190000  1.0 -0.3299231637
C  C85  1  0.08570000  0.77240000  0.63850000  1.0 0.3237750423
C  C86  1  0.91430000  0.22760000  0.36150000  1.0 0.3237750423
C  C87  1  0.97710000  0.74240000  0.59260000  1.0 -0.4717165637
C  C88  1  0.02290000  0.25760000  0.40740000  1.0 -0.4717165637
C  C89  1  0.08300000  0.81330000  0.71200000  1.0 -0.4717165637
C  C90  1  0.91700000  0.18670000  0.28800000  1.0 -0.4717165637
C  C91  1  0.10450000  0.93620000  0.57580000  1.0 -0.1281940001
C  C92  1  0.89550000  0.06380000  0.42420000  1.0 -0.1281940001
C  C93  1  0.17320000  0.99280000  0.54300000  1.0 -0.1111031711
C  C94  1  0.82680000  0.00720000  0.45700000  1.0 -0.1111031711
C  C95  1  0.23370000  0.08020000  0.40620000  1.0 -0.268096264
C  C96  1  0.76630000  0.91980000  0.59380000  1.0 -0.268096264
C  C97  1  0.26940000  0.99020000  0.44760000  1.0 0.2079463531
C  C98  1  0.73060000  0.00980000  0.55240000  1.0 0.2079463531
C  C99  1  0.27390000  0.92620000  0.38740000  1.0 0.0378194884
C  C100  1  0.72610000  0.07380000  0.61260000  1.0 0.0378194884
C  C101  1  0.32850000  0.83990000  0.41200000  1.0 0.1516206356
C  C102  1  0.67150000  0.16010000  0.58800000  1.0 0.1516206356
C  C103  1  0.43940000  0.86160000  0.45200000  1.0 -0.0873829495
C  C104  1  0.56060000  0.13840000  0.54800000  1.0 -0.0873829495
C  C105  1  0.29390000  0.68140000  0.46210000  1.0 -0.1111031711
C  C106  1  0.70610000  0.31860000  0.53790000  1.0 -0.1111031711
C  C107  1  0.21740000  0.61830000  0.49170000  1.0 -0.1202229421
C  C108  1  0.78260000  0.38170000  0.50830000  1.0 -0.1202229421
C  C109  1  0.33400000  0.80300000  0.32220000  1.0 -0.0200666539
C  C110  1  0.66600000  0.19700000  0.67780000  1.0 -0.0200666539
C  C111  1  0.70300000  0.64300000  0.49800000  1.0 -0.0504159746
C  C112  1  0.29700000  0.35700000  0.50200000  1.0 -0.0504159746
C  C113  1  0.88000000  0.22900000  0.07600000  1.0 0.0106891379
C  C114  1  0.12000000  0.77100000  0.92400000  1.0 0.0106891379
C  C115  1  0.92100000  0.23500000  0.10800000  1.0 -0.0504159746
C  C116  1  0.07900000  0.76500000  0.89200000  1.0 -0.0504159746
C  C117  1  0.19100000  0.54770000  0.65250000  1.0 -0.0824882794
C  C118  1  0.80900000  0.45230000  0.34750000  1.0 -0.0824882794
C  C119  1  0.31900000  0.78100000  0.33300000  1.0 0.0208626356
C  C120  1  0.68100000  0.21900000  0.66700000  1.0 0.0208626356
C  C121  1  0.31700000  0.95800000  0.37500000  1.0 -0.0200666539
C  C122  1  0.68300000  0.04200000  0.62500000  1.0 -0.0200666539
C  C123  1  0.37400000  0.80100000  0.36300000  1.0 0.0473142811
C  C124  1  0.62600000  0.19900000  0.63700000  1.0 0.0473142811
C  C125  1  0.37900000  0.03910000  0.50070000  1.0 -0.003986938
C  C126  1  0.62100000  0.96090000  0.49930000  1.0 -0.003986938
N  N1  1  0.36860000  0.37830000  0.37070000  1.0 -0.0670109077
N  N2  1  0.63140000  0.62170000  0.62930000  1.0 -0.0670109077
N  N3  1  0.62090000  0.62340000  0.43140000  1.0 0.170260061
N  N4  1  0.37910000  0.37660000  0.56860000  1.0 0.170260061
N  N5  1  0.93580000  0.11560000  0.00980000  1.0 -0.3080580441
N  N6  1  0.06420000  0.88440000  0.99020000  1.0 -0.3080580441
N  N7  1  0.08040000  0.09060000  0.94050000  1.0 -0.374503206
N  N8  1  0.91960000  0.90940000  0.05950000  1.0 -0.374503206
N  N9  1  0.36880000  0.48610000  0.03110000  1.0 -0.3433206487
N  N10  1  0.63120000  0.51390000  0.96890000  1.0 -0.3433206487
N  N11  1  0.47560000  0.63720000  0.97470000  1.0 -0.3631035197
N  N12  1  0.52440000  0.36280000  0.02530000  1.0 -0.3631035197
N  N13  1  0.21020000  0.67180000  0.55780000  1.0 -0.3476365465
N  N14  1  0.78980000  0.32820000  0.44220000  1.0 -0.3476365465
N  N15  1  0.14520000  0.84770000  0.60390000  1.0 -0.3299231637
N  N16  1  0.85480000  0.15230000  0.39610000  1.0 -0.3299231637
N  N17  1  0.19150000  0.94190000  0.48390000  1.0 -0.3080580441
N  N18  1  0.80850000  0.05810000  0.51610000  1.0 -0.3080580441
N  N19  1  0.25910000  0.76750000  0.43930000  1.0 -0.3080580441
N  N20  1  0.74090000  0.23250000  0.56070000  1.0 -0.3080580441
O  O1  1  0.13670000  0.05840000  0.09850000  1.0 -0.5519919503
O  O2  1  0.86330000  0.94160000  0.90150000  1.0 -0.5519919503
O  O3  1  0.25630000  0.96700000  0.11400000  1.0 -0.5038325
O  O4  1  0.74370000  0.03300000  0.88600000  1.0 -0.5038325
O  O5  1  0.62480000  0.06930000  0.30650000  1.0 -0.5593099701
O  O6  1  0.37520000  0.93070000  0.69350000  1.0 -0.5593099701
O  O7  1  0.63900000  0.16540000  0.40070000  1.0 -0.5038325
O  O8  1  0.36100000  0.83460000  0.59930000  1.0 -0.5038325
O  O9  1  0.59570000  0.56530000  0.11230000  1.0 -0.5307569611
O  O10  1  0.40430000  0.43470000  0.88770000  1.0 -0.5307569611
O  O11  1  0.76050000  0.58880000  0.11450000  1.0 -0.5593099701
O  O12  1  0.23950000  0.41120000  0.88550000  1.0 -0.5593099701
O  O13  1  0.03720000  0.77010000  0.44150000  1.0 -0.5118832547
O  O14  1  0.96280000  0.22990000  0.55850000  1.0 -0.5118832547
O  O15  1  0.05330000  0.73680000  0.33260000  1.0 -0.5207610238
O  O16  1  0.94670000  0.26320000  0.66740000  1.0 -0.5207610238
