# DDEC6 charges by PACMAN v1.1 (https://github.com/mtap-research/PACMAN-charge/)
data_KOMGOJ_FSR_pacman
_symmetry_space_group_name_H-M   'P 1'
_cell_length_a   14.67230000
_cell_length_b   14.67230000
_cell_length_c   14.67230000
_cell_angle_alpha   128.75000000
_cell_angle_beta   128.75000000
_cell_angle_gamma   75.41370000
_symmetry_Int_Tables_number   1
_chemical_formula_structural   Cd3H32(C2N3)18
_chemical_formula_sum   'Cd3 H32 C36 N54'
_cell_volume   1869.58024218
_cell_formula_units_Z   1
loop_
 _symmetry_equiv_pos_site_id
 _symmetry_equiv_pos_as_xyz
  1  'x, y, z'
loop_
 _atom_site_type_symbol
 _atom_site_label
 _atom_site_symmetry_multiplicity
 _atom_site_fract_x
 _atom_site_fract_y
 _atom_site_fract_z
 _atom_site_occupancy
 _atom_site_charge
Cd  Cd1  1  0.33815000  0.33815000  0.00000000  1.0 0.6950029063
Cd  Cd2  1  0.66185000  0.66185000  0.00000000  1.0 0.6950029063
Cd  Cd3  1  0.00000000  0.00000000  0.00000000  1.0 0.7221844124
H  H1  1  0.21630000  0.39910000  0.29720000  1.0 0.1286525548
H  H2  1  0.10190000  0.91910000  0.70280000  1.0 0.1286525548
H  H3  1  0.60090000  0.89810000  0.81720000  1.0 0.1286525548
H  H4  1  0.08090000  0.78370000  0.18280000  1.0 0.1286525548
H  H5  1  0.51490000  0.37830000  0.33960000  1.0 0.1286525548
H  H6  1  0.03870000  0.17530000  0.66040000  1.0 0.1286525548
H  H7  1  0.62170000  0.96130000  0.13660000  1.0 0.1286525548
H  H8  1  0.82470000  0.48510000  0.86340000  1.0 0.1286525548
H  H9  1  0.49790000  0.60030000  0.65640000  1.0 0.1286525548
H  H10  1  0.94390000  0.84150000  0.34360000  1.0 0.1286525548
H  H11  1  0.39970000  0.05610000  0.89760000  1.0 0.1286525548
H  H12  1  0.15850000  0.50210000  0.10240000  1.0 0.1286525548
H  H13  1  0.46310000  0.25820000  0.45910000  1.0 0.1286525548
H  H14  1  0.79910000  0.00400000  0.54090000  1.0 0.1286525548
H  H15  1  0.74180000  0.20090000  0.20490000  1.0 0.1286525548
H  H16  1  0.99600000  0.53690000  0.79510000  1.0 0.1286525548
H  H17  1  0.55800000  0.76440000  0.29440000  1.0 0.1178745854
H  H18  1  0.47000000  0.26360000  0.70560000  1.0 0.1178745854
H  H19  1  0.23560000  0.53000000  0.79360000  1.0 0.1178745854
H  H20  1  0.73640000  0.44200000  0.20640000  1.0 0.1178745854
H  H21  1  0.62620000  0.51460000  0.33960000  1.0 0.1286525548
H  H22  1  0.17500000  0.28660000  0.66040000  1.0 0.1286525548
H  H23  1  0.48540000  0.82500000  0.11160000  1.0 0.1286525548
H  H24  1  0.71340000  0.37380000  0.88840000  1.0 0.1286525548
H  H25  1  0.71200000  0.83530000  0.65470000  1.0 0.1286525548
H  H26  1  0.18060000  0.05730000  0.34530000  1.0 0.1286525548
H  H27  1  0.16470000  0.81940000  0.87670000  1.0 0.1286525548
H  H28  1  0.94270000  0.28800000  0.12330000  1.0 0.1286525548
H  H29  1  0.86020000  0.70130000  0.45850000  1.0 0.1286525548
H  H30  1  0.24280000  0.40170000  0.54150000  1.0 0.1286525548
H  H31  1  0.29870000  0.75720000  0.15890000  1.0 0.1286525548
H  H32  1  0.59830000  0.13980000  0.84110000  1.0 0.1286525548
C  C1  1  0.26950000  0.39100000  0.27930000  1.0 0.0485904678
C  C2  1  0.11170000  0.99020000  0.72070000  1.0 0.0485904678
C  C3  1  0.60900000  0.88830000  0.87850000  1.0 0.0485904678
C  C4  1  0.00980000  0.73050000  0.12150000  1.0 0.0485904678
C  C5  1  0.43600000  0.38050000  0.30490000  1.0 0.0414091724
C  C6  1  0.07560000  0.13110000  0.69510000  1.0 0.0414091724
C  C7  1  0.61950000  0.92440000  0.05550000  1.0 0.0414091724
C  C8  1  0.86890000  0.56400000  0.94450000  1.0 0.0414091724
C  C9  1  0.50360000  0.52730000  0.63950000  1.0 0.0485904678
C  C10  1  0.88780000  0.86410000  0.36050000  1.0 0.0485904678
C  C11  1  0.47270000  0.11220000  0.97630000  1.0 0.0485904678
C  C12  1  0.13590000  0.49640000  0.02370000  1.0 0.0485904678
C  C13  1  0.48500000  0.34100000  0.53240000  1.0 0.0598654889
C  C14  1  0.80860000  0.95260000  0.46760000  1.0 0.0598654889
C  C15  1  0.65900000  0.19140000  0.14400000  1.0 0.0598654889
C  C16  1  0.04740000  0.51500000  0.85600000  1.0 0.0598654889
C  C17  1  0.54900000  0.69330000  0.27730000  1.0 0.0414091724
C  C18  1  0.41600000  0.27170000  0.72270000  1.0 0.0414091724
C  C19  1  0.30670000  0.58400000  0.85570000  1.0 0.0414091724
C  C20  1  0.72830000  0.45100000  0.14430000  1.0 0.0414091724
C  C21  1  0.58700000  0.55660000  0.30200000  1.0 0.0414091724
C  C22  1  0.25460000  0.28500000  0.69800000  1.0 0.0414091724
C  C23  1  0.44340000  0.74540000  0.03040000  1.0 0.0414091724
C  C24  1  0.71500000  0.41300000  0.96960000  1.0 0.0414091724
C  C25  1  0.76790000  0.81980000  0.63850000  1.0 0.0598654889
C  C26  1  0.18130000  0.12940000  0.36150000  1.0 0.0598654889
C  C27  1  0.18020000  0.81870000  0.94810000  1.0 0.0598654889
C  C28  1  0.87060000  0.23210000  0.05190000  1.0 0.0598654889
C  C29  1  0.85030000  0.74610000  0.53140000  1.0 0.0414091724
C  C30  1  0.21470000  0.31890000  0.46860000  1.0 0.0414091724
C  C31  1  0.25390000  0.78530000  0.10420000  1.0 0.0414091724
C  C32  1  0.68110000  0.14970000  0.89580000  1.0 0.0414091724
C  C33  1  0.86790000  0.79130000  0.90340000  1.0 0.2987132969
C  C34  1  0.88790000  0.96450000  0.09660000  1.0 0.2987132969
C  C35  1  0.20870000  0.11210000  0.07660000  1.0 0.2987132969
C  C36  1  0.03550000  0.13210000  0.92340000  1.0 0.2987132969
N  N1  1  0.34720000  0.36710000  0.18230000  1.0 -0.1773326618
N  N2  1  0.18480000  0.16490000  0.81770000  1.0 -0.1773326618
N  N3  1  0.63290000  0.81520000  0.98010000  1.0 -0.1773326618
N  N4  1  0.83510000  0.65280000  0.01990000  1.0 -0.1773326618
N  N5  1  0.24220000  0.37160000  0.16640000  1.0 -0.1951101568
N  N6  1  0.20520000  0.07580000  0.83360000  1.0 -0.1951101568
N  N7  1  0.62840000  0.79480000  0.87060000  1.0 -0.1951101568
N  N8  1  0.92420000  0.75780000  0.12940000  1.0 -0.1951101568
N  N9  1  0.39180000  0.39830000  0.37170000  1.0 0.0598654889
N  N10  1  0.02660000  0.02010000  0.62830000  1.0 0.0598654889
N  N11  1  0.60170000  0.97340000  0.99350000  1.0 0.0598654889
N  N12  1  0.97990000  0.60820000  0.00650000  1.0 0.0598654889
N  N13  1  0.55610000  0.51430000  0.73940000  1.0 -0.1773326618
N  N14  1  0.77490000  0.81670000  0.26060000  1.0 -0.1773326618
N  N15  1  0.48570000  0.22510000  0.04180000  1.0 -0.1773326618
N  N16  1  0.18330000  0.44390000  0.95820000  1.0 -0.1773326618
N  N17  1  0.54510000  0.39360000  0.66990000  1.0 -0.2393867743
N  N18  1  0.72370000  0.87520000  0.33010000  1.0 -0.2393867743
N  N19  1  0.60640000  0.27630000  0.15150000  1.0 -0.2393867743
N  N20  1  0.12480000  0.45490000  0.84850000  1.0 -0.2393867743
N  N21  1  0.45800000  0.41950000  0.50730000  1.0 0.0598654889
N  N22  1  0.91220000  0.95070000  0.49270000  1.0 0.0598654889
N  N23  1  0.58050000  0.08780000  0.03850000  1.0 0.0598654889
N  N24  1  0.04930000  0.54200000  0.96150000  1.0 0.0598654889
N  N25  1  0.48030000  0.51610000  0.17740000  1.0 -0.1773326618
N  N26  1  0.33870000  0.30290000  0.82260000  1.0 -0.1773326618
N  N27  1  0.48390000  0.66130000  0.96420000  1.0 -0.1773326618
N  N28  1  0.69710000  0.51970000  0.03580000  1.0 -0.1773326618
N  N29  1  0.45570000  0.60730000  0.16400000  1.0 -0.2184041792
N  N30  1  0.44330000  0.29170000  0.83600000  1.0 -0.2184041792
N  N31  1  0.39270000  0.55670000  0.84840000  1.0 -0.2184041792
N  N32  1  0.70830000  0.54430000  0.15160000  1.0 -0.2184041792
N  N33  1  0.63280000  0.66630000  0.36850000  1.0 0.0485904678
N  N34  1  0.29780000  0.26430000  0.63150000  1.0 0.0485904678
N  N35  1  0.33370000  0.70220000  0.96650000  1.0 0.0485904678
N  N36  1  0.73570000  0.36720000  0.03350000  1.0 0.0485904678
N  N37  1  0.74490000  0.74140000  0.50590000  1.0 0.0485904678
N  N38  1  0.23550000  0.23900000  0.49410000  1.0 0.0485904678
N  N39  1  0.25860000  0.76450000  0.00350000  1.0 0.0485904678
N  N40  1  0.76100000  0.25510000  0.99650000  1.0 0.0485904678
N  N41  1  0.88130000  0.87050000  0.74040000  1.0 -0.1856099327
N  N42  1  0.13010000  0.14090000  0.25960000  1.0 -0.1856099327
N  N43  1  0.12950000  0.86990000  0.01080000  1.0 -0.1856099327
N  N44  1  0.85910000  0.11870000  0.98920000  1.0 -0.1856099327
N  N45  1  0.93490000  0.82230000  0.67260000  1.0 -0.2184041792
N  N46  1  0.14970000  0.26230000  0.32740000  1.0 -0.2184041792
N  N47  1  0.17770000  0.85030000  0.11260000  1.0 -0.2184041792
N  N48  1  0.73770000  0.06510000  0.88740000  1.0 -0.2184041792
N  N49  1  0.90150000  0.90150000  0.00000000  1.0 -0.3135930968
N  N50  1  0.09850000  0.09850000  0.00000000  1.0 -0.3135930968
N  N51  1  0.82670000  0.67120000  0.78830000  1.0 -0.6989540828
N  N52  1  0.88290000  0.03840000  0.21170000  1.0 -0.6989540828
N  N53  1  0.32880000  0.11710000  0.15550000  1.0 -0.6989540828
N  N54  1  0.96160000  0.17330000  0.84450000  1.0 -0.6989540828
