# DDEC6 charges by PACMAN v1.1 (https://github.com/mtap-research/PACMAN-charge/)
data_KOMHIF_ASR_pacman
_symmetry_space_group_name_H-M   'P 1'
_cell_length_a   12.75590000
_cell_length_b   12.75590000
_cell_length_c   17.74100000
_cell_angle_alpha   90.00000000
_cell_angle_beta   90.00000000
_cell_angle_gamma   120.00000000
_symmetry_Int_Tables_number   1
_chemical_formula_structural   Nd2Cd3H48(C6O5)6
_chemical_formula_sum   'Nd4 Cd6 H96 C72 O60'
_cell_volume   2499.94779388
_cell_formula_units_Z   2
loop_
 _symmetry_equiv_pos_site_id
 _symmetry_equiv_pos_as_xyz
  1  'x, y, z'
loop_
 _atom_site_type_symbol
 _atom_site_label
 _atom_site_symmetry_multiplicity
 _atom_site_fract_x
 _atom_site_fract_y
 _atom_site_fract_z
 _atom_site_occupancy
 _atom_site_charge
Nd  Nd1  1  0.66666667  0.33333333  0.25000000  1.0 1.833927244
Nd  Nd2  1  0.33333333  0.66666667  0.25000000  1.0 1.833927244
Nd  Nd3  1  0.33333333  0.66666667  0.75000000  1.0 1.833927244
Nd  Nd4  1  0.66666667  0.33333333  0.75000000  1.0 1.8350710174
Cd  Cd1  1  0.00000000  0.50000000  0.00000000  1.0 1.0631926358
Cd  Cd2  1  0.50000000  0.50000000  0.00000000  1.0 1.0631926358
Cd  Cd3  1  0.50000000  0.00000000  0.00000000  1.0 1.0631926358
Cd  Cd4  1  0.50000000  0.00000000  0.50000000  1.0 1.0631926358
Cd  Cd5  1  0.50000000  0.50000000  0.50000000  1.0 1.0631926358
Cd  Cd6  1  0.00000000  0.50000000  0.50000000  1.0 1.0631926358
H  H1  1  0.76120000  0.13720000  0.14610000  1.0 0.113604314
H  H2  1  0.86280000  0.62400000  0.14610000  1.0 0.113604314
H  H3  1  0.37600000  0.23880000  0.14610000  1.0 0.113604314
H  H4  1  0.23880000  0.86280000  0.14610000  1.0 0.113604314
H  H5  1  0.13720000  0.37600000  0.14610000  1.0 0.113604314
H  H6  1  0.62400000  0.76120000  0.14610000  1.0 0.113604314
H  H7  1  0.13720000  0.76120000  0.35390000  1.0 0.113604314
H  H8  1  0.62400000  0.86280000  0.35390000  1.0 0.113604314
H  H9  1  0.23880000  0.37600000  0.35390000  1.0 0.113604314
H  H10  1  0.86280000  0.23880000  0.35390000  1.0 0.113604314
H  H11  1  0.37600000  0.13720000  0.35390000  1.0 0.113604314
H  H12  1  0.76120000  0.62400000  0.35390000  1.0 0.113604314
H  H13  1  0.23880000  0.86280000  0.85390000  1.0 0.113604314
H  H14  1  0.13720000  0.37600000  0.85390000  1.0 0.113604314
H  H15  1  0.62400000  0.76120000  0.85390000  1.0 0.113604314
H  H16  1  0.76120000  0.13720000  0.85390000  1.0 0.113604314
H  H17  1  0.86280000  0.62400000  0.85390000  1.0 0.113604314
H  H18  1  0.37600000  0.23880000  0.85390000  1.0 0.113604314
H  H19  1  0.86280000  0.23880000  0.64610000  1.0 0.113604314
H  H20  1  0.37600000  0.13720000  0.64610000  1.0 0.113604314
H  H21  1  0.76120000  0.62400000  0.64610000  1.0 0.113604314
H  H22  1  0.13720000  0.76120000  0.64610000  1.0 0.113604314
H  H23  1  0.62400000  0.86280000  0.64610000  1.0 0.113604314
H  H24  1  0.23880000  0.37600000  0.64610000  1.0 0.113604314
H  H25  1  0.88950000  0.18010000  0.18310000  1.0 0.0714701223
H  H26  1  0.81990000  0.70940000  0.18310000  1.0 0.0714701223
H  H27  1  0.29060000  0.11050000  0.18310000  1.0 0.0714701223
H  H28  1  0.11050000  0.81990000  0.18310000  1.0 0.0714701223
H  H29  1  0.18010000  0.29060000  0.18310000  1.0 0.0714701223
H  H30  1  0.70940000  0.88950000  0.18310000  1.0 0.0714701223
H  H31  1  0.18010000  0.88950000  0.31690000  1.0 0.0714701223
H  H32  1  0.70940000  0.81990000  0.31690000  1.0 0.0714701223
H  H33  1  0.11050000  0.29060000  0.31690000  1.0 0.0714701223
H  H34  1  0.81990000  0.11050000  0.31690000  1.0 0.0714701223
H  H35  1  0.29060000  0.18010000  0.31690000  1.0 0.0714701223
H  H36  1  0.88950000  0.70940000  0.31690000  1.0 0.0714701223
H  H37  1  0.11050000  0.81990000  0.81690000  1.0 0.0714701223
H  H38  1  0.18010000  0.29060000  0.81690000  1.0 0.0714701223
H  H39  1  0.70940000  0.88950000  0.81690000  1.0 0.0714701223
H  H40  1  0.88950000  0.18010000  0.81690000  1.0 0.0714701223
H  H41  1  0.81990000  0.70940000  0.81690000  1.0 0.0714701223
H  H42  1  0.29060000  0.11050000  0.81690000  1.0 0.0714701223
H  H43  1  0.81990000  0.11050000  0.68310000  1.0 0.0714701223
H  H44  1  0.29060000  0.18010000  0.68310000  1.0 0.0714701223
H  H45  1  0.88950000  0.70940000  0.68310000  1.0 0.0714701223
H  H46  1  0.18010000  0.88950000  0.68310000  1.0 0.0714701223
H  H47  1  0.70940000  0.81990000  0.68310000  1.0 0.0714701223
H  H48  1  0.11050000  0.29060000  0.68310000  1.0 0.0714701223
H  H49  1  0.92430000  0.21940000  0.19770000  1.0 0.0714701223
H  H50  1  0.78060000  0.70490000  0.19770000  1.0 0.0714701223
H  H51  1  0.29510000  0.07570000  0.19770000  1.0 0.0714701223
H  H52  1  0.07570000  0.78060000  0.19770000  1.0 0.0714701223
H  H53  1  0.21940000  0.29510000  0.19770000  1.0 0.0714701223
H  H54  1  0.70490000  0.92430000  0.19770000  1.0 0.0714701223
H  H55  1  0.21940000  0.92430000  0.30230000  1.0 0.0714701223
H  H56  1  0.70490000  0.78060000  0.30230000  1.0 0.0714701223
H  H57  1  0.07570000  0.29510000  0.30230000  1.0 0.0714701223
H  H58  1  0.78060000  0.07570000  0.30230000  1.0 0.0714701223
H  H59  1  0.29510000  0.21940000  0.30230000  1.0 0.0714701223
H  H60  1  0.92430000  0.70490000  0.30230000  1.0 0.0714701223
H  H61  1  0.07570000  0.78060000  0.80230000  1.0 0.0714701223
H  H62  1  0.21940000  0.29510000  0.80230000  1.0 0.0714701223
H  H63  1  0.70490000  0.92430000  0.80230000  1.0 0.0714701223
H  H64  1  0.92430000  0.21940000  0.80230000  1.0 0.0714701223
H  H65  1  0.78060000  0.70490000  0.80230000  1.0 0.0714701223
H  H66  1  0.29510000  0.07570000  0.80230000  1.0 0.0714701223
H  H67  1  0.78060000  0.07570000  0.69770000  1.0 0.0714701223
H  H68  1  0.29510000  0.21940000  0.69770000  1.0 0.0714701223
H  H69  1  0.92430000  0.70490000  0.69770000  1.0 0.0714701223
H  H70  1  0.21940000  0.92430000  0.69770000  1.0 0.0714701223
H  H71  1  0.70490000  0.78060000  0.69770000  1.0 0.0714701223
H  H72  1  0.07570000  0.29510000  0.69770000  1.0 0.0714701223
H  H73  1  0.96260000  0.34190000  0.24070000  1.0 0.0822347378
H  H74  1  0.65810000  0.62070000  0.24070000  1.0 0.0822347378
H  H75  1  0.37930000  0.03740000  0.24070000  1.0 0.0822347378
H  H76  1  0.03740000  0.65810000  0.24070000  1.0 0.0822347378
H  H77  1  0.34190000  0.37930000  0.24070000  1.0 0.0822347378
H  H78  1  0.62070000  0.96260000  0.24070000  1.0 0.0822347378
H  H79  1  0.34190000  0.96260000  0.25930000  1.0 0.0822347378
H  H80  1  0.62070000  0.65810000  0.25930000  1.0 0.0822347378
H  H81  1  0.03740000  0.37930000  0.25930000  1.0 0.0822347378
H  H82  1  0.65810000  0.03740000  0.25930000  1.0 0.0822347378
H  H83  1  0.37930000  0.34190000  0.25930000  1.0 0.0822347378
H  H84  1  0.96260000  0.62070000  0.25930000  1.0 0.0822347378
H  H85  1  0.03740000  0.65810000  0.75930000  1.0 0.0822347378
H  H86  1  0.34190000  0.37930000  0.75930000  1.0 0.0822347378
H  H87  1  0.62070000  0.96260000  0.75930000  1.0 0.0822347378
H  H88  1  0.96260000  0.34190000  0.75930000  1.0 0.0822347378
H  H89  1  0.65810000  0.62070000  0.75930000  1.0 0.0822347378
H  H90  1  0.37930000  0.03740000  0.75930000  1.0 0.0822347378
H  H91  1  0.65810000  0.03740000  0.74070000  1.0 0.0822347378
H  H92  1  0.37930000  0.34190000  0.74070000  1.0 0.0822347378
H  H93  1  0.96260000  0.62070000  0.74070000  1.0 0.0822347378
H  H94  1  0.34190000  0.96260000  0.74070000  1.0 0.0822347378
H  H95  1  0.62070000  0.65810000  0.74070000  1.0 0.0822347378
H  H96  1  0.03740000  0.37930000  0.74070000  1.0 0.0822347378
C  C1  1  0.87550000  0.32900000  0.14040000  1.0 0.5111157944
C  C2  1  0.67100000  0.54650000  0.14040000  1.0 0.5111157944
C  C3  1  0.45350000  0.12450000  0.14040000  1.0 0.5111157944
C  C4  1  0.12450000  0.67100000  0.14040000  1.0 0.5111157944
C  C5  1  0.32900000  0.45350000  0.14040000  1.0 0.5111157944
C  C6  1  0.54650000  0.87550000  0.14040000  1.0 0.5111157944
C  C7  1  0.32900000  0.87550000  0.35960000  1.0 0.5111157944
C  C8  1  0.54650000  0.67100000  0.35960000  1.0 0.5111157944
C  C9  1  0.12450000  0.45350000  0.35960000  1.0 0.5111157944
C  C10  1  0.67100000  0.12450000  0.35960000  1.0 0.5111157944
C  C11  1  0.45350000  0.32900000  0.35960000  1.0 0.5111157944
C  C12  1  0.87550000  0.54650000  0.35960000  1.0 0.5111157944
C  C13  1  0.12450000  0.67100000  0.85960000  1.0 0.5111157944
C  C14  1  0.32900000  0.45350000  0.85960000  1.0 0.5111157944
C  C15  1  0.54650000  0.87550000  0.85960000  1.0 0.5111157944
C  C16  1  0.87550000  0.32900000  0.85960000  1.0 0.5111157944
C  C17  1  0.67100000  0.54650000  0.85960000  1.0 0.5111157944
C  C18  1  0.45350000  0.12450000  0.85960000  1.0 0.5111157944
C  C19  1  0.67100000  0.12450000  0.64040000  1.0 0.5111157944
C  C20  1  0.45350000  0.32900000  0.64040000  1.0 0.5111157944
C  C21  1  0.87550000  0.54650000  0.64040000  1.0 0.5111157944
C  C22  1  0.32900000  0.87550000  0.64040000  1.0 0.5111157944
C  C23  1  0.54650000  0.67100000  0.64040000  1.0 0.5111157944
C  C24  1  0.12450000  0.45350000  0.64040000  1.0 0.5111157944
C  C25  1  0.82600000  0.20000000  0.17600000  1.0 -0.1143840303
C  C26  1  0.80000000  0.62600000  0.17600000  1.0 -0.1143840303
C  C27  1  0.37400000  0.17400000  0.17600000  1.0 -0.1143840303
C  C28  1  0.17400000  0.80000000  0.17600000  1.0 -0.1143840303
C  C29  1  0.20000000  0.37400000  0.17600000  1.0 -0.1143840303
C  C30  1  0.62600000  0.82600000  0.17600000  1.0 -0.1143840303
C  C31  1  0.20000000  0.82600000  0.32400000  1.0 -0.1143840303
C  C32  1  0.62600000  0.80000000  0.32400000  1.0 -0.1143840303
C  C33  1  0.17400000  0.37400000  0.32400000  1.0 -0.1143840303
C  C34  1  0.80000000  0.17400000  0.32400000  1.0 -0.1143840303
C  C35  1  0.37400000  0.20000000  0.32400000  1.0 -0.1143840303
C  C36  1  0.82600000  0.62600000  0.32400000  1.0 -0.1143840303
C  C37  1  0.17400000  0.80000000  0.82400000  1.0 -0.1143840303
C  C38  1  0.20000000  0.37400000  0.82400000  1.0 -0.1143840303
C  C39  1  0.62600000  0.82600000  0.82400000  1.0 -0.1143840303
C  C40  1  0.82600000  0.20000000  0.82400000  1.0 -0.1143840303
C  C41  1  0.80000000  0.62600000  0.82400000  1.0 -0.1143840303
C  C42  1  0.37400000  0.17400000  0.82400000  1.0 -0.1143840303
C  C43  1  0.80000000  0.17400000  0.67600000  1.0 -0.1143840303
C  C44  1  0.37400000  0.20000000  0.67600000  1.0 -0.1143840303
C  C45  1  0.82600000  0.62600000  0.67600000  1.0 -0.1143840303
C  C46  1  0.20000000  0.82600000  0.67600000  1.0 -0.1143840303
C  C47  1  0.62600000  0.80000000  0.67600000  1.0 -0.1143840303
C  C48  1  0.17400000  0.37400000  0.67600000  1.0 -0.1143840303
C  C49  1  0.90000000  0.27800000  0.21000000  1.0 -0.1207296128
C  C50  1  0.72200000  0.62200000  0.21000000  1.0 -0.1207296128
C  C51  1  0.37800000  0.10000000  0.21000000  1.0 -0.1207296128
C  C52  1  0.10000000  0.72200000  0.21000000  1.0 -0.1207296128
C  C53  1  0.27800000  0.37800000  0.21000000  1.0 -0.1207296128
C  C54  1  0.62200000  0.90000000  0.21000000  1.0 -0.1207296128
C  C55  1  0.27800000  0.90000000  0.29000000  1.0 -0.1207296128
C  C56  1  0.62200000  0.72200000  0.29000000  1.0 -0.1207296128
C  C57  1  0.10000000  0.37800000  0.29000000  1.0 -0.1207296128
C  C58  1  0.72200000  0.10000000  0.29000000  1.0 -0.1207296128
C  C59  1  0.37800000  0.27800000  0.29000000  1.0 -0.1207296128
C  C60  1  0.90000000  0.62200000  0.29000000  1.0 -0.1207296128
C  C61  1  0.10000000  0.72200000  0.79000000  1.0 -0.1207296128
C  C62  1  0.27800000  0.37800000  0.79000000  1.0 -0.1207296128
C  C63  1  0.62200000  0.90000000  0.79000000  1.0 -0.1207296128
C  C64  1  0.90000000  0.27800000  0.79000000  1.0 -0.1207296128
C  C65  1  0.72200000  0.62200000  0.79000000  1.0 -0.1207296128
C  C66  1  0.37800000  0.10000000  0.79000000  1.0 -0.1207296128
C  C67  1  0.72200000  0.10000000  0.71000000  1.0 -0.1207296128
C  C68  1  0.37800000  0.27800000  0.71000000  1.0 -0.1207296128
C  C69  1  0.90000000  0.62200000  0.71000000  1.0 -0.1207296128
C  C70  1  0.27800000  0.90000000  0.71000000  1.0 -0.1207296128
C  C71  1  0.62200000  0.72200000  0.71000000  1.0 -0.1207296128
C  C72  1  0.10000000  0.37800000  0.71000000  1.0 -0.1207296128
O  O1  1  0.94450000  0.35110000  0.08520000  1.0 -0.4997343458
O  O2  1  0.64890000  0.59340000  0.08520000  1.0 -0.4997343458
O  O3  1  0.40660000  0.05550000  0.08520000  1.0 -0.4997343458
O  O4  1  0.05550000  0.64890000  0.08520000  1.0 -0.4997343458
O  O5  1  0.35110000  0.40660000  0.08520000  1.0 -0.4997343458
O  O6  1  0.59340000  0.94450000  0.08520000  1.0 -0.4997343458
O  O7  1  0.35110000  0.94450000  0.41480000  1.0 -0.4997343458
O  O8  1  0.59340000  0.64890000  0.41480000  1.0 -0.4997343458
O  O9  1  0.05550000  0.40660000  0.41480000  1.0 -0.4997343458
O  O10  1  0.64890000  0.05550000  0.41480000  1.0 -0.4997343458
O  O11  1  0.40660000  0.35110000  0.41480000  1.0 -0.4997343458
O  O12  1  0.94450000  0.59340000  0.41480000  1.0 -0.4997343458
O  O13  1  0.05550000  0.64890000  0.91480000  1.0 -0.4997343458
O  O14  1  0.35110000  0.40660000  0.91480000  1.0 -0.4997343458
O  O15  1  0.59340000  0.94450000  0.91480000  1.0 -0.4997343458
O  O16  1  0.94450000  0.35110000  0.91480000  1.0 -0.4997343458
O  O17  1  0.64890000  0.59340000  0.91480000  1.0 -0.4997343458
O  O18  1  0.40660000  0.05550000  0.91480000  1.0 -0.4997343458
O  O19  1  0.64890000  0.05550000  0.58520000  1.0 -0.4997343458
O  O20  1  0.40660000  0.35110000  0.58520000  1.0 -0.4997343458
O  O21  1  0.94450000  0.59340000  0.58520000  1.0 -0.4997343458
O  O22  1  0.35110000  0.94450000  0.58520000  1.0 -0.4997343458
O  O23  1  0.59340000  0.64890000  0.58520000  1.0 -0.4997343458
O  O24  1  0.05550000  0.40660000  0.58520000  1.0 -0.4997343458
O  O25  1  0.82020000  0.38480000  0.15290000  1.0 -0.5912618091
O  O26  1  0.61520000  0.43540000  0.15290000  1.0 -0.5912618091
O  O27  1  0.56460000  0.17980000  0.15290000  1.0 -0.5912618091
O  O28  1  0.17980000  0.61520000  0.15290000  1.0 -0.5912618091
O  O29  1  0.38480000  0.56460000  0.15290000  1.0 -0.5912618091
O  O30  1  0.43540000  0.82020000  0.15290000  1.0 -0.5912618091
O  O31  1  0.38480000  0.82020000  0.34710000  1.0 -0.5912618091
O  O32  1  0.43540000  0.61520000  0.34710000  1.0 -0.5912618091
O  O33  1  0.17980000  0.56460000  0.34710000  1.0 -0.5912618091
O  O34  1  0.61520000  0.17980000  0.34710000  1.0 -0.5912618091
O  O35  1  0.56460000  0.38480000  0.34710000  1.0 -0.5912618091
O  O36  1  0.82020000  0.43540000  0.34710000  1.0 -0.5912618091
O  O37  1  0.17980000  0.61520000  0.84710000  1.0 -0.5912618091
O  O38  1  0.38480000  0.56460000  0.84710000  1.0 -0.5912618091
O  O39  1  0.43540000  0.82020000  0.84710000  1.0 -0.5912618091
O  O40  1  0.82020000  0.38480000  0.84710000  1.0 -0.5912618091
O  O41  1  0.61520000  0.43540000  0.84710000  1.0 -0.5912618091
O  O42  1  0.56460000  0.17980000  0.84710000  1.0 -0.5912618091
O  O43  1  0.61520000  0.17980000  0.65290000  1.0 -0.5912618091
O  O44  1  0.56460000  0.38480000  0.65290000  1.0 -0.5912618091
O  O45  1  0.82020000  0.43540000  0.65290000  1.0 -0.5912618091
O  O46  1  0.38480000  0.82020000  0.65290000  1.0 -0.5912618091
O  O47  1  0.43540000  0.61520000  0.65290000  1.0 -0.5912618091
O  O48  1  0.17980000  0.56460000  0.65290000  1.0 -0.5912618091
O  O49  1  0.78030000  0.21970000  0.25000000  1.0 -0.1905712994
O  O50  1  0.78030000  0.56060000  0.25000000  1.0 -0.1905712994
O  O51  1  0.43940000  0.21970000  0.25000000  1.0 -0.1905712994
O  O52  1  0.21970000  0.78030000  0.25000000  1.0 -0.1905712994
O  O53  1  0.21970000  0.43940000  0.25000000  1.0 -0.1905712994
O  O54  1  0.56060000  0.78030000  0.25000000  1.0 -0.1905712994
O  O55  1  0.21970000  0.78030000  0.75000000  1.0 -0.1905712994
O  O56  1  0.21970000  0.43940000  0.75000000  1.0 -0.1905712994
O  O57  1  0.56060000  0.78030000  0.75000000  1.0 -0.1905712994
O  O58  1  0.78030000  0.21970000  0.75000000  1.0 -0.1905712994
O  O59  1  0.78030000  0.56060000  0.75000000  1.0 -0.1905712994
O  O60  1  0.43940000  0.21970000  0.75000000  1.0 -0.1905712994
