# DDEC6 charges by PACMAN v1.1 (https://github.com/mtap-research/PACMAN-charge/)
data_KOMHOL_ASR_pacman
_symmetry_space_group_name_H-M   'P 1'
_cell_length_a   12.83260000
_cell_length_b   12.83260000
_cell_length_c   17.75600000
_cell_angle_alpha   90.00000000
_cell_angle_beta   90.00000000
_cell_angle_gamma   120.00000000
_symmetry_Int_Tables_number   1
_chemical_formula_structural   Sm2Cd3H48(C6O5)6
_chemical_formula_sum   'Sm4 Cd6 H96 C72 O60'
_cell_volume   2532.24126996
_cell_formula_units_Z   2
loop_
 _symmetry_equiv_pos_site_id
 _symmetry_equiv_pos_as_xyz
  1  'x, y, z'
loop_
 _atom_site_type_symbol
 _atom_site_label
 _atom_site_symmetry_multiplicity
 _atom_site_fract_x
 _atom_site_fract_y
 _atom_site_fract_z
 _atom_site_occupancy
 _atom_site_charge
Sm  Sm1  1  0.66666667  0.33333333  0.25000000  1.0 1.839314529
Sm  Sm2  1  0.33333333  0.66666667  0.25000000  1.0 1.839314529
Sm  Sm3  1  0.33333333  0.66666667  0.75000000  1.0 1.839314529
Sm  Sm4  1  0.66666667  0.33333333  0.75000000  1.0 1.839314529
Cd  Cd1  1  0.00000000  0.50000000  0.00000000  1.0 1.0731801377
Cd  Cd2  1  0.50000000  0.50000000  0.00000000  1.0 1.0731801377
Cd  Cd3  1  0.50000000  0.00000000  0.00000000  1.0 1.0731801377
Cd  Cd4  1  0.50000000  0.00000000  0.50000000  1.0 1.0731801377
Cd  Cd5  1  0.50000000  0.50000000  0.50000000  1.0 1.0731801377
Cd  Cd6  1  0.00000000  0.50000000  0.50000000  1.0 1.0731801377
H  H1  1  0.75820000  0.13640000  0.15040000  1.0 0.1171876974
H  H2  1  0.86360000  0.62180000  0.15040000  1.0 0.1171876974
H  H3  1  0.37820000  0.24180000  0.15040000  1.0 0.1171876974
H  H4  1  0.24180000  0.86360000  0.15040000  1.0 0.1171876974
H  H5  1  0.13640000  0.37820000  0.15040000  1.0 0.1171876974
H  H6  1  0.62180000  0.75820000  0.15040000  1.0 0.1171876974
H  H7  1  0.13640000  0.75820000  0.34960000  1.0 0.1171876974
H  H8  1  0.62180000  0.86360000  0.34960000  1.0 0.1171876974
H  H9  1  0.24180000  0.37820000  0.34960000  1.0 0.1171876974
H  H10  1  0.86360000  0.24180000  0.34960000  1.0 0.1171876974
H  H11  1  0.37820000  0.13640000  0.34960000  1.0 0.1171876974
H  H12  1  0.75820000  0.62180000  0.34960000  1.0 0.1171876974
H  H13  1  0.24180000  0.86360000  0.84960000  1.0 0.1171876974
H  H14  1  0.13640000  0.37820000  0.84960000  1.0 0.1171876974
H  H15  1  0.62180000  0.75820000  0.84960000  1.0 0.1171876974
H  H16  1  0.75820000  0.13640000  0.84960000  1.0 0.1171876974
H  H17  1  0.86360000  0.62180000  0.84960000  1.0 0.1171876974
H  H18  1  0.37820000  0.24180000  0.84960000  1.0 0.1171876974
H  H19  1  0.86360000  0.24180000  0.65040000  1.0 0.1171876974
H  H20  1  0.37820000  0.13640000  0.65040000  1.0 0.1171876974
H  H21  1  0.75820000  0.62180000  0.65040000  1.0 0.1171876974
H  H22  1  0.13640000  0.75820000  0.65040000  1.0 0.1171876974
H  H23  1  0.62180000  0.86360000  0.65040000  1.0 0.1171876974
H  H24  1  0.24180000  0.37820000  0.65040000  1.0 0.1171876974
H  H25  1  0.88630000  0.18040000  0.18670000  1.0 0.0714602631
H  H26  1  0.81960000  0.70590000  0.18670000  1.0 0.0714602631
H  H27  1  0.29410000  0.11370000  0.18670000  1.0 0.0714602631
H  H28  1  0.11370000  0.81960000  0.18670000  1.0 0.0714602631
H  H29  1  0.18040000  0.29410000  0.18670000  1.0 0.0714602631
H  H30  1  0.70590000  0.88630000  0.18670000  1.0 0.0714602631
H  H31  1  0.18040000  0.88630000  0.31330000  1.0 0.0714602631
H  H32  1  0.70590000  0.81960000  0.31330000  1.0 0.0714602631
H  H33  1  0.11370000  0.29410000  0.31330000  1.0 0.0714602631
H  H34  1  0.81960000  0.11370000  0.31330000  1.0 0.0714602631
H  H35  1  0.29410000  0.18040000  0.31330000  1.0 0.0714602631
H  H36  1  0.88630000  0.70590000  0.31330000  1.0 0.0714602631
H  H37  1  0.11370000  0.81960000  0.81330000  1.0 0.0714602631
H  H38  1  0.18040000  0.29410000  0.81330000  1.0 0.0714602631
H  H39  1  0.70590000  0.88630000  0.81330000  1.0 0.0714602631
H  H40  1  0.88630000  0.18040000  0.81330000  1.0 0.0714602631
H  H41  1  0.81960000  0.70590000  0.81330000  1.0 0.0714602631
H  H42  1  0.29410000  0.11370000  0.81330000  1.0 0.0714602631
H  H43  1  0.81960000  0.11370000  0.68670000  1.0 0.0714602631
H  H44  1  0.29410000  0.18040000  0.68670000  1.0 0.0714602631
H  H45  1  0.88630000  0.70590000  0.68670000  1.0 0.0714602631
H  H46  1  0.18040000  0.88630000  0.68670000  1.0 0.0714602631
H  H47  1  0.70590000  0.81960000  0.68670000  1.0 0.0714602631
H  H48  1  0.11370000  0.29410000  0.68670000  1.0 0.0714602631
H  H49  1  0.96200000  0.34290000  0.23730000  1.0 0.0789709891
H  H50  1  0.65710000  0.61910000  0.23730000  1.0 0.0789709891
H  H51  1  0.38090000  0.03800000  0.23730000  1.0 0.0789709891
H  H52  1  0.03800000  0.65710000  0.23730000  1.0 0.0789709891
H  H53  1  0.34290000  0.38090000  0.23730000  1.0 0.0789709891
H  H54  1  0.61910000  0.96200000  0.23730000  1.0 0.0789709891
H  H55  1  0.34290000  0.96200000  0.26270000  1.0 0.0789709891
H  H56  1  0.61910000  0.65710000  0.26270000  1.0 0.0789709891
H  H57  1  0.03800000  0.38090000  0.26270000  1.0 0.0789709891
H  H58  1  0.65710000  0.03800000  0.26270000  1.0 0.0789709891
H  H59  1  0.38090000  0.34290000  0.26270000  1.0 0.0789709891
H  H60  1  0.96200000  0.61910000  0.26270000  1.0 0.0789709891
H  H61  1  0.03800000  0.65710000  0.76270000  1.0 0.0789709891
H  H62  1  0.34290000  0.38090000  0.76270000  1.0 0.0789709891
H  H63  1  0.61910000  0.96200000  0.76270000  1.0 0.0789709891
H  H64  1  0.96200000  0.34290000  0.76270000  1.0 0.0789709891
H  H65  1  0.65710000  0.61910000  0.76270000  1.0 0.0789709891
H  H66  1  0.38090000  0.03800000  0.76270000  1.0 0.0789709891
H  H67  1  0.65710000  0.03800000  0.73730000  1.0 0.0789709891
H  H68  1  0.38090000  0.34290000  0.73730000  1.0 0.0789709891
H  H69  1  0.96200000  0.61910000  0.73730000  1.0 0.0789709891
H  H70  1  0.34290000  0.96200000  0.73730000  1.0 0.0789709891
H  H71  1  0.61910000  0.65710000  0.73730000  1.0 0.0789709891
H  H72  1  0.03800000  0.38090000  0.73730000  1.0 0.0789709891
H  H73  1  0.92310000  0.22130000  0.19410000  1.0 0.0789709891
H  H74  1  0.77870000  0.70180000  0.19410000  1.0 0.0789709891
H  H75  1  0.29820000  0.07690000  0.19410000  1.0 0.0789709891
H  H76  1  0.07690000  0.77870000  0.19410000  1.0 0.0789709891
H  H77  1  0.22130000  0.29820000  0.19410000  1.0 0.0789709891
H  H78  1  0.70180000  0.92310000  0.19410000  1.0 0.0789709891
H  H79  1  0.22130000  0.92310000  0.30590000  1.0 0.0789709891
H  H80  1  0.70180000  0.77870000  0.30590000  1.0 0.0789709891
H  H81  1  0.07690000  0.29820000  0.30590000  1.0 0.0789709891
H  H82  1  0.77870000  0.07690000  0.30590000  1.0 0.0789709891
H  H83  1  0.29820000  0.22130000  0.30590000  1.0 0.0789709891
H  H84  1  0.92310000  0.70180000  0.30590000  1.0 0.0789709891
H  H85  1  0.07690000  0.77870000  0.80590000  1.0 0.0789709891
H  H86  1  0.22130000  0.29820000  0.80590000  1.0 0.0789709891
H  H87  1  0.70180000  0.92310000  0.80590000  1.0 0.0789709891
H  H88  1  0.92310000  0.22130000  0.80590000  1.0 0.0789709891
H  H89  1  0.77870000  0.70180000  0.80590000  1.0 0.0789709891
H  H90  1  0.29820000  0.07690000  0.80590000  1.0 0.0789709891
H  H91  1  0.77870000  0.07690000  0.69410000  1.0 0.0789709891
H  H92  1  0.29820000  0.22130000  0.69410000  1.0 0.0789709891
H  H93  1  0.92310000  0.70180000  0.69410000  1.0 0.0789709891
H  H94  1  0.22130000  0.92310000  0.69410000  1.0 0.0789709891
H  H95  1  0.70180000  0.77870000  0.69410000  1.0 0.0789709891
H  H96  1  0.07690000  0.29820000  0.69410000  1.0 0.0789709891
C  C1  1  0.87320000  0.32860000  0.13980000  1.0 0.5084375949
C  C2  1  0.67140000  0.54460000  0.13980000  1.0 0.5084375949
C  C3  1  0.45540000  0.12680000  0.13980000  1.0 0.5084375949
C  C4  1  0.12680000  0.67140000  0.13980000  1.0 0.5084375949
C  C5  1  0.32860000  0.45540000  0.13980000  1.0 0.5084375949
C  C6  1  0.54460000  0.87320000  0.13980000  1.0 0.5084375949
C  C7  1  0.32860000  0.87320000  0.36020000  1.0 0.5084375949
C  C8  1  0.54460000  0.67140000  0.36020000  1.0 0.5084375949
C  C9  1  0.12680000  0.45540000  0.36020000  1.0 0.5084375949
C  C10  1  0.67140000  0.12680000  0.36020000  1.0 0.5084375949
C  C11  1  0.45540000  0.32860000  0.36020000  1.0 0.5084375949
C  C12  1  0.87320000  0.54460000  0.36020000  1.0 0.5084375949
C  C13  1  0.12680000  0.67140000  0.86020000  1.0 0.5084375949
C  C14  1  0.32860000  0.45540000  0.86020000  1.0 0.5084375949
C  C15  1  0.54460000  0.87320000  0.86020000  1.0 0.5084375949
C  C16  1  0.87320000  0.32860000  0.86020000  1.0 0.5084375949
C  C17  1  0.67140000  0.54460000  0.86020000  1.0 0.5084375949
C  C18  1  0.45540000  0.12680000  0.86020000  1.0 0.5084375949
C  C19  1  0.67140000  0.12680000  0.63980000  1.0 0.5084375949
C  C20  1  0.45540000  0.32860000  0.63980000  1.0 0.5084375949
C  C21  1  0.87320000  0.54460000  0.63980000  1.0 0.5084375949
C  C22  1  0.32860000  0.87320000  0.63980000  1.0 0.5084375949
C  C23  1  0.54460000  0.67140000  0.63980000  1.0 0.5084375949
C  C24  1  0.12680000  0.45540000  0.63980000  1.0 0.5084375949
C  C25  1  0.82300000  0.20000000  0.17930000  1.0 -0.1064394291
C  C26  1  0.80000000  0.62300000  0.17930000  1.0 -0.1064394291
C  C27  1  0.37700000  0.17700000  0.17930000  1.0 -0.1064394291
C  C28  1  0.17700000  0.80000000  0.17930000  1.0 -0.1064394291
C  C29  1  0.20000000  0.37700000  0.17930000  1.0 -0.1064394291
C  C30  1  0.62300000  0.82300000  0.17930000  1.0 -0.1064394291
C  C31  1  0.20000000  0.82300000  0.32070000  1.0 -0.1064394291
C  C32  1  0.62300000  0.80000000  0.32070000  1.0 -0.1064394291
C  C33  1  0.17700000  0.37700000  0.32070000  1.0 -0.1064394291
C  C34  1  0.80000000  0.17700000  0.32070000  1.0 -0.1064394291
C  C35  1  0.37700000  0.20000000  0.32070000  1.0 -0.1064394291
C  C36  1  0.82300000  0.62300000  0.32070000  1.0 -0.1064394291
C  C37  1  0.17700000  0.80000000  0.82070000  1.0 -0.1064394291
C  C38  1  0.20000000  0.37700000  0.82070000  1.0 -0.1064394291
C  C39  1  0.62300000  0.82300000  0.82070000  1.0 -0.1064394291
C  C40  1  0.82300000  0.20000000  0.82070000  1.0 -0.1064394291
C  C41  1  0.80000000  0.62300000  0.82070000  1.0 -0.1064394291
C  C42  1  0.37700000  0.17700000  0.82070000  1.0 -0.1064394291
C  C43  1  0.80000000  0.17700000  0.67930000  1.0 -0.1064394291
C  C44  1  0.37700000  0.20000000  0.67930000  1.0 -0.1064394291
C  C45  1  0.82300000  0.62300000  0.67930000  1.0 -0.1064394291
C  C46  1  0.20000000  0.82300000  0.67930000  1.0 -0.1064394291
C  C47  1  0.62300000  0.80000000  0.67930000  1.0 -0.1064394291
C  C48  1  0.17700000  0.37700000  0.67930000  1.0 -0.1064394291
C  C49  1  0.89900000  0.27900000  0.20740000  1.0 -0.1156869817
C  C50  1  0.72100000  0.62000000  0.20740000  1.0 -0.1156869817
C  C51  1  0.38000000  0.10100000  0.20740000  1.0 -0.1156869817
C  C52  1  0.10100000  0.72100000  0.20740000  1.0 -0.1156869817
C  C53  1  0.27900000  0.38000000  0.20740000  1.0 -0.1156869817
C  C54  1  0.62000000  0.89900000  0.20740000  1.0 -0.1156869817
C  C55  1  0.27900000  0.89900000  0.29260000  1.0 -0.1156869817
C  C56  1  0.62000000  0.72100000  0.29260000  1.0 -0.1156869817
C  C57  1  0.10100000  0.38000000  0.29260000  1.0 -0.1156869817
C  C58  1  0.72100000  0.10100000  0.29260000  1.0 -0.1156869817
C  C59  1  0.38000000  0.27900000  0.29260000  1.0 -0.1156869817
C  C60  1  0.89900000  0.62000000  0.29260000  1.0 -0.1156869817
C  C61  1  0.10100000  0.72100000  0.79260000  1.0 -0.1156869817
C  C62  1  0.27900000  0.38000000  0.79260000  1.0 -0.1156869817
C  C63  1  0.62000000  0.89900000  0.79260000  1.0 -0.1156869817
C  C64  1  0.89900000  0.27900000  0.79260000  1.0 -0.1156869817
C  C65  1  0.72100000  0.62000000  0.79260000  1.0 -0.1156869817
C  C66  1  0.38000000  0.10100000  0.79260000  1.0 -0.1156869817
C  C67  1  0.72100000  0.10100000  0.70740000  1.0 -0.1156869817
C  C68  1  0.38000000  0.27900000  0.70740000  1.0 -0.1156869817
C  C69  1  0.89900000  0.62000000  0.70740000  1.0 -0.1156869817
C  C70  1  0.27900000  0.89900000  0.70740000  1.0 -0.1156869817
C  C71  1  0.62000000  0.72100000  0.70740000  1.0 -0.1156869817
C  C72  1  0.10100000  0.38000000  0.70740000  1.0 -0.1156869817
O  O1  1  0.81990000  0.38690000  0.15420000  1.0 -0.6128110501
O  O2  1  0.61310000  0.43300000  0.15420000  1.0 -0.6128110501
O  O3  1  0.56700000  0.18010000  0.15420000  1.0 -0.6128110501
O  O4  1  0.18010000  0.61310000  0.15420000  1.0 -0.6128110501
O  O5  1  0.38690000  0.56700000  0.15420000  1.0 -0.6128110501
O  O6  1  0.43300000  0.81990000  0.15420000  1.0 -0.6128110501
O  O7  1  0.38690000  0.81990000  0.34580000  1.0 -0.6128110501
O  O8  1  0.43300000  0.61310000  0.34580000  1.0 -0.6128110501
O  O9  1  0.18010000  0.56700000  0.34580000  1.0 -0.6128110501
O  O10  1  0.61310000  0.18010000  0.34580000  1.0 -0.6128110501
O  O11  1  0.56700000  0.38690000  0.34580000  1.0 -0.6128110501
O  O12  1  0.81990000  0.43300000  0.34580000  1.0 -0.6128110501
O  O13  1  0.18010000  0.61310000  0.84580000  1.0 -0.6128110501
O  O14  1  0.38690000  0.56700000  0.84580000  1.0 -0.6128110501
O  O15  1  0.43300000  0.81990000  0.84580000  1.0 -0.6128110501
O  O16  1  0.81990000  0.38690000  0.84580000  1.0 -0.6128110501
O  O17  1  0.61310000  0.43300000  0.84580000  1.0 -0.6128110501
O  O18  1  0.56700000  0.18010000  0.84580000  1.0 -0.6128110501
O  O19  1  0.61310000  0.18010000  0.65420000  1.0 -0.6128110501
O  O20  1  0.56700000  0.38690000  0.65420000  1.0 -0.6128110501
O  O21  1  0.81990000  0.43300000  0.65420000  1.0 -0.6128110501
O  O22  1  0.38690000  0.81990000  0.65420000  1.0 -0.6128110501
O  O23  1  0.43300000  0.61310000  0.65420000  1.0 -0.6128110501
O  O24  1  0.18010000  0.56700000  0.65420000  1.0 -0.6128110501
O  O25  1  0.78040000  0.21960000  0.25000000  1.0 -0.1820872637
O  O26  1  0.78040000  0.56080000  0.25000000  1.0 -0.1820872637
O  O27  1  0.43920000  0.21960000  0.25000000  1.0 -0.1820872637
O  O28  1  0.21960000  0.78040000  0.25000000  1.0 -0.1820872637
O  O29  1  0.21960000  0.43920000  0.25000000  1.0 -0.1820872637
O  O30  1  0.56080000  0.78040000  0.25000000  1.0 -0.1820872637
O  O31  1  0.21960000  0.78040000  0.75000000  1.0 -0.1820872637
O  O32  1  0.21960000  0.43920000  0.75000000  1.0 -0.1820872637
O  O33  1  0.56080000  0.78040000  0.75000000  1.0 -0.1820872637
O  O34  1  0.78040000  0.21960000  0.75000000  1.0 -0.1820872637
O  O35  1  0.78040000  0.56080000  0.75000000  1.0 -0.1820872637
O  O36  1  0.43920000  0.21960000  0.75000000  1.0 -0.1820872637
O  O37  1  0.94120000  0.34900000  0.08450000  1.0 -0.503893897
O  O38  1  0.65100000  0.59220000  0.08450000  1.0 -0.503893897
O  O39  1  0.40780000  0.05880000  0.08450000  1.0 -0.503893897
O  O40  1  0.05880000  0.65100000  0.08450000  1.0 -0.503893897
O  O41  1  0.34900000  0.40780000  0.08450000  1.0 -0.503893897
O  O42  1  0.59220000  0.94120000  0.08450000  1.0 -0.503893897
O  O43  1  0.34900000  0.94120000  0.41550000  1.0 -0.503893897
O  O44  1  0.59220000  0.65100000  0.41550000  1.0 -0.503893897
O  O45  1  0.05880000  0.40780000  0.41550000  1.0 -0.503893897
O  O46  1  0.65100000  0.05880000  0.41550000  1.0 -0.503893897
O  O47  1  0.40780000  0.34900000  0.41550000  1.0 -0.503893897
O  O48  1  0.94120000  0.59220000  0.41550000  1.0 -0.503893897
O  O49  1  0.05880000  0.65100000  0.91550000  1.0 -0.503893897
O  O50  1  0.34900000  0.40780000  0.91550000  1.0 -0.503893897
O  O51  1  0.59220000  0.94120000  0.91550000  1.0 -0.503893897
O  O52  1  0.94120000  0.34900000  0.91550000  1.0 -0.503893897
O  O53  1  0.65100000  0.59220000  0.91550000  1.0 -0.503893897
O  O54  1  0.40780000  0.05880000  0.91550000  1.0 -0.503893897
O  O55  1  0.65100000  0.05880000  0.58450000  1.0 -0.503893897
O  O56  1  0.40780000  0.34900000  0.58450000  1.0 -0.503893897
O  O57  1  0.94120000  0.59220000  0.58450000  1.0 -0.503893897
O  O58  1  0.34900000  0.94120000  0.58450000  1.0 -0.503893897
O  O59  1  0.59220000  0.65100000  0.58450000  1.0 -0.503893897
O  O60  1  0.05880000  0.40780000  0.58450000  1.0 -0.503893897
