# DDEC6 charges by PACMAN v1.1 (https://github.com/mtap-research/PACMAN-charge/)
data_KOMHUR_ASR_pacman
_symmetry_space_group_name_H-M   'P 1'
_cell_length_a   12.76950000
_cell_length_b   12.76950000
_cell_length_c   17.72700000
_cell_angle_alpha   90.00000000
_cell_angle_beta   90.00000000
_cell_angle_gamma   120.00000000
_symmetry_Int_Tables_number   1
_chemical_formula_structural   Eu2Cd3H48(C6O5)6
_chemical_formula_sum   'Eu4 Cd6 H96 C72 O60'
_cell_volume   2503.30439180
_cell_formula_units_Z   2
loop_
 _symmetry_equiv_pos_site_id
 _symmetry_equiv_pos_as_xyz
  1  'x, y, z'
loop_
 _atom_site_type_symbol
 _atom_site_label
 _atom_site_symmetry_multiplicity
 _atom_site_fract_x
 _atom_site_fract_y
 _atom_site_fract_z
 _atom_site_occupancy
 _atom_site_charge
Eu  Eu1  1  0.66666667  0.33333333  0.25000000  1.0 1.8121386169
Eu  Eu2  1  0.33333333  0.66666667  0.25000000  1.0 1.8121386169
Eu  Eu3  1  0.33333333  0.66666667  0.75000000  1.0 1.8121386169
Eu  Eu4  1  0.66666667  0.33333333  0.75000000  1.0 1.8121386169
Cd  Cd1  1  0.00000000  0.50000000  0.00000000  1.0 1.0626263617
Cd  Cd2  1  0.50000000  0.50000000  0.00000000  1.0 1.0626263617
Cd  Cd3  1  0.50000000  0.00000000  0.00000000  1.0 1.0626263617
Cd  Cd4  1  0.50000000  0.00000000  0.50000000  1.0 1.0626263617
Cd  Cd5  1  0.50000000  0.50000000  0.50000000  1.0 1.0626263617
Cd  Cd6  1  0.00000000  0.50000000  0.50000000  1.0 1.0626263617
H  H1  1  0.75950000  0.13940000  0.14770000  1.0 0.1170797272
H  H2  1  0.86060000  0.62010000  0.14770000  1.0 0.1170797272
H  H3  1  0.37990000  0.24050000  0.14770000  1.0 0.1170797272
H  H4  1  0.24050000  0.86060000  0.14770000  1.0 0.1170797272
H  H5  1  0.13940000  0.37990000  0.14770000  1.0 0.1170797272
H  H6  1  0.62010000  0.75950000  0.14770000  1.0 0.1170797272
H  H7  1  0.13940000  0.75950000  0.35230000  1.0 0.1170797272
H  H8  1  0.62010000  0.86060000  0.35230000  1.0 0.1170797272
H  H9  1  0.24050000  0.37990000  0.35230000  1.0 0.1170797272
H  H10  1  0.86060000  0.24050000  0.35230000  1.0 0.1170797272
H  H11  1  0.37990000  0.13940000  0.35230000  1.0 0.1170797272
H  H12  1  0.75950000  0.62010000  0.35230000  1.0 0.1170797272
H  H13  1  0.24050000  0.86060000  0.85230000  1.0 0.1170797272
H  H14  1  0.13940000  0.37990000  0.85230000  1.0 0.1170797272
H  H15  1  0.62010000  0.75950000  0.85230000  1.0 0.1170797272
H  H16  1  0.75950000  0.13940000  0.85230000  1.0 0.1170797272
H  H17  1  0.86060000  0.62010000  0.85230000  1.0 0.1170797272
H  H18  1  0.37990000  0.24050000  0.85230000  1.0 0.1170797272
H  H19  1  0.86060000  0.24050000  0.64770000  1.0 0.1170797272
H  H20  1  0.37990000  0.13940000  0.64770000  1.0 0.1170797272
H  H21  1  0.75950000  0.62010000  0.64770000  1.0 0.1170797272
H  H22  1  0.13940000  0.75950000  0.64770000  1.0 0.1170797272
H  H23  1  0.62010000  0.86060000  0.64770000  1.0 0.1170797272
H  H24  1  0.24050000  0.37990000  0.64770000  1.0 0.1170797272
H  H25  1  0.88810000  0.18320000  0.18410000  1.0 0.0711626484
H  H26  1  0.81680000  0.70490000  0.18410000  1.0 0.0711626484
H  H27  1  0.29510000  0.11190000  0.18410000  1.0 0.0711626484
H  H28  1  0.11190000  0.81680000  0.18410000  1.0 0.0711626484
H  H29  1  0.18320000  0.29510000  0.18410000  1.0 0.0711626484
H  H30  1  0.70490000  0.88810000  0.18410000  1.0 0.0711626484
H  H31  1  0.18320000  0.88810000  0.31590000  1.0 0.0711626484
H  H32  1  0.70490000  0.81680000  0.31590000  1.0 0.0711626484
H  H33  1  0.11190000  0.29510000  0.31590000  1.0 0.0711626484
H  H34  1  0.81680000  0.11190000  0.31590000  1.0 0.0711626484
H  H35  1  0.29510000  0.18320000  0.31590000  1.0 0.0711626484
H  H36  1  0.88810000  0.70490000  0.31590000  1.0 0.0711626484
H  H37  1  0.11190000  0.81680000  0.81590000  1.0 0.0711626484
H  H38  1  0.18320000  0.29510000  0.81590000  1.0 0.0711626484
H  H39  1  0.70490000  0.88810000  0.81590000  1.0 0.0711626484
H  H40  1  0.88810000  0.18320000  0.81590000  1.0 0.0711626484
H  H41  1  0.81680000  0.70490000  0.81590000  1.0 0.0711626484
H  H42  1  0.29510000  0.11190000  0.81590000  1.0 0.0711626484
H  H43  1  0.81680000  0.11190000  0.68410000  1.0 0.0711626484
H  H44  1  0.29510000  0.18320000  0.68410000  1.0 0.0711626484
H  H45  1  0.88810000  0.70490000  0.68410000  1.0 0.0711626484
H  H46  1  0.18320000  0.88810000  0.68410000  1.0 0.0711626484
H  H47  1  0.70490000  0.81680000  0.68410000  1.0 0.0711626484
H  H48  1  0.11190000  0.29510000  0.68410000  1.0 0.0711626484
H  H49  1  0.92100000  0.21780000  0.19590000  1.0 0.0793872661
H  H50  1  0.78220000  0.70320000  0.19590000  1.0 0.0793872661
H  H51  1  0.29680000  0.07900000  0.19590000  1.0 0.0793872661
H  H52  1  0.07900000  0.78220000  0.19590000  1.0 0.0793872661
H  H53  1  0.21780000  0.29680000  0.19590000  1.0 0.0793872661
H  H54  1  0.70320000  0.92100000  0.19590000  1.0 0.0793872661
H  H55  1  0.21780000  0.92100000  0.30410000  1.0 0.0793872661
H  H56  1  0.70320000  0.78220000  0.30410000  1.0 0.0793872661
H  H57  1  0.07900000  0.29680000  0.30410000  1.0 0.0793872661
H  H58  1  0.78220000  0.07900000  0.30410000  1.0 0.0793872661
H  H59  1  0.29680000  0.21780000  0.30410000  1.0 0.0793872661
H  H60  1  0.92100000  0.70320000  0.30410000  1.0 0.0793872661
H  H61  1  0.07900000  0.78220000  0.80410000  1.0 0.0793872661
H  H62  1  0.21780000  0.29680000  0.80410000  1.0 0.0793872661
H  H63  1  0.70320000  0.92100000  0.80410000  1.0 0.0793872661
H  H64  1  0.92100000  0.21780000  0.80410000  1.0 0.0793872661
H  H65  1  0.78220000  0.70320000  0.80410000  1.0 0.0793872661
H  H66  1  0.29680000  0.07900000  0.80410000  1.0 0.0793872661
H  H67  1  0.78220000  0.07900000  0.69590000  1.0 0.0793872661
H  H68  1  0.29680000  0.21780000  0.69590000  1.0 0.0793872661
H  H69  1  0.92100000  0.70320000  0.69590000  1.0 0.0793872661
H  H70  1  0.21780000  0.92100000  0.69590000  1.0 0.0793872661
H  H71  1  0.70320000  0.78220000  0.69590000  1.0 0.0793872661
H  H72  1  0.07900000  0.29680000  0.69590000  1.0 0.0793872661
H  H73  1  0.96220000  0.33980000  0.24030000  1.0 0.0793872661
H  H74  1  0.66020000  0.62240000  0.24030000  1.0 0.0793872661
H  H75  1  0.37760000  0.03780000  0.24030000  1.0 0.0793872661
H  H76  1  0.03780000  0.66020000  0.24030000  1.0 0.0793872661
H  H77  1  0.33980000  0.37760000  0.24030000  1.0 0.0793872661
H  H78  1  0.62240000  0.96220000  0.24030000  1.0 0.0793872661
H  H79  1  0.33980000  0.96220000  0.25970000  1.0 0.0793872661
H  H80  1  0.62240000  0.66020000  0.25970000  1.0 0.0793872661
H  H81  1  0.03780000  0.37760000  0.25970000  1.0 0.0793872661
H  H82  1  0.66020000  0.03780000  0.25970000  1.0 0.0793872661
H  H83  1  0.37760000  0.33980000  0.25970000  1.0 0.0793872661
H  H84  1  0.96220000  0.62240000  0.25970000  1.0 0.0793872661
H  H85  1  0.03780000  0.66020000  0.75970000  1.0 0.0793872661
H  H86  1  0.33980000  0.37760000  0.75970000  1.0 0.0793872661
H  H87  1  0.62240000  0.96220000  0.75970000  1.0 0.0793872661
H  H88  1  0.96220000  0.33980000  0.75970000  1.0 0.0793872661
H  H89  1  0.66020000  0.62240000  0.75970000  1.0 0.0793872661
H  H90  1  0.37760000  0.03780000  0.75970000  1.0 0.0793872661
H  H91  1  0.66020000  0.03780000  0.74030000  1.0 0.0793872661
H  H92  1  0.37760000  0.33980000  0.74030000  1.0 0.0793872661
H  H93  1  0.96220000  0.62240000  0.74030000  1.0 0.0793872661
H  H94  1  0.33980000  0.96220000  0.74030000  1.0 0.0793872661
H  H95  1  0.62240000  0.66020000  0.74030000  1.0 0.0793872661
H  H96  1  0.03780000  0.37760000  0.74030000  1.0 0.0793872661
C  C1  1  0.87300000  0.33090000  0.14050000  1.0 0.5082828997
C  C2  1  0.66910000  0.54210000  0.14050000  1.0 0.5082828997
C  C3  1  0.45790000  0.12700000  0.14050000  1.0 0.5082828997
C  C4  1  0.12700000  0.66910000  0.14050000  1.0 0.5082828997
C  C5  1  0.33090000  0.45790000  0.14050000  1.0 0.5082828997
C  C6  1  0.54210000  0.87300000  0.14050000  1.0 0.5082828997
C  C7  1  0.33090000  0.87300000  0.35950000  1.0 0.5082828997
C  C8  1  0.54210000  0.66910000  0.35950000  1.0 0.5082828997
C  C9  1  0.12700000  0.45790000  0.35950000  1.0 0.5082828997
C  C10  1  0.66910000  0.12700000  0.35950000  1.0 0.5082828997
C  C11  1  0.45790000  0.33090000  0.35950000  1.0 0.5082828997
C  C12  1  0.87300000  0.54210000  0.35950000  1.0 0.5082828997
C  C13  1  0.12700000  0.66910000  0.85950000  1.0 0.5082828997
C  C14  1  0.33090000  0.45790000  0.85950000  1.0 0.5082828997
C  C15  1  0.54210000  0.87300000  0.85950000  1.0 0.5082828997
C  C16  1  0.87300000  0.33090000  0.85950000  1.0 0.5082828997
C  C17  1  0.66910000  0.54210000  0.85950000  1.0 0.5082828997
C  C18  1  0.45790000  0.12700000  0.85950000  1.0 0.5082828997
C  C19  1  0.66910000  0.12700000  0.64050000  1.0 0.5082828997
C  C20  1  0.45790000  0.33090000  0.64050000  1.0 0.5082828997
C  C21  1  0.87300000  0.54210000  0.64050000  1.0 0.5082828997
C  C22  1  0.33090000  0.87300000  0.64050000  1.0 0.5082828997
C  C23  1  0.54210000  0.66910000  0.64050000  1.0 0.5082828997
C  C24  1  0.12700000  0.45790000  0.64050000  1.0 0.5082828997
C  C25  1  0.82400000  0.20200000  0.17740000  1.0 -0.1086544098
C  C26  1  0.79800000  0.62200000  0.17740000  1.0 -0.1086544098
C  C27  1  0.37800000  0.17600000  0.17740000  1.0 -0.1086544098
C  C28  1  0.17600000  0.79800000  0.17740000  1.0 -0.1086544098
C  C29  1  0.20200000  0.37800000  0.17740000  1.0 -0.1086544098
C  C30  1  0.62200000  0.82400000  0.17740000  1.0 -0.1086544098
C  C31  1  0.20200000  0.82400000  0.32260000  1.0 -0.1086544098
C  C32  1  0.62200000  0.79800000  0.32260000  1.0 -0.1086544098
C  C33  1  0.17600000  0.37800000  0.32260000  1.0 -0.1086544098
C  C34  1  0.79800000  0.17600000  0.32260000  1.0 -0.1086544098
C  C35  1  0.37800000  0.20200000  0.32260000  1.0 -0.1086544098
C  C36  1  0.82400000  0.62200000  0.32260000  1.0 -0.1086544098
C  C37  1  0.17600000  0.79800000  0.82260000  1.0 -0.1086544098
C  C38  1  0.20200000  0.37800000  0.82260000  1.0 -0.1086544098
C  C39  1  0.62200000  0.82400000  0.82260000  1.0 -0.1086544098
C  C40  1  0.82400000  0.20200000  0.82260000  1.0 -0.1086544098
C  C41  1  0.79800000  0.62200000  0.82260000  1.0 -0.1086544098
C  C42  1  0.37800000  0.17600000  0.82260000  1.0 -0.1086544098
C  C43  1  0.79800000  0.17600000  0.67740000  1.0 -0.1086544098
C  C44  1  0.37800000  0.20200000  0.67740000  1.0 -0.1086544098
C  C45  1  0.82400000  0.62200000  0.67740000  1.0 -0.1086544098
C  C46  1  0.20200000  0.82400000  0.67740000  1.0 -0.1086544098
C  C47  1  0.62200000  0.79800000  0.67740000  1.0 -0.1086544098
C  C48  1  0.17600000  0.37800000  0.67740000  1.0 -0.1086544098
C  C49  1  0.89900000  0.27700000  0.20970000  1.0 -0.1156866254
C  C50  1  0.72300000  0.62200000  0.20970000  1.0 -0.1156866254
C  C51  1  0.37800000  0.10100000  0.20970000  1.0 -0.1156866254
C  C52  1  0.10100000  0.72300000  0.20970000  1.0 -0.1156866254
C  C53  1  0.27700000  0.37800000  0.20970000  1.0 -0.1156866254
C  C54  1  0.62200000  0.89900000  0.20970000  1.0 -0.1156866254
C  C55  1  0.27700000  0.89900000  0.29030000  1.0 -0.1156866254
C  C56  1  0.62200000  0.72300000  0.29030000  1.0 -0.1156866254
C  C57  1  0.10100000  0.37800000  0.29030000  1.0 -0.1156866254
C  C58  1  0.72300000  0.10100000  0.29030000  1.0 -0.1156866254
C  C59  1  0.37800000  0.27700000  0.29030000  1.0 -0.1156866254
C  C60  1  0.89900000  0.62200000  0.29030000  1.0 -0.1156866254
C  C61  1  0.10100000  0.72300000  0.79030000  1.0 -0.1156866254
C  C62  1  0.27700000  0.37800000  0.79030000  1.0 -0.1156866254
C  C63  1  0.62200000  0.89900000  0.79030000  1.0 -0.1156866254
C  C64  1  0.89900000  0.27700000  0.79030000  1.0 -0.1156866254
C  C65  1  0.72300000  0.62200000  0.79030000  1.0 -0.1156866254
C  C66  1  0.37800000  0.10100000  0.79030000  1.0 -0.1156866254
C  C67  1  0.72300000  0.10100000  0.70970000  1.0 -0.1156866254
C  C68  1  0.37800000  0.27700000  0.70970000  1.0 -0.1156866254
C  C69  1  0.89900000  0.62200000  0.70970000  1.0 -0.1156866254
C  C70  1  0.27700000  0.89900000  0.70970000  1.0 -0.1156866254
C  C71  1  0.62200000  0.72300000  0.70970000  1.0 -0.1156866254
C  C72  1  0.10100000  0.37800000  0.70970000  1.0 -0.1156866254
O  O1  1  0.94060000  0.34960000  0.08460000  1.0 -0.5132735969
O  O2  1  0.65040000  0.59100000  0.08460000  1.0 -0.5132735969
O  O3  1  0.40900000  0.05940000  0.08460000  1.0 -0.5132735969
O  O4  1  0.05940000  0.65040000  0.08460000  1.0 -0.5132735969
O  O5  1  0.34960000  0.40900000  0.08460000  1.0 -0.5132735969
O  O6  1  0.59100000  0.94060000  0.08460000  1.0 -0.5132735969
O  O7  1  0.34960000  0.94060000  0.41540000  1.0 -0.5132735969
O  O8  1  0.59100000  0.65040000  0.41540000  1.0 -0.5132735969
O  O9  1  0.05940000  0.40900000  0.41540000  1.0 -0.5132735969
O  O10  1  0.65040000  0.05940000  0.41540000  1.0 -0.5132735969
O  O11  1  0.40900000  0.34960000  0.41540000  1.0 -0.5132735969
O  O12  1  0.94060000  0.59100000  0.41540000  1.0 -0.5132735969
O  O13  1  0.05940000  0.65040000  0.91540000  1.0 -0.5132735969
O  O14  1  0.34960000  0.40900000  0.91540000  1.0 -0.5132735969
O  O15  1  0.59100000  0.94060000  0.91540000  1.0 -0.5132735969
O  O16  1  0.94060000  0.34960000  0.91540000  1.0 -0.5132735969
O  O17  1  0.65040000  0.59100000  0.91540000  1.0 -0.5132735969
O  O18  1  0.40900000  0.05940000  0.91540000  1.0 -0.5132735969
O  O19  1  0.65040000  0.05940000  0.58460000  1.0 -0.5132735969
O  O20  1  0.40900000  0.34960000  0.58460000  1.0 -0.5132735969
O  O21  1  0.94060000  0.59100000  0.58460000  1.0 -0.5132735969
O  O22  1  0.34960000  0.94060000  0.58460000  1.0 -0.5132735969
O  O23  1  0.59100000  0.65040000  0.58460000  1.0 -0.5132735969
O  O24  1  0.05940000  0.40900000  0.58460000  1.0 -0.5132735969
O  O25  1  0.82010000  0.38750000  0.15440000  1.0 -0.5875791089
O  O26  1  0.61250000  0.43260000  0.15440000  1.0 -0.5875791089
O  O27  1  0.56740000  0.17990000  0.15440000  1.0 -0.5875791089
O  O28  1  0.17990000  0.61250000  0.15440000  1.0 -0.5875791089
O  O29  1  0.38750000  0.56740000  0.15440000  1.0 -0.5875791089
O  O30  1  0.43260000  0.82010000  0.15440000  1.0 -0.5875791089
O  O31  1  0.38750000  0.82010000  0.34560000  1.0 -0.5875791089
O  O32  1  0.43260000  0.61250000  0.34560000  1.0 -0.5875791089
O  O33  1  0.17990000  0.56740000  0.34560000  1.0 -0.5875791089
O  O34  1  0.61250000  0.17990000  0.34560000  1.0 -0.5875791089
O  O35  1  0.56740000  0.38750000  0.34560000  1.0 -0.5875791089
O  O36  1  0.82010000  0.43260000  0.34560000  1.0 -0.5875791089
O  O37  1  0.17990000  0.61250000  0.84560000  1.0 -0.5875791089
O  O38  1  0.38750000  0.56740000  0.84560000  1.0 -0.5875791089
O  O39  1  0.43260000  0.82010000  0.84560000  1.0 -0.5875791089
O  O40  1  0.82010000  0.38750000  0.84560000  1.0 -0.5875791089
O  O41  1  0.61250000  0.43260000  0.84560000  1.0 -0.5875791089
O  O42  1  0.56740000  0.17990000  0.84560000  1.0 -0.5875791089
O  O43  1  0.61250000  0.17990000  0.65440000  1.0 -0.5875791089
O  O44  1  0.56740000  0.38750000  0.65440000  1.0 -0.5875791089
O  O45  1  0.82010000  0.43260000  0.65440000  1.0 -0.5875791089
O  O46  1  0.38750000  0.82010000  0.65440000  1.0 -0.5875791089
O  O47  1  0.43260000  0.61250000  0.65440000  1.0 -0.5875791089
O  O48  1  0.17990000  0.56740000  0.65440000  1.0 -0.5875791089
O  O49  1  0.77980000  0.22020000  0.25000000  1.0 -0.1955715196
O  O50  1  0.77980000  0.55960000  0.25000000  1.0 -0.1955715196
O  O51  1  0.44040000  0.22020000  0.25000000  1.0 -0.1955715196
O  O52  1  0.22020000  0.77980000  0.25000000  1.0 -0.1955715196
O  O53  1  0.22020000  0.44040000  0.25000000  1.0 -0.1955715196
O  O54  1  0.55960000  0.77980000  0.25000000  1.0 -0.1955715196
O  O55  1  0.22020000  0.77980000  0.75000000  1.0 -0.1955715196
O  O56  1  0.22020000  0.44040000  0.75000000  1.0 -0.1955715196
O  O57  1  0.55960000  0.77980000  0.75000000  1.0 -0.1955715196
O  O58  1  0.77980000  0.22020000  0.75000000  1.0 -0.1955715196
O  O59  1  0.77980000  0.55960000  0.75000000  1.0 -0.1955715196
O  O60  1  0.44040000  0.22020000  0.75000000  1.0 -0.1955715196
