# DDEC6 charges by PACMAN v1.1 (https://github.com/mtap-research/PACMAN-charge/)
data_KOMHEB_ASR_pacman
_symmetry_space_group_name_H-M   'P 1'
_cell_length_a   12.97060000
_cell_length_b   12.97060000
_cell_length_c   17.61500000
_cell_angle_alpha   90.00000000
_cell_angle_beta   90.00000000
_cell_angle_gamma   120.00000000
_symmetry_Int_Tables_number   1
_chemical_formula_structural   Pr2Cd3H48(C6O5)6
_chemical_formula_sum   'Pr4 Cd6 H96 C72 O60'
_cell_volume   2566.45357060
_cell_formula_units_Z   2
loop_
 _symmetry_equiv_pos_site_id
 _symmetry_equiv_pos_as_xyz
  1  'x, y, z'
loop_
 _atom_site_type_symbol
 _atom_site_label
 _atom_site_symmetry_multiplicity
 _atom_site_fract_x
 _atom_site_fract_y
 _atom_site_fract_z
 _atom_site_occupancy
 _atom_site_charge
Pr  Pr1  1  0.66666667  0.33333333  0.25000000  1.0 1.8833718772
Pr  Pr2  1  0.33333333  0.66666667  0.25000000  1.0 1.8833718772
Pr  Pr3  1  0.33333333  0.66666667  0.75000000  1.0 1.8833718772
Pr  Pr4  1  0.66666667  0.33333333  0.75000000  1.0 1.8833718772
Cd  Cd1  1  0.00000000  0.50000000  0.00000000  1.0 1.0470747029
Cd  Cd2  1  0.50000000  0.50000000  0.00000000  1.0 1.0470747029
Cd  Cd3  1  0.50000000  0.00000000  0.00000000  1.0 1.0470747029
Cd  Cd4  1  0.50000000  0.00000000  0.50000000  1.0 1.0470747029
Cd  Cd5  1  0.50000000  0.50000000  0.50000000  1.0 1.0470747029
Cd  Cd6  1  0.00000000  0.50000000  0.50000000  1.0 1.0470747029
H  H1  1  0.95800000  0.34930000  0.24340000  1.0 0.0915371099
H  H2  1  0.65070000  0.60870000  0.24340000  1.0 0.0915371099
H  H3  1  0.39130000  0.04200000  0.24340000  1.0 0.0915371099
H  H4  1  0.04200000  0.65070000  0.24340000  1.0 0.0915371099
H  H5  1  0.34930000  0.39130000  0.24340000  1.0 0.0915371099
H  H6  1  0.60870000  0.95800000  0.24340000  1.0 0.0915371099
H  H7  1  0.34930000  0.95800000  0.25660000  1.0 0.0915371099
H  H8  1  0.60870000  0.65070000  0.25660000  1.0 0.0915371099
H  H9  1  0.04200000  0.39130000  0.25660000  1.0 0.0915371099
H  H10  1  0.65070000  0.04200000  0.25660000  1.0 0.0915371099
H  H11  1  0.39130000  0.34930000  0.25660000  1.0 0.0915371099
H  H12  1  0.95800000  0.60870000  0.25660000  1.0 0.0915371099
H  H13  1  0.04200000  0.65070000  0.75660000  1.0 0.0915371099
H  H14  1  0.34930000  0.39130000  0.75660000  1.0 0.0915371099
H  H15  1  0.60870000  0.95800000  0.75660000  1.0 0.0915371099
H  H16  1  0.95800000  0.34930000  0.75660000  1.0 0.0915371099
H  H17  1  0.65070000  0.60870000  0.75660000  1.0 0.0915371099
H  H18  1  0.39130000  0.04200000  0.75660000  1.0 0.0915371099
H  H19  1  0.65070000  0.04200000  0.74340000  1.0 0.0915371099
H  H20  1  0.39130000  0.34930000  0.74340000  1.0 0.0915371099
H  H21  1  0.95800000  0.60870000  0.74340000  1.0 0.0915371099
H  H22  1  0.34930000  0.95800000  0.74340000  1.0 0.0915371099
H  H23  1  0.60870000  0.65070000  0.74340000  1.0 0.0915371099
H  H24  1  0.04200000  0.39130000  0.74340000  1.0 0.0915371099
H  H25  1  0.93070000  0.23070000  0.20150000  1.0 0.0915371099
H  H26  1  0.76930000  0.70000000  0.20150000  1.0 0.0915371099
H  H27  1  0.30000000  0.06930000  0.20150000  1.0 0.0915371099
H  H28  1  0.06930000  0.76930000  0.20150000  1.0 0.0915371099
H  H29  1  0.23070000  0.30000000  0.20150000  1.0 0.0915371099
H  H30  1  0.70000000  0.93070000  0.20150000  1.0 0.0915371099
H  H31  1  0.23070000  0.93070000  0.29850000  1.0 0.0915371099
H  H32  1  0.70000000  0.76930000  0.29850000  1.0 0.0915371099
H  H33  1  0.06930000  0.30000000  0.29850000  1.0 0.0915371099
H  H34  1  0.76930000  0.06930000  0.29850000  1.0 0.0915371099
H  H35  1  0.30000000  0.23070000  0.29850000  1.0 0.0915371099
H  H36  1  0.93070000  0.70000000  0.29850000  1.0 0.0915371099
H  H37  1  0.06930000  0.76930000  0.79850000  1.0 0.0915371099
H  H38  1  0.23070000  0.30000000  0.79850000  1.0 0.0915371099
H  H39  1  0.70000000  0.93070000  0.79850000  1.0 0.0915371099
H  H40  1  0.93070000  0.23070000  0.79850000  1.0 0.0915371099
H  H41  1  0.76930000  0.70000000  0.79850000  1.0 0.0915371099
H  H42  1  0.30000000  0.06930000  0.79850000  1.0 0.0915371099
H  H43  1  0.76930000  0.06930000  0.70150000  1.0 0.0915371099
H  H44  1  0.30000000  0.23070000  0.70150000  1.0 0.0915371099
H  H45  1  0.93070000  0.70000000  0.70150000  1.0 0.0915371099
H  H46  1  0.23070000  0.93070000  0.70150000  1.0 0.0915371099
H  H47  1  0.70000000  0.76930000  0.70150000  1.0 0.0915371099
H  H48  1  0.06930000  0.30000000  0.70150000  1.0 0.0915371099
H  H49  1  0.75180000  0.13280000  0.14220000  1.0 0.1339869425
H  H50  1  0.86720000  0.61900000  0.14220000  1.0 0.1339869425
H  H51  1  0.38100000  0.24820000  0.14220000  1.0 0.1339869425
H  H52  1  0.24820000  0.86720000  0.14220000  1.0 0.1339869425
H  H53  1  0.13280000  0.38100000  0.14220000  1.0 0.1339869425
H  H54  1  0.61900000  0.75180000  0.14220000  1.0 0.1339869425
H  H55  1  0.13280000  0.75180000  0.35780000  1.0 0.1339869425
H  H56  1  0.61900000  0.86720000  0.35780000  1.0 0.1339869425
H  H57  1  0.24820000  0.38100000  0.35780000  1.0 0.1339869425
H  H58  1  0.86720000  0.24820000  0.35780000  1.0 0.1339869425
H  H59  1  0.38100000  0.13280000  0.35780000  1.0 0.1339869425
H  H60  1  0.75180000  0.61900000  0.35780000  1.0 0.1339869425
H  H61  1  0.24820000  0.86720000  0.85780000  1.0 0.1339869425
H  H62  1  0.13280000  0.38100000  0.85780000  1.0 0.1339869425
H  H63  1  0.61900000  0.75180000  0.85780000  1.0 0.1339869425
H  H64  1  0.75180000  0.13280000  0.85780000  1.0 0.1339869425
H  H65  1  0.86720000  0.61900000  0.85780000  1.0 0.1339869425
H  H66  1  0.38100000  0.24820000  0.85780000  1.0 0.1339869425
H  H67  1  0.86720000  0.24820000  0.64220000  1.0 0.1339869425
H  H68  1  0.38100000  0.13280000  0.64220000  1.0 0.1339869425
H  H69  1  0.75180000  0.61900000  0.64220000  1.0 0.1339869425
H  H70  1  0.13280000  0.75180000  0.64220000  1.0 0.1339869425
H  H71  1  0.61900000  0.86720000  0.64220000  1.0 0.1339869425
H  H72  1  0.24820000  0.38100000  0.64220000  1.0 0.1339869425
H  H73  1  0.87750000  0.16540000  0.17760000  1.0 0.0915371099
H  H74  1  0.83460000  0.71210000  0.17760000  1.0 0.0915371099
H  H75  1  0.28790000  0.12250000  0.17760000  1.0 0.0915371099
H  H76  1  0.12250000  0.83460000  0.17760000  1.0 0.0915371099
H  H77  1  0.16540000  0.28790000  0.17760000  1.0 0.0915371099
H  H78  1  0.71210000  0.87750000  0.17760000  1.0 0.0915371099
H  H79  1  0.16540000  0.87750000  0.32240000  1.0 0.0915371099
H  H80  1  0.71210000  0.83460000  0.32240000  1.0 0.0915371099
H  H81  1  0.12250000  0.28790000  0.32240000  1.0 0.0915371099
H  H82  1  0.83460000  0.12250000  0.32240000  1.0 0.0915371099
H  H83  1  0.28790000  0.16540000  0.32240000  1.0 0.0915371099
H  H84  1  0.87750000  0.71210000  0.32240000  1.0 0.0915371099
H  H85  1  0.12250000  0.83460000  0.82240000  1.0 0.0915371099
H  H86  1  0.16540000  0.28790000  0.82240000  1.0 0.0915371099
H  H87  1  0.71210000  0.87750000  0.82240000  1.0 0.0915371099
H  H88  1  0.87750000  0.16540000  0.82240000  1.0 0.0915371099
H  H89  1  0.83460000  0.71210000  0.82240000  1.0 0.0915371099
H  H90  1  0.28790000  0.12250000  0.82240000  1.0 0.0915371099
H  H91  1  0.83460000  0.12250000  0.67760000  1.0 0.0915371099
H  H92  1  0.28790000  0.16540000  0.67760000  1.0 0.0915371099
H  H93  1  0.87750000  0.71210000  0.67760000  1.0 0.0915371099
H  H94  1  0.16540000  0.87750000  0.67760000  1.0 0.0915371099
H  H95  1  0.71210000  0.83460000  0.67760000  1.0 0.0915371099
H  H96  1  0.12250000  0.28790000  0.67760000  1.0 0.0915371099
C  C1  1  0.87730000  0.33090000  0.13920000  1.0 0.5168048988
C  C2  1  0.66910000  0.54640000  0.13920000  1.0 0.5168048988
C  C3  1  0.45360000  0.12270000  0.13920000  1.0 0.5168048988
C  C4  1  0.12270000  0.66910000  0.13920000  1.0 0.5168048988
C  C5  1  0.33090000  0.45360000  0.13920000  1.0 0.5168048988
C  C6  1  0.54640000  0.87730000  0.13920000  1.0 0.5168048988
C  C7  1  0.33090000  0.87730000  0.36080000  1.0 0.5168048988
C  C8  1  0.54640000  0.66910000  0.36080000  1.0 0.5168048988
C  C9  1  0.12270000  0.45360000  0.36080000  1.0 0.5168048988
C  C10  1  0.66910000  0.12270000  0.36080000  1.0 0.5168048988
C  C11  1  0.45360000  0.33090000  0.36080000  1.0 0.5168048988
C  C12  1  0.87730000  0.54640000  0.36080000  1.0 0.5168048988
C  C13  1  0.12270000  0.66910000  0.86080000  1.0 0.5168048988
C  C14  1  0.33090000  0.45360000  0.86080000  1.0 0.5168048988
C  C15  1  0.54640000  0.87730000  0.86080000  1.0 0.5168048988
C  C16  1  0.87730000  0.33090000  0.86080000  1.0 0.5168048988
C  C17  1  0.66910000  0.54640000  0.86080000  1.0 0.5168048988
C  C18  1  0.45360000  0.12270000  0.86080000  1.0 0.5168048988
C  C19  1  0.66910000  0.12270000  0.63920000  1.0 0.5168048988
C  C20  1  0.45360000  0.33090000  0.63920000  1.0 0.5168048988
C  C21  1  0.87730000  0.54640000  0.63920000  1.0 0.5168048988
C  C22  1  0.33090000  0.87730000  0.63920000  1.0 0.5168048988
C  C23  1  0.54640000  0.66910000  0.63920000  1.0 0.5168048988
C  C24  1  0.12270000  0.45360000  0.63920000  1.0 0.5168048988
C  C25  1  0.90100000  0.28400000  0.21200000  1.0 -0.1472081647
C  C26  1  0.71600000  0.61700000  0.21200000  1.0 -0.1472081647
C  C27  1  0.38300000  0.09900000  0.21200000  1.0 -0.1472081647
C  C28  1  0.09900000  0.71600000  0.21200000  1.0 -0.1472081647
C  C29  1  0.28400000  0.38300000  0.21200000  1.0 -0.1472081647
C  C30  1  0.61700000  0.90100000  0.21200000  1.0 -0.1472081647
C  C31  1  0.28400000  0.90100000  0.28800000  1.0 -0.1472081647
C  C32  1  0.61700000  0.71600000  0.28800000  1.0 -0.1472081647
C  C33  1  0.09900000  0.38300000  0.28800000  1.0 -0.1472081647
C  C34  1  0.71600000  0.09900000  0.28800000  1.0 -0.1472081647
C  C35  1  0.38300000  0.28400000  0.28800000  1.0 -0.1472081647
C  C36  1  0.90100000  0.61700000  0.28800000  1.0 -0.1472081647
C  C37  1  0.09900000  0.71600000  0.78800000  1.0 -0.1472081647
C  C38  1  0.28400000  0.38300000  0.78800000  1.0 -0.1472081647
C  C39  1  0.61700000  0.90100000  0.78800000  1.0 -0.1472081647
C  C40  1  0.90100000  0.28400000  0.78800000  1.0 -0.1472081647
C  C41  1  0.71600000  0.61700000  0.78800000  1.0 -0.1472081647
C  C42  1  0.38300000  0.09900000  0.78800000  1.0 -0.1472081647
C  C43  1  0.71600000  0.09900000  0.71200000  1.0 -0.1472081647
C  C44  1  0.38300000  0.28400000  0.71200000  1.0 -0.1472081647
C  C45  1  0.90100000  0.61700000  0.71200000  1.0 -0.1472081647
C  C46  1  0.28400000  0.90100000  0.71200000  1.0 -0.1472081647
C  C47  1  0.61700000  0.71600000  0.71200000  1.0 -0.1472081647
C  C48  1  0.09900000  0.38300000  0.71200000  1.0 -0.1472081647
C  C49  1  0.81900000  0.19000000  0.17200000  1.0 -0.1711445985
C  C50  1  0.81000000  0.62900000  0.17200000  1.0 -0.1711445985
C  C51  1  0.37100000  0.18100000  0.17200000  1.0 -0.1711445985
C  C52  1  0.18100000  0.81000000  0.17200000  1.0 -0.1711445985
C  C53  1  0.19000000  0.37100000  0.17200000  1.0 -0.1711445985
C  C54  1  0.62900000  0.81900000  0.17200000  1.0 -0.1711445985
C  C55  1  0.19000000  0.81900000  0.32800000  1.0 -0.1711445985
C  C56  1  0.62900000  0.81000000  0.32800000  1.0 -0.1711445985
C  C57  1  0.18100000  0.37100000  0.32800000  1.0 -0.1711445985
C  C58  1  0.81000000  0.18100000  0.32800000  1.0 -0.1711445985
C  C59  1  0.37100000  0.19000000  0.32800000  1.0 -0.1711445985
C  C60  1  0.81900000  0.62900000  0.32800000  1.0 -0.1711445985
C  C61  1  0.18100000  0.81000000  0.82800000  1.0 -0.1711445985
C  C62  1  0.19000000  0.37100000  0.82800000  1.0 -0.1711445985
C  C63  1  0.62900000  0.81900000  0.82800000  1.0 -0.1711445985
C  C64  1  0.81900000  0.19000000  0.82800000  1.0 -0.1711445985
C  C65  1  0.81000000  0.62900000  0.82800000  1.0 -0.1711445985
C  C66  1  0.37100000  0.18100000  0.82800000  1.0 -0.1711445985
C  C67  1  0.81000000  0.18100000  0.67200000  1.0 -0.1711445985
C  C68  1  0.37100000  0.19000000  0.67200000  1.0 -0.1711445985
C  C69  1  0.81900000  0.62900000  0.67200000  1.0 -0.1711445985
C  C70  1  0.19000000  0.81900000  0.67200000  1.0 -0.1711445985
C  C71  1  0.62900000  0.81000000  0.67200000  1.0 -0.1711445985
C  C72  1  0.18100000  0.37100000  0.67200000  1.0 -0.1711445985
O  O1  1  0.94630000  0.35230000  0.08490000  1.0 -0.5123312597
O  O2  1  0.64770000  0.59400000  0.08490000  1.0 -0.5123312597
O  O3  1  0.40600000  0.05370000  0.08490000  1.0 -0.5123312597
O  O4  1  0.05370000  0.64770000  0.08490000  1.0 -0.5123312597
O  O5  1  0.35230000  0.40600000  0.08490000  1.0 -0.5123312597
O  O6  1  0.59400000  0.94630000  0.08490000  1.0 -0.5123312597
O  O7  1  0.35230000  0.94630000  0.41510000  1.0 -0.5123312597
O  O8  1  0.59400000  0.64770000  0.41510000  1.0 -0.5123312597
O  O9  1  0.05370000  0.40600000  0.41510000  1.0 -0.5123312597
O  O10  1  0.64770000  0.05370000  0.41510000  1.0 -0.5123312597
O  O11  1  0.40600000  0.35230000  0.41510000  1.0 -0.5123312597
O  O12  1  0.94630000  0.59400000  0.41510000  1.0 -0.5123312597
O  O13  1  0.05370000  0.64770000  0.91510000  1.0 -0.5123312597
O  O14  1  0.35230000  0.40600000  0.91510000  1.0 -0.5123312597
O  O15  1  0.59400000  0.94630000  0.91510000  1.0 -0.5123312597
O  O16  1  0.94630000  0.35230000  0.91510000  1.0 -0.5123312597
O  O17  1  0.64770000  0.59400000  0.91510000  1.0 -0.5123312597
O  O18  1  0.40600000  0.05370000  0.91510000  1.0 -0.5123312597
O  O19  1  0.64770000  0.05370000  0.58490000  1.0 -0.5123312597
O  O20  1  0.40600000  0.35230000  0.58490000  1.0 -0.5123312597
O  O21  1  0.94630000  0.59400000  0.58490000  1.0 -0.5123312597
O  O22  1  0.35230000  0.94630000  0.58490000  1.0 -0.5123312597
O  O23  1  0.59400000  0.64770000  0.58490000  1.0 -0.5123312597
O  O24  1  0.05370000  0.40600000  0.58490000  1.0 -0.5123312597
O  O25  1  0.78030000  0.21970000  0.25000000  1.0 -0.1392914479
O  O26  1  0.78030000  0.56060000  0.25000000  1.0 -0.1392914479
O  O27  1  0.43940000  0.21970000  0.25000000  1.0 -0.1392914479
O  O28  1  0.21970000  0.78030000  0.25000000  1.0 -0.1392914479
O  O29  1  0.21970000  0.43940000  0.25000000  1.0 -0.1392914479
O  O30  1  0.56060000  0.78030000  0.25000000  1.0 -0.1392914479
O  O31  1  0.21970000  0.78030000  0.75000000  1.0 -0.1392914479
O  O32  1  0.21970000  0.43940000  0.75000000  1.0 -0.1392914479
O  O33  1  0.56060000  0.78030000  0.75000000  1.0 -0.1392914479
O  O34  1  0.78030000  0.21970000  0.75000000  1.0 -0.1392914479
O  O35  1  0.78030000  0.56060000  0.75000000  1.0 -0.1392914479
O  O36  1  0.43940000  0.21970000  0.75000000  1.0 -0.1392914479
O  O37  1  0.82240000  0.38440000  0.15300000  1.0 -0.6007374127
O  O38  1  0.61560000  0.43800000  0.15300000  1.0 -0.6007374127
O  O39  1  0.56200000  0.17760000  0.15300000  1.0 -0.6007374127
O  O40  1  0.17760000  0.61560000  0.15300000  1.0 -0.6007374127
O  O41  1  0.38440000  0.56200000  0.15300000  1.0 -0.6007374127
O  O42  1  0.43800000  0.82240000  0.15300000  1.0 -0.6007374127
O  O43  1  0.38440000  0.82240000  0.34700000  1.0 -0.6007374127
O  O44  1  0.43800000  0.61560000  0.34700000  1.0 -0.6007374127
O  O45  1  0.17760000  0.56200000  0.34700000  1.0 -0.6007374127
O  O46  1  0.61560000  0.17760000  0.34700000  1.0 -0.6007374127
O  O47  1  0.56200000  0.38440000  0.34700000  1.0 -0.6007374127
O  O48  1  0.82240000  0.43800000  0.34700000  1.0 -0.6007374127
O  O49  1  0.17760000  0.61560000  0.84700000  1.0 -0.6007374127
O  O50  1  0.38440000  0.56200000  0.84700000  1.0 -0.6007374127
O  O51  1  0.43800000  0.82240000  0.84700000  1.0 -0.6007374127
O  O52  1  0.82240000  0.38440000  0.84700000  1.0 -0.6007374127
O  O53  1  0.61560000  0.43800000  0.84700000  1.0 -0.6007374127
O  O54  1  0.56200000  0.17760000  0.84700000  1.0 -0.6007374127
O  O55  1  0.61560000  0.17760000  0.65300000  1.0 -0.6007374127
O  O56  1  0.56200000  0.38440000  0.65300000  1.0 -0.6007374127
O  O57  1  0.82240000  0.43800000  0.65300000  1.0 -0.6007374127
O  O58  1  0.38440000  0.82240000  0.65300000  1.0 -0.6007374127
O  O59  1  0.43800000  0.61560000  0.65300000  1.0 -0.6007374127
O  O60  1  0.17760000  0.56200000  0.65300000  1.0 -0.6007374127
