# DDEC6 charges by PACMAN v1.1 (https://github.com/mtap-research/PACMAN-charge/)
data_KONCIB_ASR_pacman
_symmetry_space_group_name_H-M   'P 1'
_cell_length_a   13.25440000
_cell_length_b   13.25440000
_cell_length_c   15.67220000
_cell_angle_alpha   90.00000000
_cell_angle_beta   90.00000000
_cell_angle_gamma   120.00000000
_symmetry_Int_Tables_number   1
_chemical_formula_structural   MnAl3P9(O6F)3
_chemical_formula_sum   'Mn4 Al12 P36 O72 F12'
_cell_volume   2384.40894667
_cell_formula_units_Z   4
loop_
 _symmetry_equiv_pos_site_id
 _symmetry_equiv_pos_as_xyz
  1  'x, y, z'
loop_
 _atom_site_type_symbol
 _atom_site_label
 _atom_site_symmetry_multiplicity
 _atom_site_fract_x
 _atom_site_fract_y
 _atom_site_fract_z
 _atom_site_occupancy
 _atom_site_charge
Mn  Mn1  1  0.66666667  0.33333333  0.65227000  1.0 0.8852028538
Mn  Mn2  1  0.33333333  0.66666667  0.15227000  1.0 0.883339851
Mn  Mn3  1  0.33333333  0.66666667  0.34773000  1.0 0.883339851
Mn  Mn4  1  0.66666667  0.33333333  0.84773000  1.0 0.8852028538
Al  Al1  1  0.59749000  0.54365000  0.55814000  1.0 1.5559596815
Al  Al2  1  0.45635000  0.05384000  0.55814000  1.0 1.5559596815
Al  Al3  1  0.94616000  0.40251000  0.55814000  1.0 1.5559596815
Al  Al4  1  0.40251000  0.45635000  0.05814000  1.0 1.5559596815
Al  Al5  1  0.54365000  0.94616000  0.05814000  1.0 1.5559596815
Al  Al6  1  0.05384000  0.59749000  0.05814000  1.0 1.5559596815
Al  Al7  1  0.40251000  0.45635000  0.44186000  1.0 1.5559596815
Al  Al8  1  0.54365000  0.94616000  0.44186000  1.0 1.5559596815
Al  Al9  1  0.05384000  0.59749000  0.44186000  1.0 1.5559596815
Al  Al10  1  0.59749000  0.54365000  0.94186000  1.0 1.5559596815
Al  Al11  1  0.45635000  0.05384000  0.94186000  1.0 1.5542666603
Al  Al12  1  0.94616000  0.40251000  0.94186000  1.0 1.5559596815
P  P1  1  0.66910000  0.56560000  0.75000000  1.0 0.7362976957
P  P2  1  0.43440000  0.10350000  0.75000000  1.0 0.7362976957
P  P3  1  0.89650000  0.33090000  0.75000000  1.0 0.7362976957
P  P4  1  0.33090000  0.43440000  0.25000000  1.0 0.7362976957
P  P5  1  0.56560000  0.89650000  0.25000000  1.0 0.7362976957
P  P6  1  0.10350000  0.66910000  0.25000000  1.0 0.7362976957
P  P7  1  0.47091000  0.28372000  0.50486000  1.0 0.5851151038
P  P8  1  0.71628000  0.18719000  0.50486000  1.0 0.5851151038
P  P9  1  0.81281000  0.52909000  0.50486000  1.0 0.5851151038
P  P10  1  0.52909000  0.71628000  0.00486000  1.0 0.5851151038
P  P11  1  0.28372000  0.81281000  0.00486000  1.0 0.5851151038
P  P12  1  0.18719000  0.47091000  0.00486000  1.0 0.5851151038
P  P13  1  0.52909000  0.71628000  0.49514000  1.0 0.5851151038
P  P14  1  0.28372000  0.81281000  0.49514000  1.0 0.5851151038
P  P15  1  0.18719000  0.47091000  0.49514000  1.0 0.5851151038
P  P16  1  0.47091000  0.28372000  0.99514000  1.0 0.5851151038
P  P17  1  0.71628000  0.18719000  0.99514000  1.0 0.5846887518
P  P18  1  0.81281000  0.52909000  0.99514000  1.0 0.5846887518
P  P19  1  0.59680000  0.50380000  0.75000000  1.0 0.5598638345
P  P20  1  0.49620000  0.09300000  0.75000000  1.0 0.5675428201
P  P21  1  0.90700000  0.40320000  0.75000000  1.0 0.5675428201
P  P22  1  0.40320000  0.49620000  0.25000000  1.0 0.5675428201
P  P23  1  0.50380000  0.90700000  0.25000000  1.0 0.5675428201
P  P24  1  0.09300000  0.59680000  0.25000000  1.0 0.5675428201
P  P25  1  0.42340000  0.27930000  0.55170000  1.0 0.6975716938
P  P26  1  0.72070000  0.14410000  0.55170000  1.0 0.6975716938
P  P27  1  0.85590000  0.57660000  0.55170000  1.0 0.6975716938
P  P28  1  0.57660000  0.72070000  0.05170000  1.0 0.6975716938
P  P29  1  0.27930000  0.85590000  0.05170000  1.0 0.6975716938
P  P30  1  0.14410000  0.42340000  0.05170000  1.0 0.6975716938
P  P31  1  0.57660000  0.72070000  0.44830000  1.0 0.6975716938
P  P32  1  0.27930000  0.85590000  0.44830000  1.0 0.6975716938
P  P33  1  0.14410000  0.42340000  0.44830000  1.0 0.6975716938
P  P34  1  0.42340000  0.27930000  0.94830000  1.0 0.6975716938
P  P35  1  0.72070000  0.14410000  0.94830000  1.0 0.6975716938
P  P36  1  0.85590000  0.57660000  0.94830000  1.0 0.6975716938
O  O1  1  0.34260000  0.26000000  0.62820000  1.0 -0.4531453064
O  O2  1  0.74000000  0.08260000  0.62820000  1.0 -0.4531453064
O  O3  1  0.91740000  0.65740000  0.62820000  1.0 -0.4531453064
O  O4  1  0.65740000  0.74000000  0.12820000  1.0 -0.4531453064
O  O5  1  0.26000000  0.91740000  0.12820000  1.0 -0.4531453064
O  O6  1  0.08260000  0.34260000  0.12820000  1.0 -0.4531453064
O  O7  1  0.65740000  0.74000000  0.37180000  1.0 -0.4531453064
O  O8  1  0.26000000  0.91740000  0.37180000  1.0 -0.4531453064
O  O9  1  0.08260000  0.34260000  0.37180000  1.0 -0.4531453064
O  O10  1  0.34260000  0.26000000  0.87180000  1.0 -0.4531453064
O  O11  1  0.74000000  0.08260000  0.87180000  1.0 -0.4531453064
O  O12  1  0.91740000  0.65740000  0.87180000  1.0 -0.4531453064
O  O13  1  0.60550000  0.56980000  0.67190000  1.0 -0.5621886697
O  O14  1  0.43020000  0.03570000  0.67190000  1.0 -0.5621886697
O  O15  1  0.96430000  0.39450000  0.67190000  1.0 -0.5621886697
O  O16  1  0.39450000  0.43020000  0.17190000  1.0 -0.5621886697
O  O17  1  0.56980000  0.96430000  0.17190000  1.0 -0.5621886697
O  O18  1  0.03570000  0.60550000  0.17190000  1.0 -0.5621886697
O  O19  1  0.39450000  0.43020000  0.32810000  1.0 -0.5621886697
O  O20  1  0.56980000  0.96430000  0.32810000  1.0 -0.5621886697
O  O21  1  0.03570000  0.60550000  0.32810000  1.0 -0.5621886697
O  O22  1  0.60550000  0.56980000  0.82810000  1.0 -0.5621886697
O  O23  1  0.43020000  0.03570000  0.82810000  1.0 -0.5621886697
O  O24  1  0.96430000  0.39450000  0.82810000  1.0 -0.5621886697
O  O25  1  0.69130000  0.46460000  0.75000000  1.0 -0.5343835762
O  O26  1  0.53540000  0.22670000  0.75000000  1.0 -0.5343835762
O  O27  1  0.77330000  0.30870000  0.75000000  1.0 -0.5343835762
O  O28  1  0.30870000  0.53540000  0.25000000  1.0 -0.5343835762
O  O29  1  0.46460000  0.77330000  0.25000000  1.0 -0.5343835762
O  O30  1  0.22670000  0.69130000  0.25000000  1.0 -0.5343835762
O  O31  1  0.41580000  0.16460000  0.54346000  1.0 -0.5621886697
O  O32  1  0.83540000  0.25120000  0.54346000  1.0 -0.5621886697
O  O33  1  0.74880000  0.58420000  0.54346000  1.0 -0.5621886697
O  O34  1  0.58420000  0.83540000  0.04346000  1.0 -0.5621886697
O  O35  1  0.16460000  0.74880000  0.04346000  1.0 -0.5621886697
O  O36  1  0.25120000  0.41580000  0.04346000  1.0 -0.5621886697
O  O37  1  0.58420000  0.83540000  0.45654000  1.0 -0.5621886697
O  O38  1  0.16460000  0.74880000  0.45654000  1.0 -0.5621886697
O  O39  1  0.25120000  0.41580000  0.45654000  1.0 -0.5621886697
O  O40  1  0.41580000  0.16460000  0.95654000  1.0 -0.5621886697
O  O41  1  0.83540000  0.25120000  0.95654000  1.0 -0.5621886697
O  O42  1  0.74880000  0.58420000  0.95654000  1.0 -0.5621886697
O  O43  1  0.37820000  0.30920000  0.47080000  1.0 -0.5621886697
O  O44  1  0.69080000  0.06900000  0.47080000  1.0 -0.5621886697
O  O45  1  0.93100000  0.62180000  0.47080000  1.0 -0.5548951339
O  O46  1  0.62180000  0.69080000  0.97080000  1.0 -0.5548951339
O  O47  1  0.30920000  0.93100000  0.97080000  1.0 -0.5548951339
O  O48  1  0.06900000  0.37820000  0.97080000  1.0 -0.5621886697
O  O49  1  0.62180000  0.69080000  0.52920000  1.0 -0.5548951339
O  O50  1  0.30920000  0.93100000  0.52920000  1.0 -0.5548951339
O  O51  1  0.06900000  0.37820000  0.52920000  1.0 -0.5621886697
O  O52  1  0.37820000  0.30920000  0.02920000  1.0 -0.5621886697
O  O53  1  0.69080000  0.06900000  0.02920000  1.0 -0.5621886697
O  O54  1  0.93100000  0.62180000  0.02920000  1.0 -0.5621886697
O  O55  1  0.55220000  0.37800000  0.57102000  1.0 -0.5946246099
O  O56  1  0.62200000  0.17420000  0.57102000  1.0 -0.5946246099
O  O57  1  0.82580000  0.44780000  0.57102000  1.0 -0.5946246099
O  O58  1  0.44780000  0.62200000  0.07102000  1.0 -0.5946246099
O  O59  1  0.37800000  0.82580000  0.07102000  1.0 -0.5946246099
O  O60  1  0.17420000  0.55220000  0.07102000  1.0 -0.5946246099
O  O61  1  0.44780000  0.62200000  0.42898000  1.0 -0.5946246099
O  O62  1  0.37800000  0.82580000  0.42898000  1.0 -0.5946246099
O  O63  1  0.17420000  0.55220000  0.42898000  1.0 -0.5946246099
O  O64  1  0.55220000  0.37800000  0.92898000  1.0 -0.5946246099
O  O65  1  0.62200000  0.17420000  0.92898000  1.0 -0.5946246099
O  O66  1  0.82580000  0.44780000  0.92898000  1.0 -0.5946246099
O  O67  1  0.78810000  0.67740000  0.75000000  1.0 -0.4331410687
O  O68  1  0.32260000  0.11070000  0.75000000  1.0 -0.4331410687
O  O69  1  0.88930000  0.21190000  0.75000000  1.0 -0.4331410687
O  O70  1  0.21190000  0.32260000  0.25000000  1.0 -0.4331410687
O  O71  1  0.67740000  0.88930000  0.25000000  1.0 -0.4331410687
O  O72  1  0.11070000  0.78810000  0.25000000  1.0 -0.4331410687
F  F1  1  0.43859000  0.49316000  0.55746000  1.0 -0.5694125206
F  F2  1  0.50684000  0.94543000  0.55746000  1.0 -0.5694125206
F  F3  1  0.05457000  0.56141000  0.55746000  1.0 -0.5694125206
F  F4  1  0.56141000  0.50684000  0.05746000  1.0 -0.5694125206
F  F5  1  0.49316000  0.05457000  0.05746000  1.0 -0.5694125206
F  F6  1  0.94543000  0.43859000  0.05746000  1.0 -0.5694125206
F  F7  1  0.56141000  0.50684000  0.44254000  1.0 -0.5694125206
F  F8  1  0.49316000  0.05457000  0.44254000  1.0 -0.5694125206
F  F9  1  0.94543000  0.43859000  0.44254000  1.0 -0.5694125206
F  F10  1  0.43859000  0.49316000  0.94254000  1.0 -0.5694125206
F  F11  1  0.50684000  0.94543000  0.94254000  1.0 -0.5694125206
F  F12  1  0.05457000  0.56141000  0.94254000  1.0 -0.5694125206
