# DDEC6 charges by PACMAN v1.1 (https://github.com/mtap-research/PACMAN-charge/)
data_KONYOB_ASR_pacman
_symmetry_space_group_name_H-M   'P 1'
_cell_length_a   7.32500000
_cell_length_b   11.61850000
_cell_length_c   14.11460000
_cell_angle_alpha   65.33570000
_cell_angle_beta   77.34680000
_cell_angle_gamma   76.44030000
_symmetry_Int_Tables_number   1
_chemical_formula_structural   CdNiH22C13N6
_chemical_formula_sum   'Cd2 Ni2 H44 C26 N12'
_cell_volume   1051.17603840
_cell_formula_units_Z   2
loop_
 _symmetry_equiv_pos_site_id
 _symmetry_equiv_pos_as_xyz
  1  'x, y, z'
loop_
 _atom_site_type_symbol
 _atom_site_label
 _atom_site_symmetry_multiplicity
 _atom_site_fract_x
 _atom_site_fract_y
 _atom_site_fract_z
 _atom_site_occupancy
 _atom_site_charge
Cd  Cd1  1  0.00000000  0.00000000  0.00000000  1.0 0.8833444863
Cd  Cd2  1  0.00000000  0.50000000  0.50000000  1.0 0.8833444863
Ni  Ni1  1  0.48366000  0.80986000  0.26730000  1.0 0.1197411269
Ni  Ni2  1  0.51634000  0.19014000  0.73270000  1.0 0.1197411269
H  H1  1  0.78570000  0.23700000  0.93110000  1.0 0.2616689652
H  H2  1  0.21430000  0.76300000  0.06890000  1.0 0.2616689652
H  H3  1  0.88520000  0.23110000  0.03770000  1.0 0.2495162338
H  H4  1  0.11480000  0.76890000  0.96230000  1.0 0.2495162338
H  H5  1  0.96060000  0.41220000  0.87750000  1.0 0.0679226007
H  H6  1  0.03940000  0.58780000  0.12250000  1.0 0.0679226007
H  H7  1  0.31810000  0.35830000  0.86990000  1.0 0.0804536697
H  H8  1  0.68190000  0.64170000  0.13010000  1.0 0.0804536697
H  H9  1  0.29300000  0.19580000  0.94980000  1.0 0.0882386789
H  H10  1  0.70700000  0.80420000  0.05020000  1.0 0.0882386789
H  H11  1  0.11840000  0.25730000  0.09100000  1.0 0.0804536697
H  H12  1  0.88160000  0.74270000  0.90900000  1.0 0.0804536697
H  H13  1  0.13240000  0.42140000  0.01120000  1.0 0.0679226007
H  H14  1  0.86760000  0.57860000  0.98880000  1.0 0.0679226007
H  H15  1  0.49010000  0.36700000  0.99230000  1.0 0.0679226007
H  H16  1  0.50990000  0.63300000  0.00770000  1.0 0.0679226007
H  H17  1  0.47080000  0.20510000  0.07730000  1.0 0.0804536697
H  H18  1  0.52920000  0.79490000  0.92270000  1.0 0.0804536697
H  H19  1  0.30110000  0.27850000  0.22090000  1.0 0.0679226007
H  H20  1  0.69890000  0.72150000  0.77910000  1.0 0.0679226007
H  H21  1  0.32870000  0.43910000  0.13570000  1.0 0.0591840626
H  H22  1  0.67130000  0.56090000  0.86430000  1.0 0.0591840626
H  H23  1  0.68180000  0.37150000  0.11710000  1.0 0.0679226007
H  H24  1  0.31820000  0.62850000  0.88290000  1.0 0.0679226007
H  H25  1  0.65060000  0.21290000  0.20620000  1.0 0.0804536697
H  H26  1  0.34940000  0.78710000  0.79380000  1.0 0.0804536697
H  H27  1  0.50560000  0.28800000  0.34580000  1.0 0.0804536697
H  H28  1  0.49440000  0.71200000  0.65420000  1.0 0.0804536697
H  H29  1  0.51460000  0.45020000  0.25750000  1.0 0.0804536697
H  H30  1  0.48540000  0.54980000  0.74250000  1.0 0.0804536697
H  H31  1  0.87530000  0.39270000  0.22630000  1.0 0.0804536697
H  H32  1  0.12470000  0.60730000  0.77370000  1.0 0.0804536697
H  H33  1  0.85660000  0.23690000  0.32510000  1.0 0.0882386789
H  H34  1  0.14340000  0.76310000  0.67490000  1.0 0.0882386789
H  H35  1  0.70870000  0.48570000  0.35660000  1.0 0.0679226007
H  H36  1  0.29130000  0.51430000  0.64340000  1.0 0.0679226007
H  H37  1  0.70840000  0.32760000  0.45450000  1.0 0.0804536697
H  H38  1  0.29160000  0.67240000  0.54550000  1.0 0.0804536697
H  H39  1  0.05640000  0.28840000  0.42690000  1.0 0.2683441788
H  H40  1  0.94360000  0.71160000  0.57310000  1.0 0.2683441788
H  H41  1  0.05670000  0.44650000  0.32900000  1.0 0.2495162338
H  H42  1  0.94330000  0.55350000  0.67100000  1.0 0.2495162338
H  H43  1  0.06810000  0.30570000  0.81240000  1.0 0.0679226007
H  H44  1  0.93190000  0.69430000  0.18760000  1.0 0.0679226007
C  C1  1  0.31560000  0.69210000  0.32810000  1.0 0.0510541992
C  C2  1  0.68440000  0.30790000  0.67190000  1.0 0.0510541992
C  C3  1  0.33120000  0.90590000  0.16280000  1.0 0.0591840626
C  C4  1  0.66880000  0.09410000  0.83720000  1.0 0.0591840626
C  C5  1  0.64270000  0.71350000  0.37030000  1.0 0.0510541992
C  C6  1  0.35730000  0.28650000  0.62970000  1.0 0.0510541992
C  C7  1  0.65590000  0.92240000  0.19820000  1.0 0.0591840626
C  C8  1  0.34410000  0.07760000  0.80180000  1.0 0.0591840626
C  C9  1  0.03750000  0.31670000  0.88880000  1.0 0.0044473554
C  C10  1  0.96250000  0.68330000  0.11120000  1.0 0.0050840336
C  C11  1  0.22230000  0.29570000  0.92950000  1.0 -0.1791669689
C  C12  1  0.77770000  0.70430000  0.07050000  1.0 -0.1791669689
C  C13  1  0.20680000  0.32270000  0.02750000  1.0 -0.1487698903
C  C14  1  0.79320000  0.67730000  0.97250000  1.0 -0.1487698903
C  C15  1  0.39880000  0.30580000  0.05860000  1.0 -0.1487698903
C  C16  1  0.60120000  0.69420000  0.94140000  1.0 -0.1487698903
C  C17  1  0.39490000  0.33680000  0.15380000  1.0 -0.1399443969
C  C18  1  0.60510000  0.66320000  0.84620000  1.0 -0.1399443969
C  C19  1  0.58870000  0.31460000  0.18520000  1.0 -0.1487698903
C  C20  1  0.41130000  0.68540000  0.81480000  1.0 -0.1487698903
C  C21  1  0.58680000  0.35060000  0.27550000  1.0 -0.1399443969
C  C22  1  0.41320000  0.64940000  0.72450000  1.0 -0.1399443969
C  C23  1  0.78850000  0.33890000  0.29870000  1.0 -0.1791669689
C  C24  1  0.21150000  0.66110000  0.70130000  1.0 -0.1791669689
C  C25  1  0.78990000  0.38640000  0.38150000  1.0 0.0186646711
C  C26  1  0.21010000  0.61360000  0.61850000  1.0 0.0186646711
N  N1  1  0.21370000  0.62000000  0.36360000  1.0 -0.3793481638
N  N2  1  0.78630000  0.38000000  0.63640000  1.0 -0.3793481638
N  N3  1  0.23540000  0.96360000  0.10000000  1.0 -0.3639587909
N  N4  1  0.76460000  0.03640000  0.90000000  1.0 -0.3639587909
N  N5  1  0.74620000  0.65370000  0.42930000  1.0 -0.3793481638
N  N6  1  0.25380000  0.34630000  0.57070000  1.0 -0.3793481638
N  N7  1  0.76900000  0.98550000  0.14860000  1.0 -0.3793481638
N  N8  1  0.23100000  0.01450000  0.85140000  1.0 -0.3793481638
N  N9  1  0.91890000  0.22000000  0.96120000  1.0 -0.5144207626
N  N10  1  0.08110000  0.78000000  0.03880000  1.0 -0.5144207626
N  N11  1  0.97790000  0.38620000  0.40200000  1.0 -0.5298306495
N  N12  1  0.02210000  0.61380000  0.59800000  1.0 -0.5298306495
