# DDEC6 charges by PACMAN v1.1 (https://github.com/mtap-research/PACMAN-charge/)
data_KOQGAA_ASR_pacman
_symmetry_space_group_name_H-M   'P 1'
_cell_length_a   21.44100000
_cell_length_b   21.44100000
_cell_length_c   9.65500000
_cell_angle_alpha   90.00000000
_cell_angle_beta   90.00000000
_cell_angle_gamma   90.00000000
_symmetry_Int_Tables_number   1
_chemical_formula_structural   ZnH28C30NO6
_chemical_formula_sum   'Zn4 H112 C120 N4 O24'
_cell_volume   4438.56262405
_cell_formula_units_Z   4
loop_
 _symmetry_equiv_pos_site_id
 _symmetry_equiv_pos_as_xyz
  1  'x, y, z'
loop_
 _atom_site_type_symbol
 _atom_site_label
 _atom_site_symmetry_multiplicity
 _atom_site_fract_x
 _atom_site_fract_y
 _atom_site_fract_z
 _atom_site_occupancy
 _atom_site_charge
Zn  Zn1  1  0.50000000  0.00000000  0.35545000  1.0 0.6800056811
Zn  Zn2  1  0.00000000  0.50000000  0.64455000  1.0 0.6800056811
Zn  Zn3  1  0.50000000  0.00000000  0.05132000  1.0 0.6800056811
Zn  Zn4  1  0.00000000  0.50000000  0.94868000  1.0 0.6800056811
H  H1  1  0.37740000  0.16390000  0.37340000  1.0 0.1331766065
H  H2  1  0.62260000  0.83610000  0.37340000  1.0 0.1331766065
H  H3  1  0.12260000  0.66390000  0.62660000  1.0 0.1331766065
H  H4  1  0.87740000  0.33610000  0.62660000  1.0 0.1331766065
H  H5  1  0.83610000  0.62260000  0.62660000  1.0 0.1331766065
H  H6  1  0.16390000  0.37740000  0.62660000  1.0 0.1331766065
H  H7  1  0.33610000  0.87740000  0.37340000  1.0 0.1331766065
H  H8  1  0.66390000  0.12260000  0.37340000  1.0 0.1331766065
H  H9  1  0.29500000  0.23440000  0.37380000  1.0 0.1110193696
H  H10  1  0.70500000  0.76560000  0.37380000  1.0 0.1110193696
H  H11  1  0.20500000  0.73440000  0.62620000  1.0 0.1110193696
H  H12  1  0.79500000  0.26560000  0.62620000  1.0 0.1110193696
H  H13  1  0.76560000  0.70500000  0.62620000  1.0 0.1110193696
H  H14  1  0.23440000  0.29500000  0.62620000  1.0 0.1110193696
H  H15  1  0.26560000  0.79500000  0.37380000  1.0 0.1110193696
H  H16  1  0.73440000  0.20500000  0.37380000  1.0 0.1110193696
H  H17  1  0.32960000  0.03350000  0.00270000  1.0 0.1331766065
H  H18  1  0.67040000  0.96650000  0.00270000  1.0 0.1331766065
H  H19  1  0.17040000  0.53350000  0.99730000  1.0 0.1331766065
H  H20  1  0.82960000  0.46650000  0.99730000  1.0 0.1331766065
H  H21  1  0.96650000  0.67040000  0.99730000  1.0 0.1331766065
H  H22  1  0.03350000  0.32960000  0.99730000  1.0 0.1331766065
H  H23  1  0.46650000  0.82960000  0.00270000  1.0 0.1331766065
H  H24  1  0.53350000  0.17040000  0.00270000  1.0 0.1331766065
H  H25  1  0.22280000  0.23490000  0.20590000  1.0 0.1192199032
H  H26  1  0.77720000  0.76510000  0.20590000  1.0 0.1192199032
H  H27  1  0.27720000  0.73490000  0.79410000  1.0 0.1192199032
H  H28  1  0.72280000  0.26510000  0.79410000  1.0 0.1192199032
H  H29  1  0.76510000  0.77720000  0.79410000  1.0 0.1192199032
H  H30  1  0.23490000  0.22280000  0.79410000  1.0 0.1192199032
H  H31  1  0.26510000  0.72280000  0.20590000  1.0 0.1192199032
H  H32  1  0.73490000  0.27720000  0.20590000  1.0 0.1192199032
H  H33  1  0.24800000  0.02840000  0.84750000  1.0 0.1431269761
H  H34  1  0.75200000  0.97160000  0.84750000  1.0 0.1431269761
H  H35  1  0.25200000  0.52840000  0.15250000  1.0 0.1431269761
H  H36  1  0.74800000  0.47160000  0.15250000  1.0 0.1431269761
H  H37  1  0.97160000  0.75200000  0.15250000  1.0 0.1431269761
H  H38  1  0.02840000  0.24800000  0.15250000  1.0 0.1431269761
H  H39  1  0.47160000  0.74800000  0.84750000  1.0 0.1431269761
H  H40  1  0.52840000  0.25200000  0.84750000  1.0 0.1431269761
H  H41  1  0.13440000  0.12880000  0.81980000  1.0 0.3476286795
H  H42  1  0.86560000  0.87120000  0.81980000  1.0 0.3476286795
H  H43  1  0.36560000  0.62880000  0.18020000  1.0 0.3476286795
H  H44  1  0.63440000  0.37120000  0.18020000  1.0 0.3476286795
H  H45  1  0.87120000  0.86560000  0.18020000  1.0 0.3476286795
H  H46  1  0.12880000  0.13440000  0.18020000  1.0 0.3476286795
H  H47  1  0.37120000  0.63440000  0.81980000  1.0 0.3476286795
H  H48  1  0.62880000  0.36560000  0.81980000  1.0 0.3476286795
H  H49  1  0.44590000  0.07790000  0.81090000  1.0 0.0866208413
H  H50  1  0.55410000  0.92210000  0.81090000  1.0 0.0866208413
H  H51  1  0.05410000  0.57790000  0.18910000  1.0 0.0866208413
H  H52  1  0.94590000  0.42210000  0.18910000  1.0 0.0866208413
H  H53  1  0.92210000  0.55410000  0.18910000  1.0 0.0866208413
H  H54  1  0.07790000  0.44590000  0.18910000  1.0 0.0866208413
H  H55  1  0.42210000  0.94590000  0.81090000  1.0 0.0866208413
H  H56  1  0.57790000  0.05410000  0.81090000  1.0 0.0866208413
H  H57  1  0.51750000  0.09340000  0.81470000  1.0 0.0836599659
H  H58  1  0.48250000  0.90660000  0.81470000  1.0 0.0836599659
H  H59  1  0.98250000  0.59340000  0.18530000  1.0 0.0836599659
H  H60  1  0.01750000  0.40660000  0.18530000  1.0 0.0836599659
H  H61  1  0.90660000  0.48250000  0.18530000  1.0 0.0836599659
H  H62  1  0.09340000  0.51750000  0.18530000  1.0 0.0836599659
H  H63  1  0.40660000  0.01750000  0.81470000  1.0 0.0836599659
H  H64  1  0.59340000  0.98250000  0.81470000  1.0 0.0836599659
H  H65  1  0.52170000  0.08980000  0.58950000  1.0 0.0866208413
H  H66  1  0.47830000  0.91020000  0.58950000  1.0 0.0866208413
H  H67  1  0.97830000  0.58980000  0.41050000  1.0 0.0866208413
H  H68  1  0.02170000  0.41020000  0.41050000  1.0 0.0866208413
H  H69  1  0.91020000  0.47830000  0.41050000  1.0 0.0866208413
H  H70  1  0.08980000  0.52170000  0.41050000  1.0 0.0866208413
H  H71  1  0.41020000  0.02170000  0.58950000  1.0 0.0866208413
H  H72  1  0.58980000  0.97830000  0.58950000  1.0 0.0866208413
H  H73  1  0.44960000  0.07760000  0.58550000  1.0 0.0866208413
H  H74  1  0.55040000  0.92240000  0.58550000  1.0 0.0866208413
H  H75  1  0.05040000  0.57760000  0.41450000  1.0 0.0866208413
H  H76  1  0.94960000  0.42240000  0.41450000  1.0 0.0866208413
H  H77  1  0.92240000  0.55040000  0.41450000  1.0 0.0866208413
H  H78  1  0.07760000  0.44960000  0.41450000  1.0 0.0866208413
H  H79  1  0.42240000  0.94960000  0.58550000  1.0 0.0866208413
H  H80  1  0.57760000  0.05040000  0.58550000  1.0 0.0866208413
H  H81  1  0.44820000  0.07860000  0.58970000  1.0 0.0866208413
H  H82  1  0.55180000  0.92140000  0.58970000  1.0 0.0866208413
H  H83  1  0.05180000  0.57860000  0.41030000  1.0 0.0866208413
H  H84  1  0.94820000  0.42140000  0.41030000  1.0 0.0866208413
H  H85  1  0.92140000  0.55180000  0.41030000  1.0 0.0866208413
H  H86  1  0.07860000  0.44820000  0.41030000  1.0 0.0866208413
H  H87  1  0.42140000  0.94820000  0.58970000  1.0 0.0866208413
H  H88  1  0.57860000  0.05180000  0.58970000  1.0 0.0866208413
H  H89  1  0.40770000  0.01760000  0.59230000  1.0 0.0866208413
H  H90  1  0.59230000  0.98240000  0.59230000  1.0 0.0866208413
H  H91  1  0.09230000  0.51760000  0.40770000  1.0 0.0866208413
H  H92  1  0.90770000  0.48240000  0.40770000  1.0 0.0866208413
H  H93  1  0.98240000  0.59230000  0.40770000  1.0 0.0866208413
H  H94  1  0.01760000  0.40770000  0.40770000  1.0 0.0866208413
H  H95  1  0.48240000  0.90770000  0.59230000  1.0 0.0866208413
H  H96  1  0.51760000  0.09230000  0.59230000  1.0 0.0866208413
H  H97  1  0.40890000  0.01970000  0.81860000  1.0 0.0836599659
H  H98  1  0.59110000  0.98030000  0.81860000  1.0 0.0866208413
H  H99  1  0.09110000  0.51970000  0.18140000  1.0 0.0866208413
H  H100  1  0.90890000  0.48030000  0.18140000  1.0 0.0866208413
H  H101  1  0.98030000  0.59110000  0.18140000  1.0 0.0866208413
H  H102  1  0.01970000  0.40890000  0.18140000  1.0 0.0866208413
H  H103  1  0.48030000  0.90890000  0.81860000  1.0 0.0836599659
H  H104  1  0.51970000  0.09110000  0.81860000  1.0 0.0866208413
H  H105  1  0.45120000  0.07930000  0.81600000  1.0 0.0866208413
H  H106  1  0.54880000  0.92070000  0.81600000  1.0 0.0866208413
H  H107  1  0.04880000  0.57930000  0.18400000  1.0 0.0866208413
H  H108  1  0.95120000  0.42070000  0.18400000  1.0 0.0866208413
H  H109  1  0.92070000  0.54880000  0.18400000  1.0 0.0866208413
H  H110  1  0.07930000  0.45120000  0.18400000  1.0 0.0866208413
H  H111  1  0.42070000  0.95120000  0.81600000  1.0 0.0866208413
H  H112  1  0.57930000  0.04880000  0.81600000  1.0 0.0866208413
C  C1  1  0.40480000  0.07280000  0.20390000  1.0 0.4898936268
C  C2  1  0.59520000  0.92720000  0.20390000  1.0 0.4898936268
C  C3  1  0.09520000  0.57280000  0.79610000  1.0 0.4898936268
C  C4  1  0.90480000  0.42720000  0.79610000  1.0 0.4898936268
C  C5  1  0.92720000  0.59520000  0.79610000  1.0 0.4898936268
C  C6  1  0.07280000  0.40480000  0.79610000  1.0 0.4898936268
C  C7  1  0.42720000  0.90480000  0.20390000  1.0 0.4898936268
C  C8  1  0.57280000  0.09520000  0.20390000  1.0 0.4898936268
C  C9  1  0.25260000  0.15750000  0.10390000  1.0 0.0501206777
C  C10  1  0.74740000  0.84250000  0.10390000  1.0 0.0501206777
C  C11  1  0.24740000  0.65750000  0.89610000  1.0 0.0501206777
C  C12  1  0.75260000  0.34250000  0.89610000  1.0 0.0501206777
C  C13  1  0.84250000  0.74740000  0.89610000  1.0 0.0501206777
C  C14  1  0.15750000  0.25260000  0.89610000  1.0 0.0501206777
C  C15  1  0.34250000  0.75260000  0.10390000  1.0 0.0501206777
C  C16  1  0.65750000  0.24740000  0.10390000  1.0 0.0501206777
C  C17  1  0.30170000  0.11180000  0.10110000  1.0 0.0404402133
C  C18  1  0.69830000  0.88820000  0.10110000  1.0 0.0404402133
C  C19  1  0.19830000  0.61180000  0.89890000  1.0 0.0404402133
C  C20  1  0.80170000  0.38820000  0.89890000  1.0 0.0404402133
C  C21  1  0.88820000  0.69830000  0.89890000  1.0 0.0404402133
C  C22  1  0.11180000  0.30170000  0.89890000  1.0 0.0404402133
C  C23  1  0.38820000  0.80170000  0.10110000  1.0 0.0404402133
C  C24  1  0.61180000  0.19830000  0.10110000  1.0 0.0404402133
C  C25  1  0.34940000  0.11630000  0.20500000  1.0 -0.0265253625
C  C26  1  0.65060000  0.88370000  0.20500000  1.0 -0.0265253625
C  C27  1  0.15060000  0.61630000  0.79500000  1.0 -0.0265253625
C  C28  1  0.84940000  0.38370000  0.79500000  1.0 -0.0265253625
C  C29  1  0.88370000  0.65060000  0.79500000  1.0 -0.0265253625
C  C30  1  0.11630000  0.34940000  0.79500000  1.0 -0.0265253625
C  C31  1  0.38370000  0.84940000  0.20500000  1.0 -0.0265253625
C  C32  1  0.61630000  0.15060000  0.20500000  1.0 -0.0265253625
C  C33  1  0.34680000  0.16160000  0.30530000  1.0 -0.1300877935
C  C34  1  0.65320000  0.83840000  0.30530000  1.0 -0.1356875781
C  C35  1  0.15320000  0.66160000  0.69470000  1.0 -0.1356875781
C  C36  1  0.84680000  0.33840000  0.69470000  1.0 -0.1300877935
C  C37  1  0.83840000  0.65320000  0.69470000  1.0 -0.1300877935
C  C38  1  0.16160000  0.34680000  0.69470000  1.0 -0.1356875781
C  C39  1  0.33840000  0.84680000  0.30530000  1.0 -0.1356875781
C  C40  1  0.66160000  0.15320000  0.30530000  1.0 -0.1300877935
C  C41  1  0.29720000  0.20460000  0.30410000  1.0 -0.0879299849
C  C42  1  0.70280000  0.79540000  0.30410000  1.0 -0.0879299849
C  C43  1  0.20280000  0.70460000  0.69590000  1.0 -0.0879299849
C  C44  1  0.79720000  0.29540000  0.69590000  1.0 -0.0879299849
C  C45  1  0.79540000  0.70280000  0.69590000  1.0 -0.0879299849
C  C46  1  0.20460000  0.29720000  0.69590000  1.0 -0.0879299849
C  C47  1  0.29540000  0.79720000  0.30410000  1.0 -0.0879299849
C  C48  1  0.70460000  0.20280000  0.30410000  1.0 -0.0879299849
C  C49  1  0.29870000  0.06400000  0.00440000  1.0 -0.1300877935
C  C50  1  0.70130000  0.93600000  0.00440000  1.0 -0.1300877935
C  C51  1  0.20130000  0.56400000  0.99560000  1.0 -0.1300877935
C  C52  1  0.79870000  0.43600000  0.99560000  1.0 -0.1300877935
C  C53  1  0.93600000  0.70130000  0.99560000  1.0 -0.1300877935
C  C54  1  0.06400000  0.29870000  0.99560000  1.0 -0.1300877935
C  C55  1  0.43600000  0.79870000  0.00440000  1.0 -0.1300877935
C  C56  1  0.56400000  0.20130000  0.00440000  1.0 -0.1300877935
C  C57  1  0.25330000  0.20400000  0.20630000  1.0 -0.1624961902
C  C58  1  0.74670000  0.79600000  0.20630000  1.0 -0.1624961902
C  C59  1  0.24670000  0.70400000  0.79370000  1.0 -0.1624961902
C  C60  1  0.75330000  0.29600000  0.79370000  1.0 -0.1624961902
C  C61  1  0.79600000  0.74670000  0.79370000  1.0 -0.1624961902
C  C62  1  0.20400000  0.25330000  0.79370000  1.0 -0.1624961902
C  C63  1  0.29600000  0.75330000  0.20630000  1.0 -0.1624961902
C  C64  1  0.70400000  0.24670000  0.20630000  1.0 -0.1624961902
C  C65  1  0.20450000  0.15530000  0.00310000  1.0 -0.1246541921
C  C66  1  0.79550000  0.84470000  0.00310000  1.0 -0.1300877935
C  C67  1  0.29550000  0.65530000  0.99690000  1.0 -0.1300877935
C  C68  1  0.70450000  0.34470000  0.99690000  1.0 -0.1300877935
C  C69  1  0.84470000  0.79550000  0.99690000  1.0 -0.1300877935
C  C70  1  0.15530000  0.20450000  0.99690000  1.0 -0.1246541921
C  C71  1  0.34470000  0.70450000  0.00310000  1.0 -0.1246541921
C  C72  1  0.65530000  0.29550000  0.00310000  1.0 -0.1246541921
C  C73  1  0.24970000  0.06140000  0.90980000  1.0 -0.2477874045
C  C74  1  0.75030000  0.93860000  0.90980000  1.0 -0.2477874045
C  C75  1  0.25030000  0.56140000  0.09020000  1.0 -0.2477874045
C  C76  1  0.74970000  0.43860000  0.09020000  1.0 -0.2477874045
C  C77  1  0.93860000  0.75030000  0.09020000  1.0 -0.2477874045
C  C78  1  0.06140000  0.24970000  0.09020000  1.0 -0.2477874045
C  C79  1  0.43860000  0.74970000  0.90980000  1.0 -0.2477874045
C  C80  1  0.56140000  0.25030000  0.90980000  1.0 -0.2477874045
C  C81  1  0.20390000  0.10600000  0.90580000  1.0 0.2762954909
C  C82  1  0.79610000  0.89400000  0.90580000  1.0 0.2762954909
C  C83  1  0.29610000  0.60600000  0.09420000  1.0 0.2762954909
C  C84  1  0.70390000  0.39400000  0.09420000  1.0 0.2762954909
C  C85  1  0.89400000  0.79610000  0.09420000  1.0 0.2762954909
C  C86  1  0.10600000  0.20390000  0.09420000  1.0 0.2762954909
C  C87  1  0.39400000  0.70390000  0.90580000  1.0 0.2762954909
C  C88  1  0.60600000  0.29610000  0.90580000  1.0 0.2762954909
C  C89  1  0.48670000  0.06400000  0.78060000  1.0 -0.0879299849
C  C90  1  0.51330000  0.93600000  0.78060000  1.0 -0.0879299849
C  C91  1  0.01330000  0.56400000  0.21940000  1.0 -0.0879299849
C  C92  1  0.98670000  0.43600000  0.21940000  1.0 -0.0879299849
C  C93  1  0.93600000  0.51330000  0.21940000  1.0 -0.0879299849
C  C94  1  0.06400000  0.48670000  0.21940000  1.0 -0.0879299849
C  C95  1  0.43600000  0.98670000  0.78060000  1.0 -0.0879299849
C  C96  1  0.56400000  0.01330000  0.78060000  1.0 -0.0879299849
C  C97  1  0.48890000  0.06210000  0.62160000  1.0 -0.0879299849
C  C98  1  0.51110000  0.93790000  0.62160000  1.0 -0.0879299849
C  C99  1  0.01110000  0.56210000  0.37840000  1.0 -0.0879299849
C  C100  1  0.98890000  0.43790000  0.37840000  1.0 -0.0879299849
C  C101  1  0.93790000  0.51110000  0.37840000  1.0 -0.0879299849
C  C102  1  0.06210000  0.48890000  0.37840000  1.0 -0.0879299849
C  C103  1  0.43790000  0.98890000  0.62160000  1.0 -0.0879299849
C  C104  1  0.56210000  0.01110000  0.62160000  1.0 -0.0879299849
C  C105  1  0.44640000  0.03610000  0.62390000  1.0 -0.0834121887
C  C106  1  0.55360000  0.96390000  0.62390000  1.0 -0.0834121887
C  C107  1  0.05360000  0.53610000  0.37610000  1.0 -0.0834121887
C  C108  1  0.94640000  0.46390000  0.37610000  1.0 -0.0834121887
C  C109  1  0.96390000  0.55360000  0.37610000  1.0 -0.0834121887
C  C110  1  0.03610000  0.44640000  0.37610000  1.0 -0.0834121887
C  C111  1  0.46390000  0.94640000  0.62390000  1.0 -0.0834121887
C  C112  1  0.53610000  0.05360000  0.62390000  1.0 -0.0834121887
C  C113  1  0.44770000  0.03660000  0.78370000  1.0 -0.0834121887
C  C114  1  0.55230000  0.96340000  0.78370000  1.0 -0.0834121887
C  C115  1  0.05230000  0.53660000  0.21630000  1.0 -0.0834121887
C  C116  1  0.94770000  0.46340000  0.21630000  1.0 -0.0834121887
C  C117  1  0.96340000  0.55230000  0.21630000  1.0 -0.0834121887
C  C118  1  0.03660000  0.44770000  0.21630000  1.0 -0.0834121887
C  C119  1  0.46340000  0.94770000  0.78370000  1.0 -0.0834121887
C  C120  1  0.53660000  0.05230000  0.78370000  1.0 -0.0834121887
N  N1  1  0.50000000  0.00000000  0.56680000  1.0 -0.1356875781
N  N2  1  0.00000000  0.50000000  0.43320000  1.0 -0.1356875781
N  N3  1  0.50000000  0.00000000  0.83870000  1.0 -0.1356875781
N  N4  1  0.00000000  0.50000000  0.16130000  1.0 -0.1356875781
O  O1  1  0.43100000  0.06310000  0.08940000  1.0 -0.5782963965
O  O2  1  0.56900000  0.93690000  0.08940000  1.0 -0.5782963965
O  O3  1  0.06900000  0.56310000  0.91060000  1.0 -0.5782963965
O  O4  1  0.93100000  0.43690000  0.91060000  1.0 -0.5782963965
O  O5  1  0.93690000  0.56900000  0.91060000  1.0 -0.5782963965
O  O6  1  0.06310000  0.43100000  0.91060000  1.0 -0.5782963965
O  O7  1  0.43690000  0.93100000  0.08940000  1.0 -0.5782963965
O  O8  1  0.56310000  0.06900000  0.08940000  1.0 -0.5782963965
O  O9  1  0.15960000  0.10030000  0.81120000  1.0 -0.4011071656
O  O10  1  0.84040000  0.89970000  0.81120000  1.0 -0.4011071656
O  O11  1  0.34040000  0.60030000  0.18880000  1.0 -0.4011071656
O  O12  1  0.65960000  0.39970000  0.18880000  1.0 -0.4011071656
O  O13  1  0.89970000  0.84040000  0.18880000  1.0 -0.4011071656
O  O14  1  0.10030000  0.15960000  0.18880000  1.0 -0.4011071656
O  O15  1  0.39970000  0.65960000  0.81120000  1.0 -0.4011071656
O  O16  1  0.60030000  0.34040000  0.81120000  1.0 -0.4011071656
O  O17  1  0.42231000  0.05168000  0.31800000  1.0 -0.5683495138
O  O18  1  0.57769000  0.94832000  0.31800000  1.0 -0.5683495138
O  O19  1  0.07769000  0.55168000  0.68200000  1.0 -0.5683495138
O  O20  1  0.92231000  0.44832000  0.68200000  1.0 -0.5683495138
O  O21  1  0.94832000  0.57769000  0.68200000  1.0 -0.5683495138
O  O22  1  0.05168000  0.42231000  0.68200000  1.0 -0.5683495138
O  O23  1  0.44832000  0.92231000  0.31800000  1.0 -0.5683495138
O  O24  1  0.55168000  0.07769000  0.31800000  1.0 -0.5683495138
