# DDEC6 charges by PACMAN v1.1 (https://github.com/mtap-research/PACMAN-charge/)
data_KOQJOR_FSR_pacman
_symmetry_space_group_name_H-M   'P 1'
_cell_length_a   9.06100000
_cell_length_b   13.81200000
_cell_length_c   21.61800000
_cell_angle_alpha   90.00000000
_cell_angle_beta   90.00000000
_cell_angle_gamma   90.00000000
_symmetry_Int_Tables_number   1
_chemical_formula_structural   ZnH48C34(NO2)4
_chemical_formula_sum   'Zn4 H192 C136 N16 O32'
_cell_volume   2705.50420078
_cell_formula_units_Z   4
loop_
 _symmetry_equiv_pos_site_id
 _symmetry_equiv_pos_as_xyz
  1  'x, y, z'
loop_
 _atom_site_type_symbol
 _atom_site_label
 _atom_site_symmetry_multiplicity
 _atom_site_fract_x
 _atom_site_fract_y
 _atom_site_fract_z
 _atom_site_occupancy
 _atom_site_charge
Zn  Zn1  1  0.06785000  0.64210000  0.25000000  1.0 0.6038903869
Zn  Zn2  1  0.56785000  0.85790000  0.75000000  1.0 0.6038903869
Zn  Zn3  1  0.93215000  0.35790000  0.75000000  1.0 0.6038903869
Zn  Zn4  1  0.43215000  0.14210000  0.25000000  1.0 0.6038903869
H  H1  1  0.72970000  0.23590000  0.35290000  1.0 0.2130901454
H  H2  1  0.22970000  0.26410000  0.64710000  1.0 0.2130901454
H  H3  1  0.27030000  0.76410000  0.85290000  1.0 0.2130901454
H  H4  1  0.77030000  0.73590000  0.14710000  1.0 0.2130901454
H  H5  1  0.27030000  0.76410000  0.64710000  1.0 0.2130901454
H  H6  1  0.77030000  0.73590000  0.35290000  1.0 0.2130901454
H  H7  1  0.72970000  0.23590000  0.14710000  1.0 0.2130901454
H  H8  1  0.22970000  0.26410000  0.85290000  1.0 0.2130901454
H  H9  1  0.81660000  0.32070000  0.36070000  1.0 0.119685167
H  H10  1  0.31660000  0.17930000  0.63930000  1.0 0.119685167
H  H11  1  0.18340000  0.67930000  0.86070000  1.0 0.119685167
H  H12  1  0.68340000  0.82070000  0.13930000  1.0 0.119685167
H  H13  1  0.18340000  0.67930000  0.63930000  1.0 0.119685167
H  H14  1  0.68340000  0.82070000  0.36070000  1.0 0.119685167
H  H15  1  0.81660000  0.32070000  0.13930000  1.0 0.119685167
H  H16  1  0.31660000  0.17930000  0.86070000  1.0 0.119685167
H  H17  1  0.04000000  0.80730000  0.33940000  1.0 0.1461626864
H  H18  1  0.54000000  0.69270000  0.66060000  1.0 0.1461626864
H  H19  1  0.96000000  0.19270000  0.83940000  1.0 0.1461626864
H  H20  1  0.46000000  0.30730000  0.16060000  1.0 0.1461626864
H  H21  1  0.96000000  0.19270000  0.66060000  1.0 0.1461626864
H  H22  1  0.46000000  0.30730000  0.33940000  1.0 0.1461626864
H  H23  1  0.04000000  0.80730000  0.16060000  1.0 0.1461626864
H  H24  1  0.54000000  0.69270000  0.83940000  1.0 0.1461626864
H  H25  1  0.16000000  0.87420000  0.42560000  1.0 0.119685167
H  H26  1  0.66000000  0.62580000  0.57440000  1.0 0.119685167
H  H27  1  0.84000000  0.12580000  0.92560000  1.0 0.119685167
H  H28  1  0.34000000  0.37420000  0.07440000  1.0 0.119685167
H  H29  1  0.84000000  0.12580000  0.57440000  1.0 0.119685167
H  H30  1  0.34000000  0.37420000  0.42560000  1.0 0.119685167
H  H31  1  0.16000000  0.87420000  0.07440000  1.0 0.119685167
H  H32  1  0.66000000  0.62580000  0.92560000  1.0 0.119685167
H  H33  1  0.45830000  0.65770000  0.41590000  1.0 0.1294817976
H  H34  1  0.95830000  0.84230000  0.58410000  1.0 0.1294817976
H  H35  1  0.54170000  0.34230000  0.91590000  1.0 0.1294817976
H  H36  1  0.04170000  0.15770000  0.08410000  1.0 0.1294817976
H  H37  1  0.54170000  0.34230000  0.58410000  1.0 0.1294817976
H  H38  1  0.04170000  0.15770000  0.41590000  1.0 0.1294817976
H  H39  1  0.45830000  0.65770000  0.08410000  1.0 0.1294817976
H  H40  1  0.95830000  0.84230000  0.91590000  1.0 0.1294817976
H  H41  1  0.33140000  0.59730000  0.33080000  1.0 0.1393711767
H  H42  1  0.83140000  0.90270000  0.66920000  1.0 0.1393711767
H  H43  1  0.66860000  0.40270000  0.83080000  1.0 0.1393711767
H  H44  1  0.16860000  0.09730000  0.16920000  1.0 0.1393711767
H  H45  1  0.66860000  0.40270000  0.66920000  1.0 0.1393711767
H  H46  1  0.16860000  0.09730000  0.33080000  1.0 0.1393711767
H  H47  1  0.33140000  0.59730000  0.16920000  1.0 0.1393711767
H  H48  1  0.83140000  0.90270000  0.83080000  1.0 0.1393711767
H  H49  1  0.35170000  0.78290000  0.52400000  1.0 0.119685167
H  H50  1  0.85170000  0.71710000  0.47600000  1.0 0.119685167
H  H51  1  0.64830000  0.21710000  0.02400000  1.0 0.119685167
H  H52  1  0.14830000  0.28290000  0.97600000  1.0 0.119685167
H  H53  1  0.64830000  0.21710000  0.47600000  1.0 0.119685167
H  H54  1  0.14830000  0.28290000  0.52400000  1.0 0.119685167
H  H55  1  0.35170000  0.78290000  0.97600000  1.0 0.119685167
H  H56  1  0.85170000  0.71710000  0.02400000  1.0 0.119685167
H  H57  1  0.50230000  0.78340000  0.48570000  1.0 0.1008214266
H  H58  1  0.00230000  0.71660000  0.51430000  1.0 0.1008214266
H  H59  1  0.49770000  0.21660000  0.98570000  1.0 0.1008214266
H  H60  1  0.99770000  0.28340000  0.01430000  1.0 0.1008214266
H  H61  1  0.49770000  0.21660000  0.51430000  1.0 0.1008214266
H  H62  1  0.99770000  0.28340000  0.48570000  1.0 0.1008214266
H  H63  1  0.50230000  0.78340000  0.01430000  1.0 0.1008214266
H  H64  1  0.00230000  0.71660000  0.98570000  1.0 0.1008214266
H  H65  1  0.45180000  0.94090000  0.40220000  1.0 0.1008214266
H  H66  1  0.95180000  0.55910000  0.59780000  1.0 0.1008214266
H  H67  1  0.54820000  0.05910000  0.90220000  1.0 0.1008214266
H  H68  1  0.04820000  0.44090000  0.09780000  1.0 0.1008214266
H  H69  1  0.54820000  0.05910000  0.59780000  1.0 0.1008214266
H  H70  1  0.04820000  0.44090000  0.40220000  1.0 0.1008214266
H  H71  1  0.45180000  0.94090000  0.09780000  1.0 0.1008214266
H  H72  1  0.95180000  0.55910000  0.90220000  1.0 0.1008214266
H  H73  1  0.59780000  0.92600000  0.44270000  1.0 0.1008214266
H  H74  1  0.09780000  0.57400000  0.55730000  1.0 0.1008214266
H  H75  1  0.40220000  0.07400000  0.94270000  1.0 0.1008214266
H  H76  1  0.90220000  0.42600000  0.05730000  1.0 0.1008214266
H  H77  1  0.40220000  0.07400000  0.55730000  1.0 0.1008214266
H  H78  1  0.90220000  0.42600000  0.44270000  1.0 0.1008214266
H  H79  1  0.59780000  0.92600000  0.05730000  1.0 0.1008214266
H  H80  1  0.09780000  0.57400000  0.94270000  1.0 0.1008214266
H  H81  1  0.58450000  0.90660000  0.55170000  1.0 0.0877493447
H  H82  1  0.08450000  0.59340000  0.44830000  1.0 0.0877493447
H  H83  1  0.41550000  0.09340000  0.05170000  1.0 0.0877493447
H  H84  1  0.91550000  0.40660000  0.94830000  1.0 0.0877493447
H  H85  1  0.41550000  0.09340000  0.44830000  1.0 0.0877493447
H  H86  1  0.91550000  0.40660000  0.55170000  1.0 0.0877493447
H  H87  1  0.58450000  0.90660000  0.94830000  1.0 0.0877493447
H  H88  1  0.08450000  0.59340000  0.05170000  1.0 0.0877493447
H  H89  1  0.42880000  0.91140000  0.58690000  1.0 0.1116386479
H  H90  1  0.92880000  0.58860000  0.41310000  1.0 0.1116386479
H  H91  1  0.57120000  0.08860000  0.08690000  1.0 0.1116386479
H  H92  1  0.07120000  0.41140000  0.91310000  1.0 0.1116386479
H  H93  1  0.57120000  0.08860000  0.41310000  1.0 0.1116386479
H  H94  1  0.07120000  0.41140000  0.58690000  1.0 0.1116386479
H  H95  1  0.42880000  0.91140000  0.91310000  1.0 0.1116386479
H  H96  1  0.92880000  0.58860000  0.08690000  1.0 0.1116386479
H  H97  1  0.53920000  0.66650000  0.23870000  1.0 0.059148177
H  H98  1  0.03920000  0.83350000  0.76130000  1.0 0.059148177
H  H99  1  0.46080000  0.33350000  0.73870000  1.0 0.059148177
H  H100  1  0.96080000  0.16650000  0.26130000  1.0 0.059148177
H  H101  1  0.46080000  0.33350000  0.76130000  1.0 0.059148177
H  H102  1  0.96080000  0.16650000  0.23870000  1.0 0.059148177
H  H103  1  0.53920000  0.66650000  0.26130000  1.0 0.059148177
H  H104  1  0.03920000  0.83350000  0.73870000  1.0 0.059148177
H  H105  1  0.40440000  0.84080000  0.19270000  1.0 0.059148177
H  H106  1  0.90440000  0.65920000  0.80730000  1.0 0.059148177
H  H107  1  0.59560000  0.15920000  0.69270000  1.0 0.059148177
H  H108  1  0.09560000  0.34080000  0.30730000  1.0 0.059148177
H  H109  1  0.59560000  0.15920000  0.80730000  1.0 0.059148177
H  H110  1  0.09560000  0.34080000  0.19270000  1.0 0.059148177
H  H111  1  0.40440000  0.84080000  0.30730000  1.0 0.059148177
H  H112  1  0.90440000  0.65920000  0.69270000  1.0 0.059148177
H  H113  1  0.42440000  0.82330000  0.26490000  1.0 0.0369409448
H  H114  1  0.92440000  0.67670000  0.73510000  1.0 0.0369409448
H  H115  1  0.57560000  0.17670000  0.76490000  1.0 0.0369409448
H  H116  1  0.07560000  0.32330000  0.23510000  1.0 0.0369409448
H  H117  1  0.57560000  0.17670000  0.73510000  1.0 0.0369409448
H  H118  1  0.07560000  0.32330000  0.26490000  1.0 0.0369409448
H  H119  1  0.42440000  0.82330000  0.23510000  1.0 0.0369409448
H  H120  1  0.92440000  0.67670000  0.76490000  1.0 0.0369409448
H  H121  1  0.66610000  0.83390000  0.17520000  1.0 0.059148177
H  H122  1  0.16610000  0.66610000  0.82480000  1.0 0.059148177
H  H123  1  0.33390000  0.16610000  0.67520000  1.0 0.059148177
H  H124  1  0.83390000  0.33390000  0.32480000  1.0 0.059148177
H  H125  1  0.33390000  0.16610000  0.82480000  1.0 0.059148177
H  H126  1  0.83390000  0.33390000  0.17520000  1.0 0.059148177
H  H127  1  0.66610000  0.83390000  0.32480000  1.0 0.059148177
H  H128  1  0.16610000  0.66610000  0.67520000  1.0 0.059148177
H  H129  1  0.70010000  0.83780000  0.24770000  1.0 0.0877493447
H  H130  1  0.20010000  0.66220000  0.75230000  1.0 0.0877493447
H  H131  1  0.29990000  0.16220000  0.74770000  1.0 0.0877493447
H  H132  1  0.79990000  0.33780000  0.25230000  1.0 0.0877493447
H  H133  1  0.29990000  0.16220000  0.75230000  1.0 0.0877493447
H  H134  1  0.79990000  0.33780000  0.24770000  1.0 0.0877493447
H  H135  1  0.70010000  0.83780000  0.25230000  1.0 0.0877493447
H  H136  1  0.20010000  0.66220000  0.74770000  1.0 0.0877493447
H  H137  1  0.58470000  0.67760000  0.25430000  1.0 0.059148177
H  H138  1  0.08470000  0.82240000  0.74570000  1.0 0.059148177
H  H139  1  0.41530000  0.32240000  0.75430000  1.0 0.059148177
H  H140  1  0.91530000  0.17760000  0.24570000  1.0 0.059148177
H  H141  1  0.41530000  0.32240000  0.74570000  1.0 0.059148177
H  H142  1  0.91530000  0.17760000  0.25430000  1.0 0.059148177
H  H143  1  0.58470000  0.67760000  0.24570000  1.0 0.059148177
H  H144  1  0.08470000  0.82240000  0.75430000  1.0 0.059148177
H  H145  1  0.63040000  0.71240000  0.29560000  1.0 0.0039333426
H  H146  1  0.13040000  0.78760000  0.70440000  1.0 0.0039333426
H  H147  1  0.36960000  0.28760000  0.79560000  1.0 0.0039333426
H  H148  1  0.86960000  0.21240000  0.20440000  1.0 0.0039333426
H  H149  1  0.36960000  0.28760000  0.70440000  1.0 0.0039333426
H  H150  1  0.86960000  0.21240000  0.29560000  1.0 0.0039333426
H  H151  1  0.63040000  0.71240000  0.20440000  1.0 0.0039333426
H  H152  1  0.13040000  0.78760000  0.79560000  1.0 0.0039333426
H  H153  1  0.59160000  0.80030000  0.17890000  1.0 0.0495190411
H  H154  1  0.09160000  0.69970000  0.82110000  1.0 0.0495190411
H  H155  1  0.40840000  0.19970000  0.67890000  1.0 0.0495190411
H  H156  1  0.90840000  0.30030000  0.32110000  1.0 0.0495190411
H  H157  1  0.40840000  0.19970000  0.82110000  1.0 0.0495190411
H  H158  1  0.90840000  0.30030000  0.17890000  1.0 0.0495190411
H  H159  1  0.59160000  0.80030000  0.32110000  1.0 0.0495190411
H  H160  1  0.09160000  0.69970000  0.67890000  1.0 0.0495190411
H  H161  1  0.68890000  0.84550000  0.23370000  1.0 0.059148177
H  H162  1  0.18890000  0.65450000  0.76630000  1.0 0.059148177
H  H163  1  0.31110000  0.15450000  0.73370000  1.0 0.059148177
H  H164  1  0.81110000  0.34550000  0.26630000  1.0 0.059148177
H  H165  1  0.31110000  0.15450000  0.76630000  1.0 0.059148177
H  H166  1  0.81110000  0.34550000  0.23370000  1.0 0.059148177
H  H167  1  0.68890000  0.84550000  0.26630000  1.0 0.059148177
H  H168  1  0.18890000  0.65450000  0.73370000  1.0 0.059148177
H  H169  1  0.44360000  0.80950000  0.21360000  1.0 0.059148177
H  H170  1  0.94360000  0.69050000  0.78640000  1.0 0.059148177
H  H171  1  0.55640000  0.19050000  0.71360000  1.0 0.059148177
H  H172  1  0.05640000  0.30950000  0.28640000  1.0 0.059148177
H  H173  1  0.55640000  0.19050000  0.78640000  1.0 0.059148177
H  H174  1  0.05640000  0.30950000  0.21360000  1.0 0.059148177
H  H175  1  0.44360000  0.80950000  0.28640000  1.0 0.059148177
H  H176  1  0.94360000  0.69050000  0.71360000  1.0 0.059148177
H  H177  1  0.39230000  0.84050000  0.21910000  1.0 0.0495190411
H  H178  1  0.89230000  0.65950000  0.78090000  1.0 0.0495190411
H  H179  1  0.60770000  0.15950000  0.71910000  1.0 0.0495190411
H  H180  1  0.10770000  0.34050000  0.28090000  1.0 0.0495190411
H  H181  1  0.60770000  0.15950000  0.78090000  1.0 0.0495190411
H  H182  1  0.10770000  0.34050000  0.21910000  1.0 0.0495190411
H  H183  1  0.39230000  0.84050000  0.28090000  1.0 0.0495190411
H  H184  1  0.89230000  0.65950000  0.71910000  1.0 0.0495190411
H  H185  1  0.59840000  0.67490000  0.17970000  1.0 0.0670655793
H  H186  1  0.09840000  0.82510000  0.82030000  1.0 0.0670655793
H  H187  1  0.40160000  0.32510000  0.67970000  1.0 0.0670655793
H  H188  1  0.90160000  0.17490000  0.32030000  1.0 0.0670655793
H  H189  1  0.40160000  0.32510000  0.82030000  1.0 0.0670655793
H  H190  1  0.90160000  0.17490000  0.17970000  1.0 0.0670655793
H  H191  1  0.59840000  0.67490000  0.32030000  1.0 0.0670655793
H  H192  1  0.09840000  0.82510000  0.67970000  1.0 0.0670655793
C  C1  1  0.12590000  0.77620000  0.35480000  1.0 0.0154779763
C  C2  1  0.62590000  0.72380000  0.64520000  1.0 0.0154779763
C  C3  1  0.87410000  0.22380000  0.85480000  1.0 0.0154779763
C  C4  1  0.37410000  0.27620000  0.14520000  1.0 0.0154779763
C  C5  1  0.87410000  0.22380000  0.64520000  1.0 0.0154779763
C  C6  1  0.37410000  0.27620000  0.35480000  1.0 0.0154779763
C  C7  1  0.12590000  0.77620000  0.14520000  1.0 0.0154779763
C  C8  1  0.62590000  0.72380000  0.85480000  1.0 0.0154779763
C  C9  1  0.19730000  0.81680000  0.40710000  1.0 -0.2463252549
C  C10  1  0.69730000  0.68320000  0.59290000  1.0 -0.2463252549
C  C11  1  0.80270000  0.18320000  0.90710000  1.0 -0.2463252549
C  C12  1  0.30270000  0.31680000  0.09290000  1.0 -0.2463252549
C  C13  1  0.80270000  0.18320000  0.59290000  1.0 -0.2463252549
C  C14  1  0.30270000  0.31680000  0.40710000  1.0 -0.2463252549
C  C15  1  0.19730000  0.81680000  0.09290000  1.0 -0.2463252549
C  C16  1  0.69730000  0.68320000  0.90710000  1.0 -0.2463252549
C  C17  1  0.31960000  0.77290000  0.43070000  1.0 0.059148177
C  C18  1  0.81960000  0.72710000  0.56930000  1.0 0.059148177
C  C19  1  0.68040000  0.22710000  0.93070000  1.0 0.059148177
C  C20  1  0.18040000  0.27290000  0.06930000  1.0 0.059148177
C  C21  1  0.68040000  0.22710000  0.56930000  1.0 0.059148177
C  C22  1  0.18040000  0.27290000  0.43070000  1.0 0.059148177
C  C23  1  0.31960000  0.77290000  0.06930000  1.0 0.059148177
C  C24  1  0.81960000  0.72710000  0.93070000  1.0 0.059148177
C  C25  1  0.37210000  0.68960000  0.40130000  1.0 -0.290455895
C  C26  1  0.87210000  0.81040000  0.59870000  1.0 -0.290455895
C  C27  1  0.62790000  0.31040000  0.90130000  1.0 -0.290455895
C  C28  1  0.12790000  0.18960000  0.09870000  1.0 -0.290455895
C  C29  1  0.62790000  0.31040000  0.59870000  1.0 -0.290455895
C  C30  1  0.12790000  0.18960000  0.40130000  1.0 -0.290455895
C  C31  1  0.37210000  0.68960000  0.09870000  1.0 -0.290455895
C  C32  1  0.87210000  0.81040000  0.90130000  1.0 -0.290455895
C  C33  1  0.29570000  0.65440000  0.35020000  1.0 -0.0759414607
C  C34  1  0.79570000  0.84560000  0.64980000  1.0 -0.0759414607
C  C35  1  0.70430000  0.34560000  0.85020000  1.0 -0.0748974481
C  C36  1  0.20430000  0.15440000  0.14980000  1.0 -0.0748974481
C  C37  1  0.70430000  0.34560000  0.64980000  1.0 -0.0748974481
C  C38  1  0.20430000  0.15440000  0.35020000  1.0 -0.0748974481
C  C39  1  0.29570000  0.65440000  0.14980000  1.0 -0.0759414607
C  C40  1  0.79570000  0.84560000  0.85020000  1.0 -0.0759414607
C  C41  1  0.40050000  0.80940000  0.48670000  1.0 -0.1503564767
C  C42  1  0.90050000  0.69060000  0.51330000  1.0 -0.1503564767
C  C43  1  0.59950000  0.19060000  0.98670000  1.0 -0.1503564767
C  C44  1  0.09950000  0.30940000  0.01330000  1.0 -0.1503564767
C  C45  1  0.59950000  0.19060000  0.51330000  1.0 -0.1503564767
C  C46  1  0.09950000  0.30940000  0.48670000  1.0 -0.1503564767
C  C47  1  0.40050000  0.80940000  0.01330000  1.0 -0.1503564767
C  C48  1  0.90050000  0.69060000  0.98670000  1.0 -0.1503564767
C  C49  1  0.49870000  0.95610000  0.44240000  1.0 -0.1503564767
C  C50  1  0.99870000  0.54390000  0.55760000  1.0 -0.1503564767
C  C51  1  0.50130000  0.04390000  0.94240000  1.0 -0.1503564767
C  C52  1  0.00130000  0.45610000  0.05760000  1.0 -0.1503564767
C  C53  1  0.50130000  0.04390000  0.55760000  1.0 -0.1503564767
C  C54  1  0.00130000  0.45610000  0.44240000  1.0 -0.1503564767
C  C55  1  0.49870000  0.95610000  0.05760000  1.0 -0.1503564767
C  C56  1  0.99870000  0.54390000  0.94240000  1.0 -0.1503564767
C  C57  1  0.48570000  0.93720000  0.55150000  1.0 -0.106926193
C  C58  1  0.98570000  0.56280000  0.44850000  1.0 -0.106926193
C  C59  1  0.51430000  0.06280000  0.05150000  1.0 -0.106926193
C  C60  1  0.01430000  0.43720000  0.94850000  1.0 -0.106926193
C  C61  1  0.51430000  0.06280000  0.44850000  1.0 -0.106926193
C  C62  1  0.01430000  0.43720000  0.55150000  1.0 -0.106926193
C  C63  1  0.48570000  0.93720000  0.94850000  1.0 -0.106926193
C  C64  1  0.98570000  0.56280000  0.05150000  1.0 -0.106926193
C  C65  1  0.77500000  0.67300000  0.21900000  1.0 0.0823525241
C  C66  1  0.27500000  0.82700000  0.78100000  1.0 0.0823525241
C  C67  1  0.22500000  0.32700000  0.71900000  1.0 0.0823525241
C  C68  1  0.72500000  0.17300000  0.28100000  1.0 0.0823525241
C  C69  1  0.22500000  0.32700000  0.78100000  1.0 0.0823525241
C  C70  1  0.72500000  0.17300000  0.21900000  1.0 0.0823525241
C  C71  1  0.77500000  0.67300000  0.28100000  1.0 0.0823525241
C  C72  1  0.27500000  0.82700000  0.71900000  1.0 0.0823525241
C  C73  1  0.63800000  0.70400000  0.21810000  1.0 -0.090402701
C  C74  1  0.13800000  0.79600000  0.78190000  1.0 -0.090402701
C  C75  1  0.36200000  0.29600000  0.71810000  1.0 -0.090402701
C  C76  1  0.86200000  0.20400000  0.28190000  1.0 -0.090402701
C  C77  1  0.36200000  0.29600000  0.78190000  1.0 -0.090402701
C  C78  1  0.86200000  0.20400000  0.21810000  1.0 -0.090402701
C  C79  1  0.63800000  0.70400000  0.28190000  1.0 -0.090402701
C  C80  1  0.13800000  0.79600000  0.71810000  1.0 -0.090402701
C  C81  1  0.46600000  0.85800000  0.22880000  1.0 -0.090402701
C  C82  1  0.96600000  0.64200000  0.77120000  1.0 -0.090402701
C  C83  1  0.53400000  0.14200000  0.72880000  1.0 -0.090402701
C  C84  1  0.03400000  0.35800000  0.27120000  1.0 -0.090402701
C  C85  1  0.53400000  0.14200000  0.77120000  1.0 -0.090402701
C  C86  1  0.03400000  0.35800000  0.22880000  1.0 -0.090402701
C  C87  1  0.46600000  0.85800000  0.27120000  1.0 -0.090402701
C  C88  1  0.96600000  0.64200000  0.72880000  1.0 -0.090402701
C  C89  1  0.46700000  0.95900000  0.27100000  1.0 0.184090612
C  C90  1  0.96700000  0.54100000  0.72900000  1.0 0.184090612
C  C91  1  0.53300000  0.04100000  0.77100000  1.0 0.1850409484
C  C92  1  0.03300000  0.45900000  0.22900000  1.0 0.184090612
C  C93  1  0.53300000  0.04100000  0.72900000  1.0 0.1850409484
C  C94  1  0.03300000  0.45900000  0.27100000  1.0 0.184090612
C  C95  1  0.46700000  0.95900000  0.22900000  1.0 0.184090612
C  C96  1  0.96700000  0.54100000  0.77100000  1.0 0.184090612
C  C97  1  0.63100000  0.81200000  0.21600000  1.0 -0.1608361886
C  C98  1  0.13100000  0.68800000  0.78400000  1.0 -0.1608361886
C  C99  1  0.36900000  0.18800000  0.71600000  1.0 -0.1608361886
C  C100  1  0.86900000  0.31200000  0.28400000  1.0 -0.1608361886
C  C101  1  0.36900000  0.18800000  0.78400000  1.0 -0.1608361886
C  C102  1  0.86900000  0.31200000  0.21600000  1.0 -0.1608361886
C  C103  1  0.63100000  0.81200000  0.28400000  1.0 -0.1608361886
C  C104  1  0.13100000  0.68800000  0.71600000  1.0 -0.1608361886
C  C105  1  0.81400000  0.69100000  0.22400000  1.0 0.1008214266
C  C106  1  0.31400000  0.80900000  0.77600000  1.0 0.1008214266
C  C107  1  0.18600000  0.30900000  0.72400000  1.0 0.1008214266
C  C108  1  0.68600000  0.19100000  0.27600000  1.0 0.1008214266
C  C109  1  0.18600000  0.30900000  0.77600000  1.0 0.1008214266
C  C110  1  0.68600000  0.19100000  0.22400000  1.0 0.1008214266
C  C111  1  0.81400000  0.69100000  0.27600000  1.0 0.1008214266
C  C112  1  0.31400000  0.80900000  0.72400000  1.0 0.1008214266
C  C113  1  0.62200000  0.71000000  0.25000000  1.0 -0.0546671966
C  C114  1  0.12200000  0.79000000  0.75000000  1.0 -0.0557912202
C  C115  1  0.37800000  0.29000000  0.75000000  1.0 -0.0557912202
C  C116  1  0.87800000  0.21000000  0.25000000  1.0 -0.0546671966
C  C117  1  0.60200000  0.80500000  0.22400000  1.0 -0.106926193
C  C118  1  0.10200000  0.69500000  0.77600000  1.0 -0.106926193
C  C119  1  0.39800000  0.19500000  0.72400000  1.0 -0.106926193
C  C120  1  0.89800000  0.30500000  0.27600000  1.0 -0.106926193
C  C121  1  0.39800000  0.19500000  0.77600000  1.0 -0.106926193
C  C122  1  0.89800000  0.30500000  0.22400000  1.0 -0.106926193
C  C123  1  0.60200000  0.80500000  0.27600000  1.0 -0.106926193
C  C124  1  0.10200000  0.69500000  0.72400000  1.0 -0.106926193
C  C125  1  0.47200000  0.84900000  0.25000000  1.0 -0.0447538332
C  C126  1  0.97200000  0.65100000  0.75000000  1.0 -0.0447538332
C  C127  1  0.52800000  0.15100000  0.75000000  1.0 -0.0447538332
C  C128  1  0.02800000  0.34900000  0.25000000  1.0 -0.0447538332
C  C129  1  0.44700000  0.96300000  0.24000000  1.0 0.2130901454
C  C130  1  0.94700000  0.53700000  0.76000000  1.0 0.2130901454
C  C131  1  0.55300000  0.03700000  0.74000000  1.0 0.2130901454
C  C132  1  0.05300000  0.46300000  0.26000000  1.0 0.2130901454
C  C133  1  0.55300000  0.03700000  0.76000000  1.0 0.2130901454
C  C134  1  0.05300000  0.46300000  0.24000000  1.0 0.2130901454
C  C135  1  0.44700000  0.96300000  0.26000000  1.0 0.2130901454
C  C136  1  0.94700000  0.53700000  0.74000000  1.0 0.2130901454
N  N1  1  0.17300000  0.69680000  0.32630000  1.0 -0.2299078342
N  N2  1  0.67300000  0.80320000  0.67370000  1.0 -0.2299078342
N  N3  1  0.82700000  0.30320000  0.82630000  1.0 -0.2299078342
N  N4  1  0.32700000  0.19680000  0.17370000  1.0 -0.2299078342
N  N5  1  0.82700000  0.30320000  0.67370000  1.0 -0.2299078342
N  N6  1  0.32700000  0.19680000  0.32630000  1.0 -0.2299078342
N  N7  1  0.17300000  0.69680000  0.17370000  1.0 -0.2299078342
N  N8  1  0.67300000  0.80320000  0.82630000  1.0 -0.2299078342
N  N9  1  0.40870000  0.91410000  0.49300000  1.0 -0.0546671966
N  N10  1  0.90870000  0.58590000  0.50700000  1.0 -0.0546671966
N  N11  1  0.59130000  0.08590000  0.99300000  1.0 -0.0546671966
N  N12  1  0.09130000  0.41410000  0.00700000  1.0 -0.0546671966
N  N13  1  0.59130000  0.08590000  0.50700000  1.0 -0.0546671966
N  N14  1  0.09130000  0.41410000  0.49300000  1.0 -0.0546671966
N  N15  1  0.40870000  0.91410000  0.00700000  1.0 -0.0546671966
N  N16  1  0.90870000  0.58590000  0.99300000  1.0 -0.0546671966
O  O1  1  0.74800000  0.28480000  0.37700000  1.0 -0.5399725759
O  O2  1  0.24800000  0.21520000  0.62300000  1.0 -0.5399725759
O  O3  1  0.25200000  0.71520000  0.87700000  1.0 -0.5399725759
O  O4  1  0.75200000  0.78480000  0.12300000  1.0 -0.5399725759
O  O5  1  0.25200000  0.71520000  0.62300000  1.0 -0.5399725759
O  O6  1  0.75200000  0.78480000  0.37700000  1.0 -0.5399725759
O  O7  1  0.74800000  0.28480000  0.12300000  1.0 -0.5399725759
O  O8  1  0.24800000  0.21520000  0.87700000  1.0 -0.5399725759
O  O9  1  0.88630000  0.71530000  0.25000000  1.0 -0.1676713252
O  O10  1  0.38630000  0.78470000  0.75000000  1.0 -0.1676713252
O  O11  1  0.11370000  0.28470000  0.75000000  1.0 -0.1676713252
O  O12  1  0.61370000  0.21530000  0.25000000  1.0 -0.1676713252
O  O13  1  0.35460000  0.00450000  0.25000000  1.0 -0.2299078342
O  O14  1  0.85460000  0.49550000  0.75000000  1.0 -0.2299078342
O  O15  1  0.64540000  0.99550000  0.75000000  1.0 -0.2299078342
O  O16  1  0.14540000  0.50450000  0.25000000  1.0 -0.2299078342
O  O17  1  0.83130000  0.61560000  0.18640000  1.0 -0.3077320778
O  O18  1  0.33130000  0.88440000  0.81360000  1.0 -0.3077320778
O  O19  1  0.16870000  0.38440000  0.68640000  1.0 -0.3077320778
O  O20  1  0.66870000  0.11560000  0.31360000  1.0 -0.3077320778
O  O21  1  0.16870000  0.38440000  0.81360000  1.0 -0.3077320778
O  O22  1  0.66870000  0.11560000  0.18640000  1.0 -0.3077320778
O  O23  1  0.83130000  0.61560000  0.31360000  1.0 -0.3077320778
O  O24  1  0.33130000  0.88440000  0.68640000  1.0 -0.3077320778
O  O25  1  0.55410000  0.00520000  0.29700000  1.0 -0.2463252549
O  O26  1  0.05410000  0.49480000  0.70300000  1.0 -0.2463252549
O  O27  1  0.44590000  0.99480000  0.79700000  1.0 -0.2463252549
O  O28  1  0.94590000  0.50520000  0.20300000  1.0 -0.2463252549
O  O29  1  0.44590000  0.99480000  0.70300000  1.0 -0.2463252549
O  O30  1  0.94590000  0.50520000  0.29700000  1.0 -0.2463252549
O  O31  1  0.55410000  0.00520000  0.20300000  1.0 -0.2463252549
O  O32  1  0.05410000  0.49480000  0.79700000  1.0 -0.2463252549
