# DDEC6 charges by PACMAN v1.1 (https://github.com/mtap-research/PACMAN-charge/)
data_KOQLUZ_ASR_pacman
_symmetry_space_group_name_H-M   'P 1'
_cell_length_a   13.45640000
_cell_length_b   13.45640000
_cell_length_c   20.03800000
_cell_angle_alpha   81.36140000
_cell_angle_beta   98.63860000
_cell_angle_gamma   133.60500000
_symmetry_Int_Tables_number   1
_chemical_formula_structural   CuSiH10W12C12(NO8)4
_chemical_formula_sum   'Cu2 Si2 H20 W24 C24 N8 O64'
_cell_volume   2592.03114549
_cell_formula_units_Z   2
loop_
 _symmetry_equiv_pos_site_id
 _symmetry_equiv_pos_as_xyz
  1  'x, y, z'
loop_
 _atom_site_type_symbol
 _atom_site_label
 _atom_site_symmetry_multiplicity
 _atom_site_fract_x
 _atom_site_fract_y
 _atom_site_fract_z
 _atom_site_occupancy
 _atom_site_charge
Cu  Cu1  1  0.00000000  0.00000000  0.50000000  1.0 0.9094896689
Cu  Cu2  1  0.00000000  0.00000000  0.00000000  1.0 0.9094896689
Si  Si1  1  0.50210000  0.50210000  0.75000000  1.0 1.5918598845
Si  Si2  1  0.49790000  0.49790000  0.25000000  1.0 1.5918598845
H  H1  1  0.09360000  0.29060000  0.48160000  1.0 0.1079485938
H  H2  1  0.29060000  0.09360000  0.01840000  1.0 0.1079485938
H  H3  1  0.90640000  0.70940000  0.51840000  1.0 0.1079485938
H  H4  1  0.70940000  0.90640000  0.98160000  1.0 0.1079485938
H  H5  1  0.76640000  0.12300000  0.57620000  1.0 0.0998604862
H  H6  1  0.12300000  0.76640000  0.92380000  1.0 0.0998604862
H  H7  1  0.23360000  0.87700000  0.42380000  1.0 0.0998604862
H  H8  1  0.87700000  0.23360000  0.07620000  1.0 0.0998604862
H  H9  1  0.77460000  0.95260000  0.56840000  1.0 0.0998604862
H  H10  1  0.95260000  0.77460000  0.93160000  1.0 0.0998604862
H  H11  1  0.22540000  0.04740000  0.43160000  1.0 0.1079485938
H  H12  1  0.04740000  0.22540000  0.06840000  1.0 0.0998604862
H  H13  1  0.87120000  0.34640000  0.58810000  1.0 0.094522506
H  H14  1  0.34640000  0.87120000  0.91190000  1.0 0.094522506
H  H15  1  0.12880000  0.65360000  0.41190000  1.0 0.094522506
H  H16  1  0.65360000  0.12880000  0.08810000  1.0 0.094522506
H  H17  1  0.09430000  0.46050000  0.43290000  1.0 0.1186262965
H  H18  1  0.46050000  0.09430000  0.06710000  1.0 0.1186262965
H  H19  1  0.90570000  0.53950000  0.56710000  1.0 0.1186262965
H  H20  1  0.53950000  0.90570000  0.93290000  1.0 0.1186262965
W  W1  1  0.24485000  0.27413000  0.86770000  1.0 2.3981642627
W  W2  1  0.27413000  0.24485000  0.63230000  1.0 2.3981642627
W  W3  1  0.75515000  0.72587000  0.13230000  1.0 2.3981642627
W  W4  1  0.72587000  0.75515000  0.36770000  1.0 2.3981642627
W  W5  1  0.16935000  0.37271000  0.69872000  1.0 2.3474521115
W  W6  1  0.37271000  0.16935000  0.80128000  1.0 2.3474521115
W  W7  1  0.83065000  0.62729000  0.30128000  1.0 2.3474521115
W  W8  1  0.62729000  0.83065000  0.19872000  1.0 2.3474521115
W  W9  1  0.39323000  0.63021000  0.82823000  1.0 2.4087664559
W  W10  1  0.63021000  0.39323000  0.67177000  1.0 2.4087664559
W  W11  1  0.60677000  0.36979000  0.17177000  1.0 2.4087664559
W  W12  1  0.36979000  0.60677000  0.32823000  1.0 2.4087664559
W  W13  1  0.56545000  0.41181000  0.91477000  1.0 2.2617842828
W  W14  1  0.41181000  0.56545000  0.58523000  1.0 2.2748051956
W  W15  1  0.43455000  0.58819000  0.08523000  1.0 2.2617842828
W  W16  1  0.58819000  0.43455000  0.41477000  1.0 2.2617842828
W  W17  1  0.62678000  0.83350000  0.71055000  1.0 2.3981642627
W  W18  1  0.83350000  0.62678000  0.78945000  1.0 2.3981642627
W  W19  1  0.37322000  0.16650000  0.28945000  1.0 2.3981642627
W  W20  1  0.16650000  0.37322000  0.21055000  1.0 2.3889792279
W  W21  1  0.76600000  0.71720000  0.63669000  1.0 2.3889792279
W  W22  1  0.71720000  0.76600000  0.86331000  1.0 2.3889792279
W  W23  1  0.23400000  0.28280000  0.36331000  1.0 2.3889792279
W  W24  1  0.28280000  0.23400000  0.13669000  1.0 2.3889792279
C  C1  1  0.01220000  0.22720000  0.50360000  1.0 0.1079485938
C  C2  1  0.22720000  0.01220000  0.99640000  1.0 0.1079485938
C  C3  1  0.98780000  0.77280000  0.49640000  1.0 0.1079485938
C  C4  1  0.77280000  0.98780000  0.00360000  1.0 0.1079485938
C  C5  1  0.83250000  0.13590000  0.55570000  1.0 -0.1720217187
C  C6  1  0.13590000  0.83250000  0.94430000  1.0 -0.1720217187
C  C7  1  0.16750000  0.86410000  0.44430000  1.0 -0.1720217187
C  C8  1  0.86410000  0.16750000  0.05570000  1.0 -0.1720217187
C  C9  1  0.83840000  0.04360000  0.55130000  1.0 -0.0387638986
C  C10  1  0.04360000  0.83840000  0.94870000  1.0 -0.0455506267
C  C11  1  0.16160000  0.95640000  0.44870000  1.0 -0.0455506267
C  C12  1  0.95640000  0.16160000  0.05130000  1.0 -0.0387638986
C  C13  1  0.92320000  0.40900000  0.55250000  1.0 -0.1720217187
C  C14  1  0.40900000  0.92320000  0.94750000  1.0 -0.1720217187
C  C15  1  0.07680000  0.59100000  0.44750000  1.0 -0.1720217187
C  C16  1  0.59100000  0.07680000  0.05250000  1.0 -0.1720217187
C  C17  1  0.05660000  0.47660000  0.45980000  1.0 -0.1770120859
C  C18  1  0.47660000  0.05660000  0.04020000  1.0 -0.1770120859
C  C19  1  0.94340000  0.52340000  0.54020000  1.0 -0.1770120859
C  C20  1  0.52340000  0.94340000  0.95980000  1.0 -0.1770120859
C  C21  1  0.97880000  0.38400000  0.51280000  1.0 0.1186262965
C  C22  1  0.38400000  0.97880000  0.98720000  1.0 0.1186262965
C  C23  1  0.02120000  0.61600000  0.48720000  1.0 0.1186262965
C  C24  1  0.61600000  0.02120000  0.01280000  1.0 0.1186262965
N  N1  1  0.95040000  0.09840000  0.51840000  1.0 -0.2895912305
N  N2  1  0.09840000  0.95040000  0.98160000  1.0 -0.2895912305
N  N3  1  0.04960000  0.90160000  0.48160000  1.0 -0.2895912305
N  N4  1  0.90160000  0.04960000  0.01840000  1.0 -0.2895912305
N  N5  1  0.94630000  0.25790000  0.52330000  1.0 -0.0387638986
N  N6  1  0.25790000  0.94630000  0.97670000  1.0 -0.0387638986
N  N7  1  0.05370000  0.74210000  0.47670000  1.0 -0.0387638986
N  N8  1  0.74210000  0.05370000  0.02330000  1.0 -0.0387638986
O  O1  1  0.63330000  0.54290000  0.72250000  1.0 -1.1337896213
O  O2  1  0.54290000  0.63330000  0.77750000  1.0 -1.1337896213
O  O3  1  0.36670000  0.45710000  0.27750000  1.0 -1.1337896213
O  O4  1  0.45710000  0.36670000  0.22250000  1.0 -1.1337896213
O  O5  1  0.44280000  0.38300000  0.81180000  1.0 -1.1464843973
O  O6  1  0.38300000  0.44280000  0.68820000  1.0 -1.1464843973
O  O7  1  0.55720000  0.61700000  0.18820000  1.0 -1.1464843973
O  O8  1  0.61700000  0.55720000  0.31180000  1.0 -1.1464843973
O  O9  1  0.10650000  0.18050000  0.91810000  1.0 -0.8003961072
O  O10  1  0.18050000  0.10650000  0.58190000  1.0 -0.8003961072
O  O11  1  0.89350000  0.81950000  0.08190000  1.0 -0.8003961072
O  O12  1  0.81950000  0.89350000  0.41810000  1.0 -0.8003961072
O  O13  1  0.16810000  0.27810000  0.78200000  1.0 -0.9298863585
O  O14  1  0.27810000  0.16810000  0.71800000  1.0 -0.9298863585
O  O15  1  0.83190000  0.72190000  0.21800000  1.0 -0.9298863585
O  O16  1  0.72190000  0.83190000  0.28200000  1.0 -0.9298863585
O  O17  1  0.32490000  0.46110000  0.87070000  1.0 -0.9509290263
O  O18  1  0.46110000  0.32490000  0.62930000  1.0 -0.9509290263
O  O19  1  0.67510000  0.53890000  0.12930000  1.0 -0.9620665476
O  O20  1  0.53890000  0.67510000  0.37070000  1.0 -0.9509290263
O  O21  1  0.38740000  0.32360000  0.93730000  1.0 -0.9186441079
O  O22  1  0.32360000  0.38740000  0.56270000  1.0 -0.9186441079
O  O23  1  0.61260000  0.67640000  0.06270000  1.0 -0.9186441079
O  O24  1  0.67640000  0.61260000  0.43730000  1.0 -0.9186441079
O  O25  1  0.23220000  0.13420000  0.84670000  1.0 -0.9298863585
O  O26  1  0.13420000  0.23220000  0.65330000  1.0 -0.9298863585
O  O27  1  0.76780000  0.86580000  0.15330000  1.0 -0.9298863585
O  O28  1  0.86580000  0.76780000  0.34670000  1.0 -0.9298863585
O  O29  1  0.27320000  0.52680000  0.75120000  1.0 -0.9889369682
O  O30  1  0.52680000  0.27320000  0.74880000  1.0 -0.9889369682
O  O31  1  0.72680000  0.47320000  0.24880000  1.0 -0.9889369682
O  O32  1  0.47320000  0.72680000  0.25120000  1.0 -0.9889369682
O  O33  1  0.56090000  0.73370000  0.88440000  1.0 -0.9429034318
O  O34  1  0.73370000  0.56090000  0.61560000  1.0 -0.9429034318
O  O35  1  0.43910000  0.26630000  0.11560000  1.0 -0.9429034318
O  O36  1  0.26630000  0.43910000  0.38440000  1.0 -0.9429034318
O  O37  1  0.49120000  0.78780000  0.76230000  1.0 -1.0129024709
O  O38  1  0.78780000  0.49120000  0.73770000  1.0 -1.0129024709
O  O39  1  0.50880000  0.21220000  0.23770000  1.0 -1.0187601373
O  O40  1  0.21220000  0.50880000  0.26230000  1.0 -1.0129024709
O  O41  1  0.48470000  0.23690000  0.88310000  1.0 -0.9620665476
O  O42  1  0.23690000  0.48470000  0.61690000  1.0 -0.9620665476
O  O43  1  0.51530000  0.76310000  0.11690000  1.0 -0.9620665476
O  O44  1  0.76310000  0.51530000  0.38310000  1.0 -0.9620665476
O  O45  1  0.71740000  0.49620000  0.85810000  1.0 -0.9889369682
O  O46  1  0.49620000  0.71740000  0.64190000  1.0 -0.9889369682
O  O47  1  0.28260000  0.50380000  0.14190000  1.0 -0.9889369682
O  O48  1  0.50380000  0.28260000  0.35810000  1.0 -0.9889369682
O  O49  1  0.74260000  0.81540000  0.67730000  1.0 -0.9429034318
O  O50  1  0.81540000  0.74260000  0.82270000  1.0 -0.9429034318
O  O51  1  0.25740000  0.18460000  0.32270000  1.0 -0.9509290263
O  O52  1  0.18460000  0.25740000  0.17730000  1.0 -0.9509290263
O  O53  1  0.89450000  0.74750000  0.70650000  1.0 -0.9298863585
O  O54  1  0.74750000  0.89450000  0.79350000  1.0 -0.9298863585
O  O55  1  0.10550000  0.25250000  0.29350000  1.0 -0.9298863585
O  O56  1  0.25250000  0.10550000  0.20650000  1.0 -0.9298863585
O  O57  1  0.58780000  0.62760000  0.59180000  1.0 -0.9186441079
O  O58  1  0.62760000  0.58780000  0.90820000  1.0 -0.9186441079
O  O59  1  0.41220000  0.37240000  0.40820000  1.0 -0.9186441079
O  O60  1  0.37240000  0.41220000  0.09180000  1.0 -0.9186441079
O  O61  1  0.87460000  0.83800000  0.57390000  1.0 -0.8073338643
O  O62  1  0.83800000  0.87460000  0.92610000  1.0 -0.8073338643
O  O63  1  0.12540000  0.16200000  0.42610000  1.0 -0.8073338643
O  O64  1  0.16200000  0.12540000  0.07390000  1.0 -0.8073338643
