# DDEC6 charges by PACMAN v1.1 (https://github.com/mtap-research/PACMAN-charge/)
data_KOSKUA_FSR_pacman
_symmetry_space_group_name_H-M   'P 1'
_cell_length_a   15.11090000
_cell_length_b   15.11090000
_cell_length_c   15.11090000
_cell_angle_alpha   117.74700000
_cell_angle_beta   117.74700000
_cell_angle_gamma   117.74700000
_symmetry_Int_Tables_number   1
_chemical_formula_structural   CoHC4O3
_chemical_formula_sum   'Co6 H6 C24 O18'
_cell_volume   1327.00328562
_cell_formula_units_Z   6
loop_
 _symmetry_equiv_pos_site_id
 _symmetry_equiv_pos_as_xyz
  1  'x, y, z'
loop_
 _atom_site_type_symbol
 _atom_site_label
 _atom_site_symmetry_multiplicity
 _atom_site_fract_x
 _atom_site_fract_y
 _atom_site_fract_z
 _atom_site_occupancy
 _atom_site_charge
Co  Co1  1  0.10340000  0.51990000  0.77930000  1.0 0.9410405848
Co  Co2  1  0.51990000  0.77930000  0.10340000  1.0 0.9410405848
Co  Co3  1  0.77930000  0.10340000  0.51990000  1.0 0.9410405848
Co  Co4  1  0.89660000  0.48010000  0.22070000  1.0 0.9410405848
Co  Co5  1  0.48010000  0.22070000  0.89660000  1.0 0.9410405848
Co  Co6  1  0.22070000  0.89660000  0.48010000  1.0 0.9410405848
H  H1  1  0.67310000  0.20080000  0.64820000  1.0 0.1425294151
H  H2  1  0.20080000  0.64820000  0.67310000  1.0 0.1425294151
H  H3  1  0.64820000  0.67310000  0.20080000  1.0 0.1425294151
H  H4  1  0.32690000  0.79920000  0.35180000  1.0 0.1425294151
H  H5  1  0.79920000  0.35180000  0.32690000  1.0 0.1425294151
H  H6  1  0.35180000  0.32690000  0.79920000  1.0 0.1425294151
C  C1  1  0.35990000  0.74300000  0.18200000  1.0 0.617883185
C  C2  1  0.74300000  0.18200000  0.35990000  1.0 0.617883185
C  C3  1  0.18200000  0.35990000  0.74300000  1.0 0.617883185
C  C4  1  0.64010000  0.25700000  0.81800000  1.0 0.617883185
C  C5  1  0.25700000  0.81800000  0.64010000  1.0 0.617883185
C  C6  1  0.81800000  0.64010000  0.25700000  1.0 0.617883185
C  C7  1  0.15970000  0.61110000  0.07250000  1.0 -0.1611406263
C  C8  1  0.61110000  0.07250000  0.15970000  1.0 -0.1611406263
C  C9  1  0.07250000  0.15970000  0.61110000  1.0 -0.1611406263
C  C10  1  0.84030000  0.38890000  0.92750000  1.0 -0.1611406263
C  C11  1  0.38890000  0.92750000  0.84030000  1.0 -0.1611406263
C  C12  1  0.92750000  0.84030000  0.38890000  1.0 -0.1611406263
C  C13  1  0.96820000  0.43860000  0.86170000  1.0 0.3377819652
C  C14  1  0.43860000  0.86170000  0.96820000  1.0 0.3377819652
C  C15  1  0.86170000  0.96820000  0.43860000  1.0 0.3377819652
C  C16  1  0.03180000  0.56140000  0.13830000  1.0 0.3377819652
C  C17  1  0.56140000  0.13830000  0.03180000  1.0 0.3377819652
C  C18  1  0.13830000  0.03180000  0.56140000  1.0 0.3377819652
C  C19  1  0.79670000  0.31780000  0.78140000  1.0 -0.2278490047
C  C20  1  0.31780000  0.78140000  0.79670000  1.0 -0.2278490047
C  C21  1  0.78140000  0.79670000  0.31780000  1.0 -0.2278490047
C  C22  1  0.20330000  0.68220000  0.21860000  1.0 -0.2278490047
C  C23  1  0.68220000  0.21860000  0.20330000  1.0 -0.2278490047
C  C24  1  0.21860000  0.20330000  0.68220000  1.0 -0.2278490047
O  O1  1  0.34330000  0.69450000  0.07700000  1.0 -0.5685503091
O  O2  1  0.69450000  0.07700000  0.34330000  1.0 -0.5685503091
O  O3  1  0.07700000  0.34330000  0.69450000  1.0 -0.5685503091
O  O4  1  0.65670000  0.30550000  0.92300000  1.0 -0.5685503091
O  O5  1  0.30550000  0.92300000  0.65670000  1.0 -0.5685503091
O  O6  1  0.92300000  0.65670000  0.30550000  1.0 -0.5685503091
O  O7  1  0.52570000  0.90450000  0.37130000  1.0 -0.5298386023
O  O8  1  0.90450000  0.37130000  0.52570000  1.0 -0.5298386023
O  O9  1  0.37130000  0.52570000  0.90450000  1.0 -0.5298386023
O  O10  1  0.47430000  0.09550000  0.62870000  1.0 -0.5298386023
O  O11  1  0.09550000  0.62870000  0.47430000  1.0 -0.5298386023
O  O12  1  0.62870000  0.47430000  0.09550000  1.0 -0.5298386023
O  O13  1  0.91820000  0.35940000  0.72750000  1.0 -0.5518566077
O  O14  1  0.35940000  0.72750000  0.91820000  1.0 -0.5518566077
O  O15  1  0.72750000  0.91820000  0.35940000  1.0 -0.5518566077
O  O16  1  0.08180000  0.64060000  0.27250000  1.0 -0.5518566077
O  O17  1  0.64060000  0.27250000  0.08180000  1.0 -0.5518566077
O  O18  1  0.27250000  0.08180000  0.64060000  1.0 -0.5518566077
