# DDEC6 charges by PACMAN v1.1 (https://github.com/mtap-research/PACMAN-charge/)
data_KOSLAH_FSR_pacman
_symmetry_space_group_name_H-M   'P 1'
_cell_length_a   15.11580000
_cell_length_b   15.11580000
_cell_length_c   15.11580000
_cell_angle_alpha   117.74000000
_cell_angle_beta   117.74000000
_cell_angle_gamma   117.74000000
_symmetry_Int_Tables_number   1
_chemical_formula_structural   CoHC4O3
_chemical_formula_sum   'Co6 H6 C24 O18'
_cell_volume   1330.28049199
_cell_formula_units_Z   6
loop_
 _symmetry_equiv_pos_site_id
 _symmetry_equiv_pos_as_xyz
  1  'x, y, z'
loop_
 _atom_site_type_symbol
 _atom_site_label
 _atom_site_symmetry_multiplicity
 _atom_site_fract_x
 _atom_site_fract_y
 _atom_site_fract_z
 _atom_site_occupancy
 _atom_site_charge
Co  Co1  1  0.10110000  0.51340000  0.78150000  1.0 0.9586818784
Co  Co2  1  0.51340000  0.78150000  0.10110000  1.0 0.9586818784
Co  Co3  1  0.78150000  0.10110000  0.51340000  1.0 0.9586818784
Co  Co4  1  0.89890000  0.48660000  0.21850000  1.0 0.9586818784
Co  Co5  1  0.48660000  0.21850000  0.89890000  1.0 0.9586818784
Co  Co6  1  0.21850000  0.89890000  0.48660000  1.0 0.9586818784
H  H1  1  0.66520000  0.19730000  0.63950000  1.0 0.1494697302
H  H2  1  0.19730000  0.63950000  0.66520000  1.0 0.1494697302
H  H3  1  0.63950000  0.66520000  0.19730000  1.0 0.1494697302
H  H4  1  0.33480000  0.80270000  0.36050000  1.0 0.1494697302
H  H5  1  0.80270000  0.36050000  0.33480000  1.0 0.1494697302
H  H6  1  0.36050000  0.33480000  0.80270000  1.0 0.1494697302
C  C1  1  0.35710000  0.74070000  0.18140000  1.0 0.6311108738
C  C2  1  0.74070000  0.18140000  0.35710000  1.0 0.6311108738
C  C3  1  0.18140000  0.35710000  0.74070000  1.0 0.6311108738
C  C4  1  0.64290000  0.25930000  0.81860000  1.0 0.6311108738
C  C5  1  0.25930000  0.81860000  0.64290000  1.0 0.6311108738
C  C6  1  0.81860000  0.64290000  0.25930000  1.0 0.6311108738
C  C7  1  0.16600000  0.61650000  0.07820000  1.0 -0.1473364537
C  C8  1  0.61650000  0.07820000  0.16600000  1.0 -0.1473364537
C  C9  1  0.07820000  0.16600000  0.61650000  1.0 -0.1473364537
C  C10  1  0.83400000  0.38350000  0.92180000  1.0 -0.1473364537
C  C11  1  0.38350000  0.92180000  0.83400000  1.0 -0.1473364537
C  C12  1  0.92180000  0.83400000  0.38350000  1.0 -0.1473364537
C  C13  1  0.96700000  0.43450000  0.86310000  1.0 0.3297313421
C  C14  1  0.43450000  0.86310000  0.96700000  1.0 0.3297313421
C  C15  1  0.86310000  0.96700000  0.43450000  1.0 0.3297313421
C  C16  1  0.03300000  0.56550000  0.13690000  1.0 0.3297313421
C  C17  1  0.56550000  0.13690000  0.03300000  1.0 0.3297313421
C  C18  1  0.13690000  0.03300000  0.56550000  1.0 0.3297313421
C  C19  1  0.80180000  0.32090000  0.78970000  1.0 -0.2253059775
C  C20  1  0.32090000  0.78970000  0.80180000  1.0 -0.2242350907
C  C21  1  0.78970000  0.80180000  0.32090000  1.0 -0.2242350907
C  C22  1  0.19820000  0.67910000  0.21030000  1.0 -0.2242350907
C  C23  1  0.67910000  0.21030000  0.19820000  1.0 -0.2242350907
C  C24  1  0.21030000  0.19820000  0.67910000  1.0 -0.2242350907
O  O1  1  0.33400000  0.68920000  0.07060000  1.0 -0.5839568606
O  O2  1  0.68920000  0.07060000  0.33400000  1.0 -0.5839568606
O  O3  1  0.07060000  0.33400000  0.68920000  1.0 -0.5839568606
O  O4  1  0.66600000  0.31080000  0.92940000  1.0 -0.5839568606
O  O5  1  0.31080000  0.92940000  0.66600000  1.0 -0.5839568606
O  O6  1  0.92940000  0.66600000  0.31080000  1.0 -0.5839568606
O  O7  1  0.52610000  0.89920000  0.37050000  1.0 -0.5179880987
O  O8  1  0.89920000  0.37050000  0.52610000  1.0 -0.5179880987
O  O9  1  0.37050000  0.52610000  0.89920000  1.0 -0.5179880987
O  O10  1  0.47390000  0.10080000  0.62950000  1.0 -0.5179880987
O  O11  1  0.10080000  0.62950000  0.47390000  1.0 -0.5179880987
O  O12  1  0.62950000  0.47390000  0.10080000  1.0 -0.5179880987
O  O13  1  0.91470000  0.35420000  0.72270000  1.0 -0.5947572321
O  O14  1  0.35420000  0.72270000  0.91470000  1.0 -0.5954071612
O  O15  1  0.72270000  0.91470000  0.35420000  1.0 -0.5954071612
O  O16  1  0.08530000  0.64580000  0.27730000  1.0 -0.5954071612
O  O17  1  0.64580000  0.27730000  0.08530000  1.0 -0.5954071612
O  O18  1  0.27730000  0.08530000  0.64580000  1.0 -0.5954071612
