# DDEC6 charges by PACMAN v1.1 (https://github.com/mtap-research/PACMAN-charge/)
data_KOVGOT01_ASR_pacman
_symmetry_space_group_name_H-M   'P 1'
_cell_length_a   15.74500000
_cell_length_b   26.50600000
_cell_length_c   27.76500000
_cell_angle_alpha   86.97600000
_cell_angle_beta   84.13900000
_cell_angle_gamma   88.30200000
_symmetry_Int_Tables_number   1
_chemical_formula_structural   Zn8Mo24P2H30C54O71
_chemical_formula_sum   'Zn16 Mo48 P4 H60 C108 O142'
_cell_volume   11507.30928300
_cell_formula_units_Z   2
loop_
 _symmetry_equiv_pos_site_id
 _symmetry_equiv_pos_as_xyz
  1  'x, y, z'
loop_
 _atom_site_type_symbol
 _atom_site_label
 _atom_site_symmetry_multiplicity
 _atom_site_fract_x
 _atom_site_fract_y
 _atom_site_fract_z
 _atom_site_occupancy
 _atom_site_charge
Zn  Zn1  1  0.34801000  0.30708000  0.42447000  1.0 1.0193353729
Zn  Zn2  1  0.65199000  0.69292000  0.57553000  1.0 1.0193353729
Zn  Zn3  1  0.27626000  0.48320000  0.28164000  1.0 1.0299058394
Zn  Zn4  1  0.72374000  0.51680000  0.71836000  1.0 1.0299058394
Zn  Zn5  1  0.63792000  0.39760000  0.30764000  1.0 1.0299058394
Zn  Zn6  1  0.36208000  0.60240000  0.69236000  1.0 1.0299058394
Zn  Zn7  1  0.42682000  0.52827000  0.45730000  1.0 0.9808758931
Zn  Zn8  1  0.57318000  0.47173000  0.54270000  1.0 0.9808758931
Zn  Zn9  1  0.60145000  0.00859000  0.02685000  1.0 1.0299058394
Zn  Zn10  1  0.39855000  0.99141000  0.97315000  1.0 1.0299058394
Zn  Zn11  1  0.39870000  0.92914000  0.21539000  1.0 1.0099807815
Zn  Zn12  1  0.60130000  0.07086000  0.78461000  1.0 1.0099807815
Zn  Zn13  1  0.56846000  0.78415000  0.08926000  1.0 0.9913352566
Zn  Zn14  1  0.43154000  0.21585000  0.91074000  1.0 0.9913352566
Zn  Zn15  1  0.78892000  0.92780000  0.18552000  1.0 1.0099807815
Zn  Zn16  1  0.21108000  0.07220000  0.81448000  1.0 1.0099807815
Mo  Mo1  1  0.27964000  0.34571000  0.30857000  1.0 1.8907149868
Mo  Mo2  1  0.72036000  0.65429000  0.69143000  1.0 1.8907149868
Mo  Mo3  1  0.19378000  0.39763000  0.37551000  1.0 1.8491396742
Mo  Mo4  1  0.80622000  0.60237000  0.62449000  1.0 1.8491396742
Mo  Mo5  1  0.56812000  0.32518000  0.41323000  1.0 2.0939766602
Mo  Mo6  1  0.43188000  0.67482000  0.58677000  1.0 2.1013471918
Mo  Mo7  1  0.49997000  0.49369000  0.25169000  1.0 1.8770389394
Mo  Mo8  1  0.50003000  0.50631000  0.74831000  1.0 1.8770389394
Mo  Mo9  1  0.45791000  0.40229000  0.23763000  1.0 1.8642971353
Mo  Mo10  1  0.54209000  0.59771000  0.76237000  1.0 1.8642971353
Mo  Mo11  1  0.28657000  0.42452000  0.48429000  1.0 1.7293460207
Mo  Mo12  1  0.71343000  0.57548000  0.51571000  1.0 1.7293460207
Mo  Mo13  1  0.48519000  0.30223000  0.31728000  1.0 2.0939766602
Mo  Mo14  1  0.51481000  0.69777000  0.68272000  1.0 2.1013471918
Mo  Mo15  1  0.39626000  0.56823000  0.33714000  1.0 2.0705795523
Mo  Mo16  1  0.60374000  0.43177000  0.66286000  1.0 2.0772481994
Mo  Mo17  1  0.23800000  0.51876000  0.40113000  1.0 2.0772481994
Mo  Mo18  1  0.76200000  0.48124000  0.59887000  1.0 2.0772481994
Mo  Mo19  1  0.44314000  0.39391000  0.49541000  1.0 1.536814733
Mo  Mo20  1  0.55686000  0.60609000  0.50459000  1.0 1.536814733
Mo  Mo21  1  0.59383000  0.52060000  0.36019000  1.0 1.8491396742
Mo  Mo22  1  0.40617000  0.47940000  0.63981000  1.0 1.8296414451
Mo  Mo23  1  0.61794000  0.44809000  0.42534000  1.0 1.6491499381
Mo  Mo24  1  0.38206000  0.55191000  0.57466000  1.0 1.6491499381
Mo  Mo25  1  0.78232000  0.83217000  0.10177000  1.0 1.8083755807
Mo  Mo26  1  0.21768000  0.16783000  0.89823000  1.0 1.8042241172
Mo  Mo27  1  0.70088000  0.80119000  0.18394000  1.0 1.7875405984
Mo  Mo28  1  0.29912000  0.19881000  0.81606000  1.0 1.7875405984
Mo  Mo29  1  0.48285000  0.80566000  0.20832000  1.0 2.0705795523
Mo  Mo30  1  0.51715000  0.19434000  0.79168000  1.0 2.0705795523
Mo  Mo31  1  0.79473000  0.95549000  0.06066000  1.0 2.0115659075
Mo  Mo32  1  0.20527000  0.04451000  0.93934000  1.0 2.0115659075
Mo  Mo33  1  0.59415000  0.89132000  0.26346000  1.0 1.8371197419
Mo  Mo34  1  0.40585000  0.10868000  0.73654000  1.0 1.8296414451
Mo  Mo35  1  0.66512000  0.88130000  0.00338000  1.0 1.8296414451
Mo  Mo36  1  0.33488000  0.11870000  0.99662000  1.0 1.8296414451
Mo  Mo37  1  0.39485000  0.97542000  0.09307000  1.0 1.7134635882
Mo  Mo38  1  0.60515000  0.02458000  0.90693000  1.0 1.7134635882
Mo  Mo39  1  0.59870000  0.98700000  0.23736000  1.0 1.8491396742
Mo  Mo40  1  0.40130000  0.01300000  0.76264000  1.0 1.8371197419
Mo  Mo41  1  0.70050000  0.03534000  0.13064000  1.0 2.0639910535
Mo  Mo42  1  0.29950000  0.96466000  0.86936000  1.0 2.0639910535
Mo  Mo43  1  0.48138000  0.03638000  0.13953000  1.0 1.8491396742
Mo  Mo44  1  0.51862000  0.96362000  0.86047000  1.0 1.8491396742
Mo  Mo45  1  0.49807000  0.88668000  0.01624000  1.0 1.566676362
Mo  Mo46  1  0.50193000  0.11332000  0.98376000  1.0 1.566676362
Mo  Mo47  1  0.37888000  0.84825000  0.12205000  1.0 2.0939766602
Mo  Mo48  1  0.62112000  0.15175000  0.87795000  1.0 2.0939766602
P  P1  1  0.42203000  0.42829000  0.36674000  1.0 1.3983346061
P  P2  1  0.57797000  0.57171000  0.63326000  1.0 1.3983346061
P  P3  1  0.59069000  0.91038000  0.13015000  1.0 1.3983346061
P  P4  1  0.40931000  0.08962000  0.86985000  1.0 1.3983346061
H  H1  1  0.00940000  0.06200000  0.40930000  1.0 0.0905326565
H  H2  1  0.99060000  0.93800000  0.59070000  1.0 0.0905326565
H  H3  1  0.83970000  0.97840000  0.48640000  1.0 0.0905326565
H  H4  1  0.16030000  0.02160000  0.51360000  1.0 0.0905326565
H  H5  1  0.93940000  0.09610000  0.54690000  1.0 0.0905326565
H  H6  1  0.06060000  0.90390000  0.45310000  1.0 0.0905326565
H  H7  1  0.96650000  0.17780000  0.51290000  1.0 0.1081028246
H  H8  1  0.03350000  0.82220000  0.48710000  1.0 0.1081028246
H  H9  1  0.05840000  0.24460000  0.50510000  1.0 0.1002577668
H  H10  1  0.94160000  0.75540000  0.49490000  1.0 0.1002577668
H  H11  1  0.23250000  0.16180000  0.42770000  1.0 0.1081028246
H  H12  1  0.76750000  0.83820000  0.57230000  1.0 0.1081028246
H  H13  1  0.14850000  0.09520000  0.43670000  1.0 0.1002577668
H  H14  1  0.85150000  0.90480000  0.56330000  1.0 0.1002577668
H  H15  1  0.88050000  0.92300000  0.43040000  1.0 0.1002577668
H  H16  1  0.11950000  0.07700000  0.56960000  1.0 0.1002577668
H  H17  1  0.85400000  0.88050000  0.36570000  1.0 0.1002577668
H  H18  1  0.14600000  0.11950000  0.63430000  1.0 0.1002577668
H  H19  1  0.91310000  0.00580000  0.27980000  1.0 0.1002577668
H  H20  1  0.08690000  0.99420000  0.72020000  1.0 0.1002577668
H  H21  1  0.94490000  0.04460000  0.34930000  1.0 0.1002577668
H  H22  1  0.05510000  0.95540000  0.65070000  1.0 0.1002577668
H  H23  1  0.73020000  0.98920000  0.55110000  1.0 0.1002577668
H  H24  1  0.26980000  0.01080000  0.44890000  1.0 0.1002577668
H  H25  1  0.64940000  0.98360000  0.62280000  1.0 0.1002577668
H  H26  1  0.35060000  0.01640000  0.37720000  1.0 0.1002577668
H  H27  1  0.83070000  0.04730000  0.68620000  1.0 0.1081028246
H  H28  1  0.16930000  0.95270000  0.31380000  1.0 0.1081028246
H  H29  1  0.91680000  0.05010000  0.61430000  1.0 0.0905326565
H  H30  1  0.08320000  0.94990000  0.38570000  1.0 0.0905326565
H  H31  1  0.94510000  0.62920000  0.92960000  1.0 0.1081028246
H  H32  1  0.05490000  0.37080000  0.07040000  1.0 0.1081028246
H  H33  1  0.92880000  0.59070000  0.07050000  1.0 0.1002577668
H  H34  1  0.07120000  0.40930000  0.92950000  1.0 0.1002577668
H  H35  1  0.13190000  0.54530000  0.98580000  1.0 0.1002577668
H  H36  1  0.86810000  0.45470000  0.01420000  1.0 0.1002577668
H  H37  1  0.11950000  0.50830000  0.90510000  1.0 0.0814228342
H  H38  1  0.88050000  0.49170000  0.09490000  1.0 0.0814228342
H  H39  1  0.19840000  0.50660000  0.82870000  1.0 0.1002577668
H  H40  1  0.80160000  0.49340000  0.17130000  1.0 0.1002577668
H  H41  1  0.16360000  0.65340000  0.80660000  1.0 0.0905326565
H  H42  1  0.83640000  0.34660000  0.19340000  1.0 0.0905326565
H  H43  1  0.08220000  0.65830000  0.88210000  1.0 0.1002577668
H  H44  1  0.91780000  0.34170000  0.11790000  1.0 0.1002577668
H  H45  1  0.78500000  0.60420000  0.95370000  1.0 0.1081028246
H  H46  1  0.21500000  0.39580000  0.04630000  1.0 0.1081028246
H  H47  1  0.65880000  0.64690000  0.95690000  1.0 0.0814228342
H  H48  1  0.34120000  0.35310000  0.04310000  1.0 0.0814228342
H  H49  1  0.71560000  0.70910000  0.07560000  1.0 0.1081028246
H  H50  1  0.28440000  0.29090000  0.92440000  1.0 0.1002577668
H  H51  1  0.84930000  0.67380000  0.07010000  1.0 0.1081028246
H  H52  1  0.15070000  0.32620000  0.92990000  1.0 0.1081028246
H  H53  1  0.02930000  0.59310000  0.12640000  1.0 0.1002577668
H  H54  1  0.97070000  0.40690000  0.87360000  1.0 0.1002577668
H  H55  1  0.09040000  0.55580000  0.19230000  1.0 0.1002577668
H  H56  1  0.90960000  0.44420000  0.80770000  1.0 0.1002577668
H  H57  1  0.20020000  0.44940000  0.11210000  1.0 0.0905326565
H  H58  1  0.79980000  0.55060000  0.88790000  1.0 0.0905326565
H  H59  1  0.13620000  0.48340000  0.04390000  1.0 0.0905326565
H  H60  1  0.86380000  0.51660000  0.95610000  1.0 0.0905326565
C  C1  1  0.98430000  0.08760000  0.47640000  1.0 0.0580718373
C  C2  1  0.01570000  0.91240000  0.52360000  1.0 0.0580718373
C  C3  1  0.97520000  0.05710000  0.43840000  1.0 -0.2221649936
C  C4  1  0.02480000  0.94290000  0.56160000  1.0 -0.2221649936
C  C5  1  0.91540000  0.01900000  0.44310000  1.0 0.0580718373
C  C6  1  0.08460000  0.98100000  0.55690000  1.0 0.0580718373
C  C7  1  0.87260000  0.00710000  0.48410000  1.0 -0.1905578612
C  C8  1  0.12740000  0.99290000  0.51590000  1.0 -0.1905578612
C  C9  1  0.87340000  0.03570000  0.52550000  1.0 0.0580718373
C  C10  1  0.12660000  0.96430000  0.47450000  1.0 0.0580718373
C  C11  1  0.93400000  0.07670000  0.52050000  1.0 -0.2283610268
C  C12  1  0.06600000  0.92330000  0.47950000  1.0 -0.2283610268
C  C13  1  0.04290000  0.13100000  0.47520000  1.0 0.0518576191
C  C14  1  0.95710000  0.86900000  0.52480000  1.0 0.0518576191
C  C15  1  0.02010000  0.17430000  0.49580000  1.0 -0.171492376
C  C16  1  0.97990000  0.82570000  0.50420000  1.0 -0.171492376
C  C17  1  0.07600000  0.21410000  0.49170000  1.0 -0.1089736593
C  C18  1  0.92400000  0.78590000  0.50830000  1.0 -0.1089736593
C  C19  1  0.15440000  0.20970000  0.46900000  1.0 -0.0331523882
C  C20  1  0.84560000  0.79030000  0.53100000  1.0 -0.0331523882
C  C21  1  0.17960000  0.16400000  0.44580000  1.0 -0.1037311216
C  C22  1  0.82040000  0.83600000  0.55420000  1.0 -0.1037311216
C  C23  1  0.12990000  0.12570000  0.44970000  1.0 -0.171492376
C  C24  1  0.87010000  0.87430000  0.55030000  1.0 -0.171492376
C  C25  1  0.21020000  0.25640000  0.46310000  1.0 0.4998493032
C  C26  1  0.78980000  0.74360000  0.53690000  1.0 0.4998493032
C  C27  1  0.91160000  0.98870000  0.39900000  1.0 0.0580718373
C  C28  1  0.08840000  0.01130000  0.60100000  1.0 0.0580718373
C  C29  1  0.88710000  0.94000000  0.40020000  1.0 -0.1905578612
C  C30  1  0.11290000  0.06000000  0.59980000  1.0 -0.1905578612
C  C31  1  0.87150000  0.91380000  0.36170000  1.0 -0.1089736593
C  C32  1  0.12850000  0.08620000  0.63830000  1.0 -0.1089736593
C  C33  1  0.88280000  0.93940000  0.31370000  1.0 -0.0824450194
C  C34  1  0.11720000  0.06060000  0.68630000  1.0 -0.0824450194
C  C35  1  0.90740000  0.98820000  0.30980000  1.0 -0.1089736593
C  C36  1  0.09260000  0.01180000  0.69020000  1.0 -0.1089736593
C  C37  1  0.92430000  0.01190000  0.35240000  1.0 -0.1905578612
C  C38  1  0.07570000  0.98810000  0.64760000  1.0 -0.1905578612
C  C39  1  0.86030000  0.91310000  0.27210000  1.0 0.5200298266
C  C40  1  0.13970000  0.08690000  0.72790000  1.0 0.5200298266
C  C41  1  0.82490000  0.02610000  0.57100000  1.0 0.0416133707
C  C42  1  0.17510000  0.97390000  0.42900000  1.0 0.0416133707
C  C43  1  0.75060000  0.00290000  0.57770000  1.0 -0.171492376
C  C44  1  0.24940000  0.99710000  0.42230000  1.0 -0.171492376
C  C45  1  0.70270000  0.99810000  0.62130000  1.0 -0.1089736593
C  C46  1  0.29730000  0.00190000  0.37870000  1.0 -0.1089736593
C  C47  1  0.73150000  0.01460000  0.66470000  1.0 -0.0549895963
C  C48  1  0.26850000  0.98540000  0.33530000  1.0 -0.0549895963
C  C49  1  0.80990000  0.03520000  0.65900000  1.0 -0.1186815923
C  C50  1  0.19010000  0.96480000  0.34100000  1.0 -0.1186815923
C  C51  1  0.86090000  0.03920000  0.61550000  1.0 -0.171492376
C  C52  1  0.13910000  0.96080000  0.38450000  1.0 -0.171492376
C  C53  1  0.67360000  0.01500000  0.71120000  1.0 0.4895297723
C  C54  1  0.32640000  0.98500000  0.28880000  1.0 0.4895297723
C  C55  1  0.04820000  0.58750000  0.95020000  1.0 0.0701414184
C  C56  1  0.95180000  0.41250000  0.04980000  1.0 0.0701414184
C  C57  1  0.96780000  0.61340000  0.95630000  1.0 -0.2221649936
C  C58  1  0.03220000  0.38660000  0.04370000  1.0 -0.2221649936
C  C59  1  0.92420000  0.61520000  0.00080000  1.0 0.0580718373
C  C60  1  0.07580000  0.38480000  0.99920000  1.0 0.0580718373
C  C61  1  0.95990000  0.59040000  0.04020000  1.0 -0.2221649936
C  C62  1  0.04010000  0.40960000  0.95980000  1.0 -0.2221649936
C  C63  1  0.03610000  0.56640000  0.03690000  1.0 0.0580718373
C  C64  1  0.96390000  0.43360000  0.96310000  1.0 0.0580718373
C  C65  1  0.08050000  0.56360000  0.98980000  1.0 -0.2221649936
C  C66  1  0.91950000  0.43640000  0.01020000  1.0 -0.2221649936
C  C67  1  0.09370000  0.58680000  0.89980000  1.0 0.0416133707
C  C68  1  0.90630000  0.41320000  0.10020000  1.0 0.0416133707
C  C69  1  0.12850000  0.53760000  0.88540000  1.0 -0.1795379026
C  C70  1  0.87150000  0.46240000  0.11460000  1.0 -0.171492376
C  C71  1  0.17640000  0.53720000  0.84000000  1.0 -0.1186815923
C  C72  1  0.82360000  0.46280000  0.16000000  1.0 -0.1186815923
C  C73  1  0.19180000  0.57980000  0.81200000  1.0 -0.037688114
C  C74  1  0.80820000  0.42020000  0.18800000  1.0 -0.037688114
C  C75  1  0.15560000  0.62440000  0.82670000  1.0 -0.1089736593
C  C76  1  0.84440000  0.37560000  0.17330000  1.0 -0.1037311216
C  C77  1  0.10580000  0.62750000  0.87220000  1.0 -0.1596901281
C  C78  1  0.89420000  0.37250000  0.12780000  1.0 -0.1596901281
C  C79  1  0.24450000  0.57580000  0.76180000  1.0 0.4998493032
C  C80  1  0.75550000  0.42420000  0.23820000  1.0 0.4998493032
C  C81  1  0.83390000  0.63640000  0.00640000  1.0 0.0701414184
C  C82  1  0.16610000  0.36360000  0.99360000  1.0 0.0701414184
C  C83  1  0.77240000  0.62730000  0.97770000  1.0 -0.1481577817
C  C84  1  0.22760000  0.37270000  0.02230000  1.0 -0.1481577817
C  C85  1  0.69420000  0.64940000  0.98140000  1.0 -0.1186815923
C  C86  1  0.30580000  0.35060000  0.01860000  1.0 -0.1186815923
C  C87  1  0.66540000  0.67720000  0.02390000  1.0 -0.1186815923
C  C88  1  0.33460000  0.32280000  0.97610000  1.0 -0.1186815923
C  C89  1  0.72930000  0.68660000  0.05130000  1.0 -0.1037311216
C  C90  1  0.27070000  0.31340000  0.94870000  1.0 -0.1037311216
C  C91  1  0.81110000  0.66750000  0.04780000  1.0 -0.1905578612
C  C92  1  0.18890000  0.33250000  0.95220000  1.0 -0.1905578612
C  C93  1  0.57800000  0.69860000  0.02770000  1.0 0.3780481504
C  C94  1  0.42200000  0.30140000  0.97230000  1.0 0.3780481504
C  C95  1  0.07500000  0.54220000  0.07770000  1.0 0.0518576191
C  C96  1  0.92500000  0.45780000  0.92230000  1.0 0.0518576191
C  C97  1  0.06300000  0.56390000  0.12270000  1.0 -0.1795379026
C  C98  1  0.93700000  0.43610000  0.87730000  1.0 -0.1795379026
C  C99  1  0.10110000  0.54200000  0.16210000  1.0 -0.1037311216
C  C100  1  0.89890000  0.45800000  0.83790000  1.0 -0.1037311216
C  C101  1  0.15210000  0.50190000  0.15700000  1.0 -0.037688114
C  C102  1  0.84790000  0.49810000  0.84300000  1.0 -0.0331523882
C  C103  1  0.16570000  0.47850000  0.11440000  1.0 -0.136863844
C  C104  1  0.83430000  0.52150000  0.88560000  1.0 -0.136863844
C  C105  1  0.12700000  0.49890000  0.07340000  1.0 -0.1795379026
C  C106  1  0.87300000  0.50110000  0.92660000  1.0 -0.1795379026
C  C107  1  0.20200000  0.47870000  0.19670000  1.0 0.5200298266
C  C108  1  0.79800000  0.52130000  0.80330000  1.0 0.5200298266
O  O1  1  0.33200000  0.43770000  0.39220000  1.0 -0.8798736775
O  O2  1  0.66800000  0.56230000  0.60780000  1.0 -0.8798736775
O  O3  1  0.45960000  0.47710000  0.34140000  1.0 -0.8798736775
O  O4  1  0.54040000  0.52290000  0.65860000  1.0 -0.8902890086
O  O5  1  0.48070000  0.40790000  0.40610000  1.0 -0.8798736775
O  O6  1  0.51930000  0.59210000  0.59390000  1.0 -0.8798736775
O  O7  1  0.41570000  0.38950000  0.32800000  1.0 -0.8902890086
O  O8  1  0.58430000  0.61050000  0.67200000  1.0 -0.8902890086
O  O9  1  0.63830000  0.45130000  0.35330000  1.0 -0.9286777539
O  O10  1  0.36170000  0.54870000  0.64670000  1.0 -0.9286777539
O  O11  1  0.39160000  0.46140000  0.48620000  1.0 -0.8996516118
O  O12  1  0.60840000  0.53860000  0.51380000  1.0 -0.8996516118
O  O13  1  0.46030000  0.30100000  0.38890000  1.0 -1.0212088986
O  O14  1  0.53970000  0.69900000  0.61110000  1.0 -1.0212088986
O  O15  1  0.35500000  0.54690000  0.40690000  1.0 -1.0212088986
O  O16  1  0.64500000  0.45310000  0.59310000  1.0 -1.0212088986
O  O17  1  0.58280000  0.33890000  0.34060000  1.0 -1.0291127981
O  O18  1  0.41720000  0.66110000  0.65940000  1.0 -1.0291127981
O  O19  1  0.34930000  0.36100000  0.47150000  1.0 -0.8798736775
O  O20  1  0.65070000  0.63900000  0.52850000  1.0 -0.8798736775
O  O21  1  0.29160000  0.52840000  0.33170000  1.0 -1.0291127981
O  O22  1  0.70840000  0.47160000  0.66830000  1.0 -1.0291127981
O  O23  1  0.55660000  0.42840000  0.26240000  1.0 -0.8902890086
O  O24  1  0.44340000  0.57160000  0.73760000  1.0 -0.8902890086
O  O25  1  0.27030000  0.33850000  0.37890000  1.0 -0.8996516118
O  O26  1  0.72970000  0.66150000  0.62110000  1.0 -0.908984754
O  O27  1  0.55730000  0.42820000  0.49040000  1.0 -0.9286777539
O  O28  1  0.44270000  0.57180000  0.50960000  1.0 -0.9286777539
O  O29  1  0.24000000  0.41740000  0.30820000  1.0 -0.9436733587
O  O30  1  0.76000000  0.58260000  0.69180000  1.0 -0.9436733587
O  O31  1  0.64480000  0.37460000  0.41790000  1.0 -0.8580070698
O  O32  1  0.35520000  0.62540000  0.58210000  1.0 -0.8580070698
O  O33  1  0.59750000  0.52100000  0.28420000  1.0 -0.9507351084
O  O34  1  0.40250000  0.47900000  0.71580000  1.0 -0.9507351084
O  O35  1  0.54270000  0.50690000  0.42550000  1.0 -0.8798736775
O  O36  1  0.45730000  0.49310000  0.57450000  1.0 -0.8798736775
O  O37  1  0.33690000  0.36920000  0.24250000  1.0 -0.9599515213
O  O38  1  0.66310000  0.63080000  0.75750000  1.0 -0.9599515213
O  O39  1  0.42850000  0.38020000  0.55540000  1.0 -0.037688114
O  O40  1  0.57150000  0.61980000  0.44460000  1.0 -0.037688114
O  O41  1  0.24000000  0.49260000  0.46270000  1.0 -0.8902890086
O  O42  1  0.76000000  0.50740000  0.53730000  1.0 -0.8902890086
O  O43  1  0.19060000  0.39370000  0.44980000  1.0 -0.9599515213
O  O44  1  0.80940000  0.60630000  0.55020000  1.0 -0.9599515213
O  O45  1  0.50280000  0.57380000  0.35690000  1.0 -0.8902890086
O  O46  1  0.49720000  0.42620000  0.64310000  1.0 -0.8902890086
O  O47  1  0.43130000  0.55380000  0.27510000  1.0 -0.8580070698
O  O48  1  0.56870000  0.44620000  0.72490000  1.0 -0.8580070698
O  O49  1  0.38890000  0.46420000  0.24860000  1.0 -0.908984754
O  O50  1  0.61110000  0.53580000  0.75140000  1.0 -0.908984754
O  O51  1  0.50880000  0.33080000  0.47230000  1.0 -0.8328872486
O  O52  1  0.49120000  0.66920000  0.52770000  1.0 -0.8328872486
O  O53  1  0.17080000  0.47220000  0.37950000  1.0 -0.8798736775
O  O54  1  0.82920000  0.52780000  0.62050000  1.0 -0.8798736775
O  O55  1  0.50960000  0.33590000  0.25710000  1.0 -0.8902890086
O  O56  1  0.49040000  0.66410000  0.74290000  1.0 -0.8902890086
O  O57  1  0.37220000  0.29340000  0.31270000  1.0 -0.8710866972
O  O58  1  0.62780000  0.70660000  0.68730000  1.0 -0.8710866972
O  O59  1  0.28910000  0.24780000  0.44400000  1.0 -0.5666796131
O  O60  1  0.71090000  0.75220000  0.55600000  1.0 -0.5666796131
O  O61  1  0.18060000  0.29610000  0.47670000  1.0 -0.4542707864
O  O62  1  0.81940000  0.70390000  0.52330000  1.0 -0.4542707864
O  O63  1  0.26320000  0.53330000  0.74880000  1.0 -0.4654065831
O  O64  1  0.73680000  0.46670000  0.25120000  1.0 -0.4633898749
O  O65  1  0.26630000  0.61730000  0.74040000  1.0 -0.5297340118
O  O66  1  0.73370000  0.38270000  0.25960000  1.0 -0.5297340118
O  O67  1  0.20250000  0.50820000  0.23370000  1.0 -0.5778034045
O  O68  1  0.79750000  0.49180000  0.76630000  1.0 -0.5778034045
O  O69  1  0.23890000  0.43680000  0.19570000  1.0 -0.4961221083
O  O70  1  0.76110000  0.56320000  0.80430000  1.0 -0.4961221083
O  O71  1  0.66850000  0.89940000  0.09320000  1.0 -0.8902890086
O  O72  1  0.33150000  0.10060000  0.90680000  1.0 -0.8902890086
O  O73  1  0.59200000  0.87120000  0.17300000  1.0 -0.8996516118
O  O74  1  0.40800000  0.12880000  0.82700000  1.0 -0.8902890086
O  O75  1  0.59170000  0.96470000  0.14770000  1.0 -0.8902890086
O  O76  1  0.40830000  0.03530000  0.85230000  1.0 -0.8902890086
O  O77  1  0.50830000  0.90670000  0.10500000  1.0 -0.8902890086
O  O78  1  0.49170000  0.09330000  0.89500000  1.0 -0.8798736775
O  O79  1  0.49690000  0.01410000  0.07320000  1.0 -0.9187084077
O  O80  1  0.50310000  0.98590000  0.92680000  1.0 -0.9187084077
O  O81  1  0.50530000  0.93970000  0.24480000  1.0 -0.9187084077
O  O82  1  0.49470000  0.06030000  0.75520000  1.0 -0.9187084077
O  O83  1  0.41330000  0.94560000  0.02840000  1.0 -0.9599515213
O  O84  1  0.58670000  0.05440000  0.97160000  1.0 -0.9599515213
O  O85  1  0.58610000  0.93910000  0.00800000  1.0 -0.9187084077
O  O86  1  0.41390000  0.06090000  0.99200000  1.0 -0.9187084077
O  O87  1  0.69930000  0.00780000  0.06470000  1.0 -1.0375819131
O  O88  1  0.30070000  0.99220000  0.93530000  1.0 -1.0375819131
O  O89  1  0.50580000  0.83960000  0.26010000  1.0 -0.8580070698
O  O90  1  0.49420000  0.16040000  0.73990000  1.0 -0.8580070698
O  O91  1  0.40100000  0.86280000  0.19080000  1.0 -1.0375819131
O  O92  1  0.59900000  0.13720000  0.80920000  1.0 -1.0375819131
O  O93  1  0.68630000  0.93350000  0.23190000  1.0 -0.908984754
O  O94  1  0.31370000  0.06650000  0.76810000  1.0 -0.908984754
O  O95  1  0.67840000  0.79300000  0.11620000  1.0 -0.9286777539
O  O96  1  0.32160000  0.20700000  0.88380000  1.0 -0.9286777539
O  O97  1  0.68470000  0.02760000  0.19690000  1.0 -0.8710866972
O  O98  1  0.31530000  0.97240000  0.80310000  1.0 -0.8798736775
O  O99  1  0.50710000  0.03470000  0.21130000  1.0 -0.9709905847
O  O100  1  0.49290000  0.96530000  0.78870000  1.0 -0.9709905847
O  O101  1  0.47560000  0.80070000  0.13700000  1.0 -1.0291127981
O  O102  1  0.52440000  0.19930000  0.86300000  1.0 -1.0375819131
O  O103  1  0.33190000  0.91350000  0.11740000  1.0 -0.8902890086
O  O104  1  0.66810000  0.08650000  0.88260000  1.0 -0.8902890086
O  O105  1  0.41290000  0.84400000  0.05790000  1.0 -0.8533893986
O  O106  1  0.58710000  0.15600000  0.94210000  1.0 -0.8533893986
O  O107  1  0.75500000  0.83080000  0.03040000  1.0 -0.9767065211
O  O108  1  0.24500000  0.16920000  0.96960000  1.0 -0.9767065211
O  O109  1  0.84560000  0.89600000  0.08190000  1.0 -0.9187084077
O  O110  1  0.15440000  0.10400000  0.91810000  1.0 -0.9187084077
O  O111  1  0.57990000  0.83530000  0.03480000  1.0 -0.908984754
O  O112  1  0.42010000  0.16470000  0.96520000  1.0 -0.908984754
O  O113  1  0.40750000  0.98070000  0.16130000  1.0 -0.8996516118
O  O114  1  0.59250000  0.01930000  0.83870000  1.0 -0.8996516118
O  O115  1  0.75320000  0.93340000  0.00710000  1.0 -0.8902890086
O  O116  1  0.24680000  0.06660000  0.99290000  1.0 -0.8902890086
O  O117  1  0.77800000  0.85640000  0.16650000  1.0 -0.8996516118
O  O118  1  0.22200000  0.14360000  0.83350000  1.0 -0.8902890086
O  O119  1  0.58740000  0.77260000  0.20130000  1.0 -0.8710866972
O  O120  1  0.41260000  0.22740000  0.79870000  1.0 -0.8710866972
O  O121  1  0.59700000  0.06570000  0.12440000  1.0 -0.8798736775
O  O122  1  0.40300000  0.93430000  0.87560000  1.0 -0.8798736775
O  O123  1  0.78130000  0.97470000  0.12990000  1.0 -1.0291127981
O  O124  1  0.21870000  0.02530000  0.87010000  1.0 -1.0291127981
O  O125  1  0.68030000  0.83440000  0.25260000  1.0 -0.9599515213
O  O126  1  0.31970000  0.16560000  0.74740000  1.0 -0.9599515213
O  O127  1  0.68800000  0.05150000  0.73580000  1.0 -0.5297340118
O  O128  1  0.31200000  0.94850000  0.26420000  1.0 -0.5219595893
O  O129  1  0.62180000  0.98270000  0.72060000  1.0 -0.4633898749
O  O130  1  0.37820000  0.01730000  0.27940000  1.0 -0.4542707864
O  O131  1  0.55200000  0.71950000  0.06750000  1.0 -0.4922096444
O  O132  1  0.44800000  0.28050000  0.93250000  1.0 -0.4922096444
O  O133  1  0.51660000  0.67420000  0.01060000  1.0 -0.0178231786
O  O134  1  0.48340000  0.32580000  0.98940000  1.0 -0.0178231786
O  O135  1  0.82410000  0.87020000  0.27540000  1.0 -0.5135528011
O  O136  1  0.17590000  0.12980000  0.72460000  1.0 -0.5135528011
O  O137  1  0.87210000  0.93800000  0.23030000  1.0 -0.5778034045
O  O138  1  0.12790000  0.06200000  0.76970000  1.0 -0.5778034045
O  O139  1  0.53180000  0.69650000  0.99160000  1.0 -0.1481577817
O  O140  1  0.46820000  0.30350000  0.00840000  1.0 -0.136863844
O  O141  1  0.47300000  0.37670000  0.55140000  1.0 0.0275495113
O  O142  1  0.52700000  0.62330000  0.44860000  1.0 0.0275495113
