# DDEC6 charges by PACMAN v1.1 (https://github.com/mtap-research/PACMAN-charge/)
data_KOZNEU_FSR_pacman
_symmetry_space_group_name_H-M   'P 1'
_cell_length_a   12.43910000
_cell_length_b   20.63180000
_cell_length_c   17.79160000
_cell_angle_alpha   90.00000000
_cell_angle_beta   91.09800000
_cell_angle_gamma   90.00000000
_symmetry_Int_Tables_number   1
_chemical_formula_structural   Zn3H17C31O14
_chemical_formula_sum   'Zn12 H68 C124 O56'
_cell_volume   4565.21602009
_cell_formula_units_Z   4
loop_
 _symmetry_equiv_pos_site_id
 _symmetry_equiv_pos_as_xyz
  1  'x, y, z'
loop_
 _atom_site_type_symbol
 _atom_site_label
 _atom_site_symmetry_multiplicity
 _atom_site_fract_x
 _atom_site_fract_y
 _atom_site_fract_z
 _atom_site_occupancy
 _atom_site_charge
Zn  Zn1  1  0.66666667  0.39098000  0.78000000  1.0 0.9123238701
Zn  Zn2  1  0.33337000  0.89098000  0.72000000  1.0 0.9123238701
Zn  Zn3  1  0.33337000  0.60902000  0.22000000  1.0 0.9123238701
Zn  Zn4  1  0.66666667  0.10902000  0.28000000  1.0 0.9123238701
Zn  Zn5  1  0.94791000  0.37232000  0.77840000  1.0 1.0143338818
Zn  Zn6  1  0.05209000  0.87232000  0.72160000  1.0 1.0165648837
Zn  Zn7  1  0.05209000  0.62768000  0.22160000  1.0 1.0143338818
Zn  Zn8  1  0.94791000  0.12768000  0.27840000  1.0 1.0143338818
Zn  Zn9  1  0.19962000  0.40428000  0.75398000  1.0 0.8933118809
Zn  Zn10  1  0.80038000  0.90428000  0.74602000  1.0 0.8933118809
Zn  Zn11  1  0.80038000  0.59572000  0.24602000  1.0 0.8933118809
Zn  Zn12  1  0.19962000  0.09572000  0.25398000  1.0 0.8933118809
H  H1  1  0.59793000  0.27160000  0.57710000  1.0 0.1295334258
H  H2  1  0.40207000  0.77160000  0.92290000  1.0 0.1295334258
H  H3  1  0.40207000  0.72840000  0.42290000  1.0 0.1295334258
H  H4  1  0.59793000  0.22840000  0.07710000  1.0 0.1295334258
H  H5  1  0.92063000  0.28060000  0.60730000  1.0 0.1295334258
H  H6  1  0.07937000  0.78060000  0.89270000  1.0 0.1295334258
H  H7  1  0.07937000  0.71940000  0.39270000  1.0 0.1295334258
H  H8  1  0.92063000  0.21940000  0.10730000  1.0 0.1295334258
H  H9  1  0.61913000  0.21060000  0.46890000  1.0 0.1295334258
H  H10  1  0.38087000  0.71060000  0.03110000  1.0 0.1295334258
H  H11  1  0.38087000  0.78940000  0.53110000  1.0 0.1295334258
H  H12  1  0.61913000  0.28940000  0.96890000  1.0 0.1295334258
H  H13  1  0.94173000  0.22350000  0.49460000  1.0 0.1295334258
H  H14  1  0.05827000  0.72350000  0.00540000  1.0 0.1295334258
H  H15  1  0.05827000  0.77650000  0.50540000  1.0 0.1295334258
H  H16  1  0.94173000  0.27650000  0.99460000  1.0 0.1295334258
H  H17  1  0.98493000  0.17720000  0.74440000  1.0 0.1177506246
H  H18  1  0.01507000  0.67720000  0.75560000  1.0 0.1177506246
H  H19  1  0.01507000  0.82280000  0.25560000  1.0 0.1177506246
H  H20  1  0.98493000  0.32280000  0.24440000  1.0 0.1177506246
H  H21  1  0.01223000  0.06520000  0.73640000  1.0 0.1177506246
H  H22  1  0.98777000  0.56520000  0.76360000  1.0 0.1177506246
H  H23  1  0.98777000  0.93480000  0.26360000  1.0 0.1177506246
H  H24  1  0.01223000  0.43480000  0.23640000  1.0 0.1177506246
H  H25  1  0.32923000  0.09560000  0.70130000  1.0 0.0895718672
H  H26  1  0.67077000  0.59560000  0.79870000  1.0 0.0895718672
H  H27  1  0.67077000  0.90440000  0.29870000  1.0 0.0895718672
H  H28  1  0.32923000  0.40440000  0.20130000  1.0 0.0837422002
H  H29  1  0.30193000  0.20750000  0.70930000  1.0 0.0837422002
H  H30  1  0.69807000  0.70750000  0.79070000  1.0 0.0837422002
H  H31  1  0.69807000  0.79250000  0.29070000  1.0 0.0837422002
H  H32  1  0.30193000  0.29250000  0.20930000  1.0 0.0837422002
H  H33  1  0.18073000  0.50810000  0.53800000  1.0 0.1295334258
H  H34  1  0.81927000  0.00810000  0.96200000  1.0 0.1295334258
H  H35  1  0.81927000  0.49190000  0.46200000  1.0 0.1295334258
H  H36  1  0.18073000  0.99190000  0.03800000  1.0 0.1295334258
H  H37  1  0.88013000  0.44540000  0.57580000  1.0 0.1295334258
H  H38  1  0.11987000  0.94540000  0.92420000  1.0 0.1295334258
H  H39  1  0.11987000  0.55460000  0.42420000  1.0 0.1295334258
H  H40  1  0.88013000  0.05460000  0.07580000  1.0 0.1295334258
H  H41  1  0.01243000  0.39220000  0.96060000  1.0 0.1295334258
H  H42  1  0.98757000  0.89220000  0.53940000  1.0 0.1295334258
H  H43  1  0.98757000  0.60780000  0.03940000  1.0 0.1295334258
H  H44  1  0.01243000  0.10780000  0.46060000  1.0 0.1295334258
H  H45  1  0.07133000  0.58300000  0.92590000  1.0 0.1177506246
H  H46  1  0.92867000  0.08300000  0.57410000  1.0 0.1177506246
H  H47  1  0.92867000  0.41700000  0.07410000  1.0 0.1177506246
H  H48  1  0.07133000  0.91700000  0.42590000  1.0 0.1177506246
H  H49  1  0.43063000  0.36800000  0.73830000  1.0 0.1295334258
H  H50  1  0.56937000  0.86800000  0.76170000  1.0 0.1295334258
H  H51  1  0.56937000  0.63200000  0.26170000  1.0 0.1295334258
H  H52  1  0.43063000  0.13200000  0.23830000  1.0 0.1295334258
H  H53  1  0.99203000  0.18210000  0.71360000  1.0 0.1177506246
H  H54  1  0.00797000  0.68210000  0.78640000  1.0 0.1177506246
H  H55  1  0.00797000  0.81790000  0.28640000  1.0 0.1177506246
H  H56  1  0.99203000  0.31790000  0.21360000  1.0 0.1177506246
H  H57  1  0.01333000  0.06970000  0.70500000  1.0 0.1136565361
H  H58  1  0.98667000  0.56970000  0.79500000  1.0 0.1136565361
H  H59  1  0.98667000  0.93030000  0.29500000  1.0 0.1136565361
H  H60  1  0.01333000  0.43030000  0.20500000  1.0 0.1136565361
H  H61  1  0.32793000  0.08810000  0.76460000  1.0 0.0895718672
H  H62  1  0.67207000  0.58810000  0.73540000  1.0 0.0895718672
H  H63  1  0.67207000  0.91190000  0.23540000  1.0 0.0895718672
H  H64  1  0.32793000  0.41190000  0.26460000  1.0 0.0895718672
H  H65  1  0.30663000  0.20050000  0.77310000  1.0 0.0895718672
H  H66  1  0.69337000  0.70050000  0.72690000  1.0 0.0895718672
H  H67  1  0.69337000  0.79950000  0.22690000  1.0 0.0895718672
H  H68  1  0.30663000  0.29950000  0.27310000  1.0 0.0895718672
C  C1  1  0.74383000  0.32170000  0.67220000  1.0 0.5822353739
C  C2  1  0.25617000  0.82170000  0.82780000  1.0 0.5822353739
C  C3  1  0.25617000  0.67830000  0.32780000  1.0 0.5822353739
C  C4  1  0.74383000  0.17830000  0.17220000  1.0 0.5822353739
C  C5  1  0.75763000  0.28220000  0.60260000  1.0 -0.0187680089
C  C6  1  0.24237000  0.78220000  0.89740000  1.0 -0.0187680089
C  C7  1  0.24237000  0.71780000  0.39740000  1.0 -0.0187680089
C  C8  1  0.75763000  0.21780000  0.10260000  1.0 -0.0187680089
C  C9  1  0.66813000  0.26120000  0.56080000  1.0 -0.1008172736
C  C10  1  0.33187000  0.76120000  0.93920000  1.0 -0.1008172736
C  C11  1  0.33187000  0.73880000  0.43920000  1.0 -0.1008172736
C  C12  1  0.66813000  0.23880000  0.06080000  1.0 -0.1008172736
C  C13  1  0.85923000  0.26730000  0.57870000  1.0 -0.112034918
C  C14  1  0.14077000  0.76730000  0.92130000  1.0 -0.1008172736
C  C15  1  0.14077000  0.73270000  0.42130000  1.0 -0.1008172736
C  C16  1  0.85923000  0.23270000  0.07870000  1.0 -0.1008172736
C  C17  1  0.18773000  0.99700000  0.72170000  1.0 0.4633120079
C  C18  1  0.81227000  0.49700000  0.77830000  1.0 0.4655367512
C  C19  1  0.81227000  0.00300000  0.27830000  1.0 0.4633120079
C  C20  1  0.18773000  0.50300000  0.22170000  1.0 0.4633120079
C  C21  1  0.79553000  0.17440000  0.39890000  1.0 0.6038245339
C  C22  1  0.20447000  0.67440000  0.10110000  1.0 0.6038245339
C  C23  1  0.20447000  0.82560000  0.60110000  1.0 0.6038245339
C  C24  1  0.79553000  0.32560000  0.89890000  1.0 0.6038245339
C  C25  1  0.78243000  0.21110000  0.47130000  1.0 -0.0187680089
C  C26  1  0.21757000  0.71110000  0.02870000  1.0 -0.0187680089
C  C27  1  0.21757000  0.78890000  0.52870000  1.0 -0.0187680089
C  C28  1  0.78243000  0.28890000  0.97130000  1.0 -0.0187680089
C  C29  1  0.68063000  0.22540000  0.49630000  1.0 -0.1008172736
C  C30  1  0.31937000  0.72540000  0.00370000  1.0 -0.1008172736
C  C31  1  0.31937000  0.77460000  0.50370000  1.0 -0.1008172736
C  C32  1  0.68063000  0.27460000  0.99630000  1.0 -0.1008172736
C  C33  1  0.87163000  0.23260000  0.51210000  1.0 -0.1008172736
C  C34  1  0.12837000  0.73260000  0.98790000  1.0 -0.1008172736
C  C35  1  0.12837000  0.76740000  0.48790000  1.0 -0.1008172736
C  C36  1  0.87163000  0.26740000  0.01210000  1.0 -0.1008172736
C  C37  1  0.12673000  0.27330000  0.74530000  1.0 0.4633120079
C  C38  1  0.87327000  0.77330000  0.75470000  1.0 0.4633120079
C  C39  1  0.87327000  0.72670000  0.25470000  1.0 0.4633120079
C  C40  1  0.12673000  0.22670000  0.24530000  1.0 0.4633120079
C  C41  1  0.14083000  0.20290000  0.72760000  1.0 0.0116867511
C  C42  1  0.85917000  0.70290000  0.77240000  1.0 0.0116867511
C  C43  1  0.85917000  0.79710000  0.27240000  1.0 0.0116867511
C  C44  1  0.14083000  0.29710000  0.22760000  1.0 0.0116867511
C  C45  1  0.05483000  0.16060000  0.73570000  1.0 -0.112034918
C  C46  1  0.94517000  0.66060000  0.76430000  1.0 -0.112034918
C  C47  1  0.94517000  0.83940000  0.26430000  1.0 -0.112034918
C  C48  1  0.05483000  0.33940000  0.23570000  1.0 -0.112034918
C  C49  1  0.07103000  0.09410000  0.73090000  1.0 -0.1205275017
C  C50  1  0.92897000  0.59410000  0.76910000  1.0 -0.1205275017
C  C51  1  0.92897000  0.90590000  0.26910000  1.0 -0.1205275017
C  C52  1  0.07103000  0.40590000  0.23090000  1.0 -0.1205275017
C  C53  1  0.17333000  0.06990000  0.71810000  1.0 0.0260939207
C  C54  1  0.82667000  0.56990000  0.78190000  1.0 0.0260939207
C  C55  1  0.82667000  0.93010000  0.28190000  1.0 0.0260939207
C  C56  1  0.17333000  0.43010000  0.21810000  1.0 0.0260939207
C  C57  1  0.25933000  0.11210000  0.71000000  1.0 -0.0014783567
C  C58  1  0.74067000  0.61210000  0.79000000  1.0 -0.0014783567
C  C59  1  0.74067000  0.88790000  0.29000000  1.0 -0.0014783567
C  C60  1  0.25933000  0.38790000  0.21000000  1.0 -0.0014783567
C  C61  1  0.24313000  0.17860000  0.71480000  1.0 -0.0108608389
C  C62  1  0.75687000  0.67860000  0.78520000  1.0 -0.0108608389
C  C63  1  0.75687000  0.82140000  0.28520000  1.0 -0.0108608389
C  C64  1  0.24313000  0.32140000  0.21480000  1.0 -0.0108608389
C  C65  1  0.07193000  0.44170000  0.63970000  1.0 0.5888834376
C  C66  1  0.92807000  0.94170000  0.86030000  1.0 0.5888834376
C  C67  1  0.92807000  0.55830000  0.36030000  1.0 0.5888834376
C  C68  1  0.07193000  0.05830000  0.13970000  1.0 0.5888834376
C  C69  1  0.03523000  0.47250000  0.56730000  1.0 -0.0108608389
C  C70  1  0.96477000  0.97250000  0.93270000  1.0 -0.0108608389
C  C71  1  0.96477000  0.52750000  0.43270000  1.0 -0.0108608389
C  C72  1  0.03523000  0.02750000  0.06730000  1.0 -0.0108608389
C  C73  1  0.10733000  0.50470000  0.52290000  1.0 -0.1008172736
C  C74  1  0.89267000  0.00470000  0.97710000  1.0 -0.1008172736
C  C75  1  0.89267000  0.49530000  0.47710000  1.0 -0.1008172736
C  C76  1  0.10733000  0.99530000  0.02290000  1.0 -0.1008172736
C  C77  1  0.92933000  0.46770000  0.54490000  1.0 -0.1008172736
C  C78  1  0.07067000  0.96770000  0.95510000  1.0 -0.1008172736
C  C79  1  0.07067000  0.53230000  0.45510000  1.0 -0.1008172736
C  C80  1  0.92933000  0.03230000  0.04490000  1.0 -0.1008172736
C  C81  1  0.10413000  0.46930000  0.86080000  1.0 0.5661259074
C  C82  1  0.89587000  0.96930000  0.63920000  1.0 0.5661259074
C  C83  1  0.89587000  0.53070000  0.13920000  1.0 0.5661259074
C  C84  1  0.10413000  0.03070000  0.36080000  1.0 0.5661259074
C  C85  1  0.04983000  0.48460000  0.93350000  1.0 0.002016436
C  C86  1  0.95017000  0.98460000  0.56650000  1.0 0.002016436
C  C87  1  0.95017000  0.51540000  0.06650000  1.0 0.002016436
C  C88  1  0.04983000  0.01540000  0.43350000  1.0 0.002016436
C  C89  1  0.00753000  0.43600000  0.97670000  1.0 -0.1008172736
C  C90  1  0.99247000  0.93600000  0.52330000  1.0 -0.1008172736
C  C91  1  0.99247000  0.56400000  0.02330000  1.0 -0.1008172736
C  C92  1  0.00753000  0.06400000  0.47670000  1.0 -0.1008172736
C  C93  1  0.04253000  0.54940000  0.95600000  1.0 -0.1008172736
C  C94  1  0.95747000  0.04940000  0.54400000  1.0 -0.1008172736
C  C95  1  0.95747000  0.45060000  0.04400000  1.0 -0.1008172736
C  C96  1  0.04253000  0.95060000  0.45600000  1.0 -0.1008172736
C  C97  1  0.43083000  0.40070000  0.77600000  1.0 0.4871680442
C  C98  1  0.56917000  0.90070000  0.72400000  1.0 0.4871680442
C  C99  1  0.56917000  0.59930000  0.22400000  1.0 0.4871680442
C  C100  1  0.43083000  0.09930000  0.27600000  1.0 0.4871680442
C  C101  1  0.14733000  0.20190000  0.74420000  1.0 0.0213427037
C  C102  1  0.85267000  0.70190000  0.75580000  1.0 0.0213427037
C  C103  1  0.85267000  0.79810000  0.25580000  1.0 0.0213427037
C  C104  1  0.14733000  0.29810000  0.24420000  1.0 0.0213427037
C  C105  1  0.06023000  0.16300000  0.72390000  1.0 -0.1266079839
C  C106  1  0.93977000  0.66300000  0.77610000  1.0 -0.1266079839
C  C107  1  0.93977000  0.83700000  0.27610000  1.0 -0.1266079839
C  C108  1  0.06023000  0.33700000  0.22390000  1.0 -0.1266079839
C  C109  1  0.07283000  0.09620000  0.71880000  1.0 -0.1205275017
C  C110  1  0.92717000  0.59620000  0.78120000  1.0 -0.1205275017
C  C111  1  0.92717000  0.90380000  0.28120000  1.0 -0.1205275017
C  C112  1  0.07283000  0.40380000  0.21880000  1.0 -0.1205275017
C  C113  1  0.17263000  0.06830000  0.73400000  1.0 0.0260939207
C  C114  1  0.82737000  0.56830000  0.76600000  1.0 0.0213427037
C  C115  1  0.82737000  0.93170000  0.26600000  1.0 0.0213427037
C  C116  1  0.17263000  0.43170000  0.23400000  1.0 0.0213427037
C  C117  1  0.25973000  0.10720000  0.75420000  1.0 -0.0108608389
C  C118  1  0.74027000  0.60720000  0.74580000  1.0 -0.0014783567
C  C119  1  0.74027000  0.89280000  0.24580000  1.0 -0.0108608389
C  C120  1  0.25973000  0.39280000  0.25420000  1.0 -0.0108608389
C  C121  1  0.24713000  0.17400000  0.75930000  1.0 0.002016436
C  C122  1  0.75287000  0.67400000  0.74070000  1.0 0.0116867511
C  C123  1  0.75287000  0.82600000  0.24070000  1.0 0.0116867511
C  C124  1  0.24713000  0.32600000  0.25930000  1.0 0.002016436
O  O1  1  0.51783000  0.41450000  0.80530000  1.0 -0.4401584785
O  O2  1  0.48217000  0.91450000  0.69470000  1.0 -0.4401584785
O  O3  1  0.48217000  0.58550000  0.19470000  1.0 -0.4401584785
O  O4  1  0.51783000  0.08550000  0.30530000  1.0 -0.4401584785
O  O5  1  0.64893000  0.33890000  0.68840000  1.0 -0.5585474592
O  O6  1  0.35107000  0.83890000  0.81160000  1.0 -0.5585474592
O  O7  1  0.35107000  0.66110000  0.31160000  1.0 -0.5585474592
O  O8  1  0.64893000  0.16110000  0.18840000  1.0 -0.5585474592
O  O9  1  0.82143000  0.33550000  0.71190000  1.0 -0.529566151
O  O10  1  0.17857000  0.83550000  0.78810000  1.0 -0.529566151
O  O11  1  0.17857000  0.66450000  0.28810000  1.0 -0.529566151
O  O12  1  0.82143000  0.16450000  0.21190000  1.0 -0.529566151
O  O13  1  0.70753000  0.15350000  0.37060000  1.0 -0.5585474592
O  O14  1  0.29247000  0.65350000  0.12940000  1.0 -0.5585474592
O  O15  1  0.29247000  0.84650000  0.62940000  1.0 -0.5585474592
O  O16  1  0.70753000  0.34650000  0.87060000  1.0 -0.5585474592
O  O17  1  0.28283000  0.97730000  0.73510000  1.0 -0.5202842276
O  O18  1  0.71717000  0.47730000  0.76490000  1.0 -0.5202842276
O  O19  1  0.71717000  0.02270000  0.26490000  1.0 -0.5202842276
O  O20  1  0.28283000  0.52270000  0.23510000  1.0 -0.5202842276
O  O21  1  0.11003000  0.96308000  0.70470000  1.0 -0.514354847
O  O22  1  0.88997000  0.46308000  0.79530000  1.0 -0.514354847
O  O23  1  0.88997000  0.03692000  0.29530000  1.0 -0.514354847
O  O24  1  0.11003000  0.53692000  0.20470000  1.0 -0.514354847
O  O25  1  0.88623000  0.16870000  0.37310000  1.0 -0.529566151
O  O26  1  0.11377000  0.66870000  0.12690000  1.0 -0.529566151
O  O27  1  0.11377000  0.83130000  0.62690000  1.0 -0.529566151
O  O28  1  0.88623000  0.33130000  0.87310000  1.0 -0.529566151
O  O29  1  0.03313000  0.29070000  0.76000000  1.0 -0.5202842276
O  O30  1  0.96687000  0.79070000  0.74000000  1.0 -0.5202842276
O  O31  1  0.96687000  0.70930000  0.24000000  1.0 -0.5202842276
O  O32  1  0.03313000  0.20930000  0.26000000  1.0 -0.5202842276
O  O33  1  0.09583000  0.40990000  0.83680000  1.0 -0.589562438
O  O34  1  0.90417000  0.90990000  0.66320000  1.0 -0.589562438
O  O35  1  0.90417000  0.59010000  0.16320000  1.0 -0.589562438
O  O36  1  0.09583000  0.09010000  0.33680000  1.0 -0.589562438
O  O37  1  0.00443000  0.41130000  0.67600000  1.0 -0.5443516295
O  O38  1  0.99557000  0.91130000  0.82400000  1.0 -0.5443516295
O  O39  1  0.99557000  0.58870000  0.32400000  1.0 -0.5443516295
O  O40  1  0.00443000  0.08870000  0.17600000  1.0 -0.5443516295
O  O41  1  0.16923000  0.44800000  0.65910000  1.0 -0.514354847
O  O42  1  0.83077000  0.94800000  0.84090000  1.0 -0.514354847
O  O43  1  0.83077000  0.55200000  0.34090000  1.0 -0.514354847
O  O44  1  0.16923000  0.05200000  0.15910000  1.0 -0.514354847
O  O45  1  0.20733000  0.31000000  0.73740000  1.0 -0.529566151
O  O46  1  0.79267000  0.81000000  0.76260000  1.0 -0.529566151
O  O47  1  0.79267000  0.69000000  0.26260000  1.0 -0.529566151
O  O48  1  0.20733000  0.19000000  0.23740000  1.0 -0.529566151
O  O49  1  0.34453000  0.42520000  0.79080000  1.0 -0.4336238276
O  O50  1  0.65547000  0.92520000  0.70920000  1.0 -0.4336238276
O  O51  1  0.65547000  0.57480000  0.20920000  1.0 -0.4336238276
O  O52  1  0.34453000  0.07480000  0.29080000  1.0 -0.4336238276
O  O53  1  0.15613000  0.51000000  0.82780000  1.0 -0.4973339509
O  O54  1  0.84387000  0.01000000  0.67220000  1.0 -0.4973339509
O  O55  1  0.84387000  0.49000000  0.17220000  1.0 -0.4973339509
O  O56  1  0.15613000  0.99000000  0.32780000  1.0 -0.4973339509
