# DDEC6 charges by PACMAN v1.1 (https://github.com/mtap-research/PACMAN-charge/)
data_KUBRAD_FSR_pacman
_symmetry_space_group_name_H-M   'P 1'
_cell_length_a   7.87170000
_cell_length_b   11.69830000
_cell_length_c   25.51110000
_cell_angle_alpha   90.00000000
_cell_angle_beta   99.35870000
_cell_angle_gamma   90.00000000
_symmetry_Int_Tables_number   1
_chemical_formula_structural   CaH21C20NO6
_chemical_formula_sum   'Ca4 H84 C80 N4 O24'
_cell_volume   2317.93385963
_cell_formula_units_Z   4
loop_
 _symmetry_equiv_pos_site_id
 _symmetry_equiv_pos_as_xyz
  1  'x, y, z'
loop_
 _atom_site_type_symbol
 _atom_site_label
 _atom_site_symmetry_multiplicity
 _atom_site_fract_x
 _atom_site_fract_y
 _atom_site_fract_z
 _atom_site_occupancy
 _atom_site_charge
Ca  Ca1  1  0.75406000  0.47379000  0.00713000  1.0 1.3336206045
Ca  Ca2  1  0.24594000  0.97379000  0.49287000  1.0 1.3336206045
Ca  Ca3  1  0.24594000  0.52621000  0.99287000  1.0 1.3336206045
Ca  Ca4  1  0.75406000  0.02621000  0.50713000  1.0 1.3336206045
H  H1  1  0.72320000  0.81110000  0.88760000  1.0 0.1186245907
H  H2  1  0.62510000  0.90730000  0.80830000  1.0 0.1186245907
H  H3  1  0.28900000  0.61810000  0.86860000  1.0 0.1316351729
H  H4  1  0.87050000  0.73640000  0.77010000  1.0 0.1316351729
H  H5  1  0.97000000  0.69280000  0.82620000  1.0 0.1316351729
H  H6  1  0.98620000  0.82340000  0.80900000  1.0 0.1316351729
H  H7  1  0.22020000  0.57220000  0.73400000  1.0 0.1186245907
H  H8  1  0.11060000  0.53880000  0.77930000  1.0 0.1383497369
H  H9  1  0.01500000  0.58380000  0.72300000  1.0 0.1316351729
H  H10  1  0.45720000  0.98680000  0.71570000  1.0 0.1186245907
H  H11  1  0.27880000  0.01530000  0.63340000  1.0 0.1186245907
H  H12  1  0.94080000  0.78120000  0.67140000  1.0 0.1186245907
H  H13  1  0.45830000  0.34960000  0.90300000  1.0 0.1133233424
H  H14  1  0.77920000  0.15320000  0.92340000  1.0 0.1383497369
H  H15  1  0.64550000  0.05060000  0.90870000  1.0 0.1383497369
H  H16  1  0.74020000  0.10580000  0.86380000  1.0 0.1316351729
H  H17  1  0.35480000  0.25570000  0.82830000  1.0 0.1383497369
H  H18  1  0.49430000  0.18090000  0.80440000  1.0 0.1316351729
H  H19  1  0.36140000  0.12020000  0.83670000  1.0 0.1383497369
H  H20  1  0.86770000  0.29570000  0.08140000  1.0 0.3690459099
H  H21  1  0.92210000  0.25860000  0.03270000  1.0 0.3949793842
H  H22  1  0.27680000  0.31110000  0.61240000  1.0 0.1186245907
H  H23  1  0.37490000  0.40730000  0.69170000  1.0 0.1186245907
H  H24  1  0.71100000  0.11810000  0.63140000  1.0 0.1316351729
H  H25  1  0.12950000  0.23640000  0.72990000  1.0 0.1316351729
H  H26  1  0.03000000  0.19280000  0.67380000  1.0 0.1316351729
H  H27  1  0.01380000  0.32340000  0.69100000  1.0 0.1316351729
H  H28  1  0.77980000  0.07220000  0.76600000  1.0 0.1186245907
H  H29  1  0.88940000  0.03880000  0.72070000  1.0 0.1383497369
H  H30  1  0.98500000  0.08380000  0.77700000  1.0 0.1316351729
H  H31  1  0.54280000  0.48680000  0.78430000  1.0 0.1186245907
H  H32  1  0.72120000  0.51530000  0.86660000  1.0 0.1186245907
H  H33  1  0.05920000  0.28120000  0.82860000  1.0 0.1186245907
H  H34  1  0.54170000  0.84960000  0.59700000  1.0 0.1133233424
H  H35  1  0.22080000  0.65320000  0.57660000  1.0 0.1383497369
H  H36  1  0.35450000  0.55060000  0.59130000  1.0 0.1383497369
H  H37  1  0.25980000  0.60580000  0.63620000  1.0 0.1316351729
H  H38  1  0.64520000  0.75570000  0.67170000  1.0 0.1383497369
H  H39  1  0.50570000  0.68090000  0.69560000  1.0 0.1316351729
H  H40  1  0.63860000  0.62020000  0.66330000  1.0 0.1383497369
H  H41  1  0.13230000  0.79570000  0.41860000  1.0 0.3690459099
H  H42  1  0.07790000  0.75860000  0.46730000  1.0 0.3949793842
H  H43  1  0.27680000  0.18890000  0.11240000  1.0 0.1186245907
H  H44  1  0.37490000  0.09270000  0.19170000  1.0 0.1186245907
H  H45  1  0.71100000  0.38190000  0.13140000  1.0 0.1316351729
H  H46  1  0.12950000  0.26360000  0.22990000  1.0 0.1316351729
H  H47  1  0.03000000  0.30720000  0.17380000  1.0 0.1316351729
H  H48  1  0.01380000  0.17660000  0.19100000  1.0 0.1316351729
H  H49  1  0.77980000  0.42780000  0.26600000  1.0 0.1186245907
H  H50  1  0.88940000  0.46120000  0.22070000  1.0 0.1383497369
H  H51  1  0.98500000  0.41620000  0.27700000  1.0 0.1316351729
H  H52  1  0.54280000  0.01320000  0.28430000  1.0 0.1186245907
H  H53  1  0.72120000  0.98470000  0.36660000  1.0 0.1186245907
H  H54  1  0.05920000  0.21880000  0.32860000  1.0 0.1186245907
H  H55  1  0.54170000  0.65040000  0.09700000  1.0 0.1133233424
H  H56  1  0.22080000  0.84680000  0.07660000  1.0 0.1383497369
H  H57  1  0.35450000  0.94940000  0.09130000  1.0 0.1383497369
H  H58  1  0.25980000  0.89420000  0.13620000  1.0 0.1316351729
H  H59  1  0.64520000  0.74430000  0.17170000  1.0 0.1383497369
H  H60  1  0.50570000  0.81910000  0.19560000  1.0 0.1316351729
H  H61  1  0.63860000  0.87980000  0.16330000  1.0 0.1383497369
H  H62  1  0.13230000  0.70430000  0.91860000  1.0 0.3690459099
H  H63  1  0.07790000  0.74140000  0.96730000  1.0 0.3949793842
H  H64  1  0.72320000  0.68890000  0.38760000  1.0 0.1186245907
H  H65  1  0.62510000  0.59270000  0.30830000  1.0 0.1186245907
H  H66  1  0.28900000  0.88190000  0.36860000  1.0 0.1316351729
H  H67  1  0.87050000  0.76360000  0.27010000  1.0 0.1316351729
H  H68  1  0.97000000  0.80720000  0.32620000  1.0 0.1316351729
H  H69  1  0.98620000  0.67660000  0.30900000  1.0 0.1316351729
H  H70  1  0.22020000  0.92780000  0.23400000  1.0 0.1186245907
H  H71  1  0.11060000  0.96120000  0.27930000  1.0 0.1383497369
H  H72  1  0.01500000  0.91620000  0.22300000  1.0 0.1316351729
H  H73  1  0.45720000  0.51320000  0.21570000  1.0 0.1186245907
H  H74  1  0.27880000  0.48470000  0.13340000  1.0 0.1186245907
H  H75  1  0.94080000  0.71880000  0.17140000  1.0 0.1186245907
H  H76  1  0.45830000  0.15040000  0.40300000  1.0 0.1133233424
H  H77  1  0.77920000  0.34680000  0.42340000  1.0 0.1383497369
H  H78  1  0.64550000  0.44940000  0.40870000  1.0 0.1383497369
H  H79  1  0.74020000  0.39420000  0.36380000  1.0 0.1316351729
H  H80  1  0.35480000  0.24430000  0.32830000  1.0 0.1383497369
H  H81  1  0.49430000  0.31910000  0.30440000  1.0 0.1316351729
H  H82  1  0.36140000  0.37980000  0.33670000  1.0 0.1383497369
H  H83  1  0.86770000  0.20430000  0.58140000  1.0 0.3690459099
H  H84  1  0.92210000  0.24140000  0.53270000  1.0 0.3949793842
C  C1  1  0.58434000  0.64180000  0.93564000  1.0 0.5591017868
C  C2  1  0.51521000  0.70660000  0.88561000  1.0 -0.0203004401
C  C3  1  0.61462000  0.79180000  0.86742000  1.0 -0.1300386299
C  C4  1  0.55757000  0.84870000  0.82047000  1.0 -0.150091264
C  C5  1  0.39928000  0.81830000  0.79118000  1.0 0.01199484
C  C6  1  0.29888000  0.73270000  0.80928000  1.0 0.0170476406
C  C7  1  0.35667000  0.67650000  0.85637000  1.0 -0.1885133792
C  C8  1  0.13263000  0.71420000  0.77053000  1.0 0.1815216657
C  C9  1  0.97555000  0.74430000  0.79625000  1.0 -0.4804775339
C  C10  1  0.11845000  0.59120000  0.74985000  1.0 -0.4804775339
C  C11  1  0.15546000  0.79930000  0.72706000  1.0 0.0170476406
C  C12  1  0.30893000  0.86030000  0.74003000  1.0 0.01199484
C  C13  1  0.35510000  0.94320000  0.70620000  1.0 -0.1644442935
C  C14  1  0.24710000  0.96090000  0.65770000  1.0 -0.1300386299
C  C15  1  0.09571000  0.90070000  0.64451000  1.0 -0.0254822063
C  C16  1  0.04716000  0.82070000  0.67976000  1.0 -0.1687109355
C  C17  1  0.97973000  0.92370000  0.59263000  1.0 0.5723207857
C  C18  1  0.54530000  0.29430000  0.91400000  1.0 0.3168880906
C  C19  1  0.69030000  0.12160000  0.89580000  1.0 -0.3291154835
C  C20  1  0.43060000  0.18900000  0.83410000  1.0 -0.3507580269
C  C21  1  0.41566000  0.14180000  0.56436000  1.0 0.5591017868
C  C22  1  0.48479000  0.20660000  0.61439000  1.0 -0.0203004401
C  C23  1  0.38538000  0.29180000  0.63258000  1.0 -0.1300386299
C  C24  1  0.44243000  0.34870000  0.67953000  1.0 -0.150091264
C  C25  1  0.60072000  0.31830000  0.70882000  1.0 0.01199484
C  C26  1  0.70112000  0.23270000  0.69072000  1.0 0.0170476406
C  C27  1  0.64333000  0.17650000  0.64363000  1.0 -0.1885133792
C  C28  1  0.86737000  0.21420000  0.72947000  1.0 0.1815216657
C  C29  1  0.02445000  0.24430000  0.70375000  1.0 -0.4804775339
C  C30  1  0.88155000  0.09120000  0.75015000  1.0 -0.4804775339
C  C31  1  0.84454000  0.29930000  0.77294000  1.0 0.01199484
C  C32  1  0.69107000  0.36030000  0.75997000  1.0 0.01199484
C  C33  1  0.64490000  0.44320000  0.79380000  1.0 -0.1644442935
C  C34  1  0.75290000  0.46090000  0.84230000  1.0 -0.1300386299
C  C35  1  0.90429000  0.40070000  0.85549000  1.0 -0.0254822063
C  C36  1  0.95284000  0.32070000  0.82024000  1.0 -0.1687109355
C  C37  1  0.02027000  0.42370000  0.90737000  1.0 0.5723207857
C  C38  1  0.45470000  0.79430000  0.58600000  1.0 0.3168880906
C  C39  1  0.30970000  0.62160000  0.60420000  1.0 -0.3291154835
C  C40  1  0.56940000  0.68900000  0.66590000  1.0 -0.3507580269
C  C41  1  0.41566000  0.35820000  0.06436000  1.0 0.5591017868
C  C42  1  0.48479000  0.29340000  0.11439000  1.0 -0.0203004401
C  C43  1  0.38538000  0.20820000  0.13258000  1.0 -0.1300386299
C  C44  1  0.44243000  0.15130000  0.17953000  1.0 -0.150091264
C  C45  1  0.60072000  0.18170000  0.20882000  1.0 0.01199484
C  C46  1  0.70112000  0.26730000  0.19072000  1.0 0.0170476406
C  C47  1  0.64333000  0.32350000  0.14363000  1.0 -0.1885133792
C  C48  1  0.86737000  0.28580000  0.22947000  1.0 0.1815216657
C  C49  1  0.02445000  0.25570000  0.20375000  1.0 -0.4804775339
C  C50  1  0.88155000  0.40880000  0.25015000  1.0 -0.4804775339
C  C51  1  0.84454000  0.20070000  0.27294000  1.0 0.0170476406
C  C52  1  0.69107000  0.13970000  0.25997000  1.0 0.01199484
C  C53  1  0.64490000  0.05680000  0.29380000  1.0 -0.1644442935
C  C54  1  0.75290000  0.03910000  0.34230000  1.0 -0.1300386299
C  C55  1  0.90429000  0.09930000  0.35549000  1.0 -0.0254822063
C  C56  1  0.95284000  0.17930000  0.32024000  1.0 -0.1687109355
C  C57  1  0.02027000  0.07630000  0.40737000  1.0 0.5723207857
C  C58  1  0.45470000  0.70570000  0.08600000  1.0 0.3168880906
C  C59  1  0.30970000  0.87840000  0.10420000  1.0 -0.3291154835
C  C60  1  0.56940000  0.81100000  0.16590000  1.0 -0.3507580269
C  C61  1  0.58434000  0.85820000  0.43564000  1.0 0.5591017868
C  C62  1  0.51521000  0.79340000  0.38561000  1.0 -0.0203004401
C  C63  1  0.61462000  0.70820000  0.36742000  1.0 -0.1300386299
C  C64  1  0.55757000  0.65130000  0.32047000  1.0 -0.150091264
C  C65  1  0.39928000  0.68170000  0.29118000  1.0 0.01199484
C  C66  1  0.29888000  0.76730000  0.30928000  1.0 0.0170476406
C  C67  1  0.35667000  0.82350000  0.35637000  1.0 -0.1885133792
C  C68  1  0.13263000  0.78580000  0.27053000  1.0 0.1815216657
C  C69  1  0.97555000  0.75570000  0.29625000  1.0 -0.4804775339
C  C70  1  0.11845000  0.90880000  0.24985000  1.0 -0.4804775339
C  C71  1  0.15546000  0.70070000  0.22706000  1.0 0.0170476406
C  C72  1  0.30893000  0.63970000  0.24003000  1.0 0.01199484
C  C73  1  0.35510000  0.55680000  0.20620000  1.0 -0.1644442935
C  C74  1  0.24710000  0.53910000  0.15770000  1.0 -0.1300386299
C  C75  1  0.09571000  0.59930000  0.14451000  1.0 -0.0254822063
C  C76  1  0.04716000  0.67930000  0.17976000  1.0 -0.1687109355
C  C77  1  0.97973000  0.57630000  0.09263000  1.0 0.5723207857
C  C78  1  0.54530000  0.20570000  0.41400000  1.0 0.3168880906
C  C79  1  0.69030000  0.37840000  0.39580000  1.0 -0.3291154835
C  C80  1  0.43060000  0.31100000  0.33410000  1.0 -0.3507580269
N  N1  1  0.54997000  0.20380000  0.88307000  1.0 0.0297023062
N  N2  1  0.45003000  0.70380000  0.61693000  1.0 0.0297023062
N  N3  1  0.45003000  0.79620000  0.11693000  1.0 0.0297023062
N  N4  1  0.54997000  0.29620000  0.38307000  1.0 0.0297023062
O  O1  1  0.49100000  0.56734000  0.95180000  1.0 -0.65400717
O  O2  1  0.73494000  0.65962000  0.95824000  1.0 -0.5600510571
O  O3  1  0.82153000  0.91450000  0.59053000  1.0 -0.6031376902
O  O4  1  0.04658000  0.95554000  0.55348000  1.0 -0.6358870748
O  O5  1  0.91749000  0.31810000  0.05419000  1.0 -0.7195959423
O  O6  1  0.64096000  0.31270000  0.95466000  1.0 -0.461140785
O  O7  1  0.50900000  0.06734000  0.54820000  1.0 -0.65400717
O  O8  1  0.26506000  0.15962000  0.54176000  1.0 -0.5600510571
O  O9  1  0.17847000  0.41450000  0.90947000  1.0 -0.6031376902
O  O10  1  0.95342000  0.45554000  0.94652000  1.0 -0.6358870748
O  O11  1  0.08251000  0.81810000  0.44581000  1.0 -0.7195959423
O  O12  1  0.35904000  0.81270000  0.54534000  1.0 -0.461140785
O  O13  1  0.50900000  0.43266000  0.04820000  1.0 -0.65400717
O  O14  1  0.26506000  0.34038000  0.04176000  1.0 -0.5600510571
O  O15  1  0.17847000  0.08550000  0.40947000  1.0 -0.6031376902
O  O16  1  0.95342000  0.04446000  0.44652000  1.0 -0.6358870748
O  O17  1  0.08251000  0.68190000  0.94581000  1.0 -0.7195959423
O  O18  1  0.35904000  0.68730000  0.04534000  1.0 -0.461140785
O  O19  1  0.49100000  0.93266000  0.45180000  1.0 -0.65400717
O  O20  1  0.73494000  0.84038000  0.45824000  1.0 -0.5600510571
O  O21  1  0.82153000  0.58550000  0.09053000  1.0 -0.6031376902
O  O22  1  0.04658000  0.54446000  0.05348000  1.0 -0.6358870748
O  O23  1  0.91749000  0.18190000  0.55419000  1.0 -0.7195959423
O  O24  1  0.64096000  0.18730000  0.45466000  1.0 -0.461140785
