# DDEC6 charges by PACMAN v1.1 (https://github.com/mtap-research/PACMAN-charge/)
data_KUDYIU_ASR_pacman
_symmetry_space_group_name_H-M   'P 1'
_cell_length_a   16.96400000
_cell_length_b   16.96400000
_cell_length_c   16.96400000
_cell_angle_alpha   121.15500000
_cell_angle_beta   121.15500000
_cell_angle_gamma   88.01120000
_symmetry_Int_Tables_number   1
_chemical_formula_structural   Zr3H40C54(SO3)8
_chemical_formula_sum   'Zr6 H80 C108 S16 O48'
_cell_volume   3389.50009413
_cell_formula_units_Z   2
loop_
 _symmetry_equiv_pos_site_id
 _symmetry_equiv_pos_as_xyz
  1  'x, y, z'
loop_
 _atom_site_type_symbol
 _atom_site_label
 _atom_site_symmetry_multiplicity
 _atom_site_fract_x
 _atom_site_fract_y
 _atom_site_fract_z
 _atom_site_occupancy
 _atom_site_charge
Zr  Zr1  1  0.39881000  0.39881000  0.00000000  1.0 1.9099392157
Zr  Zr2  1  0.60119000  0.60119000  0.00000000  1.0 1.9099392157
Zr  Zr3  1  0.60587000  0.39419000  0.00000000  1.0 1.9188464146
Zr  Zr4  1  0.39419000  0.60587000  0.00000000  1.0 1.9188464146
Zr  Zr5  1  0.60581000  0.60581000  0.21168000  1.0 1.9188464146
Zr  Zr6  1  0.39413000  0.39413000  0.78832000  1.0 1.9188464146
H  H1  1  0.34230000  0.89650000  0.81800000  1.0 0.0924658836
H  H2  1  0.35980000  0.77030000  0.83770000  1.0 0.0988090254
H  H3  1  0.80030000  0.96780000  0.31950000  1.0 0.0924658836
H  H4  1  0.76610000  0.88820000  0.19490000  1.0 0.0924658836
H  H5  1  0.80080000  0.99860000  0.24700000  1.0 0.0988090254
H  H6  1  0.69380000  0.12920000  0.22260000  1.0 0.1091150178
H  H7  1  0.65500000  0.25080000  0.18300000  1.0 0.1091150178
H  H8  1  0.18440000  0.05410000  0.75710000  1.0 0.0988090254
H  H9  1  0.22390000  0.02380000  0.84030000  1.0 0.1091150178
H  H10  1  0.25800000  0.13290000  0.88810000  1.0 0.1091150178
H  H11  1  0.07850000  0.52430000  0.18200000  1.0 0.0924658836
H  H12  1  0.93260000  0.52210000  0.16230000  1.0 0.0988090254
H  H13  1  0.64830000  0.48080000  0.68050000  1.0 0.0924658836
H  H14  1  0.69330000  0.57120000  0.80510000  1.0 0.0924658836
H  H15  1  0.75160000  0.55380000  0.75300000  1.0 0.0988090254
H  H16  1  0.90660000  0.47120000  0.77740000  1.0 0.1091150178
H  H17  1  0.06780000  0.47200000  0.81700000  1.0 0.1091150178
H  H18  1  0.29700000  0.42730000  0.24290000  1.0 0.0988090254
H  H19  1  0.18350000  0.38360000  0.15970000  1.0 0.1091150178
H  H20  1  0.24480000  0.36990000  0.11190000  1.0 0.1091150178
H  H21  1  0.10350000  0.92150000  0.44580000  1.0 0.0924658836
H  H22  1  0.22970000  0.06740000  0.58950000  1.0 0.0988090254
H  H23  1  0.03220000  0.35170000  0.83250000  1.0 0.0924658836
H  H24  1  0.11180000  0.30670000  0.87790000  1.0 0.0924658836
H  H25  1  0.00140000  0.24840000  0.80220000  1.0 0.0988090254
H  H26  1  0.87080000  0.09340000  0.56460000  1.0 0.1091150178
H  H27  1  0.74920000  0.93220000  0.40420000  1.0 0.1091150178
H  H28  1  0.94590000  0.70300000  0.13030000  1.0 0.0988090254
H  H29  1  0.97620000  0.81650000  0.20010000  1.0 0.1091150178
H  H30  1  0.86710000  0.75520000  0.12510000  1.0 0.1091150178
H  H31  1  0.47570000  0.65770000  0.55420000  1.0 0.0924658836
H  H32  1  0.47790000  0.64020000  0.41050000  1.0 0.0988090254
H  H33  1  0.51920000  0.19970000  0.16750000  1.0 0.0924658836
H  H34  1  0.42880000  0.23390000  0.12210000  1.0 0.0924658836
H  H35  1  0.44620000  0.19920000  0.19780000  1.0 0.0988090254
H  H36  1  0.52880000  0.30620000  0.43540000  1.0 0.1091150178
H  H37  1  0.52800000  0.34500000  0.59580000  1.0 0.1091150178
H  H38  1  0.57270000  0.81560000  0.86970000  1.0 0.0988090254
H  H39  1  0.61640000  0.77610000  0.79990000  1.0 0.1091150178
H  H40  1  0.63010000  0.74200000  0.87490000  1.0 0.1091150178
H  H41  1  0.92150000  0.10350000  0.44580000  1.0 0.0924658836
H  H42  1  0.06740000  0.22970000  0.58950000  1.0 0.0988090254
H  H43  1  0.35170000  0.03220000  0.83250000  1.0 0.0924658836
H  H44  1  0.30670000  0.11180000  0.87790000  1.0 0.0924658836
H  H45  1  0.24840000  0.00140000  0.80220000  1.0 0.0988090254
H  H46  1  0.09340000  0.87080000  0.56460000  1.0 0.1091150178
H  H47  1  0.93220000  0.74920000  0.40420000  1.0 0.1091150178
H  H48  1  0.70300000  0.94590000  0.13030000  1.0 0.0988090254
H  H49  1  0.81650000  0.97620000  0.20010000  1.0 0.1091150178
H  H50  1  0.75520000  0.86710000  0.12510000  1.0 0.1091150178
H  H51  1  0.65770000  0.47570000  0.55420000  1.0 0.0924658836
H  H52  1  0.64020000  0.47790000  0.41050000  1.0 0.0988090254
H  H53  1  0.19970000  0.51920000  0.16750000  1.0 0.0924658836
H  H54  1  0.23390000  0.42880000  0.12210000  1.0 0.0924658836
H  H55  1  0.19920000  0.44620000  0.19780000  1.0 0.0988090254
H  H56  1  0.30620000  0.52880000  0.43540000  1.0 0.1091150178
H  H57  1  0.34500000  0.52800000  0.59580000  1.0 0.1091150178
H  H58  1  0.81560000  0.57270000  0.86970000  1.0 0.0988090254
H  H59  1  0.77610000  0.61640000  0.79990000  1.0 0.1091150178
H  H60  1  0.74200000  0.63010000  0.87490000  1.0 0.1091150178
H  H61  1  0.52430000  0.07850000  0.18200000  1.0 0.0924658836
H  H62  1  0.52210000  0.93260000  0.16230000  1.0 0.0988090254
H  H63  1  0.48080000  0.64830000  0.68050000  1.0 0.0924658836
H  H64  1  0.57120000  0.69330000  0.80510000  1.0 0.0924658836
H  H65  1  0.55380000  0.75160000  0.75300000  1.0 0.0988090254
H  H66  1  0.47120000  0.90660000  0.77740000  1.0 0.1091150178
H  H67  1  0.47200000  0.06780000  0.81700000  1.0 0.1091150178
H  H68  1  0.42730000  0.29700000  0.24290000  1.0 0.0988090254
H  H69  1  0.38360000  0.18350000  0.15970000  1.0 0.1091150178
H  H70  1  0.36990000  0.24480000  0.11190000  1.0 0.1091150178
H  H71  1  0.89650000  0.34230000  0.81800000  1.0 0.0924658836
H  H72  1  0.77030000  0.35980000  0.83770000  1.0 0.0988090254
H  H73  1  0.96780000  0.80030000  0.31950000  1.0 0.0924658836
H  H74  1  0.88820000  0.76610000  0.19490000  1.0 0.0924658836
H  H75  1  0.99860000  0.80080000  0.24700000  1.0 0.0988090254
H  H76  1  0.12920000  0.69380000  0.22260000  1.0 0.1091150178
H  H77  1  0.25080000  0.65500000  0.18300000  1.0 0.1091150178
H  H78  1  0.05410000  0.18440000  0.75710000  1.0 0.0988090254
H  H79  1  0.02380000  0.22390000  0.84030000  1.0 0.1091150178
H  H80  1  0.13290000  0.25800000  0.88810000  1.0 0.1091150178
C  C1  1  0.49310000  0.84310000  0.98720000  1.0 -0.0584635709
C  C2  1  0.56670000  0.93190000  0.06960000  1.0 0.0293245271
C  C3  1  0.55620000  0.00760000  0.05780000  1.0 0.0127193571
C  C4  1  0.47220000  0.99440000  0.96360000  1.0 0.0293245271
C  C5  1  0.39860000  0.90550000  0.88110000  1.0 -0.2014307294
C  C6  1  0.40900000  0.82980000  0.89280000  1.0 -0.0217302191
C  C7  1  0.76730000  0.95240000  0.24490000  1.0 -0.151617213
C  C8  1  0.63700000  0.11430000  0.15590000  1.0 -0.2767792035
C  C9  1  0.61130000  0.18810000  0.12840000  1.0 -0.0925139606
C  C10  1  0.52170000  0.16960000  0.02110000  1.0 -0.0217302191
C  C11  1  0.44670000  0.06530000  0.92500000  1.0 -0.0217302191
C  C12  1  0.23980000  0.06690000  0.82650000  1.0 -0.2364478845
C  C13  1  0.50440000  0.23980000  0.00260000  1.0 0.4860408355
C  C14  1  0.85590000  0.50590000  0.01280000  1.0 -0.0584635709
C  C15  1  0.86230000  0.49710000  0.93040000  1.0 0.0293245271
C  C16  1  0.94980000  0.49840000  0.94220000  1.0 0.0127193571
C  C17  1  0.03080000  0.50860000  0.03640000  1.0 0.0293245271
C  C18  1  0.02440000  0.51750000  0.11890000  1.0 -0.2014307294
C  C19  1  0.93700000  0.51620000  0.10720000  1.0 -0.0217302191
C  C20  1  0.70750000  0.52240000  0.75510000  1.0 -0.151617213
C  C21  1  0.95840000  0.48110000  0.84410000  1.0 -0.2767792035
C  C22  1  0.05970000  0.48290000  0.87160000  1.0 -0.0925139606
C  C23  1  0.14850000  0.50060000  0.97890000  1.0 -0.0217302191
C  C24  1  0.14030000  0.52170000  0.07500000  1.0 -0.0217302191
C  C25  1  0.24040000  0.41330000  0.17350000  1.0 -0.2364478845
C  C26  1  0.23720000  0.50180000  0.99740000  1.0 0.4860408355
C  C27  1  0.15690000  0.14410000  0.65000000  1.0 -0.0584635709
C  C28  1  0.06810000  0.13770000  0.63480000  1.0 0.0293245271
C  C29  1  0.99240000  0.05020000  0.54860000  1.0 0.0127193571
C  C30  1  0.00560000  0.96920000  0.47780000  1.0 0.0293245271
C  C31  1  0.09450000  0.97560000  0.49310000  1.0 -0.2014307294
C  C32  1  0.17020000  0.06300000  0.57920000  1.0 -0.0217302191
C  C33  1  0.04760000  0.29250000  0.81490000  1.0 -0.151617213
C  C34  1  0.88570000  0.04160000  0.52270000  1.0 -0.2767792035
C  C35  1  0.81190000  0.94030000  0.42320000  1.0 -0.0925139606
C  C36  1  0.83040000  0.85150000  0.35210000  1.0 -0.0217302191
C  C37  1  0.93470000  0.85970000  0.38140000  1.0 -0.0217302191
C  C38  1  0.93310000  0.75960000  0.17290000  1.0 -0.2364478845
C  C39  1  0.76020000  0.76280000  0.26460000  1.0 0.4860408355
C  C40  1  0.49410000  0.50690000  0.35000000  1.0 -0.0584635709
C  C41  1  0.50290000  0.43330000  0.36520000  1.0 0.0293245271
C  C42  1  0.50160000  0.44380000  0.45140000  1.0 0.0127193571
C  C43  1  0.49140000  0.52780000  0.52220000  1.0 0.0293245271
C  C44  1  0.48250000  0.60140000  0.50690000  1.0 -0.2014307294
C  C45  1  0.48380000  0.59100000  0.42080000  1.0 -0.0217302191
C  C46  1  0.47760000  0.23270000  0.18510000  1.0 -0.151617213
C  C47  1  0.51890000  0.36300000  0.47730000  1.0 -0.2767792035
C  C48  1  0.51710000  0.38870000  0.57680000  1.0 -0.0925139606
C  C49  1  0.49940000  0.47830000  0.64790000  1.0 -0.0217302191
C  C50  1  0.47830000  0.55330000  0.61860000  1.0 -0.0217302191
C  C51  1  0.58670000  0.76020000  0.82710000  1.0 -0.2364478845
C  C52  1  0.49820000  0.49560000  0.73540000  1.0 0.4860408355
C  C53  1  0.14410000  0.15690000  0.65000000  1.0 -0.0584635709
C  C54  1  0.13770000  0.06810000  0.63480000  1.0 0.0293245271
C  C55  1  0.05020000  0.99240000  0.54860000  1.0 0.0127193571
C  C56  1  0.96920000  0.00560000  0.47780000  1.0 0.0293245271
C  C57  1  0.97560000  0.09450000  0.49310000  1.0 -0.2014307294
C  C58  1  0.06300000  0.17020000  0.57920000  1.0 -0.0217302191
C  C59  1  0.29250000  0.04760000  0.81490000  1.0 -0.151617213
C  C60  1  0.04160000  0.88570000  0.52270000  1.0 -0.2767792035
C  C61  1  0.94030000  0.81190000  0.42320000  1.0 -0.0925139606
C  C62  1  0.85150000  0.83040000  0.35210000  1.0 -0.0217302191
C  C63  1  0.85970000  0.93470000  0.38140000  1.0 -0.0217302191
C  C64  1  0.75960000  0.93310000  0.17290000  1.0 -0.2364478845
C  C65  1  0.76280000  0.76020000  0.26460000  1.0 0.4860408355
C  C66  1  0.50690000  0.49410000  0.35000000  1.0 -0.0584635709
C  C67  1  0.43330000  0.50290000  0.36520000  1.0 0.0293245271
C  C68  1  0.44380000  0.50160000  0.45140000  1.0 0.0127193571
C  C69  1  0.52780000  0.49140000  0.52220000  1.0 0.0293245271
C  C70  1  0.60140000  0.48250000  0.50690000  1.0 -0.2014307294
C  C71  1  0.59100000  0.48380000  0.42080000  1.0 -0.0217302191
C  C72  1  0.23270000  0.47760000  0.18510000  1.0 -0.151617213
C  C73  1  0.36300000  0.51890000  0.47730000  1.0 -0.2767792035
C  C74  1  0.38870000  0.51710000  0.57680000  1.0 -0.0925139606
C  C75  1  0.47830000  0.49940000  0.64790000  1.0 -0.0217302191
C  C76  1  0.55330000  0.47830000  0.61860000  1.0 -0.0217302191
C  C77  1  0.76020000  0.58670000  0.82710000  1.0 -0.2364478845
C  C78  1  0.49560000  0.49820000  0.73540000  1.0 0.4860408355
C  C79  1  0.50590000  0.85590000  0.01280000  1.0 -0.0584635709
C  C80  1  0.49710000  0.86230000  0.93040000  1.0 0.0293245271
C  C81  1  0.49840000  0.94980000  0.94220000  1.0 0.0127193571
C  C82  1  0.50860000  0.03080000  0.03640000  1.0 0.0293245271
C  C83  1  0.51750000  0.02440000  0.11890000  1.0 -0.2014307294
C  C84  1  0.51620000  0.93700000  0.10720000  1.0 -0.0217302191
C  C85  1  0.52240000  0.70750000  0.75510000  1.0 -0.151617213
C  C86  1  0.48110000  0.95840000  0.84410000  1.0 -0.2767792035
C  C87  1  0.48290000  0.05970000  0.87160000  1.0 -0.0925139606
C  C88  1  0.50060000  0.14850000  0.97890000  1.0 -0.0217302191
C  C89  1  0.52170000  0.14030000  0.07500000  1.0 -0.0217302191
C  C90  1  0.41330000  0.24040000  0.17350000  1.0 -0.2364478845
C  C91  1  0.50180000  0.23720000  0.99740000  1.0 0.4860408355
C  C92  1  0.84310000  0.49310000  0.98720000  1.0 -0.0584635709
C  C93  1  0.93190000  0.56670000  0.06960000  1.0 0.0293245271
C  C94  1  0.00760000  0.55620000  0.05780000  1.0 0.0127193571
C  C95  1  0.99440000  0.47220000  0.96360000  1.0 0.0293245271
C  C96  1  0.90550000  0.39860000  0.88110000  1.0 -0.2014307294
C  C97  1  0.82980000  0.40900000  0.89280000  1.0 -0.0217302191
C  C98  1  0.95240000  0.76730000  0.24490000  1.0 -0.151617213
C  C99  1  0.11430000  0.63700000  0.15590000  1.0 -0.2767792035
C  C100  1  0.18810000  0.61130000  0.12840000  1.0 -0.0925139606
C  C101  1  0.16960000  0.52170000  0.02110000  1.0 -0.0217302191
C  C102  1  0.06530000  0.44670000  0.92500000  1.0 -0.0217302191
C  C103  1  0.06690000  0.23980000  0.82650000  1.0 -0.2364478845
C  C104  1  0.23980000  0.50440000  0.00260000  1.0 0.4860408355
C  C105  1  0.50510000  0.76390000  0.00000000  1.0 0.4753231268
C  C106  1  0.76390000  0.50510000  0.00000000  1.0 0.4753231268
C  C107  1  0.23610000  0.23610000  0.74120000  1.0 0.4753231268
C  C108  1  0.49490000  0.49490000  0.25880000  1.0 0.4753231268
S  S1  1  0.65050000  0.95450000  0.19520000  1.0 0.068476313
S  S2  1  0.33780000  0.04830000  0.81510000  1.0 0.0825453244
S  S3  1  0.75930000  0.45530000  0.80480000  1.0 0.068476313
S  S4  1  0.23320000  0.52270000  0.18490000  1.0 0.0825453244
S  S5  1  0.04550000  0.24070000  0.69600000  1.0 0.068476313
S  S6  1  0.95170000  0.76680000  0.28950000  1.0 0.0825453244
S  S7  1  0.54470000  0.34950000  0.30400000  1.0 0.068476313
S  S8  1  0.47730000  0.66220000  0.71050000  1.0 0.0825453244
S  S9  1  0.24070000  0.04550000  0.69600000  1.0 0.068476313
S  S10  1  0.76680000  0.95170000  0.28950000  1.0 0.0825453244
S  S11  1  0.34950000  0.54470000  0.30400000  1.0 0.068476313
S  S12  1  0.66220000  0.47730000  0.71050000  1.0 0.0825453244
S  S13  1  0.45530000  0.75930000  0.80480000  1.0 0.068476313
S  S14  1  0.52270000  0.23320000  0.18490000  1.0 0.0825453244
S  S15  1  0.95450000  0.65050000  0.19520000  1.0 0.068476313
S  S16  1  0.04830000  0.33780000  0.81510000  1.0 0.0825453244
O  O1  1  0.55740000  0.72440000  0.99100000  1.0 -0.5419298995
O  O2  1  0.44820000  0.74800000  0.03080000  1.0 -0.2221102033
O  O3  1  0.42390000  0.26130000  0.98180000  1.0 -0.3346101779
O  O4  1  0.57600000  0.26800000  0.00200000  1.0 -0.5419298995
O  O5  1  0.45080000  0.31760000  0.88520000  1.0 -0.2912075955
O  O6  1  0.45150000  0.36440000  0.90070000  1.0 -0.3790542621
O  O7  1  0.73340000  0.56640000  0.00900000  1.0 -0.5419298995
O  O8  1  0.71720000  0.41740000  0.96920000  1.0 -0.2221102033
O  O9  1  0.27950000  0.44210000  0.01820000  1.0 -0.3346101779
O  O10  1  0.26600000  0.57400000  0.99800000  1.0 -0.5419298995
O  O11  1  0.43240000  0.56560000  0.11480000  1.0 -0.2912075955
O  O12  1  0.46370000  0.55080000  0.09930000  1.0 -0.3790542621
O  O13  1  0.27560000  0.26660000  0.83300000  1.0 -0.5419298995
O  O14  1  0.25200000  0.28280000  0.70020000  1.0 -0.2221102033
O  O15  1  0.73870000  0.72050000  0.16260000  1.0 -0.3346101779
O  O16  1  0.73200000  0.73400000  0.30800000  1.0 -0.5419298995
O  O17  1  0.68240000  0.56760000  0.13320000  1.0 -0.2912075955
O  O18  1  0.63560000  0.53630000  0.08710000  1.0 -0.3790542621
O  O19  1  0.43360000  0.44260000  0.16700000  1.0 -0.5419298995
O  O20  1  0.58260000  0.55180000  0.29980000  1.0 -0.2221102033
O  O21  1  0.55790000  0.57610000  0.83740000  1.0 -0.3346101779
O  O22  1  0.42600000  0.42400000  0.69200000  1.0 -0.5419298995
O  O23  1  0.43440000  0.54920000  0.86680000  1.0 -0.2912075955
O  O24  1  0.44920000  0.54850000  0.91290000  1.0 -0.3790542621
O  O25  1  0.26660000  0.27560000  0.83300000  1.0 -0.5419298995
O  O26  1  0.28280000  0.25200000  0.70020000  1.0 -0.2221102033
O  O27  1  0.72050000  0.73870000  0.16260000  1.0 -0.3346101779
O  O28  1  0.73400000  0.73200000  0.30800000  1.0 -0.5419298995
O  O29  1  0.56760000  0.68240000  0.13320000  1.0 -0.2912075955
O  O30  1  0.53630000  0.63560000  0.08710000  1.0 -0.3790542621
O  O31  1  0.44260000  0.43360000  0.16700000  1.0 -0.5419298995
O  O32  1  0.55180000  0.58260000  0.29980000  1.0 -0.2221102033
O  O33  1  0.57610000  0.55790000  0.83740000  1.0 -0.3346101779
O  O34  1  0.42400000  0.42600000  0.69200000  1.0 -0.5419298995
O  O35  1  0.54920000  0.43440000  0.86680000  1.0 -0.2912075955
O  O36  1  0.54850000  0.44920000  0.91290000  1.0 -0.3790542621
O  O37  1  0.56640000  0.73340000  0.00900000  1.0 -0.5419298995
O  O38  1  0.41740000  0.71720000  0.96920000  1.0 -0.2221102033
O  O39  1  0.44210000  0.27950000  0.01820000  1.0 -0.3346101779
O  O40  1  0.57400000  0.26600000  0.99800000  1.0 -0.5419298995
O  O41  1  0.56560000  0.43240000  0.11480000  1.0 -0.2912075955
O  O42  1  0.55080000  0.46370000  0.09930000  1.0 -0.3790542621
O  O43  1  0.72440000  0.55740000  0.99100000  1.0 -0.5419298995
O  O44  1  0.74800000  0.44820000  0.03080000  1.0 -0.2221102033
O  O45  1  0.26130000  0.42390000  0.98180000  1.0 -0.3346101779
O  O46  1  0.26800000  0.57600000  0.00200000  1.0 -0.5419298995
O  O47  1  0.31760000  0.45080000  0.88520000  1.0 -0.2912075955
O  O48  1  0.36440000  0.45150000  0.90070000  1.0 -0.3790542621
