# DDEC6 charges by PACMAN v1.1 (https://github.com/mtap-research/PACMAN-charge/)
data_KUGCOF_ASR_pacman
_symmetry_space_group_name_H-M   'P 1'
_cell_length_a   7.06600000
_cell_length_b   10.31800000
_cell_length_c   10.98100000
_cell_angle_alpha   90.00000000
_cell_angle_beta   90.00000000
_cell_angle_gamma   90.00000000
_symmetry_Int_Tables_number   1
_chemical_formula_structural   CdCu4(SO3)4
_chemical_formula_sum   'Cd2 Cu8 S8 O24'
_cell_volume   800.59163523
_cell_formula_units_Z   2
loop_
 _symmetry_equiv_pos_site_id
 _symmetry_equiv_pos_as_xyz
  1  'x, y, z'
loop_
 _atom_site_type_symbol
 _atom_site_label
 _atom_site_symmetry_multiplicity
 _atom_site_fract_x
 _atom_site_fract_y
 _atom_site_fract_z
 _atom_site_occupancy
 _atom_site_charge
Cd  Cd1  1  0.00000000  0.00000000  0.00000000  1.0 1.0638258464
Cd  Cd2  1  0.00000000  0.50000000  0.50000000  1.0 1.0638258464
Cu  Cu1  1  0.61459000  0.65166000  0.64151000  1.0 0.2996874571
Cu  Cu2  1  0.61459000  0.34834000  0.35849000  1.0 0.2996874571
Cu  Cu3  1  0.38541000  0.65166000  0.35849000  1.0 0.2996874571
Cu  Cu4  1  0.38541000  0.34834000  0.64151000  1.0 0.2996874571
Cu  Cu5  1  0.38541000  0.84834000  0.85849000  1.0 0.2996874571
Cu  Cu6  1  0.38541000  0.15166000  0.14151000  1.0 0.2996874571
Cu  Cu7  1  0.61459000  0.84834000  0.14151000  1.0 0.2996874571
Cu  Cu8  1  0.61459000  0.15166000  0.85849000  1.0 0.2996874571
S  S1  1  0.69028000  0.84606000  0.86115000  1.0 1.0122166879
S  S2  1  0.69028000  0.15394000  0.13885000  1.0 1.0122166879
S  S3  1  0.30972000  0.84606000  0.13885000  1.0 1.0122166879
S  S4  1  0.30972000  0.15394000  0.86115000  1.0 1.0122166879
S  S5  1  0.30972000  0.65394000  0.63885000  1.0 1.0122166879
S  S6  1  0.30972000  0.34606000  0.36115000  1.0 1.0122166879
S  S7  1  0.69028000  0.65394000  0.36115000  1.0 1.0122166879
S  S8  1  0.69028000  0.34606000  0.63885000  1.0 1.0122166879
O  O1  1  0.77750000  0.80440000  0.98140000  1.0 -0.5538261526
O  O2  1  0.77750000  0.19560000  0.01860000  1.0 -0.5538261526
O  O3  1  0.22250000  0.80440000  0.01860000  1.0 -0.5556303256
O  O4  1  0.22250000  0.19560000  0.98140000  1.0 -0.5556303256
O  O5  1  0.22250000  0.69560000  0.51860000  1.0 -0.5556303256
O  O6  1  0.22250000  0.30440000  0.48140000  1.0 -0.5556303256
O  O7  1  0.77750000  0.69560000  0.48140000  1.0 -0.5538261526
O  O8  1  0.77750000  0.30440000  0.51860000  1.0 -0.5538261526
O  O9  1  0.77990000  0.97900000  0.84160000  1.0 -0.575803756
O  O10  1  0.77990000  0.02100000  0.15840000  1.0 -0.575803756
O  O11  1  0.22010000  0.97900000  0.15840000  1.0 -0.575803756
O  O12  1  0.22010000  0.02100000  0.84160000  1.0 -0.575803756
O  O13  1  0.22010000  0.52100000  0.65840000  1.0 -0.575803756
O  O14  1  0.22010000  0.47900000  0.34160000  1.0 -0.575803756
O  O15  1  0.77990000  0.52100000  0.34160000  1.0 -0.575803756
O  O16  1  0.77990000  0.47900000  0.65840000  1.0 -0.575803756
O  O17  1  0.77280000  0.75980000  0.76460000  1.0 -0.4473286115
O  O18  1  0.77280000  0.24020000  0.23540000  1.0 -0.4473286115
O  O19  1  0.22720000  0.75980000  0.23540000  1.0 -0.4473286115
O  O20  1  0.22720000  0.24020000  0.76460000  1.0 -0.4473286115
O  O21  1  0.22720000  0.74020000  0.73540000  1.0 -0.4473286115
O  O22  1  0.22720000  0.25980000  0.26460000  1.0 -0.4473286115
O  O23  1  0.77280000  0.74020000  0.26460000  1.0 -0.4473286115
O  O24  1  0.77280000  0.25980000  0.73540000  1.0 -0.4473286115
