# DDEC6 charges by PACMAN v1.1 (https://github.com/mtap-research/PACMAN-charge/)
data_KUJMIN_ion_pacman
_symmetry_space_group_name_H-M   'P 1'
_cell_length_a   10.20080000
_cell_length_b   20.44940000
_cell_length_c   20.58930000
_cell_angle_alpha   88.58900000
_cell_angle_beta   76.39500000
_cell_angle_gamma   87.03300000
_symmetry_Int_Tables_number   1
_chemical_formula_structural   Cd5H52C51N5O29
_chemical_formula_sum   'Cd10 H104 C102 N10 O58'
_cell_volume   4168.48051757
_cell_formula_units_Z   2
loop_
 _symmetry_equiv_pos_site_id
 _symmetry_equiv_pos_as_xyz
  1  'x, y, z'
loop_
 _atom_site_type_symbol
 _atom_site_label
 _atom_site_symmetry_multiplicity
 _atom_site_fract_x
 _atom_site_fract_y
 _atom_site_fract_z
 _atom_site_occupancy
 _atom_site_charge
Cd  Cd1  1  0.98413000  0.36566000  0.33926000  1.0 1.0202598999
Cd  Cd2  1  0.01587000  0.63434000  0.66074000  1.0 1.0202598999
Cd  Cd3  1  0.45396000  0.77897000  0.03517000  1.0 0.9902390371
Cd  Cd4  1  0.54604000  0.22103000  0.96483000  1.0 0.9902390371
Cd  Cd5  1  0.13473000  0.84238000  0.13364000  1.0 1.0085313747
Cd  Cd6  1  0.86527000  0.15762000  0.86636000  1.0 1.0085313747
Cd  Cd7  1  0.34614000  0.99409000  0.50605000  1.0 1.0020368526
Cd  Cd8  1  0.65386000  0.00591000  0.49395000  1.0 1.0020368526
Cd  Cd9  1  0.72949000  0.46802000  0.27948000  1.0 1.0020368526
Cd  Cd10  1  0.27051000  0.53198000  0.72052000  1.0 1.0020368526
H  H1  1  0.67070000  0.20570000  0.39990000  1.0 0.1393555185
H  H2  1  0.32930000  0.79430000  0.60010000  1.0 0.1393555185
H  H3  1  0.27860000  0.18960000  0.40590000  1.0 0.1308830199
H  H4  1  0.72140000  0.81040000  0.59410000  1.0 0.1308830199
H  H5  1  0.45490000  0.35890000  0.34690000  1.0 0.1393555185
H  H6  1  0.54510000  0.64110000  0.65310000  1.0 0.1393555185
H  H7  1  0.16480000  0.32030000  0.11610000  1.0 0.1212043714
H  H8  1  0.83520000  0.67970000  0.88390000  1.0 0.1212043714
H  H9  1  0.05210000  0.23240000  0.96700000  1.0 0.1308830199
H  H10  1  0.94790000  0.76760000  0.03300000  1.0 0.1308830199
H  H11  1  0.77470000  0.32430000  0.11120000  1.0 0.1212043714
H  H12  1  0.22530000  0.67570000  0.88880000  1.0 0.1212043714
H  H13  1  0.05150000  0.62840000  0.21170000  1.0 0.1212043714
H  H14  1  0.94850000  0.37160000  0.78830000  1.0 0.1212043714
H  H15  1  0.45420000  0.62370000  0.18200000  1.0 0.1308830199
H  H16  1  0.54580000  0.37630000  0.81800000  1.0 0.1308830199
H  H17  1  0.24540000  0.47500000  0.27940000  1.0 0.1393555185
H  H18  1  0.75460000  0.52500000  0.72060000  1.0 0.1393555185
H  H19  1  0.65700000  0.85870000  0.13660000  1.0 0.1393555185
H  H20  1  0.34300000  0.14130000  0.86340000  1.0 0.1393555185
H  H21  1  0.74290000  0.91840000  0.30510000  1.0 0.1393555185
H  H22  1  0.25710000  0.08160000  0.69490000  1.0 0.1393555185
H  H23  1  0.35760000  0.91030000  0.29340000  1.0 0.1308830199
H  H24  1  0.64240000  0.08970000  0.70660000  1.0 0.1308830199
H  H25  1  0.90970000  0.40540000  0.56370000  1.0 0.1462547051
H  H26  1  0.09030000  0.59460000  0.43630000  1.0 0.1462547051
H  H27  1  0.78770000  0.43370000  0.61860000  1.0 0.1308830199
H  H28  1  0.21230000  0.56630000  0.38140000  1.0 0.1308830199
H  H29  1  0.90920000  0.47760000  0.58780000  1.0 0.1393555185
H  H30  1  0.09080000  0.52240000  0.41220000  1.0 0.1393555185
H  H31  1  0.64220000  0.52670000  0.50830000  1.0 0.1462547051
H  H32  1  0.35780000  0.47330000  0.49170000  1.0 0.1462547051
H  H33  1  0.70520000  0.55120000  0.56520000  1.0 0.1462547051
H  H34  1  0.29480000  0.44880000  0.43480000  1.0 0.1462547051
H  H35  1  0.60490000  0.49420000  0.57960000  1.0 0.1462547051
H  H36  1  0.39510000  0.50580000  0.42040000  1.0 0.1462547051
H  H37  1  0.07500000  0.02470000  0.15980000  1.0 0.160674118
H  H38  1  0.92500000  0.97530000  0.84020000  1.0 0.160674118
H  H39  1  0.20320000  0.06410000  0.12900000  1.0 0.1308830199
H  H40  1  0.79680000  0.93590000  0.87100000  1.0 0.1308830199
H  H41  1  0.21910000  0.99420000  0.15990000  1.0 0.160674118
H  H42  1  0.78090000  0.00580000  0.84010000  1.0 0.160674118
H  H43  1  0.28080000  0.00280000  0.92320000  1.0 0.1393555185
H  H44  1  0.71920000  0.99720000  0.07680000  1.0 0.1393555185
H  H45  1  0.13090000  0.02770000  0.92810000  1.0 0.1308830199
H  H46  1  0.86910000  0.97230000  0.07190000  1.0 0.1308830199
H  H47  1  0.16220000  0.95810000  0.95600000  1.0 0.1393555185
H  H48  1  0.83780000  0.04190000  0.04400000  1.0 0.1393555185
H  H49  1  0.19760000  0.11550000  0.06550000  1.0 0.1212043714
H  H50  1  0.80240000  0.88450000  0.93450000  1.0 0.1212043714
H  H51  1  0.11020000  0.12430000  0.01240000  1.0 0.1308830199
H  H52  1  0.88980000  0.87570000  0.98760000  1.0 0.1308830199
H  H53  1  0.26810000  0.11780000  0.98920000  1.0 0.1393555185
H  H54  1  0.73190000  0.88220000  0.01080000  1.0 0.1393555185
H  H55  1  0.13650000  0.88340000  0.52250000  1.0 0.1688193138
H  H56  1  0.86350000  0.11660000  0.47750000  1.0 0.1688193138
H  H57  1  0.97990000  0.88760000  0.52950000  1.0 0.1688193138
H  H58  1  0.02010000  0.11240000  0.47050000  1.0 0.1688193138
H  H59  1  0.03920000  0.86130000  0.58930000  1.0 0.160674118
H  H60  1  0.96080000  0.13870000  0.41070000  1.0 0.160674118
H  H61  1  0.03380000  0.06200000  0.64010000  1.0 0.1462547051
H  H62  1  0.96620000  0.93800000  0.35990000  1.0 0.1462547051
H  H63  1  0.91490000  0.04590000  0.70090000  1.0 0.1393555185
H  H64  1  0.08510000  0.95410000  0.29910000  1.0 0.1393555185
H  H65  1  0.88390000  0.07290000  0.63390000  1.0 0.1393555185
H  H66  1  0.11610000  0.92710000  0.36610000  1.0 0.1393555185
H  H67  1  0.76630000  0.94090000  0.63840000  1.0 0.1393555185
H  H68  1  0.23370000  0.05910000  0.36160000  1.0 0.1393555185
H  H69  1  0.80590000  0.94850000  0.70680000  1.0 0.1308830199
H  H70  1  0.19410000  0.05150000  0.29320000  1.0 0.1308830199
H  H71  1  0.87110000  0.89080000  0.65940000  1.0 0.1308830199
H  H72  1  0.12890000  0.10920000  0.34060000  1.0 0.1308830199
H  H73  1  0.20540000  0.35120000  0.89570000  1.0 0.1393555185
H  H74  1  0.10130000  0.39340000  0.86520000  1.0 0.1393555185
H  H75  1  0.09540000  0.31690000  0.86860000  1.0 0.1393555185
H  H76  1  0.26960000  0.25270000  0.79230000  1.0 0.1308830199
H  H77  1  0.38410000  0.28710000  0.74060000  1.0 0.1393555185
H  H78  1  0.38400000  0.28620000  0.81670000  1.0 0.1462547051
H  H79  1  0.30500000  0.38190000  0.78760000  1.0 0.2668734918
H  H80  1  0.20160000  0.35170000  0.76200000  1.0 0.2606271039
H  H81  1  0.79460000  0.64880000  0.10430000  1.0 0.1393555185
H  H82  1  0.89870000  0.60660000  0.13480000  1.0 0.1393555185
H  H83  1  0.90460000  0.68310000  0.13140000  1.0 0.1393555185
H  H84  1  0.73040000  0.74730000  0.20770000  1.0 0.1308830199
H  H85  1  0.61590000  0.71290000  0.25940000  1.0 0.1393555185
H  H86  1  0.61600000  0.71380000  0.18330000  1.0 0.1462547051
H  H87  1  0.69500000  0.61810000  0.21240000  1.0 0.2668734918
H  H88  1  0.79840000  0.64830000  0.23800000  1.0 0.2606271039
H  H89  1  0.60730000  0.75720000  0.77560000  1.0 0.1308830199
H  H90  1  0.67610000  0.76790000  0.83480000  1.0 0.1393555185
H  H91  1  0.72560000  0.70920000  0.78610000  1.0 0.1393555185
H  H92  1  0.57690000  0.62540000  0.78400000  1.0 0.1393555185
H  H93  1  0.45390000  0.61310000  0.84420000  1.0 0.1393555185
H  H94  1  0.44130000  0.66720000  0.79040000  1.0 0.1393555185
H  H95  1  0.47700000  0.71780000  0.87520000  1.0 0.2606271039
H  H96  1  0.58650000  0.67200000  0.88310000  1.0 0.2668734918
H  H97  1  0.39270000  0.24280000  0.22440000  1.0 0.1393555185
H  H98  1  0.32390000  0.23210000  0.16520000  1.0 0.1393555185
H  H99  1  0.27440000  0.29080000  0.21390000  1.0 0.1393555185
H  H100  1  0.42310000  0.37460000  0.21600000  1.0 0.1393555185
H  H101  1  0.54610000  0.38690000  0.15580000  1.0 0.1393555185
H  H102  1  0.55870000  0.33280000  0.20960000  1.0 0.1393555185
H  H103  1  0.52300000  0.28220000  0.12480000  1.0 0.2606271039
H  H104  1  0.41350000  0.32800000  0.11690000  1.0 0.2668734918
C  C1  1  0.70590000  0.32790000  0.35890000  1.0 0.5759039948
C  C2  1  0.29410000  0.67210000  0.64110000  1.0 0.5759039948
C  C3  1  0.58200000  0.28830000  0.37100000  1.0 -0.0181335687
C  C4  1  0.41800000  0.71170000  0.62900000  1.0 -0.0181335687
C  C5  1  0.58890000  0.22420000  0.39420000  1.0 -0.102851363
C  C6  1  0.41110000  0.77580000  0.60580000  1.0 -0.102851363
C  C7  1  0.47420000  0.18740000  0.40910000  1.0 -0.0181335687
C  C8  1  0.52580000  0.81260000  0.59090000  1.0 -0.0181335687
C  C9  1  0.35490000  0.21430000  0.39710000  1.0 -0.108264183
C  C10  1  0.64510000  0.78570000  0.60290000  1.0 -0.108264183
C  C11  1  0.34720000  0.27750000  0.37230000  1.0 -0.0126627897
C  C12  1  0.65280000  0.72250000  0.62770000  1.0 -0.0126627897
C  C13  1  0.46070000  0.31550000  0.36100000  1.0 -0.118404564
C  C14  1  0.53930000  0.68450000  0.63900000  1.0 -0.118404564
C  C15  1  0.48020000  0.12030000  0.44010000  1.0 0.5879786044
C  C16  1  0.51980000  0.87970000  0.55990000  1.0 0.5879786044
C  C17  1  0.21520000  0.30610000  0.36030000  1.0 0.5227905939
C  C18  1  0.78480000  0.69390000  0.63970000  1.0 0.5227905939
C  C19  1  0.92590000  0.36180000  0.19080000  1.0 0.5879786044
C  C20  1  0.07410000  0.63820000  0.80920000  1.0 0.5879786044
C  C21  1  0.96350000  0.32730000  0.12440000  1.0 -0.0126627897
C  C22  1  0.03650000  0.67270000  0.87560000  1.0 -0.0126627897
C  C23  1  0.09730000  0.30940000  0.09540000  1.0 -0.118404564
C  C24  1  0.90270000  0.69060000  0.90460000  1.0 -0.118404564
C  C25  1  0.13110000  0.27540000  0.03540000  1.0 -0.0181335687
C  C26  1  0.86890000  0.72460000  0.96460000  1.0 -0.0181335687
C  C27  1  0.03000000  0.25640000  0.00620000  1.0 -0.102851363
C  C28  1  0.97000000  0.74360000  0.99380000  1.0 -0.102851363
C  C29  1  0.89520000  0.27320000  0.03550000  1.0 -0.0126627897
C  C30  1  0.10480000  0.72680000  0.96450000  1.0 -0.0126627897
C  C31  1  0.86390000  0.31050000  0.09330000  1.0 -0.118404564
C  C32  1  0.13610000  0.68950000  0.90670000  1.0 -0.118404564
C  C33  1  0.27750000  0.25720000  0.00550000  1.0 0.5227905939
C  C34  1  0.72250000  0.74280000  0.99450000  1.0 0.5227905939
C  C35  1  0.78220000  0.25010000  0.00760000  1.0 0.5692484011
C  C36  1  0.21780000  0.74990000  0.99240000  1.0 0.5692484011
C  C37  1  0.99510000  0.51470000  0.26990000  1.0 0.5692484011
C  C38  1  0.00490000  0.48530000  0.73010000  1.0 0.5692484011
C  C39  1  0.12930000  0.54650000  0.24800000  1.0 -0.0181335687
C  C40  1  0.87070000  0.45350000  0.75200000  1.0 -0.0181335687
C  C41  1  0.13160000  0.60730000  0.21650000  1.0 -0.118404564
C  C42  1  0.86840000  0.39270000  0.78350000  1.0 -0.118404564
C  C43  1  0.25370000  0.63670000  0.19220000  1.0 -0.0126627897
C  C44  1  0.74630000  0.36330000  0.80780000  1.0 -0.0126627897
C  C45  1  0.37220000  0.60490000  0.19970000  1.0 -0.118404564
C  C46  1  0.62780000  0.39510000  0.80030000  1.0 -0.118404564
C  C47  1  0.37020000  0.54520000  0.23320000  1.0 -0.0181335687
C  C48  1  0.62980000  0.45480000  0.76680000  1.0 -0.0181335687
C  C49  1  0.24760000  0.51530000  0.25730000  1.0 -0.108264183
C  C50  1  0.75240000  0.48470000  0.74270000  1.0 -0.108264183
C  C51  1  0.25800000  0.70320000  0.15840000  1.0 0.5879786044
C  C52  1  0.74200000  0.29680000  0.84160000  1.0 0.5879786044
C  C53  1  0.50080000  0.51460000  0.24430000  1.0 0.5339246522
C  C54  1  0.49920000  0.48540000  0.75570000  1.0 0.5339246522
C  C55  1  0.38890000  0.87050000  0.16870000  1.0 0.5692484011
C  C56  1  0.61110000  0.12950000  0.83130000  1.0 0.5692484011
C  C57  1  0.49090000  0.88290000  0.20860000  1.0 -0.0181335687
C  C58  1  0.50910000  0.11710000  0.79140000  1.0 -0.0181335687
C  C59  1  0.62820000  0.87360000  0.18020000  1.0 -0.108264183
C  C60  1  0.37180000  0.12640000  0.81980000  1.0 -0.108264183
C  C61  1  0.72250000  0.88610000  0.21640000  1.0 -0.0181335687
C  C62  1  0.27750000  0.11390000  0.78360000  1.0 -0.0181335687
C  C63  1  0.67970000  0.90890000  0.28110000  1.0 -0.108264183
C  C64  1  0.32030000  0.09110000  0.71890000  1.0 -0.108264183
C  C65  1  0.54200000  0.91760000  0.31050000  1.0 -0.0126627897
C  C66  1  0.45800000  0.08240000  0.68950000  1.0 -0.0181335687
C  C67  1  0.44930000  0.90450000  0.27390000  1.0 -0.108264183
C  C68  1  0.55070000  0.09550000  0.72610000  1.0 -0.108264183
C  C69  1  0.87140000  0.87410000  0.18660000  1.0 0.5227905939
C  C70  1  0.12860000  0.12590000  0.81340000  1.0 0.5227905939
C  C71  1  0.49680000  0.94300000  0.38070000  1.0 0.5759039948
C  C72  1  0.50320000  0.05700000  0.61930000  1.0 0.5759039948
C  C73  1  0.82270000  0.44200000  0.46750000  1.0 0.4082266221
C  C74  1  0.17730000  0.55800000  0.53250000  1.0 0.4082266221
C  C75  1  0.85400000  0.44390000  0.57870000  1.0 -0.2863709329
C  C76  1  0.14600000  0.55610000  0.42130000  1.0 -0.2863709329
C  C77  1  0.67560000  0.51360000  0.54670000  1.0 -0.3054228296
C  C78  1  0.32440000  0.48640000  0.45330000  1.0 -0.3046237697
C  C79  1  0.16760000  0.02130000  0.13530000  1.0 -0.5691588392
C  C80  1  0.83240000  0.97870000  0.86470000  1.0 -0.5691588392
C  C81  1  0.17590000  0.99150000  0.06880000  1.0 0.4898046086
C  C82  1  0.82410000  0.00850000  0.93120000  1.0 0.4898046086
C  C83  1  0.19010000  0.00240000  0.95000000  1.0 -0.3329676186
C  C84  1  0.80990000  0.99760000  0.05000000  1.0 -0.3329676186
C  C85  1  0.19100000  0.10370000  0.02170000  1.0 -0.3459581901
C  C86  1  0.80900000  0.89630000  0.97830000  1.0 -0.3459581901
C  C87  1  0.05030000  0.89200000  0.55260000  1.0 -0.550209314
C  C88  1  0.94970000  0.10800000  0.44740000  1.0 -0.550209314
C  C89  1  0.04300000  0.96270000  0.57940000  1.0 0.4898046086
C  C90  1  0.95700000  0.03730000  0.42060000  1.0 0.4898046086
C  C91  1  0.94480000  0.04560000  0.65310000  1.0 -0.3329676186
C  C92  1  0.05520000  0.95440000  0.34690000  1.0 -0.3329676186
C  C93  1  0.83850000  0.93580000  0.66100000  1.0 -0.3391749432
C  C94  1  0.16150000  0.06420000  0.33900000  1.0 -0.3391749432
C  C95  1  0.15420000  0.35280000  0.86200000  1.0 -0.2863709329
C  C96  1  0.32810000  0.28880000  0.78510000  1.0 -0.269372793
C  C97  1  0.84580000  0.64720000  0.13800000  1.0 -0.2863709329
C  C98  1  0.67190000  0.71120000  0.21490000  1.0 -0.269372793
C  C99  1  0.64830000  0.73570000  0.80830000  1.0 -0.2863709329
C  C100  1  0.50120000  0.64580000  0.81480000  1.0 -0.2863709329
C  C101  1  0.35170000  0.26430000  0.19170000  1.0 -0.2863709329
C  C102  1  0.49880000  0.35420000  0.18520000  1.0 -0.284292983
N  N1  1  0.78700000  0.46660000  0.52730000  1.0 -0.0126627897
N  N2  1  0.21300000  0.53340000  0.47270000  1.0 -0.0126627897
N  N3  1  0.18420000  0.03200000  0.01850000  1.0 -0.0042013849
N  N4  1  0.81580000  0.96800000  0.98150000  1.0 -0.0042013849
N  N5  1  0.94760000  0.97680000  0.62870000  1.0 -0.0126627897
N  N6  1  0.05240000  0.02320000  0.37130000  1.0 -0.0126627897
N  N7  1  0.24970000  0.34830000  0.79340000  1.0 -0.0745991637
N  N8  1  0.75030000  0.65170000  0.20660000  1.0 -0.0745991637
N  N9  1  0.54760000  0.69280000  0.85290000  1.0 -0.0764983018
N  N10  1  0.45240000  0.30720000  0.14710000  1.0 -0.0764983018
O  O1  1  0.14730000  0.73570000  0.16372000  1.0 -0.5418924588
O  O2  1  0.85270000  0.26430000  0.83628000  1.0 -0.5418924588
O  O3  1  0.81740000  0.29650000  0.35300000  1.0 -0.5004618503
O  O4  1  0.18260000  0.70350000  0.64700000  1.0 -0.5004618503
O  O5  1  0.69070000  0.38898000  0.35905000  1.0 -0.5597085227
O  O6  1  0.30930000  0.61102000  0.64095000  1.0 -0.5597085227
O  O7  1  0.37240000  0.09071000  0.45499000  1.0 -0.5418924588
O  O8  1  0.62760000  0.90929000  0.54501000  1.0 -0.5418924588
O  O9  1  0.59310000  0.09899000  0.44902000  1.0 -0.5597085227
O  O10  1  0.40690000  0.90101000  0.55098000  1.0 -0.5597085227
O  O11  1  0.11560000  0.27180000  0.37260000  1.0 -0.4949275126
O  O12  1  0.88440000  0.72820000  0.62740000  1.0 -0.5004618503
O  O13  1  0.21060000  0.36291000  0.33760000  1.0 -0.5210344165
O  O14  1  0.78940000  0.63709000  0.66240000  1.0 -0.5210344165
O  O15  1  0.01110000  0.35903000  0.22580000  1.0 -0.550209314
O  O16  1  0.98890000  0.64097000  0.77420000  1.0 -0.550209314
O  O17  1  0.81090000  0.38955000  0.20545000  1.0 -0.550209314
O  O18  1  0.18910000  0.61045000  0.79455000  1.0 -0.550209314
O  O19  1  0.66770000  0.27874000  0.02461000  1.0 -0.550209314
O  O20  1  0.33230000  0.72126000  0.97539000  1.0 -0.550209314
O  O21  1  0.80490000  0.20080000  0.97061000  1.0 -0.5418924588
O  O22  1  0.19510000  0.79920000  0.02939000  1.0 -0.5418924588
O  O23  1  0.31460000  0.24080000  0.94616000  1.0 -0.5115519782
O  O24  1  0.68540000  0.75920000  0.05384000  1.0 -0.5115519782
O  O25  1  0.35980000  0.25870000  0.04120000  1.0 -0.5418924588
O  O26  1  0.64020000  0.74130000  0.95880000  1.0 -0.5418924588
O  O27  1  0.97580000  0.47579000  0.31904000  1.0 -0.5691588392
O  O28  1  0.02420000  0.52421000  0.68096000  1.0 -0.5691588392
O  O29  1  0.90760000  0.52987000  0.23746000  1.0 -0.5303180386
O  O30  1  0.09240000  0.47013000  0.76254000  1.0 -0.5303180386
O  O31  1  0.37220000  0.72066000  0.12798000  1.0 -0.5597085227
O  O32  1  0.62780000  0.27934000  0.87202000  1.0 -0.5597085227
O  O33  1  0.61020000  0.53870000  0.21399000  1.0 -0.5418924588
O  O34  1  0.38980000  0.46130000  0.78601000  1.0 -0.550209314
O  O35  1  0.49800000  0.46783000  0.28427000  1.0 -0.5004618503
O  O36  1  0.50200000  0.53217000  0.71573000  1.0 -0.5004618503
O  O37  1  0.42900000  0.86414000  0.10643000  1.0 -0.5418924588
O  O38  1  0.57100000  0.13586000  0.89357000  1.0 -0.5418924588
O  O39  1  0.26830000  0.86780000  0.20018000  1.0 -0.5115519782
O  O40  1  0.73170000  0.13220000  0.79982000  1.0 -0.5115519782
O  O41  1  0.37250000  0.94761000  0.40630000  1.0 -0.5210344165
O  O42  1  0.62750000  0.05239000  0.59370000  1.0 -0.5210344165
O  O43  1  0.58690000  0.95845000  0.40885000  1.0 -0.5597085227
O  O44  1  0.41310000  0.04155000  0.59115000  1.0 -0.5597085227
O  O45  1  0.95370000  0.89740000  0.21440000  1.0 -0.5004618503
O  O46  1  0.04630000  0.10260000  0.78560000  1.0 -0.5004618503
O  O47  1  0.90780000  0.83990000  0.13592000  1.0 -0.5004618503
O  O48  1  0.09220000  0.16010000  0.86408000  1.0 -0.5004618503
O  O49  1  0.91460000  0.39960000  0.44937000  1.0 -0.4775969406
O  O50  1  0.08540000  0.60040000  0.55063000  1.0 -0.4775969406
O  O51  1  0.44090000  0.87040000  0.96340000  1.0 -0.262276562
O  O52  1  0.55910000  0.12960000  0.03660000  1.0 -0.262276562
O  O53  1  0.17660000  0.93340000  0.06420000  1.0 -0.4775969406
O  O54  1  0.82340000  0.06660000  0.93580000  1.0 -0.4775969406
O  O55  1  0.12930000  0.99970000  0.55010000  1.0 -0.5210344165
O  O56  1  0.87070000  0.00030000  0.44990000  1.0 -0.5210344165
O  O57  1  0.67470000  0.54983000  0.36209000  1.0 -0.4254271557
O  O58  1  0.32530000  0.45017000  0.63791000  1.0 -0.4254271557
