# DDEC6 charges by PACMAN v1.1 (https://github.com/mtap-research/PACMAN-charge/)
data_KUJTUG_ASR_pacman
_symmetry_space_group_name_H-M   'P 1'
_cell_length_a   13.95380000
_cell_length_b   13.95380000
_cell_length_c   24.92460000
_cell_angle_alpha   90.00000000
_cell_angle_beta   90.00000000
_cell_angle_gamma   120.00000000
_symmetry_Int_Tables_number   1
_chemical_formula_structural   Zn3H32C52(NO2)6
_chemical_formula_sum   'Zn9 H96 C156 N18 O36'
_cell_volume   4202.84928967
_cell_formula_units_Z   3
loop_
 _symmetry_equiv_pos_site_id
 _symmetry_equiv_pos_as_xyz
  1  'x, y, z'
loop_
 _atom_site_type_symbol
 _atom_site_label
 _atom_site_symmetry_multiplicity
 _atom_site_fract_x
 _atom_site_fract_y
 _atom_site_fract_z
 _atom_site_occupancy
 _atom_site_charge
Zn  Zn1  1  0.14997000  0.69248000  0.04676000  1.0 0.8220631784
Zn  Zn2  1  0.30752000  0.45749000  0.38009000  1.0 0.8220631784
Zn  Zn3  1  0.54251000  0.85003000  0.71343000  1.0 0.8220631784
Zn  Zn4  1  0.69248000  0.14997000  0.95324000  1.0 0.8220631784
Zn  Zn5  1  0.85003000  0.54251000  0.28657000  1.0 0.8220631784
Zn  Zn6  1  0.45749000  0.30752000  0.61991000  1.0 0.8220631784
Zn  Zn7  1  0.00000000  0.70335000  0.16667000  1.0 0.9521954562
Zn  Zn8  1  0.29665000  0.29665000  0.50000000  1.0 0.9521954562
Zn  Zn9  1  0.70335000  0.00000000  0.83333000  1.0 0.9521954562
H  H1  1  0.63450000  0.36490000  0.16400000  1.0 0.1282761877
H  H2  1  0.63510000  0.26960000  0.49733000  1.0 0.1282761877
H  H3  1  0.73040000  0.36550000  0.83067000  1.0 0.1282761877
H  H4  1  0.36490000  0.63450000  0.83600000  1.0 0.1282761877
H  H5  1  0.36550000  0.73040000  0.16933000  1.0 0.1282761877
H  H6  1  0.26960000  0.63510000  0.50267000  1.0 0.1282761877
H  H7  1  0.82180000  0.45890000  0.14790000  1.0 0.121569925
H  H8  1  0.54110000  0.36290000  0.48123000  1.0 0.121569925
H  H9  1  0.63710000  0.17820000  0.81457000  1.0 0.121569925
H  H10  1  0.45890000  0.82180000  0.85210000  1.0 0.121569925
H  H11  1  0.17820000  0.63710000  0.18543000  1.0 0.121569925
H  H12  1  0.36290000  0.54110000  0.51877000  1.0 0.121569925
H  H13  1  0.77290000  0.55530000  0.00510000  1.0 0.121569925
H  H14  1  0.44470000  0.21760000  0.33843000  1.0 0.121569925
H  H15  1  0.78240000  0.22710000  0.67177000  1.0 0.121569925
H  H16  1  0.55530000  0.77290000  0.99490000  1.0 0.121569925
H  H17  1  0.22710000  0.78240000  0.32823000  1.0 0.121569925
H  H18  1  0.21760000  0.44470000  0.66157000  1.0 0.121569925
H  H19  1  0.58450000  0.46480000  0.02010000  1.0 0.121569925
H  H20  1  0.53520000  0.11970000  0.35343000  1.0 0.121569925
H  H21  1  0.88030000  0.41550000  0.68677000  1.0 0.121569925
H  H22  1  0.46480000  0.58450000  0.97990000  1.0 0.121569925
H  H23  1  0.41550000  0.88030000  0.31323000  1.0 0.121569925
H  H24  1  0.11970000  0.53520000  0.64657000  1.0 0.121569925
H  H25  1  0.53490000  0.55600000  0.12560000  1.0 0.1282761877
H  H26  1  0.44400000  0.97890000  0.45893000  1.0 0.1282761877
H  H27  1  0.02110000  0.46510000  0.79227000  1.0 0.1282761877
H  H28  1  0.55600000  0.53490000  0.87440000  1.0 0.1282761877
H  H29  1  0.46510000  0.02110000  0.20773000  1.0 0.1282761877
H  H30  1  0.97890000  0.44400000  0.54107000  1.0 0.1282761877
H  H31  1  0.44830000  0.65470000  0.10670000  1.0 0.121569925
H  H32  1  0.34530000  0.79360000  0.44003000  1.0 0.121569925
H  H33  1  0.20640000  0.55170000  0.77337000  1.0 0.121569925
H  H34  1  0.65470000  0.44830000  0.89330000  1.0 0.121569925
H  H35  1  0.55170000  0.20640000  0.22663000  1.0 0.121569925
H  H36  1  0.79360000  0.34530000  0.55997000  1.0 0.121569925
H  H37  1  0.19460000  0.38460000  0.04220000  1.0 0.121569925
H  H38  1  0.61540000  0.81000000  0.37553000  1.0 0.121569925
H  H39  1  0.19000000  0.80540000  0.70887000  1.0 0.121569925
H  H40  1  0.38460000  0.19460000  0.95780000  1.0 0.121569925
H  H41  1  0.80540000  0.19000000  0.29113000  1.0 0.121569925
H  H42  1  0.81000000  0.61540000  0.62447000  1.0 0.121569925
H  H43  1  0.28210000  0.28640000  0.05880000  1.0 0.1282761877
H  H44  1  0.71360000  0.99570000  0.39213000  1.0 0.1282761877
H  H45  1  0.00430000  0.71790000  0.72547000  1.0 0.1282761877
H  H46  1  0.28640000  0.28210000  0.94120000  1.0 0.1282761877
H  H47  1  0.71790000  0.00430000  0.27453000  1.0 0.1282761877
H  H48  1  0.99570000  0.71360000  0.60787000  1.0 0.1282761877
H  H49  1  0.30870000  0.24150000  0.16910000  1.0 0.121569925
H  H50  1  0.75850000  0.06720000  0.50243000  1.0 0.121569925
H  H51  1  0.93280000  0.69130000  0.83577000  1.0 0.121569925
H  H52  1  0.24150000  0.30870000  0.83090000  1.0 0.121569925
H  H53  1  0.69130000  0.93280000  0.16423000  1.0 0.121569925
H  H54  1  0.06720000  0.75850000  0.49757000  1.0 0.121569925
H  H55  1  0.19820000  0.05260000  0.17820000  1.0 0.1282761877
H  H56  1  0.94740000  0.14560000  0.51153000  1.0 0.1282761877
H  H57  1  0.85440000  0.80180000  0.84487000  1.0 0.1282761877
H  H58  1  0.05260000  0.19820000  0.82180000  1.0 0.1282761877
H  H59  1  0.80180000  0.85440000  0.15513000  1.0 0.1282761877
H  H60  1  0.14560000  0.94740000  0.48847000  1.0 0.1282761877
H  H61  1  0.39360000  0.00550000  0.07850000  1.0 0.121569925
H  H62  1  0.99450000  0.38810000  0.41183000  1.0 0.121569925
H  H63  1  0.61190000  0.60640000  0.74517000  1.0 0.121569925
H  H64  1  0.00550000  0.39360000  0.92150000  1.0 0.121569925
H  H65  1  0.60640000  0.61190000  0.25483000  1.0 0.121569925
H  H66  1  0.38810000  0.99450000  0.58817000  1.0 0.121569925
H  H67  1  0.50510000  0.19440000  0.06850000  1.0 0.1282761877
H  H68  1  0.80560000  0.31070000  0.40183000  1.0 0.1282761877
H  H69  1  0.68930000  0.49490000  0.73517000  1.0 0.1282761877
H  H70  1  0.19440000  0.50510000  0.93150000  1.0 0.1282761877
H  H71  1  0.49490000  0.68930000  0.26483000  1.0 0.1282761877
H  H72  1  0.31070000  0.80560000  0.59817000  1.0 0.1282761877
H  H73  1  0.33130000  0.89770000  0.00410000  1.0 0.1119235002
H  H74  1  0.10230000  0.43360000  0.33743000  1.0 0.1119235002
H  H75  1  0.56640000  0.66870000  0.67077000  1.0 0.1119235002
H  H76  1  0.89770000  0.33130000  0.99590000  1.0 0.1119235002
H  H77  1  0.66870000  0.56640000  0.32923000  1.0 0.1119235002
H  H78  1  0.43360000  0.10230000  0.66257000  1.0 0.1119235002
H  H79  1  0.38990000  0.00640000  0.92840000  1.0 0.1433889524
H  H80  1  0.99360000  0.38350000  0.26173000  1.0 0.1433889524
H  H81  1  0.61650000  0.61010000  0.59507000  1.0 0.1433889524
H  H82  1  0.00640000  0.38990000  0.07160000  1.0 0.1433889524
H  H83  1  0.61010000  0.61650000  0.40493000  1.0 0.1433889524
H  H84  1  0.38350000  0.99360000  0.73827000  1.0 0.1433889524
H  H85  1  0.15450000  0.74940000  0.84730000  1.0 0.1282761877
H  H86  1  0.25060000  0.40510000  0.18063000  1.0 0.1282761877
H  H87  1  0.59490000  0.84550000  0.51397000  1.0 0.1282761877
H  H88  1  0.74940000  0.15450000  0.15270000  1.0 0.1282761877
H  H89  1  0.84550000  0.59490000  0.48603000  1.0 0.1282761877
H  H90  1  0.40510000  0.25060000  0.81937000  1.0 0.1282761877
H  H91  1  0.09580000  0.65300000  0.92590000  1.0 0.1119235002
H  H92  1  0.34700000  0.44280000  0.25923000  1.0 0.1119235002
H  H93  1  0.55720000  0.90420000  0.59257000  1.0 0.1119235002
H  H94  1  0.65300000  0.09580000  0.07410000  1.0 0.1119235002
H  H95  1  0.90420000  0.55720000  0.40743000  1.0 0.1119235002
H  H96  1  0.44280000  0.34700000  0.74077000  1.0 0.1119235002
C  C1  1  0.58960000  0.40610000  0.09372000  1.0 0.1882130075
C  C2  1  0.59390000  0.18350000  0.42705000  1.0 0.1882130075
C  C3  1  0.81650000  0.41040000  0.76039000  1.0 0.1882130075
C  C4  1  0.40610000  0.58960000  0.90628000  1.0 0.1882130075
C  C5  1  0.41040000  0.81650000  0.23961000  1.0 0.1882130075
C  C6  1  0.18350000  0.59390000  0.57295000  1.0 0.1882130075
C  C7  1  0.66200000  0.40390000  0.13218000  1.0 -0.1804356619
C  C8  1  0.59610000  0.25810000  0.46551000  1.0 -0.1804356619
C  C9  1  0.74190000  0.33800000  0.79885000  1.0 -0.1804356619
C  C10  1  0.40390000  0.66200000  0.86782000  1.0 -0.1804356619
C  C11  1  0.33800000  0.74190000  0.20115000  1.0 -0.1804356619
C  C12  1  0.25810000  0.59610000  0.53449000  1.0 -0.1804356619
C  C13  1  0.77370000  0.46000000  0.12235000  1.0 -0.1021771745
C  C14  1  0.54000000  0.31370000  0.45568000  1.0 -0.1021771745
C  C15  1  0.68630000  0.22630000  0.78902000  1.0 -0.1021771745
C  C16  1  0.46000000  0.77370000  0.87765000  1.0 -0.1021771745
C  C17  1  0.22630000  0.68630000  0.21098000  1.0 -0.1021771745
C  C18  1  0.31370000  0.54000000  0.54432000  1.0 -0.1021771745
C  C19  1  0.81570000  0.51780000  0.07540000  1.0 -0.0486572742
C  C20  1  0.48220000  0.29790000  0.40873000  1.0 -0.0486572742
C  C21  1  0.70210000  0.18430000  0.74207000  1.0 -0.0486572742
C  C22  1  0.51780000  0.81570000  0.92460000  1.0 -0.0486572742
C  C23  1  0.18430000  0.70210000  0.25793000  1.0 -0.0486572742
C  C24  1  0.29790000  0.48220000  0.59127000  1.0 -0.0486572742
C  C25  1  0.74460000  0.51790000  0.03729000  1.0 -0.0775738179
C  C26  1  0.48210000  0.22670000  0.37062000  1.0 -0.0775738179
C  C27  1  0.77330000  0.25540000  0.70396000  1.0 -0.0775738179
C  C28  1  0.51790000  0.74460000  0.96271000  1.0 -0.0775738179
C  C29  1  0.25540000  0.77330000  0.29604000  1.0 -0.0775738179
C  C30  1  0.22670000  0.48210000  0.62938000  1.0 -0.0775738179
C  C31  1  0.63180000  0.46330000  0.04600000  1.0 -0.1804356619
C  C32  1  0.53670000  0.16850000  0.37933000  1.0 -0.1804356619
C  C33  1  0.83150000  0.36820000  0.71267000  1.0 -0.1804356619
C  C34  1  0.46330000  0.63180000  0.95400000  1.0 -0.1804356619
C  C35  1  0.36820000  0.83150000  0.28733000  1.0 -0.1804356619
C  C36  1  0.16850000  0.53670000  0.62067000  1.0 -0.1804356619
C  C37  1  0.41790000  0.41130000  0.09403000  1.0 0.1730661646
C  C38  1  0.58870000  0.00660000  0.42736000  1.0 0.1730661646
C  C39  1  0.99340000  0.58210000  0.76070000  1.0 0.1730661646
C  C40  1  0.41130000  0.41790000  0.90597000  1.0 0.1730661646
C  C41  1  0.58210000  0.99340000  0.23930000  1.0 0.1730661646
C  C42  1  0.00660000  0.58870000  0.57264000  1.0 0.1730661646
C  C43  1  0.46660000  0.52170000  0.10840000  1.0 -0.1891641884
C  C44  1  0.47830000  0.94490000  0.44173000  1.0 -0.1891641884
C  C45  1  0.05510000  0.53340000  0.77507000  1.0 -0.1891641884
C  C46  1  0.52170000  0.46660000  0.89160000  1.0 -0.1891641884
C  C47  1  0.53340000  0.05510000  0.22493000  1.0 -0.1891641884
C  C48  1  0.94490000  0.47830000  0.55827000  1.0 -0.1891641884
C  C49  1  0.41450000  0.58030000  0.09734000  1.0 -0.1021771745
C  C50  1  0.41970000  0.83420000  0.43067000  1.0 -0.1021771745
C  C51  1  0.16580000  0.58550000  0.76401000  1.0 -0.1021771745
C  C52  1  0.58030000  0.41450000  0.90266000  1.0 -0.1021771745
C  C53  1  0.58550000  0.16580000  0.23599000  1.0 -0.1021771745
C  C54  1  0.83420000  0.41970000  0.56933000  1.0 -0.1021771745
C  C55  1  0.31200000  0.53040000  0.07238000  1.0 -0.0391016473
C  C56  1  0.46960000  0.78160000  0.40571000  1.0 -0.0391016473
C  C57  1  0.21840000  0.68800000  0.73905000  1.0 -0.0391016473
C  C58  1  0.53040000  0.31200000  0.92762000  1.0 -0.0391016473
C  C59  1  0.68800000  0.21840000  0.26095000  1.0 -0.0391016473
C  C60  1  0.78160000  0.46960000  0.59429000  1.0 -0.0391016473
C  C61  1  0.26370000  0.41940000  0.05866000  1.0 -0.1021771745
C  C62  1  0.58060000  0.84430000  0.39199000  1.0 -0.1021771745
C  C63  1  0.15570000  0.73630000  0.72533000  1.0 -0.1021771745
C  C64  1  0.41940000  0.26370000  0.94134000  1.0 -0.1021771745
C  C65  1  0.73630000  0.15570000  0.27467000  1.0 -0.1021771745
C  C66  1  0.84430000  0.58060000  0.60801000  1.0 -0.1021771745
C  C67  1  0.31530000  0.36050000  0.06875000  1.0 -0.1891641884
C  C68  1  0.63950000  0.95480000  0.40208000  1.0 -0.1891641884
C  C69  1  0.04520000  0.68470000  0.73542000  1.0 -0.1891641884
C  C70  1  0.36050000  0.31530000  0.93125000  1.0 -0.1891641884
C  C71  1  0.68470000  0.04520000  0.26458000  1.0 -0.1891641884
C  C72  1  0.95480000  0.63950000  0.59792000  1.0 -0.1891641884
C  C73  1  0.41530000  0.23730000  0.11480000  1.0 0.1812049604
C  C74  1  0.76270000  0.17800000  0.44813000  1.0 0.1812049604
C  C75  1  0.82200000  0.58470000  0.78147000  1.0 0.1812049604
C  C76  1  0.23730000  0.41530000  0.88520000  1.0 0.1812049604
C  C77  1  0.58470000  0.82200000  0.21853000  1.0 0.1812049604
C  C78  1  0.17800000  0.76270000  0.55187000  1.0 0.1812049604
C  C79  1  0.32450000  0.19420000  0.14968000  1.0 -0.1891641884
C  C80  1  0.80580000  0.13030000  0.48301000  1.0 -0.1891641884
C  C81  1  0.86970000  0.67550000  0.81635000  1.0 -0.1891641884
C  C82  1  0.19420000  0.32450000  0.85032000  1.0 -0.1891641884
C  C83  1  0.67550000  0.86970000  0.18365000  1.0 -0.1891641884
C  C84  1  0.13030000  0.80580000  0.51699000  1.0 -0.1891641884
C  C85  1  0.25860000  0.08110000  0.15507000  1.0 -0.0904084494
C  C86  1  0.91890000  0.17750000  0.48840000  1.0 -0.0904084494
C  C87  1  0.82250000  0.74140000  0.82174000  1.0 -0.0904084494
C  C88  1  0.08110000  0.25860000  0.84493000  1.0 -0.0904084494
C  C89  1  0.74140000  0.82250000  0.17826000  1.0 -0.0904084494
C  C90  1  0.17750000  0.91890000  0.51160000  1.0 -0.0904084494
C  C91  1  0.28090000  0.00960000  0.12676000  1.0 -0.0486572742
C  C92  1  0.99040000  0.27130000  0.46009000  1.0 -0.0486572742
C  C93  1  0.72870000  0.71910000  0.79343000  1.0 -0.0486572742
C  C94  1  0.00960000  0.28090000  0.87324000  1.0 -0.0486572742
C  C95  1  0.71910000  0.72870000  0.20657000  1.0 -0.0486572742
C  C96  1  0.27130000  0.99040000  0.53991000  1.0 -0.0486572742
C  C97  1  0.37480000  0.05300000  0.09571000  1.0 -0.1021771745
C  C98  1  0.94700000  0.32180000  0.42904000  1.0 -0.1021771745
C  C99  1  0.67820000  0.62520000  0.76238000  1.0 -0.1021771745
C  C100  1  0.05300000  0.37480000  0.90429000  1.0 -0.1021771745
C  C101  1  0.62520000  0.67820000  0.23762000  1.0 -0.1021771745
C  C102  1  0.32180000  0.94700000  0.57096000  1.0 -0.1021771745
C  C103  1  0.44190000  0.16640000  0.08970000  1.0 -0.1891641884
C  C104  1  0.83360000  0.27550000  0.42303000  1.0 -0.1891641884
C  C105  1  0.72450000  0.55810000  0.75637000  1.0 -0.1891641884
C  C106  1  0.16640000  0.44190000  0.91030000  1.0 -0.1891641884
C  C107  1  0.55810000  0.72450000  0.24363000  1.0 -0.1891641884
C  C108  1  0.27550000  0.83360000  0.57697000  1.0 -0.1891641884
C  C109  1  0.93780000  0.58140000  0.06600000  1.0 0.5510616607
C  C110  1  0.41860000  0.35640000  0.39933000  1.0 0.5510616607
C  C111  1  0.64360000  0.06220000  0.73267000  1.0 0.5510616607
C  C112  1  0.58140000  0.93780000  0.93400000  1.0 0.5510616607
C  C113  1  0.06220000  0.64360000  0.26733000  1.0 0.5510616607
C  C114  1  0.35640000  0.41860000  0.60067000  1.0 0.5510616607
C  C115  1  0.25240000  0.59280000  0.06079000  1.0 0.5173589096
C  C116  1  0.40720000  0.65960000  0.39412000  1.0 0.5173589096
C  C117  1  0.34040000  0.74760000  0.72746000  1.0 0.5173589096
C  C118  1  0.59280000  0.25240000  0.93921000  1.0 0.5173589096
C  C119  1  0.74760000  0.34040000  0.27254000  1.0 0.5173589096
C  C120  1  0.65960000  0.40720000  0.60588000  1.0 0.5173589096
C  C121  1  0.20010000  0.88790000  0.12560000  1.0 0.5938186751
C  C122  1  0.11210000  0.31220000  0.45893000  1.0 0.5938186751
C  C123  1  0.68780000  0.79990000  0.79227000  1.0 0.5938186751
C  C124  1  0.88790000  0.20010000  0.87440000  1.0 0.5938186751
C  C125  1  0.79990000  0.68780000  0.20773000  1.0 0.5938186751
C  C126  1  0.31220000  0.11210000  0.54107000  1.0 0.5938186751
C  C127  1  0.29230000  0.86940000  0.97233000  1.0 0.08923136
C  C128  1  0.13060000  0.42290000  0.30566000  1.0 0.08923136
C  C129  1  0.57710000  0.70770000  0.63900000  1.0 0.08923136
C  C130  1  0.86940000  0.29230000  0.02767000  1.0 0.08923136
C  C131  1  0.70770000  0.57710000  0.36100000  1.0 0.08923136
C  C132  1  0.42290000  0.13060000  0.69434000  1.0 0.08923136
C  C133  1  0.32980000  0.93480000  0.92708000  1.0 -0.1804356619
C  C134  1  0.06520000  0.39500000  0.26041000  1.0 -0.1804356619
C  C135  1  0.60500000  0.67020000  0.59375000  1.0 -0.1804356619
C  C136  1  0.93480000  0.32980000  0.07292000  1.0 -0.1804356619
C  C137  1  0.67020000  0.60500000  0.40625000  1.0 -0.1804356619
C  C138  1  0.39500000  0.06520000  0.73959000  1.0 -0.1804356619
C  C139  1  0.27510000  0.89030000  0.88040000  1.0 0.1882130075
C  C140  1  0.10970000  0.38480000  0.21373000  1.0 0.1882130075
C  C141  1  0.61520000  0.72490000  0.54707000  1.0 0.1882130075
C  C142  1  0.89030000  0.27510000  0.11960000  1.0 0.1882130075
C  C143  1  0.72490000  0.61520000  0.45293000  1.0 0.1882130075
C  C144  1  0.38480000  0.10970000  0.78627000  1.0 0.1882130075
C  C145  1  0.18900000  0.78250000  0.87948000  1.0 -0.2020892123
C  C146  1  0.21750000  0.40650000  0.21281000  1.0 -0.2020892123
C  C147  1  0.59350000  0.81100000  0.54615000  1.0 -0.2020892123
C  C148  1  0.78250000  0.18900000  0.12052000  1.0 -0.2020892123
C  C149  1  0.81100000  0.59350000  0.45385000  1.0 -0.2020892123
C  C150  1  0.40650000  0.21750000  0.78719000  1.0 -0.2020892123
C  C151  1  0.15520000  0.72510000  0.92655000  1.0 0.0812654973
C  C152  1  0.27490000  0.43010000  0.25988000  1.0 0.0812654973
C  C153  1  0.56990000  0.84480000  0.59322000  1.0 0.0812654973
C  C154  1  0.72510000  0.15520000  0.07345000  1.0 0.0812654973
C  C155  1  0.84480000  0.56990000  0.40678000  1.0 0.0812654973
C  C156  1  0.43010000  0.27490000  0.74012000  1.0 0.0812654973
N  N1  1  0.47480000  0.35250000  0.10448000  1.0 -0.1804356619
N  N2  1  0.64750000  0.12230000  0.43781000  1.0 -0.1804356619
N  N3  1  0.87770000  0.52520000  0.77115000  1.0 -0.1804356619
N  N4  1  0.35250000  0.47480000  0.89552000  1.0 -0.1804356619
N  N5  1  0.52520000  0.87770000  0.22885000  1.0 -0.1804356619
N  N6  1  0.12230000  0.64750000  0.56219000  1.0 -0.1804356619
N  N7  1  0.20380000  0.76830000  0.97348000  1.0 -0.2287545571
N  N8  1  0.23170000  0.43550000  0.30681000  1.0 -0.2287545571
N  N9  1  0.56450000  0.79620000  0.64015000  1.0 -0.2287545571
N  N10  1  0.76830000  0.20380000  0.02652000  1.0 -0.2287545571
N  N11  1  0.79620000  0.56450000  0.35985000  1.0 -0.2287545571
N  N12  1  0.43550000  0.23170000  0.69319000  1.0 -0.2287545571
N  N13  1  0.30470000  0.94910000  0.83063000  1.0 -0.0904084494
N  N14  1  0.05090000  0.35560000  0.16396000  1.0 -0.0904084494
N  N15  1  0.64440000  0.69530000  0.49730000  1.0 -0.0904084494
N  N16  1  0.94910000  0.30470000  0.16937000  1.0 -0.0904084494
N  N17  1  0.69530000  0.64440000  0.50270000  1.0 -0.0904084494
N  N18  1  0.35560000  0.05090000  0.83604000  1.0 -0.0904084494
O  O1  1  0.00290000  0.61280000  0.10615000  1.0 -0.5660865798
O  O2  1  0.38720000  0.39010000  0.43948000  1.0 -0.5660865798
O  O3  1  0.60990000  0.99710000  0.77282000  1.0 -0.5660865798
O  O4  1  0.61280000  0.00290000  0.89385000  1.0 -0.5660865798
O  O5  1  0.99710000  0.60990000  0.22718000  1.0 -0.5660865798
O  O6  1  0.39010000  0.38720000  0.56052000  1.0 -0.5660865798
O  O7  1  0.97730000  0.60600000  0.02073000  1.0 -0.4869031503
O  O8  1  0.39400000  0.37130000  0.35406000  1.0 -0.4869031503
O  O9  1  0.62870000  0.02270000  0.68740000  1.0 -0.4869031503
O  O10  1  0.60600000  0.97730000  0.97927000  1.0 -0.4869031503
O  O11  1  0.02270000  0.62870000  0.31260000  1.0 -0.4869031503
O  O12  1  0.37130000  0.39400000  0.64594000  1.0 -0.4869031503
O  O13  1  0.29670000  0.69180000  0.07393000  1.0 -0.4971252177
O  O14  1  0.30820000  0.60490000  0.40726000  1.0 -0.4971252177
O  O15  1  0.39510000  0.70330000  0.74060000  1.0 -0.4971252177
O  O16  1  0.69180000  0.29670000  0.92607000  1.0 -0.4971252177
O  O17  1  0.70330000  0.39510000  0.25940000  1.0 -0.4971252177
O  O18  1  0.60490000  0.30820000  0.59274000  1.0 -0.4971252177
O  O19  1  0.16100000  0.54670000  0.03872000  1.0 -0.5107771252
O  O20  1  0.45330000  0.61430000  0.37205000  1.0 -0.5107771252
O  O21  1  0.38570000  0.83900000  0.70539000  1.0 -0.5107771252
O  O22  1  0.54670000  0.16100000  0.96128000  1.0 -0.5107771252
O  O23  1  0.83900000  0.38570000  0.29461000  1.0 -0.5107771252
O  O24  1  0.61430000  0.45330000  0.62795000  1.0 -0.5107771252
O  O25  1  0.12890000  0.84960000  0.16232000  1.0 -0.5416188731
O  O26  1  0.15040000  0.27930000  0.49565000  1.0 -0.5416188731
O  O27  1  0.72070000  0.87110000  0.82899000  1.0 -0.5416188731
O  O28  1  0.84960000  0.12890000  0.83768000  1.0 -0.5416188731
O  O29  1  0.87110000  0.72070000  0.17101000  1.0 -0.5416188731
O  O30  1  0.27930000  0.15040000  0.50435000  1.0 -0.5416188731
O  O31  1  0.20580000  0.83320000  0.08817000  1.0 -0.5342069759
O  O32  1  0.16680000  0.37260000  0.42150000  1.0 -0.5342069759
O  O33  1  0.62740000  0.79420000  0.75484000  1.0 -0.5342069759
O  O34  1  0.83320000  0.20580000  0.91183000  1.0 -0.5342069759
O  O35  1  0.79420000  0.62740000  0.24516000  1.0 -0.5342069759
O  O36  1  0.37260000  0.16680000  0.57850000  1.0 -0.5342069759
