# DDEC6 charges by PACMAN v1.1 (https://github.com/mtap-research/PACMAN-charge/)
data_KUJYOG_ion_pacman
_symmetry_space_group_name_H-M   'P 1'
_cell_length_a   17.74870000
_cell_length_b   17.74870000
_cell_length_c   24.61920000
_cell_angle_alpha   65.97570000
_cell_angle_beta   114.02400000
_cell_angle_gamma   149.02900000
_symmetry_Int_Tables_number   1
_chemical_formula_structural   TmHg4H14C18N3Cl5O8
_chemical_formula_sum   'Tm4 Hg16 H56 C72 N12 Cl20 O32'
_cell_volume   3617.36143071
_cell_formula_units_Z   4
loop_
 _symmetry_equiv_pos_site_id
 _symmetry_equiv_pos_as_xyz
  1  'x, y, z'
loop_
 _atom_site_type_symbol
 _atom_site_label
 _atom_site_symmetry_multiplicity
 _atom_site_fract_x
 _atom_site_fract_y
 _atom_site_fract_z
 _atom_site_occupancy
 _atom_site_charge
Tm  Tm1  1  0.78559000  0.78559000  0.25000000  1.0 2.1594165031
Tm  Tm2  1  0.31849000  0.31849000  0.25000000  1.0 2.1547811691
Tm  Tm3  1  0.21441000  0.21441000  0.75000000  1.0 2.1594165031
Tm  Tm4  1  0.68151000  0.68151000  0.75000000  1.0 2.1547811691
Hg  Hg1  1  0.78348000  0.23092000  0.32998000  1.0 0.5972139005
Hg  Hg2  1  0.89928000  0.17870000  0.48765000  1.0 0.1936708082
Hg  Hg3  1  0.81720000  0.26480000  0.32940000  1.0 0.5972139005
Hg  Hg4  1  0.96838000  0.22862000  0.49698000  1.0 0.2184752289
Hg  Hg5  1  0.23092000  0.78348000  0.17002000  1.0 0.5972139005
Hg  Hg6  1  0.17870000  0.89928000  0.01235000  1.0 0.1936708082
Hg  Hg7  1  0.26480000  0.81720000  0.17060000  1.0 0.5972139005
Hg  Hg8  1  0.22862000  0.96838000  0.00302000  1.0 0.2184752289
Hg  Hg9  1  0.21652000  0.76908000  0.67002000  1.0 0.5972139005
Hg  Hg10  1  0.10072000  0.82130000  0.51235000  1.0 0.1936708082
Hg  Hg11  1  0.18280000  0.73520000  0.67060000  1.0 0.5972139005
Hg  Hg12  1  0.03162000  0.77138000  0.50302000  1.0 0.2184752289
Hg  Hg13  1  0.76908000  0.21652000  0.82998000  1.0 0.5972139005
Hg  Hg14  1  0.82130000  0.10072000  0.98765000  1.0 0.1936708082
Hg  Hg15  1  0.73520000  0.18280000  0.82940000  1.0 0.5972139005
Hg  Hg16  1  0.77138000  0.03162000  0.99698000  1.0 0.2184752289
H  H1  1  0.66170000  0.97990000  0.30930000  1.0 0.1279549486
H  H2  1  0.07420000  0.39360000  0.32350000  1.0 0.1221608881
H  H3  1  0.73370000  0.93210000  0.28930000  1.0 0.1400811239
H  H4  1  0.15320000  0.35720000  0.30140000  1.0 0.1400811239
H  H5  1  0.15950000  0.19610000  0.14150000  1.0 0.3710893456
H  H6  1  0.45810000  0.19390000  0.31190000  1.0 0.1479537997
H  H7  1  0.88880000  0.60580000  0.32080000  1.0 0.1479537997
H  H8  1  0.32020000  0.39180000  0.40360000  1.0 0.1279549486
H  H9  1  0.74810000  0.80910000  0.39670000  1.0 0.1400811239
H  H10  1  0.94220000  0.02980000  0.15920000  1.0 0.3800012384
H  H11  1  0.52220000  0.11560000  0.32630000  1.0 0.1279549486
H  H12  1  0.94170000  0.51770000  0.33660000  1.0 0.1279549486
H  H13  1  0.31630000  0.44910000  0.47340000  1.0 0.0879515175
H  H14  1  0.73000000  0.85100000  0.46530000  1.0 0.09921798
H  H15  1  0.97990000  0.66170000  0.19070000  1.0 0.1279549486
H  H16  1  0.39360000  0.07420000  0.17650000  1.0 0.1221608881
H  H17  1  0.93210000  0.73370000  0.21070000  1.0 0.1400811239
H  H18  1  0.35720000  0.15320000  0.19860000  1.0 0.1400811239
H  H19  1  0.19610000  0.15950000  0.35850000  1.0 0.3710893456
H  H20  1  0.19390000  0.45810000  0.18810000  1.0 0.1479537997
H  H21  1  0.60580000  0.88880000  0.17920000  1.0 0.1479537997
H  H22  1  0.39180000  0.32020000  0.09640000  1.0 0.1279549486
H  H23  1  0.80910000  0.74810000  0.10330000  1.0 0.1400811239
H  H24  1  0.02980000  0.94220000  0.34080000  1.0 0.3800012384
H  H25  1  0.11560000  0.52220000  0.17370000  1.0 0.1279549486
H  H26  1  0.51770000  0.94170000  0.16340000  1.0 0.1279549486
H  H27  1  0.44910000  0.31630000  0.02660000  1.0 0.0879515175
H  H28  1  0.85100000  0.73000000  0.03470000  1.0 0.09921798
H  H29  1  0.33830000  0.02010000  0.69070000  1.0 0.1279549486
H  H30  1  0.92580000  0.60640000  0.67650000  1.0 0.1221608881
H  H31  1  0.26630000  0.06790000  0.71070000  1.0 0.1400811239
H  H32  1  0.84680000  0.64280000  0.69860000  1.0 0.1400811239
H  H33  1  0.84050000  0.80390000  0.85850000  1.0 0.3710893456
H  H34  1  0.54190000  0.80610000  0.68810000  1.0 0.1479537997
H  H35  1  0.11120000  0.39420000  0.67920000  1.0 0.1479537997
H  H36  1  0.67980000  0.60820000  0.59640000  1.0 0.1279549486
H  H37  1  0.25190000  0.19090000  0.60330000  1.0 0.1400811239
H  H38  1  0.05780000  0.97020000  0.84080000  1.0 0.3800012384
H  H39  1  0.47780000  0.88440000  0.67370000  1.0 0.1279549486
H  H40  1  0.05830000  0.48230000  0.66340000  1.0 0.1279549486
H  H41  1  0.68370000  0.55090000  0.52660000  1.0 0.0879515175
H  H42  1  0.27000000  0.14900000  0.53470000  1.0 0.09921798
H  H43  1  0.02010000  0.33830000  0.80930000  1.0 0.1279549486
H  H44  1  0.60640000  0.92580000  0.82350000  1.0 0.1221608881
H  H45  1  0.06790000  0.26630000  0.78930000  1.0 0.1400811239
H  H46  1  0.64280000  0.84680000  0.80140000  1.0 0.1400811239
H  H47  1  0.80390000  0.84050000  0.64150000  1.0 0.3710893456
H  H48  1  0.80610000  0.54190000  0.81190000  1.0 0.1479537997
H  H49  1  0.39420000  0.11120000  0.82080000  1.0 0.1479537997
H  H50  1  0.60820000  0.67980000  0.90360000  1.0 0.1279549486
H  H51  1  0.19090000  0.25190000  0.89670000  1.0 0.1400811239
H  H52  1  0.97020000  0.05780000  0.65920000  1.0 0.3800012384
H  H53  1  0.88440000  0.47780000  0.82630000  1.0 0.1279549486
H  H54  1  0.48230000  0.05830000  0.83660000  1.0 0.1279549486
H  H55  1  0.55090000  0.68370000  0.97340000  1.0 0.0879515175
H  H56  1  0.14900000  0.27000000  0.96530000  1.0 0.09921798
C  C1  1  0.76070000  0.05570000  0.30720000  1.0 0.0364322242
C  C2  1  0.00500000  0.30080000  0.31520000  1.0 0.0364322242
C  C3  1  0.80360000  0.02720000  0.29490000  1.0 -0.1115407061
C  C4  1  0.05320000  0.27980000  0.30250000  1.0 -0.1219312886
C  C5  1  0.95000000  0.13920000  0.29110000  1.0 0.0364322242
C  C6  1  0.99870000  0.11270000  0.27500000  1.0 0.6231449906
C  C7  1  0.63250000  0.46970000  0.30050000  1.0 0.6329131488
C  C8  1  0.53890000  0.56890000  0.34370000  1.0 0.637409753
C  C9  1  0.66900000  0.41100000  0.31410000  1.0 0.0364322242
C  C10  1  0.53120000  0.59380000  0.39210000  1.0 0.006506414
C  C11  1  0.55650000  0.26130000  0.31600000  1.0 -0.1219312886
C  C12  1  0.81250000  0.50550000  0.32150000  1.0 -0.1003522455
C  C13  1  0.40430000  0.48610000  0.41500000  1.0 -0.1562740292
C  C14  1  0.65920000  0.73480000  0.41120000  1.0 -0.1536126707
C  C15  1  0.59640000  0.21580000  0.32420000  1.0 0.0604440783
C  C16  1  0.84380000  0.45300000  0.33000000  1.0 0.0239389192
C  C17  1  0.40290000  0.52110000  0.45730000  1.0 0.1066494126
C  C18  1  0.64750000  0.75850000  0.45210000  1.0 0.0879515175
C  C19  1  0.05570000  0.76070000  0.19280000  1.0 0.0364322242
C  C20  1  0.30080000  0.00500000  0.18480000  1.0 0.0364322242
C  C21  1  0.02720000  0.80360000  0.20510000  1.0 -0.1115407061
C  C22  1  0.27980000  0.05320000  0.19750000  1.0 -0.1219312886
C  C23  1  0.13920000  0.95000000  0.20890000  1.0 0.0364322242
C  C24  1  0.11270000  0.99870000  0.22500000  1.0 0.6231449906
C  C25  1  0.46970000  0.63250000  0.19950000  1.0 0.6329131488
C  C26  1  0.56890000  0.53890000  0.15630000  1.0 0.637409753
C  C27  1  0.41100000  0.66900000  0.18590000  1.0 0.0364322242
C  C28  1  0.59380000  0.53120000  0.10790000  1.0 0.006506414
C  C29  1  0.26130000  0.55650000  0.18400000  1.0 -0.1219312886
C  C30  1  0.50550000  0.81250000  0.17850000  1.0 -0.1003522455
C  C31  1  0.48610000  0.40430000  0.08500000  1.0 -0.1562740292
C  C32  1  0.73480000  0.65920000  0.08880000  1.0 -0.1536126707
C  C33  1  0.21580000  0.59640000  0.17580000  1.0 0.0604440783
C  C34  1  0.45300000  0.84380000  0.17000000  1.0 0.0239389192
C  C35  1  0.52110000  0.40290000  0.04270000  1.0 0.1066494126
C  C36  1  0.75850000  0.64750000  0.04790000  1.0 0.0879515175
C  C37  1  0.23930000  0.94430000  0.69280000  1.0 0.0364322242
C  C38  1  0.99500000  0.69920000  0.68480000  1.0 0.0364322242
C  C39  1  0.19640000  0.97280000  0.70510000  1.0 -0.1115407061
C  C40  1  0.94680000  0.72020000  0.69750000  1.0 -0.1219312886
C  C41  1  0.05000000  0.86080000  0.70890000  1.0 0.0364322242
C  C42  1  0.00130000  0.88730000  0.72500000  1.0 0.6231449906
C  C43  1  0.36750000  0.53030000  0.69950000  1.0 0.6329131488
C  C44  1  0.46110000  0.43110000  0.65630000  1.0 0.637409753
C  C45  1  0.33100000  0.58900000  0.68590000  1.0 0.0364322242
C  C46  1  0.46880000  0.40620000  0.60790000  1.0 0.006506414
C  C47  1  0.44350000  0.73870000  0.68400000  1.0 -0.1219312886
C  C48  1  0.18750000  0.49450000  0.67850000  1.0 -0.1003522455
C  C49  1  0.59570000  0.51390000  0.58500000  1.0 -0.1562740292
C  C50  1  0.34080000  0.26520000  0.58880000  1.0 -0.1536126707
C  C51  1  0.40360000  0.78420000  0.67580000  1.0 0.0604440783
C  C52  1  0.15620000  0.54700000  0.67000000  1.0 0.0239389192
C  C53  1  0.59710000  0.47890000  0.54270000  1.0 0.1066494126
C  C54  1  0.35250000  0.24150000  0.54790000  1.0 0.0879515175
C  C55  1  0.94430000  0.23930000  0.80720000  1.0 0.0364322242
C  C56  1  0.69920000  0.99500000  0.81520000  1.0 0.0364322242
C  C57  1  0.97280000  0.19640000  0.79490000  1.0 -0.1115407061
C  C58  1  0.72020000  0.94680000  0.80250000  1.0 -0.1219312886
C  C59  1  0.86080000  0.05000000  0.79110000  1.0 0.0364322242
C  C60  1  0.88730000  0.00130000  0.77500000  1.0 0.6231449906
C  C61  1  0.53030000  0.36750000  0.80050000  1.0 0.6329131488
C  C62  1  0.43110000  0.46110000  0.84370000  1.0 0.637409753
C  C63  1  0.58900000  0.33100000  0.81410000  1.0 0.0364322242
C  C64  1  0.40620000  0.46880000  0.89210000  1.0 0.006506414
C  C65  1  0.73870000  0.44350000  0.81600000  1.0 -0.1219312886
C  C66  1  0.49450000  0.18750000  0.82150000  1.0 -0.1003522455
C  C67  1  0.51390000  0.59570000  0.91500000  1.0 -0.1562740292
C  C68  1  0.26520000  0.34080000  0.91120000  1.0 -0.1536126707
C  C69  1  0.78420000  0.40360000  0.82420000  1.0 0.0604440783
C  C70  1  0.54700000  0.15620000  0.83000000  1.0 0.0239389192
C  C71  1  0.47890000  0.59710000  0.95730000  1.0 0.1066494126
C  C72  1  0.24150000  0.35250000  0.95210000  1.0 0.0879515175
N  N1  1  0.86190000  0.19370000  0.31630000  1.0 -0.1746220227
N  N2  1  0.73470000  0.30810000  0.32910000  1.0 -0.1816788438
N  N3  1  0.52050000  0.65150000  0.47290000  1.0 -0.2154324736
N  N4  1  0.19370000  0.86190000  0.18370000  1.0 -0.1746220227
N  N5  1  0.30810000  0.73470000  0.17090000  1.0 -0.1816788438
N  N6  1  0.65150000  0.52050000  0.02710000  1.0 -0.2154324736
N  N7  1  0.13810000  0.80630000  0.68370000  1.0 -0.1746220227
N  N8  1  0.26530000  0.69190000  0.67090000  1.0 -0.1816788438
N  N9  1  0.47950000  0.34850000  0.52710000  1.0 -0.2149828162
N  N10  1  0.80630000  0.13810000  0.81630000  1.0 -0.1746220227
N  N11  1  0.69190000  0.26530000  0.82910000  1.0 -0.1816788438
N  N12  1  0.34850000  0.47950000  0.97290000  1.0 -0.2154324736
Cl  Cl1  1  0.04003000  0.42457000  0.41929000  1.0 -0.3369733926
Cl  Cl2  1  0.64885000  0.00615000  0.42460000  1.0 -0.4003314461
Cl  Cl3  1  0.92490000  0.22610000  0.57500000  1.0 -0.1536126707
Cl  Cl4  1  0.00220000  0.14360000  0.48100000  1.0 -0.2435584452
Cl  Cl5  1  0.42457000  0.04003000  0.08071000  1.0 -0.3369733926
Cl  Cl6  1  0.00615000  0.64885000  0.07540000  1.0 -0.4003314461
Cl  Cl7  1  0.22610000  0.92490000  0.92500000  1.0 -0.1536126707
Cl  Cl8  1  0.14360000  0.00220000  0.01900000  1.0 -0.2435584452
Cl  Cl9  1  0.95997000  0.57543000  0.58071000  1.0 -0.3369733926
Cl  Cl10  1  0.35115000  0.99385000  0.57540000  1.0 -0.4003314461
Cl  Cl11  1  0.07510000  0.77390000  0.42500000  1.0 -0.1536126707
Cl  Cl12  1  0.99780000  0.85640000  0.51900000  1.0 -0.2435584452
Cl  Cl13  1  0.57543000  0.95997000  0.91929000  1.0 -0.3369733926
Cl  Cl14  1  0.99385000  0.35115000  0.92460000  1.0 -0.4003314461
Cl  Cl15  1  0.77390000  0.07510000  0.07500000  1.0 -0.1536126707
Cl  Cl16  1  0.85640000  0.99780000  0.98100000  1.0 -0.2435584452
Cl  Cl17  1  0.02482000  0.52598000  0.24860000  1.0 -0.5918823864
Cl  Cl18  1  0.52598000  0.02482000  0.25140000  1.0 -0.5918823864
Cl  Cl19  1  0.97518000  0.47402000  0.75140000  1.0 -0.5918823864
Cl  Cl20  1  0.47402000  0.97518000  0.74860000  1.0 -0.5918823864
O  O1  1  0.90640000  0.97960000  0.27840000  1.0 -0.6245689925
O  O2  1  0.12010000  0.21650000  0.26130000  1.0 -0.5608388122
O  O3  1  0.16210000  0.23410000  0.15460000  1.0 -0.8212772097
O  O4  1  0.50310000  0.37850000  0.30260000  1.0 -0.6318681325
O  O5  1  0.41790000  0.45210000  0.32150000  1.0 -0.637418301
O  O6  1  0.73560000  0.60500000  0.28550000  1.0 -0.6318681325
O  O7  1  0.66390000  0.66690000  0.33020000  1.0 -0.637418301
O  O8  1  0.85200000  0.95140000  0.15760000  1.0 -0.7678721633
O  O9  1  0.97960000  0.90640000  0.22160000  1.0 -0.6245689925
O  O10  1  0.21650000  0.12010000  0.23870000  1.0 -0.5608388122
O  O11  1  0.23410000  0.16210000  0.34540000  1.0 -0.8212772097
O  O12  1  0.37850000  0.50310000  0.19740000  1.0 -0.6318681325
O  O13  1  0.45210000  0.41790000  0.17850000  1.0 -0.637418301
O  O14  1  0.60500000  0.73560000  0.21450000  1.0 -0.6318681325
O  O15  1  0.66690000  0.66390000  0.16980000  1.0 -0.637418301
O  O16  1  0.95140000  0.85200000  0.34240000  1.0 -0.7678721633
O  O17  1  0.09360000  0.02040000  0.72160000  1.0 -0.6245689925
O  O18  1  0.87990000  0.78350000  0.73870000  1.0 -0.5608388122
O  O19  1  0.83790000  0.76590000  0.84540000  1.0 -0.8212772097
O  O20  1  0.49690000  0.62150000  0.69740000  1.0 -0.6318681325
O  O21  1  0.58210000  0.54790000  0.67850000  1.0 -0.637418301
O  O22  1  0.26440000  0.39500000  0.71450000  1.0 -0.6318681325
O  O23  1  0.33610000  0.33310000  0.66980000  1.0 -0.637418301
O  O24  1  0.14800000  0.04860000  0.84240000  1.0 -0.7678721633
O  O25  1  0.02040000  0.09360000  0.77840000  1.0 -0.6245689925
O  O26  1  0.78350000  0.87990000  0.76130000  1.0 -0.5608388122
O  O27  1  0.76590000  0.83790000  0.65460000  1.0 -0.8212772097
O  O28  1  0.62150000  0.49690000  0.80260000  1.0 -0.6318681325
O  O29  1  0.54790000  0.58210000  0.82150000  1.0 -0.637418301
O  O30  1  0.39500000  0.26440000  0.78550000  1.0 -0.6318681325
O  O31  1  0.33310000  0.33610000  0.83020000  1.0 -0.637418301
O  O32  1  0.04860000  0.14800000  0.65760000  1.0 -0.7678721633
