# DDEC6 charges by PACMAN v1.1 (https://github.com/mtap-research/PACMAN-charge/)
data_KUKMUA_ASR_pacman
_symmetry_space_group_name_H-M   'P 1'
_cell_length_a   20.36690000
_cell_length_b   19.48200000
_cell_length_c   16.46110000
_cell_angle_alpha   68.43900000
_cell_angle_beta   62.82530000
_cell_angle_gamma   48.73560000
_symmetry_Int_Tables_number   1
_chemical_formula_structural   Cu2H3C8SO8
_chemical_formula_sum   'Cu16 H24 C64 S8 O64'
_cell_volume   4346.17040200
_cell_formula_units_Z   8
loop_
 _symmetry_equiv_pos_site_id
 _symmetry_equiv_pos_as_xyz
  1  'x, y, z'
loop_
 _atom_site_type_symbol
 _atom_site_label
 _atom_site_symmetry_multiplicity
 _atom_site_fract_x
 _atom_site_fract_y
 _atom_site_fract_z
 _atom_site_occupancy
 _atom_site_charge
Cu  Cu1  1  0.80882000  0.68276000  0.20734000  1.0 1.1541857458
Cu  Cu2  1  0.30108000  0.20734000  0.68276000  1.0 1.1565081414
Cu  Cu3  1  0.04266000  0.94892000  0.44118000  1.0 1.1541857458
Cu  Cu4  1  0.56724000  0.44118000  0.94892000  1.0 1.1541857458
Cu  Cu5  1  0.98404000  0.86348000  0.66290000  1.0 1.0872348186
Cu  Cu6  1  0.48958000  0.66290000  0.86348000  1.0 1.0872348186
Cu  Cu7  1  0.58710000  0.76042000  0.26596000  1.0 1.0872348186
Cu  Cu8  1  0.38652000  0.26596000  0.76042000  1.0 1.0872348186
Cu  Cu9  1  0.88774000  0.76022000  0.26760000  1.0 1.1085034546
Cu  Cu10  1  0.08444000  0.26760000  0.76022000  1.0 1.1085034546
Cu  Cu11  1  0.98240000  0.16556000  0.36226000  1.0 1.1085034546
Cu  Cu12  1  0.48978000  0.36226000  0.16556000  1.0 1.1085034546
Cu  Cu13  1  0.66877000  0.82369000  0.34323000  1.0 1.1541857458
Cu  Cu14  1  0.16431000  0.34323000  0.82369000  1.0 1.1565081414
Cu  Cu15  1  0.90677000  0.08569000  0.58123000  1.0 1.1541857458
Cu  Cu16  1  0.42631000  0.58123000  0.08569000  1.0 1.1541857458
H  H1  1  0.56970000  0.00710000  0.51590000  1.0 0.1471191921
H  H2  1  0.90730000  0.51590000  0.00710000  1.0 0.1471191921
H  H3  1  0.73410000  0.34270000  0.68030000  1.0 0.1436228334
H  H4  1  0.24290000  0.68030000  0.34270000  1.0 0.1471191921
H  H5  1  0.64710000  0.08370000  0.63230000  1.0 0.1436228334
H  H6  1  0.63690000  0.63230000  0.08370000  1.0 0.1436228334
H  H7  1  0.61770000  0.61310000  0.60290000  1.0 0.1436228334
H  H8  1  0.16630000  0.60290000  0.61310000  1.0 0.1436228334
H  H9  1  0.83270000  0.90870000  0.43950000  1.0 0.1471191921
H  H10  1  0.81910000  0.43950000  0.90870000  1.0 0.1471191921
H  H11  1  0.81050000  0.43090000  0.41730000  1.0 0.1471191921
H  H12  1  0.34130000  0.41730000  0.43090000  1.0 0.1471191921
H  H13  1  0.83720000  0.92000000  0.92500000  1.0 0.1471191921
H  H14  1  0.31780000  0.92500000  0.92000000  1.0 0.1471191921
H  H15  1  0.32500000  0.93220000  0.41280000  1.0 0.1471191921
H  H16  1  0.33000000  0.41280000  0.93220000  1.0 0.1471191921
H  H17  1  0.74960000  0.17720000  0.84880000  1.0 0.1436228334
H  H18  1  0.22440000  0.84880000  0.17720000  1.0 0.1436228334
H  H19  1  0.40120000  0.02560000  0.50040000  1.0 0.1436228334
H  H20  1  0.07280000  0.50040000  0.02560000  1.0 0.1436228334
H  H21  1  0.67960000  0.09260000  0.11980000  1.0 0.1436228334
H  H22  1  0.10800000  0.11980000  0.09260000  1.0 0.1436228334
H  H23  1  0.13020000  0.14200000  0.57040000  1.0 0.1436228334
H  H24  1  0.15740000  0.57040000  0.14200000  1.0 0.1436228334
C  C1  1  0.70540000  0.94040000  0.47740000  1.0 -0.0167570475
C  C2  1  0.87680000  0.47740000  0.94040000  1.0 -0.0167570475
C  C3  1  0.77260000  0.37320000  0.54460000  1.0 -0.0167570475
C  C4  1  0.30960000  0.54460000  0.37320000  1.0 -0.0167570475
C  C5  1  0.61500000  0.00360000  0.52200000  1.0 -0.0867393539
C  C6  1  0.85940000  0.52200000  0.00360000  1.0 -0.0867393539
C  C7  1  0.72800000  0.39060000  0.63500000  1.0 -0.0867393539
C  C8  1  0.24640000  0.63500000  0.39060000  1.0 -0.0867393539
C  C9  1  0.58940000  0.06320000  0.57700000  1.0 0.0067371074
C  C10  1  0.77040000  0.57700000  0.06320000  1.0 0.0067371074
C  C11  1  0.67300000  0.47960000  0.66060000  1.0 0.0067371074
C  C12  1  0.18680000  0.66060000  0.47960000  1.0 0.0067371074
C  C13  1  0.66030000  0.05270000  0.58930000  1.0 -0.0867393539
C  C14  1  0.69770000  0.58930000  0.05270000  1.0 -0.0867393539
C  C15  1  0.66070000  0.55230000  0.58970000  1.0 -0.0867393539
C  C16  1  0.19730000  0.58970000  0.55230000  1.0 -0.0867393539
C  C17  1  0.74930000  0.99530000  0.53570000  1.0 -0.048868777
C  C18  1  0.71970000  0.53570000  0.99530000  1.0 -0.048868777
C  C19  1  0.71430000  0.53030000  0.50070000  1.0 -0.048868777
C  C20  1  0.25470000  0.50070000  0.53030000  1.0 -0.048868777
C  C21  1  0.77290000  0.94270000  0.47810000  1.0 -0.0727877321
C  C22  1  0.80630000  0.47810000  0.94270000  1.0 -0.0727877321
C  C23  1  0.77190000  0.44370000  0.47710000  1.0 -0.0727877321
C  C24  1  0.30730000  0.47710000  0.44370000  1.0 -0.0727877321
C  C25  1  0.72760000  0.88580000  0.41380000  1.0 0.620496088
C  C26  1  0.97280000  0.41380000  0.88580000  1.0 0.620496088
C  C27  1  0.83620000  0.27720000  0.52240000  1.0 0.620496088
C  C28  1  0.36420000  0.52240000  0.27720000  1.0 0.620496088
C  C29  1  0.49320000  0.12620000  0.63780000  1.0 0.6074875381
C  C30  1  0.74280000  0.63780000  0.12620000  1.0 0.6074875381
C  C31  1  0.61220000  0.50720000  0.75680000  1.0 0.6074875381
C  C32  1  0.12380000  0.75680000  0.50720000  1.0 0.6074875381
C  C33  1  0.63800000  0.25060000  0.01280000  1.0 0.5955995855
C  C34  1  0.09860000  0.01280000  0.25060000  1.0 0.5955995855
C  C35  1  0.23720000  0.15140000  0.61200000  1.0 0.5955995855
C  C36  1  0.99940000  0.61200000  0.15140000  1.0 0.5955995855
C  C37  1  0.85460000  0.02300000  0.77820000  1.0 0.6287193236
C  C38  1  0.34420000  0.77820000  0.02300000  1.0 0.6287193236
C  C39  1  0.47180000  0.90580000  0.39540000  1.0 0.6287193236
C  C40  1  0.22700000  0.39540000  0.90580000  1.0 0.6287193236
C  C41  1  0.80610000  0.97750000  0.94170000  1.0 -0.0588550919
C  C42  1  0.27470000  0.94170000  0.97750000  1.0 -0.0588550919
C  C43  1  0.30830000  0.97530000  0.44390000  1.0 -0.0588550919
C  C44  1  0.27250000  0.44390000  0.97530000  1.0 -0.0588550919
C  C45  1  0.80630000  0.04310000  0.87550000  1.0 -0.0167570475
C  C46  1  0.27510000  0.87550000  0.04310000  1.0 -0.0167570475
C  C47  1  0.37450000  0.97490000  0.44370000  1.0 -0.0167570475
C  C48  1  0.20690000  0.44370000  0.97490000  1.0 -0.0167570475
C  C49  1  0.75110000  0.13150000  0.89530000  1.0 -0.0867393539
C  C50  1  0.22210000  0.89530000  0.13150000  1.0 -0.0867393539
C  C51  1  0.35470000  0.02790000  0.49890000  1.0 -0.0867393539
C  C52  1  0.11850000  0.49890000  0.02790000  1.0 -0.0867393539
C  C53  1  0.69580000  0.15380000  0.98660000  1.0 0.0213426582
C  C54  1  0.16380000  0.98660000  0.15380000  1.0 0.0213426582
C  C55  1  0.26340000  0.08620000  0.55420000  1.0 0.0213426582
C  C56  1  0.09620000  0.55420000  0.08620000  1.0 0.0213426582
C  C57  1  0.70730000  0.08070000  0.05870000  1.0 -0.0727877321
C  C58  1  0.15330000  0.05870000  0.08070000  1.0 -0.0727877321
C  C59  1  0.19130000  0.09670000  0.54270000  1.0 -0.0727877321
C  C60  1  0.16930000  0.54270000  0.09670000  1.0 -0.0727877321
C  C61  1  0.76060000  0.99200000  0.03580000  1.0 -0.0727877321
C  C62  1  0.21160000  0.03580000  0.99200000  1.0 -0.0780273292
C  C63  1  0.21420000  0.03840000  0.48940000  1.0 -0.0727877321
C  C64  1  0.25800000  0.48940000  0.03840000  1.0 -0.0727877321
S  S1  1  0.83894000  0.98252000  0.55108000  1.0 1.1788966593
S  S2  1  0.62746000  0.55108000  0.98252000  1.0 1.1788966593
S  S3  1  0.69892000  0.62254000  0.41106000  1.0 1.1788966593
S  S4  1  0.26748000  0.41106000  0.62254000  1.0 1.1788966593
S  S5  1  0.76975000  0.90321000  0.12319000  1.0 1.1739148137
S  S6  1  0.20385000  0.12319000  0.90321000  1.0 1.1739148137
S  S7  1  0.12681000  0.04615000  0.48025000  1.0 1.1739148137
S  S8  1  0.34679000  0.48025000  0.04615000  1.0 1.1739148137
O  O1  1  0.66690000  0.88210000  0.41970000  1.0 -0.502464867
O  O2  1  0.03130000  0.41970000  0.88210000  1.0 -0.502464867
O  O3  1  0.83030000  0.21870000  0.58310000  1.0 -0.502464867
O  O4  1  0.36790000  0.58310000  0.21870000  1.0 -0.502464867
O  O5  1  0.81420000  0.83040000  0.37340000  1.0 -0.5676027748
O  O6  1  0.98200000  0.37340000  0.83040000  1.0 -0.5676027748
O  O7  1  0.87660000  0.26800000  0.43580000  1.0 -0.5676027748
O  O8  1  0.41960000  0.43580000  0.26800000  1.0 -0.5676027748
O  O9  1  0.91510000  0.95070000  0.46690000  1.0 -0.5918458167
O  O10  1  0.66730000  0.46690000  0.95070000  1.0 -0.5918458167
O  O11  1  0.78310000  0.58270000  0.33490000  1.0 -0.5918458167
O  O12  1  0.29930000  0.33490000  0.58270000  1.0 -0.5918458167
O  O13  1  0.85801000  0.91561000  0.63059000  1.0 -0.617580517
O  O14  1  0.59579000  0.63059000  0.91561000  1.0 -0.617580517
O  O15  1  0.61941000  0.65421000  0.39199000  1.0 -0.617580517
O  O16  1  0.33439000  0.39199000  0.65421000  1.0 -0.617580517
O  O17  1  0.80270000  0.07190000  0.56890000  1.0 -0.5954185787
O  O18  1  0.55650000  0.56890000  0.07190000  1.0 -0.5918458167
O  O19  1  0.68110000  0.69350000  0.44730000  1.0 -0.5954185787
O  O20  1  0.17810000  0.44730000  0.69350000  1.0 -0.5954185787
O  O21  1  0.80516000  0.72936000  0.29804000  1.0 -0.9582272011
O  O22  1  0.16744000  0.29804000  0.72936000  1.0 -0.9582272011
O  O23  1  0.95196000  0.08256000  0.44484000  1.0 -0.9582272011
O  O24  1  0.52064000  0.44484000  0.08256000  1.0 -0.9582272011
O  O25  1  0.67588000  0.78228000  0.24252000  1.0 -0.9582272011
O  O26  1  0.29932000  0.24252000  0.78228000  1.0 -0.9582272011
O  O27  1  0.00748000  0.95068000  0.57412000  1.0 -0.9582272011
O  O28  1  0.46772000  0.57412000  0.95068000  1.0 -0.9582272011
O  O29  1  0.85470000  0.08550000  0.71690000  1.0 -0.5076722168
O  O30  1  0.34290000  0.71690000  0.08550000  1.0 -0.5076722168
O  O31  1  0.53310000  0.90710000  0.39530000  1.0 -0.502464867
O  O32  1  0.16450000  0.39530000  0.90710000  1.0 -0.502464867
O  O33  1  0.57750000  0.26670000  0.08570000  1.0 -0.502464867
O  O34  1  0.07010000  0.08570000  0.26670000  1.0 -0.502464867
O  O35  1  0.16430000  0.17990000  0.67250000  1.0 -0.502464867
O  O36  1  0.98330000  0.67250000  0.17990000  1.0 -0.502464867
O  O37  1  0.64250000  0.30890000  0.95170000  1.0 -0.502464867
O  O38  1  0.09690000  0.95170000  0.30890000  1.0 -0.502464867
O  O39  1  0.29830000  0.15310000  0.60750000  1.0 -0.502464867
O  O40  1  0.94110000  0.60750000  0.15310000  1.0 -0.502464867
O  O41  1  0.43220000  0.12760000  0.63420000  1.0 -0.5076722168
O  O42  1  0.80600000  0.63420000  0.12760000  1.0 -0.5076722168
O  O43  1  0.61580000  0.44400000  0.81780000  1.0 -0.5076722168
O  O44  1  0.12240000  0.81780000  0.44400000  1.0 -0.5076722168
O  O45  1  0.48170000  0.18210000  0.66850000  1.0 -0.4929794061
O  O46  1  0.66770000  0.66850000  0.18210000  1.0 -0.4929794061
O  O47  1  0.58150000  0.58230000  0.76830000  1.0 -0.4929794061
O  O48  1  0.06790000  0.76830000  0.58230000  1.0 -0.4929794061
O  O49  1  0.91140000  0.93520000  0.76740000  1.0 -0.5676027748
O  O50  1  0.38600000  0.76740000  0.93520000  1.0 -0.5676027748
O  O51  1  0.48260000  0.86400000  0.33860000  1.0 -0.5676027748
O  O52  1  0.31480000  0.33860000  0.86400000  1.0 -0.5676027748
O  O53  1  0.68240000  0.94080000  0.19560000  1.0 -0.5778621498
O  O54  1  0.18120000  0.19560000  0.94080000  1.0 -0.5778621498
O  O55  1  0.05440000  0.06880000  0.56760000  1.0 -0.5778621498
O  O56  1  0.30920000  0.56760000  0.06880000  1.0 -0.5778621498
O  O57  1  0.83680000  0.87780000  0.15720000  1.0 -0.617580517
O  O58  1  0.12820000  0.15720000  0.87780000  1.0 -0.617580517
O  O59  1  0.09280000  0.12180000  0.41320000  1.0 -0.617580517
O  O60  1  0.37220000  0.41320000  0.12180000  1.0 -0.617580517
O  O61  1  0.79580000  0.83500000  0.08260000  1.0 -0.5245184961
O  O62  1  0.28660000  0.08260000  0.83500000  1.0 -0.5245184961
O  O63  1  0.16740000  0.96340000  0.45420000  1.0 -0.5245184961
O  O64  1  0.41500000  0.45420000  0.96340000  1.0 -0.5245184961
