# DDEC6 charges by PACMAN v1.1 (https://github.com/mtap-research/PACMAN-charge/)
data_KULLAG_ASR_pacman
_symmetry_space_group_name_H-M   'P 1'
_cell_length_a   22.29480000
_cell_length_b   22.29480000
_cell_length_c   19.66900000
_cell_angle_alpha   72.04440000
_cell_angle_beta   107.95600000
_cell_angle_gamma   68.37800000
_symmetry_Int_Tables_number   1
_chemical_formula_structural   Co5H45C99O20
_chemical_formula_sum   'Co10 H90 C198 O40'
_cell_volume   7598.80727833
_cell_formula_units_Z   2
loop_
 _symmetry_equiv_pos_site_id
 _symmetry_equiv_pos_as_xyz
  1  'x, y, z'
loop_
 _atom_site_type_symbol
 _atom_site_label
 _atom_site_symmetry_multiplicity
 _atom_site_fract_x
 _atom_site_fract_y
 _atom_site_fract_z
 _atom_site_occupancy
 _atom_site_charge
Co  Co1  1  0.81275000  0.61515000  0.75703000  1.0 1.1042705727
Co  Co2  1  0.61515000  0.81275000  0.74297000  1.0 1.1066967499
Co  Co3  1  0.67809000  0.67461000  0.58080000  1.0 1.0160243166
Co  Co4  1  0.67461000  0.67809000  0.91920000  1.0 1.0144415748
Co  Co5  1  0.64626000  0.64626000  0.75000000  1.0 1.1066967499
Co  Co6  1  0.18725000  0.38485000  0.24297000  1.0 1.1042705727
Co  Co7  1  0.38485000  0.18725000  0.25703000  1.0 1.1042705727
Co  Co8  1  0.32191000  0.32539000  0.41920000  1.0 1.0144415748
Co  Co9  1  0.32539000  0.32191000  0.08080000  1.0 1.0144415748
Co  Co10  1  0.35374000  0.35374000  0.25000000  1.0 1.1042705727
H  H1  1  0.72550000  0.82470000  0.43440000  1.0 0.1292440931
H  H2  1  0.82470000  0.72550000  0.06560000  1.0 0.1292440931
H  H3  1  0.76400000  0.90060000  0.37650000  1.0 0.1292440931
H  H4  1  0.90060000  0.76400000  0.12350000  1.0 0.1292440931
H  H5  1  0.93230000  0.81710000  0.59820000  1.0 0.1192405236
H  H6  1  0.81710000  0.93230000  0.90180000  1.0 0.1192405236
H  H7  1  0.89210000  0.74190000  0.65490000  1.0 0.1192405236
H  H8  1  0.74190000  0.89210000  0.84510000  1.0 0.1192405236
H  H9  1  0.84580000  0.09460000  0.34600000  1.0 0.1292440931
H  H10  1  0.09460000  0.84580000  0.15400000  1.0 0.1292440931
H  H11  1  0.03430000  0.09490000  0.37970000  1.0 0.1192405236
H  H12  1  0.09490000  0.03430000  0.12030000  1.0 0.1192405236
H  H13  1  0.03990000  0.90210000  0.46780000  1.0 0.1292440931
H  H14  1  0.90210000  0.03990000  0.03220000  1.0 0.1292440931
H  H15  1  0.79030000  0.36550000  0.28170000  1.0 0.1292440931
H  H16  1  0.36550000  0.79030000  0.21830000  1.0 0.1292440931
H  H17  1  0.73890000  0.48990000  0.19360000  1.0 0.1292440931
H  H18  1  0.48990000  0.73890000  0.30640000  1.0 0.1192405236
H  H19  1  0.80640000  0.43860000  0.04330000  1.0 0.1192405236
H  H20  1  0.43860000  0.80640000  0.45670000  1.0 0.1192405236
H  H21  1  0.86120000  0.31500000  0.13100000  1.0 0.1192405236
H  H22  1  0.31500000  0.86120000  0.36900000  1.0 0.1192405236
H  H23  1  0.27810000  0.98170000  0.49370000  1.0 0.1292440931
H  H24  1  0.98170000  0.27810000  0.00630000  1.0 0.1292440931
H  H25  1  0.40530000  0.92310000  0.55570000  1.0 0.1292440931
H  H26  1  0.92310000  0.40530000  0.94430000  1.0 0.1292440931
H  H27  1  0.41790000  0.72910000  0.62470000  1.0 0.1292440931
H  H28  1  0.72910000  0.41790000  0.87530000  1.0 0.1292440931
H  H29  1  0.29240000  0.78800000  0.55580000  1.0 0.1292440931
H  H30  1  0.78800000  0.29240000  0.94420000  1.0 0.1393804443
H  H31  1  0.71210000  0.90490000  0.67420000  1.0 0.1192405236
H  H32  1  0.90490000  0.71210000  0.82580000  1.0 0.1192405236
H  H33  1  0.77540000  0.96840000  0.67480000  1.0 0.1192405236
H  H34  1  0.96840000  0.77540000  0.82520000  1.0 0.1192405236
H  H35  1  0.89870000  0.09010000  0.69810000  1.0 0.1292440931
H  H36  1  0.09010000  0.89870000  0.80190000  1.0 0.1292440931
H  H37  1  0.08970000  0.08970000  0.75000000  1.0 0.1393804443
H  H38  1  0.81660000  0.36740000  0.56280000  1.0 0.1192405236
H  H39  1  0.36740000  0.81660000  0.93720000  1.0 0.1192405236
H  H40  1  0.90910000  0.39510000  0.79080000  1.0 0.1192405236
H  H41  1  0.39510000  0.90910000  0.70920000  1.0 0.1192405236
H  H42  1  0.95730000  0.27950000  0.80010000  1.0 0.1114245531
H  H43  1  0.27950000  0.95730000  0.69990000  1.0 0.1114245531
H  H44  1  0.76530000  0.48270000  0.55530000  1.0 0.1393804443
H  H45  1  0.48270000  0.76530000  0.94470000  1.0 0.1393804443
H  H46  1  0.27450000  0.17530000  0.56560000  1.0 0.1292440931
H  H47  1  0.17530000  0.27450000  0.93440000  1.0 0.1292440931
H  H48  1  0.23600000  0.09940000  0.62350000  1.0 0.1292440931
H  H49  1  0.09940000  0.23600000  0.87650000  1.0 0.1292440931
H  H50  1  0.06770000  0.18290000  0.40180000  1.0 0.1192405236
H  H51  1  0.18290000  0.06770000  0.09820000  1.0 0.1192405236
H  H52  1  0.10790000  0.25810000  0.34510000  1.0 0.1192405236
H  H53  1  0.25810000  0.10790000  0.15490000  1.0 0.1192405236
H  H54  1  0.15420000  0.90540000  0.65400000  1.0 0.1292440931
H  H55  1  0.90540000  0.15420000  0.84600000  1.0 0.1292440931
H  H56  1  0.96570000  0.90510000  0.62030000  1.0 0.1192405236
H  H57  1  0.90510000  0.96570000  0.87970000  1.0 0.1192405236
H  H58  1  0.96010000  0.09790000  0.53220000  1.0 0.1292440931
H  H59  1  0.09790000  0.96010000  0.96780000  1.0 0.1292440931
H  H60  1  0.20970000  0.63450000  0.71830000  1.0 0.1292440931
H  H61  1  0.63450000  0.20970000  0.78170000  1.0 0.1292440931
H  H62  1  0.26110000  0.51010000  0.80640000  1.0 0.1192405236
H  H63  1  0.51010000  0.26110000  0.69360000  1.0 0.1192405236
H  H64  1  0.19360000  0.56140000  0.95670000  1.0 0.1192405236
H  H65  1  0.56140000  0.19360000  0.54330000  1.0 0.1192405236
H  H66  1  0.13880000  0.68500000  0.86900000  1.0 0.1192405236
H  H67  1  0.68500000  0.13880000  0.63100000  1.0 0.1192405236
H  H68  1  0.72190000  0.01830000  0.50630000  1.0 0.1292440931
H  H69  1  0.01830000  0.72190000  0.99370000  1.0 0.1292440931
H  H70  1  0.59470000  0.07690000  0.44430000  1.0 0.1292440931
H  H71  1  0.07690000  0.59470000  0.05570000  1.0 0.1292440931
H  H72  1  0.58210000  0.27090000  0.37530000  1.0 0.1292440931
H  H73  1  0.27090000  0.58210000  0.12470000  1.0 0.1292440931
H  H74  1  0.70760000  0.21200000  0.44420000  1.0 0.1292440931
H  H75  1  0.21200000  0.70760000  0.05580000  1.0 0.1393804443
H  H76  1  0.28790000  0.09510000  0.32580000  1.0 0.1192405236
H  H77  1  0.09510000  0.28790000  0.17420000  1.0 0.1192405236
H  H78  1  0.22460000  0.03160000  0.32520000  1.0 0.1192405236
H  H79  1  0.03160000  0.22460000  0.17480000  1.0 0.1192405236
H  H80  1  0.10130000  0.90990000  0.30190000  1.0 0.1292440931
H  H81  1  0.90990000  0.10130000  0.19810000  1.0 0.1292440931
H  H82  1  0.91030000  0.91030000  0.25000000  1.0 0.1393804443
H  H83  1  0.18340000  0.63260000  0.43720000  1.0 0.1192405236
H  H84  1  0.63260000  0.18340000  0.06280000  1.0 0.1192405236
H  H85  1  0.09090000  0.60490000  0.20920000  1.0 0.1192405236
H  H86  1  0.60490000  0.09090000  0.29080000  1.0 0.1192405236
H  H87  1  0.04270000  0.72050000  0.19990000  1.0 0.1114245531
H  H88  1  0.72050000  0.04270000  0.30010000  1.0 0.1114245531
H  H89  1  0.23470000  0.51730000  0.44470000  1.0 0.1393804443
H  H90  1  0.51730000  0.23470000  0.05530000  1.0 0.1393804443
C  C1  1  0.78014000  0.72722000  0.58830000  1.0 0.5959637117
C  C2  1  0.72722000  0.78014000  0.91170000  1.0 0.5959637117
C  C3  1  0.80448000  0.77650000  0.54970000  1.0 -0.0100914624
C  C4  1  0.77650000  0.80448000  0.95030000  1.0 -0.0100914624
C  C5  1  0.76755000  0.82335000  0.46810000  1.0 -0.0896312966
C  C6  1  0.82335000  0.76755000  0.03190000  1.0 -0.0896312966
C  C7  1  0.79037000  0.86877000  0.43350000  1.0 -0.1490938219
C  C8  1  0.86877000  0.79037000  0.06650000  1.0 -0.1403760155
C  C9  1  0.85019000  0.86845000  0.48020000  1.0 0.1393804443
C  C10  1  0.86845000  0.85019000  0.01980000  1.0 0.1393804443
C  C11  1  0.88954000  0.81934000  0.56460000  1.0 -0.1490938219
C  C12  1  0.81934000  0.88954000  0.93540000  1.0 -0.1490938219
C  C13  1  0.86587000  0.77447000  0.59810000  1.0 -0.0896312966
C  C14  1  0.77447000  0.86587000  0.90190000  1.0 -0.0896312966
C  C15  1  0.87642000  0.91490000  0.44740000  1.0 -0.1212840277
C  C16  1  0.91490000  0.87642000  0.05260000  1.0 -0.1212840277
C  C17  1  0.90180000  0.95138000  0.42640000  1.0 -0.0799511104
C  C18  1  0.95138000  0.90180000  0.07360000  1.0 -0.0799511104
C  C19  1  0.93746000  0.99212000  0.40923000  1.0 0.1393804443
C  C20  1  0.99212000  0.93746000  0.09077000  1.0 0.1393804443
C  C21  1  0.89747000  0.06871000  0.36700000  1.0 -0.1798988533
C  C22  1  0.06871000  0.89747000  0.13300000  1.0 -0.1852557111
C  C23  1  0.93393000  0.10687000  0.35583000  1.0 0.1292440931
C  C24  1  0.10687000  0.93393000  0.14417000  1.0 0.1292440931
C  C25  1  0.00967000  0.06857000  0.38710000  1.0 -0.1798988533
C  C26  1  0.06857000  0.00967000  0.11290000  1.0 -0.1798988533
C  C27  1  0.04987000  0.99253000  0.42890000  1.0 0.1393804443
C  C28  1  0.99253000  0.04987000  0.07110000  1.0 0.1393804443
C  C29  1  0.01305000  0.95429000  0.43960000  1.0 -0.1696257341
C  C30  1  0.95429000  0.01305000  0.06040000  1.0 -0.1696257341
C  C31  1  0.89486000  0.18550000  0.30920000  1.0 -0.0896312966
C  C32  1  0.18550000  0.89486000  0.19080000  1.0 -0.0896312966
C  C33  1  0.86715000  0.24999000  0.26910000  1.0 -0.0995563937
C  C34  1  0.24999000  0.86715000  0.23090000  1.0 -0.0995563937
C  C35  1  0.83348000  0.32768000  0.21620000  1.0 0.1393804443
C  C36  1  0.32768000  0.83348000  0.28380000  1.0 0.1292440931
C  C37  1  0.79523000  0.37983000  0.23390000  1.0 -0.1403760155
C  C38  1  0.37983000  0.79523000  0.26610000  1.0 -0.1403760155
C  C39  1  0.76383000  0.45403000  0.18060000  1.0 -0.0799511104
C  C40  1  0.45403000  0.76383000  0.31940000  1.0 -0.0799511104
C  C41  1  0.76830000  0.47590000  0.11070000  1.0 0.0086819032
C  C42  1  0.47590000  0.76830000  0.38930000  1.0 0.0086819032
C  C43  1  0.80390000  0.42390000  0.09270000  1.0 -0.0995563937
C  C44  1  0.42390000  0.80390000  0.40730000  1.0 -0.0995563937
C  C45  1  0.83642000  0.35042000  0.14480000  1.0 -0.15983482
C  C46  1  0.35042000  0.83642000  0.35520000  1.0 -0.15983482
C  C47  1  0.73335000  0.55615000  0.05150000  1.0 0.5242867422
C  C48  1  0.55615000  0.73335000  0.44850000  1.0 0.5261262011
C  C49  1  0.12830000  0.95406000  0.46120000  1.0 -0.0799511104
C  C50  1  0.95406000  0.12830000  0.03880000  1.0 -0.0799511104
C  C51  1  0.19334000  0.92542000  0.48780000  1.0 -0.1212840277
C  C52  1  0.92542000  0.19334000  0.01220000  1.0 -0.1212840277
C  C53  1  0.27190000  0.89046000  0.52250000  1.0 0.1393804443
C  C54  1  0.89046000  0.27190000  0.97750000  1.0 0.1393804443
C  C55  1  0.30638000  0.92958000  0.52080000  1.0 -0.1490938219
C  C56  1  0.92958000  0.30638000  0.97920000  1.0 -0.1490938219
C  C57  1  0.38275000  0.89435000  0.55830000  1.0 -0.0896312966
C  C58  1  0.89435000  0.38275000  0.94170000  1.0 -0.0896312966
C  C59  1  0.42572000  0.82012000  0.59860000  1.0 -0.0255656923
C  C60  1  0.82012000  0.42572000  0.90140000  1.0 -0.0255656923
C  C61  1  0.39001000  0.78121000  0.59760000  1.0 -0.0896312966
C  C62  1  0.78121000  0.39001000  0.90240000  1.0 -0.0896312966
C  C63  1  0.31509000  0.81649000  0.55830000  1.0 -0.1403760155
C  C64  1  0.81649000  0.31509000  0.94170000  1.0 -0.1403760155
C  C65  1  0.50715000  0.78135000  0.64440000  1.0 0.5926250619
C  C66  1  0.78135000  0.50715000  0.85560000  1.0 0.5926250619
C  C67  1  0.76144000  0.76144000  0.75000000  1.0 0.5792838585
C  C68  1  0.80221000  0.80221000  0.75000000  1.0 -0.0100914624
C  C69  1  0.76410000  0.87854000  0.70510000  1.0 -0.0995563937
C  C70  1  0.87854000  0.76410000  0.79490000  1.0 -0.0995563937
C  C71  1  0.80152000  0.91638000  0.70520000  1.0 -0.1403760155
C  C72  1  0.91638000  0.80152000  0.79480000  1.0 -0.1403760155
C  C73  1  0.87737000  0.87737000  0.75000000  1.0 0.1393804443
C  C74  1  0.91699000  0.91699000  0.75000000  1.0 -0.1212840277
C  C75  1  0.94933000  0.94933000  0.75000000  1.0 -0.0896312966
C  C76  1  0.98842000  0.98842000  0.75000000  1.0 0.1393804443
C  C77  1  0.95055000  0.06401000  0.72010000  1.0 -0.1798988533
C  C78  1  0.06401000  0.95055000  0.77990000  1.0 -0.1798988533
C  C79  1  0.06395000  0.06395000  0.75000000  1.0 -0.1798988533
C  C80  1  0.98868000  0.10152000  0.72230000  1.0 0.1292440931
C  C81  1  0.10152000  0.98868000  0.77770000  1.0 0.1292440931
C  C82  1  0.95164000  0.17810000  0.70060000  1.0 -0.0799511104
C  C83  1  0.17810000  0.95164000  0.79940000  1.0 -0.0799511104
C  C84  1  0.92300000  0.24000000  0.68890000  1.0 -0.1080598693
C  C85  1  0.24000000  0.92300000  0.81110000  1.0 -0.1080598693
C  C86  1  0.89225000  0.31193000  0.68200000  1.0 0.1393804443
C  C87  1  0.31193000  0.89225000  0.81800000  1.0 0.1393804443
C  C88  1  0.83544000  0.37264000  0.60960000  1.0 -0.1403760155
C  C89  1  0.37264000  0.83544000  0.89040000  1.0 -0.1403760155
C  C90  1  0.80025000  0.52501000  0.66630000  1.0 0.5926250619
C  C91  1  0.52501000  0.80025000  0.83370000  1.0 0.5926250619
C  C92  1  0.83309000  0.45057000  0.67070000  1.0 -0.0042775006
C  C93  1  0.45057000  0.83309000  0.82930000  1.0 -0.0100914624
C  C94  1  0.89012000  0.38948000  0.74430000  1.0 -0.0896312966
C  C95  1  0.38948000  0.89012000  0.75570000  1.0 -0.0896312966
C  C96  1  0.91884000  0.32106000  0.74960000  1.0 -0.15983482
C  C97  1  0.32106000  0.91884000  0.75040000  1.0 -0.15983482
C  C98  1  0.80558000  0.44138000  0.60500000  1.0 -0.0799511104
C  C99  1  0.44138000  0.80558000  0.89500000  1.0 -0.0799511104
C  C100  1  0.21986000  0.27278000  0.41170000  1.0 0.5959637117
C  C101  1  0.27278000  0.21986000  0.08830000  1.0 0.5959637117
C  C102  1  0.19552000  0.22350000  0.45030000  1.0 -0.0100914624
C  C103  1  0.22350000  0.19552000  0.04970000  1.0 -0.0100914624
C  C104  1  0.23245000  0.17665000  0.53190000  1.0 -0.0896312966
C  C105  1  0.17665000  0.23245000  0.96810000  1.0 -0.0896312966
C  C106  1  0.20963000  0.13123000  0.56650000  1.0 -0.1490938219
C  C107  1  0.13123000  0.20963000  0.93350000  1.0 -0.1403760155
C  C108  1  0.14981000  0.13155000  0.51980000  1.0 0.1393804443
C  C109  1  0.13155000  0.14981000  0.98020000  1.0 0.1393804443
C  C110  1  0.11046000  0.18066000  0.43540000  1.0 -0.1490938219
C  C111  1  0.18066000  0.11046000  0.06460000  1.0 -0.1490938219
C  C112  1  0.13413000  0.22553000  0.40190000  1.0 -0.0896312966
C  C113  1  0.22553000  0.13413000  0.09810000  1.0 -0.0896312966
C  C114  1  0.12358000  0.08510000  0.55260000  1.0 -0.1212840277
C  C115  1  0.08510000  0.12358000  0.94740000  1.0 -0.1212840277
C  C116  1  0.09820000  0.04862000  0.57360000  1.0 -0.0799511104
C  C117  1  0.04862000  0.09820000  0.92640000  1.0 -0.0799511104
C  C118  1  0.06254000  0.00788000  0.59077000  1.0 0.1393804443
C  C119  1  0.00788000  0.06254000  0.90923000  1.0 0.1393804443
C  C120  1  0.10253000  0.93129000  0.63300000  1.0 -0.1852557111
C  C121  1  0.93129000  0.10253000  0.86700000  1.0 -0.1852557111
C  C122  1  0.06607000  0.89313000  0.64417000  1.0 0.1292440931
C  C123  1  0.89313000  0.06607000  0.85583000  1.0 0.1292440931
C  C124  1  0.99033000  0.93143000  0.61290000  1.0 -0.1798988533
C  C125  1  0.93143000  0.99033000  0.88710000  1.0 -0.1798988533
C  C126  1  0.95013000  0.00747000  0.57110000  1.0 0.1393804443
C  C127  1  0.00747000  0.95013000  0.92890000  1.0 0.1393804443
C  C128  1  0.98695000  0.04571000  0.56040000  1.0 -0.1696257341
C  C129  1  0.04571000  0.98695000  0.93960000  1.0 -0.1696257341
C  C130  1  0.10514000  0.81450000  0.69080000  1.0 -0.0896312966
C  C131  1  0.81450000  0.10514000  0.80920000  1.0 -0.0896312966
C  C132  1  0.13285000  0.75001000  0.73090000  1.0 -0.0995563937
C  C133  1  0.75001000  0.13285000  0.76910000  1.0 -0.0995563937
C  C134  1  0.16652000  0.67232000  0.78380000  1.0 0.1393804443
C  C135  1  0.67232000  0.16652000  0.71620000  1.0 0.1393804443
C  C136  1  0.20477000  0.62017000  0.76610000  1.0 -0.1403760155
C  C137  1  0.62017000  0.20477000  0.73390000  1.0 -0.1403760155
C  C138  1  0.23617000  0.54597000  0.81940000  1.0 -0.0799511104
C  C139  1  0.54597000  0.23617000  0.68060000  1.0 -0.0799511104
C  C140  1  0.23170000  0.52410000  0.88930000  1.0 0.0086819032
C  C141  1  0.52410000  0.23170000  0.61070000  1.0 0.0086819032
C  C142  1  0.19610000  0.57610000  0.90730000  1.0 -0.0995563937
C  C143  1  0.57610000  0.19610000  0.59270000  1.0 -0.0995563937
C  C144  1  0.16358000  0.64958000  0.85520000  1.0 -0.15983482
C  C145  1  0.64958000  0.16358000  0.64480000  1.0 -0.15983482
C  C146  1  0.26665000  0.44385000  0.94850000  1.0 0.5261262011
C  C147  1  0.44385000  0.26665000  0.55150000  1.0 0.5242867422
C  C148  1  0.87170000  0.04594000  0.53880000  1.0 -0.0799511104
C  C149  1  0.04594000  0.87170000  0.96120000  1.0 -0.0799511104
C  C150  1  0.80666000  0.07458000  0.51220000  1.0 -0.1212840277
C  C151  1  0.07458000  0.80666000  0.98780000  1.0 -0.1212840277
C  C152  1  0.72810000  0.10954000  0.47750000  1.0 0.1393804443
C  C153  1  0.10954000  0.72810000  0.02250000  1.0 0.1393804443
C  C154  1  0.69362000  0.07042000  0.47920000  1.0 -0.1490938219
C  C155  1  0.07042000  0.69362000  0.02080000  1.0 -0.1490938219
C  C156  1  0.61725000  0.10565000  0.44170000  1.0 -0.0896312966
C  C157  1  0.10565000  0.61725000  0.05830000  1.0 -0.0896312966
C  C158  1  0.57428000  0.17988000  0.40140000  1.0 -0.0255656923
C  C159  1  0.17988000  0.57428000  0.09860000  1.0 -0.0255656923
C  C160  1  0.60999000  0.21879000  0.40240000  1.0 -0.0896312966
C  C161  1  0.21879000  0.60999000  0.09760000  1.0 -0.0896312966
C  C162  1  0.68491000  0.18351000  0.44170000  1.0 -0.1403760155
C  C163  1  0.18351000  0.68491000  0.05830000  1.0 -0.1403760155
C  C164  1  0.49285000  0.21865000  0.35560000  1.0 0.5926250619
C  C165  1  0.21865000  0.49285000  0.14440000  1.0 0.5926250619
C  C166  1  0.23856000  0.23856000  0.25000000  1.0 0.5792838585
C  C167  1  0.19779000  0.19779000  0.25000000  1.0 -0.0100914624
C  C168  1  0.23590000  0.12146000  0.29490000  1.0 -0.0995563937
C  C169  1  0.12146000  0.23590000  0.20510000  1.0 -0.0995563937
C  C170  1  0.19848000  0.08362000  0.29480000  1.0 -0.1403760155
C  C171  1  0.08362000  0.19848000  0.20520000  1.0 -0.1403760155
C  C172  1  0.12263000  0.12263000  0.25000000  1.0 0.1393804443
C  C173  1  0.08301000  0.08301000  0.25000000  1.0 -0.1212840277
C  C174  1  0.05067000  0.05067000  0.25000000  1.0 -0.0896312966
C  C175  1  0.01158000  0.01158000  0.25000000  1.0 0.1393804443
C  C176  1  0.04945000  0.93599000  0.27990000  1.0 -0.1798988533
C  C177  1  0.93599000  0.04945000  0.22010000  1.0 -0.1798988533
C  C178  1  0.93605000  0.93605000  0.25000000  1.0 -0.1798988533
C  C179  1  0.01132000  0.89848000  0.27770000  1.0 0.1292440931
C  C180  1  0.89848000  0.01132000  0.22230000  1.0 0.1292440931
C  C181  1  0.04836000  0.82190000  0.29940000  1.0 -0.0799511104
C  C182  1  0.82190000  0.04836000  0.20060000  1.0 -0.0799511104
C  C183  1  0.07700000  0.76000000  0.31110000  1.0 -0.1080598693
C  C184  1  0.76000000  0.07700000  0.18890000  1.0 -0.1080598693
C  C185  1  0.10775000  0.68807000  0.31800000  1.0 0.1393804443
C  C186  1  0.68807000  0.10775000  0.18200000  1.0 0.1393804443
C  C187  1  0.16456000  0.62736000  0.39040000  1.0 -0.1403760155
C  C188  1  0.62736000  0.16456000  0.10960000  1.0 -0.1403760155
C  C189  1  0.19975000  0.47499000  0.33370000  1.0 0.5926250619
C  C190  1  0.47499000  0.19975000  0.16630000  1.0 0.5926250619
C  C191  1  0.16691000  0.54943000  0.32930000  1.0 -0.0042775006
C  C192  1  0.54943000  0.16691000  0.17070000  1.0 -0.0042775006
C  C193  1  0.10988000  0.61052000  0.25570000  1.0 -0.0896312966
C  C194  1  0.61052000  0.10988000  0.24430000  1.0 -0.0896312966
C  C195  1  0.08116000  0.67894000  0.25040000  1.0 -0.15983482
C  C196  1  0.67894000  0.08116000  0.24960000  1.0 -0.15983482
C  C197  1  0.19442000  0.55862000  0.39500000  1.0 -0.0799511104
C  C198  1  0.55862000  0.19442000  0.10500000  1.0 -0.0799511104
O  O1  1  0.72258000  0.73196000  0.54152000  1.0 -0.5203611004
O  O2  1  0.73196000  0.72258000  0.95848000  1.0 -0.5203611004
O  O3  1  0.81860000  0.68460000  0.66395000  1.0 -0.5687785196
O  O4  1  0.68460000  0.81860000  0.83605000  1.0 -0.5687785196
O  O5  1  0.69861000  0.60345000  0.06380000  1.0 -0.4188109833
O  O6  1  0.60345000  0.69861000  0.43620000  1.0 -0.4116358507
O  O7  1  0.73858000  0.57138000  0.98990000  1.0 -0.451421355
O  O8  1  0.57138000  0.73858000  0.51010000  1.0 -0.451421355
O  O9  1  0.53764000  0.81872000  0.64253000  1.0 -0.5101773191
O  O10  1  0.81872000  0.53764000  0.85747000  1.0 -0.5101773191
O  O11  1  0.54027000  0.71223000  0.68420000  1.0 -0.5481040526
O  O12  1  0.71223000  0.54027000  0.81580000  1.0 -0.5481040526
O  O13  1  0.74056000  0.57436000  0.60298000  1.0 -0.5301110494
O  O14  1  0.57436000  0.74056000  0.89702000  1.0 -0.5301110494
O  O15  1  0.83401000  0.53225000  0.72381000  1.0 -0.5632174957
O  O16  1  0.53225000  0.83401000  0.77619000  1.0 -0.5632174957
O  O17  1  0.79743000  0.69379000  0.80058000  1.0 -0.4977974344
O  O18  1  0.69379000  0.79743000  0.69942000  1.0 -0.4977974344
O  O19  1  0.69832000  0.67276000  0.68706000  1.0 -0.8504186618
O  O20  1  0.67276000  0.69832000  0.81294000  1.0 -0.8504186618
O  O21  1  0.27742000  0.26804000  0.45848000  1.0 -0.5203611004
O  O22  1  0.26804000  0.27742000  0.04152000  1.0 -0.5203611004
O  O23  1  0.18140000  0.31540000  0.33605000  1.0 -0.5687785196
O  O24  1  0.31540000  0.18140000  0.16395000  1.0 -0.5687785196
O  O25  1  0.30139000  0.39655000  0.93620000  1.0 -0.4188109833
O  O26  1  0.39655000  0.30139000  0.56380000  1.0 -0.4116358507
O  O27  1  0.26142000  0.42862000  0.01010000  1.0 -0.451421355
O  O28  1  0.42862000  0.26142000  0.48990000  1.0 -0.451421355
O  O29  1  0.46236000  0.18128000  0.35747000  1.0 -0.5101773191
O  O30  1  0.18128000  0.46236000  0.14253000  1.0 -0.5101773191
O  O31  1  0.45973000  0.28777000  0.31580000  1.0 -0.5481040526
O  O32  1  0.28777000  0.45973000  0.18420000  1.0 -0.5481040526
O  O33  1  0.25944000  0.42564000  0.39702000  1.0 -0.5301110494
O  O34  1  0.42564000  0.25944000  0.10298000  1.0 -0.5301110494
O  O35  1  0.16599000  0.46775000  0.27619000  1.0 -0.5632174957
O  O36  1  0.46775000  0.16599000  0.22381000  1.0 -0.5632174957
O  O37  1  0.20257000  0.30621000  0.19942000  1.0 -0.4977974344
O  O38  1  0.30621000  0.20257000  0.30058000  1.0 -0.4977974344
O  O39  1  0.30168000  0.32724000  0.31294000  1.0 -0.8504186618
O  O40  1  0.32724000  0.30168000  0.18706000  1.0 -0.8504186618
