# DDEC6 charges by PACMAN v1.1 (https://github.com/mtap-research/PACMAN-charge/)
data_KULMIO_ASR_pacman
_symmetry_space_group_name_H-M   'P 1'
_cell_length_a   17.11450000
_cell_length_b   17.11450000
_cell_length_c   17.10200000
_cell_angle_alpha   87.38250000
_cell_angle_beta   92.61750000
_cell_angle_gamma   94.65770000
_symmetry_Int_Tables_number   1
_chemical_formula_structural   Zn4H34C57S4O21
_chemical_formula_sum   'Zn8 H68 C114 S8 O42'
_cell_volume   4983.09769104
_cell_formula_units_Z   2
loop_
 _symmetry_equiv_pos_site_id
 _symmetry_equiv_pos_as_xyz
  1  'x, y, z'
loop_
 _atom_site_type_symbol
 _atom_site_label
 _atom_site_symmetry_multiplicity
 _atom_site_fract_x
 _atom_site_fract_y
 _atom_site_fract_z
 _atom_site_occupancy
 _atom_site_charge
Zn  Zn1  1  0.08059000  0.91941000  0.18451000  1.0 0.8698817999
Zn  Zn2  1  0.08046000  0.78556000  0.31645000  1.0 0.950846097
Zn  Zn3  1  0.21444000  0.91954000  0.31645000  1.0 0.950846097
Zn  Zn4  1  0.20782000  0.79218000  0.18385000  1.0 0.9311069162
Zn  Zn5  1  0.91941000  0.08059000  0.81549000  1.0 0.8698817999
Zn  Zn6  1  0.78556000  0.08046000  0.68355000  1.0 0.950846097
Zn  Zn7  1  0.91954000  0.21444000  0.68355000  1.0 0.950846097
Zn  Zn8  1  0.79218000  0.20782000  0.81615000  1.0 0.9311069162
H  H1  1  0.83610000  0.93750000  0.17550000  1.0 0.1063471671
H  H2  1  0.06250000  0.16390000  0.17550000  1.0 0.1063471671
H  H3  1  0.70030000  0.94010000  0.18510000  1.0 0.1400573612
H  H4  1  0.05990000  0.29970000  0.18510000  1.0 0.1400573612
H  H5  1  0.83810000  0.76450000  0.34540000  1.0 0.1624948145
H  H6  1  0.23550000  0.16190000  0.34540000  1.0 0.1624948145
H  H7  1  0.58110000  0.79090000  0.18100000  1.0 0.1227885992
H  H8  1  0.20910000  0.41890000  0.18100000  1.0 0.1227885992
H  H9  1  0.44470000  0.79590000  0.17450000  1.0 0.1316639245
H  H10  1  0.20410000  0.55530000  0.17450000  1.0 0.1316639245
H  H11  1  0.46080000  0.93520000  0.36090000  1.0 0.1400573612
H  H12  1  0.06480000  0.53920000  0.36090000  1.0 0.1400573612
H  H13  1  0.51040000  0.87040000  0.56890000  1.0 0.1814218038
H  H14  1  0.12960000  0.48960000  0.56890000  1.0 0.1814218038
H  H15  1  0.48660000  0.93160000  0.50000000  1.0 0.1480452613
H  H16  1  0.06840000  0.51340000  0.50000000  1.0 0.1480452613
H  H17  1  0.48850000  0.84070000  0.48270000  1.0 0.1624948145
H  H18  1  0.15930000  0.51150000  0.48270000  1.0 0.1624948145
H  H19  1  0.07240000  0.76180000  0.56420000  1.0 0.1480452613
H  H20  1  0.23820000  0.92760000  0.56420000  1.0 0.1480452613
H  H21  1  0.06240000  0.76920000  0.69520000  1.0 0.1400573612
H  H22  1  0.23080000  0.93760000  0.69520000  1.0 0.1400573612
H  H23  1  0.05290000  0.92850000  0.79080000  1.0 0.1480452613
H  H24  1  0.07150000  0.94710000  0.79080000  1.0 0.1480452613
H  H25  1  0.03740000  0.93020000  0.92600000  1.0 0.1063471671
H  H26  1  0.06980000  0.96260000  0.92600000  1.0 0.1063471671
H  H27  1  0.21950000  0.79410000  0.96430000  1.0 0.1480452613
H  H28  1  0.20590000  0.78050000  0.96430000  1.0 0.1480452613
H  H29  1  0.47510000  0.78570000  0.83400000  1.0 0.1814218038
H  H30  1  0.21430000  0.52490000  0.83400000  1.0 0.1814218038
H  H31  1  0.40510000  0.72190000  0.81120000  1.0 0.1480452613
H  H32  1  0.27810000  0.59490000  0.81120000  1.0 0.1480452613
H  H33  1  0.43700000  0.78600000  0.74670000  1.0 0.1624948145
H  H34  1  0.21400000  0.56300000  0.74670000  1.0 0.1624948145
H  H35  1  0.93750000  0.83610000  0.82450000  1.0 0.1063471671
H  H36  1  0.16390000  0.06250000  0.82450000  1.0 0.1063471671
H  H37  1  0.94010000  0.70030000  0.81490000  1.0 0.1400573612
H  H38  1  0.29970000  0.05990000  0.81490000  1.0 0.1400573612
H  H39  1  0.76450000  0.83810000  0.65460000  1.0 0.1624948145
H  H40  1  0.16190000  0.23550000  0.65460000  1.0 0.1624948145
H  H41  1  0.79090000  0.58110000  0.81900000  1.0 0.1227885992
H  H42  1  0.41890000  0.20910000  0.81900000  1.0 0.1227885992
H  H43  1  0.79590000  0.44470000  0.82550000  1.0 0.1316639245
H  H44  1  0.55530000  0.20410000  0.82550000  1.0 0.1316639245
H  H45  1  0.93520000  0.46080000  0.63910000  1.0 0.1400573612
H  H46  1  0.53920000  0.06480000  0.63910000  1.0 0.1400573612
H  H47  1  0.87040000  0.51040000  0.43110000  1.0 0.1814218038
H  H48  1  0.48960000  0.12960000  0.43110000  1.0 0.1814218038
H  H49  1  0.93160000  0.48660000  0.50000000  1.0 0.1480452613
H  H50  1  0.51340000  0.06840000  0.50000000  1.0 0.1480452613
H  H51  1  0.84070000  0.48850000  0.51730000  1.0 0.1624948145
H  H52  1  0.51150000  0.15930000  0.51730000  1.0 0.1624948145
H  H53  1  0.76180000  0.07240000  0.43580000  1.0 0.1480452613
H  H54  1  0.92760000  0.23820000  0.43580000  1.0 0.1480452613
H  H55  1  0.76920000  0.06240000  0.30480000  1.0 0.1400573612
H  H56  1  0.93760000  0.23080000  0.30480000  1.0 0.1400573612
H  H57  1  0.92850000  0.05290000  0.20920000  1.0 0.1480452613
H  H58  1  0.94710000  0.07150000  0.20920000  1.0 0.1480452613
H  H59  1  0.93020000  0.03740000  0.07400000  1.0 0.1063471671
H  H60  1  0.96260000  0.06980000  0.07400000  1.0 0.1063471671
H  H61  1  0.79410000  0.21950000  0.03570000  1.0 0.1480452613
H  H62  1  0.78050000  0.20590000  0.03570000  1.0 0.1480452613
H  H63  1  0.78570000  0.47510000  0.16600000  1.0 0.1814218038
H  H64  1  0.52490000  0.21430000  0.16600000  1.0 0.1814218038
H  H65  1  0.72190000  0.40510000  0.18880000  1.0 0.1480452613
H  H66  1  0.59490000  0.27810000  0.18880000  1.0 0.1480452613
H  H67  1  0.78600000  0.43700000  0.25330000  1.0 0.1624948145
H  H68  1  0.56300000  0.21400000  0.25330000  1.0 0.1624948145
C  C1  1  0.93660000  0.85000000  0.25560000  1.0 0.5998647423
C  C2  1  0.15000000  0.06340000  0.25560000  1.0 0.5998647423
C  C3  1  0.84983000  0.85077000  0.25960000  1.0 -0.0199370104
C  C4  1  0.14923000  0.15017000  0.25960000  1.0 -0.0199370104
C  C5  1  0.80891000  0.90289000  0.21200000  1.0 -0.1131032905
C  C6  1  0.09711000  0.19109000  0.21200000  1.0 -0.1131032905
C  C7  1  0.72834000  0.90446000  0.21770000  1.0 -0.1303841858
C  C8  1  0.09554000  0.27166000  0.21770000  1.0 -0.1303841858
C  C9  1  0.68860000  0.85380000  0.27100000  1.0 0.0532949181
C  C10  1  0.14620000  0.31140000  0.27100000  1.0 0.0532949181
C  C11  1  0.72950000  0.80170000  0.31860000  1.0 0.0705472851
C  C12  1  0.19830000  0.27050000  0.31860000  1.0 0.0705472851
C  C13  1  0.81010000  0.80010000  0.31290000  1.0 -0.1220487593
C  C14  1  0.19990000  0.18990000  0.31290000  1.0 -0.1220487593
C  C15  1  0.60194000  0.86006000  0.27481000  1.0 0.0587102072
C  C16  1  0.13994000  0.39806000  0.27481000  1.0 0.0587102072
C  C17  1  0.55664000  0.82016000  0.21750000  1.0 -0.1220487593
C  C18  1  0.17984000  0.44336000  0.21750000  1.0 -0.1220487593
C  C19  1  0.47566000  0.82318000  0.21360000  1.0 -0.0853984742
C  C20  1  0.17682000  0.52434000  0.21360000  1.0 -0.0853984742
C  C21  1  0.43992000  0.86602000  0.26710000  1.0 -0.0294351284
C  C22  1  0.13398000  0.56008000  0.26710000  1.0 -0.0294351284
C  C23  1  0.48518000  0.90588000  0.32440000  1.0 -0.1303841858
C  C24  1  0.09412000  0.51482000  0.32440000  1.0 -0.1303841858
C  C25  1  0.56620000  0.90290000  0.32830000  1.0 0.1227885992
C  C26  1  0.09710000  0.43380000  0.32830000  1.0 0.1227885992
C  C27  1  0.35346000  0.86312000  0.26850000  1.0 0.6057662875
C  C28  1  0.13688000  0.64654000  0.26850000  1.0 0.6057662875
C  C29  1  0.60940000  0.94596000  0.40750000  1.0 -0.3859816758
C  C30  1  0.05404000  0.39060000  0.40750000  1.0 -0.3848108737
C  C31  1  0.51360000  0.88400000  0.51280000  1.0 -0.5301826238
C  C32  1  0.11600000  0.48640000  0.51280000  1.0 -0.5301826238
C  C33  1  0.15205000  0.84795000  0.46133000  1.0 0.6165205152
C  C34  1  0.15137000  0.84863000  0.54919000  1.0 0.0016827672
C  C35  1  0.10495000  0.80065000  0.59070000  1.0 -0.0701852976
C  C36  1  0.19935000  0.89505000  0.59070000  1.0 -0.0701852976
C  C37  1  0.10047000  0.80313000  0.66923000  1.0 -0.1623655646
C  C38  1  0.19687000  0.89953000  0.66923000  1.0 -0.1623655646
C  C39  1  0.14806000  0.85194000  0.71084000  1.0 0.0587102072
C  C40  1  0.14532000  0.86028000  0.79730000  1.0 0.0587102072
C  C41  1  0.13972000  0.85468000  0.79730000  1.0 0.0587102072
C  C42  1  0.08662000  0.90118000  0.82600000  1.0 -0.1392241208
C  C43  1  0.09882000  0.91338000  0.82600000  1.0 -0.1392241208
C  C44  1  0.07742000  0.90218000  0.90630000  1.0 -0.0199370104
C  C45  1  0.09782000  0.92258000  0.90630000  1.0 -0.0199370104
C  C46  1  0.12704000  0.86236000  0.95780000  1.0 -0.0085966578
C  C47  1  0.13764000  0.87296000  0.95780000  1.0 -0.0085966578
C  C48  1  0.18574000  0.82146000  0.92910000  1.0 -0.1303841858
C  C49  1  0.17854000  0.81426000  0.92910000  1.0 -0.1303841858
C  C50  1  0.19493000  0.82047000  0.84880000  1.0 0.1063471671
C  C51  1  0.17953000  0.80507000  0.84880000  1.0 0.1063471671
C  C52  1  0.12180000  0.86300000  0.04430000  1.0 0.2703406425
C  C53  1  0.13700000  0.87820000  0.04430000  1.0 0.2703406425
C  C54  1  0.25850000  0.79170000  0.81420000  1.0 -0.1220487593
C  C55  1  0.20830000  0.74150000  0.81420000  1.0 -0.1220487593
C  C56  1  0.42620000  0.77640000  0.80230000  1.0 -0.5437414437
C  C57  1  0.22360000  0.57380000  0.80230000  1.0 -0.5437414437
C  C58  1  0.85000000  0.93660000  0.74440000  1.0 0.5998647423
C  C59  1  0.06340000  0.15000000  0.74440000  1.0 0.5998647423
C  C60  1  0.85077000  0.84983000  0.74040000  1.0 -0.0199370104
C  C61  1  0.15017000  0.14923000  0.74040000  1.0 -0.0199370104
C  C62  1  0.90289000  0.80891000  0.78800000  1.0 -0.1131032905
C  C63  1  0.19109000  0.09711000  0.78800000  1.0 -0.1131032905
C  C64  1  0.90446000  0.72834000  0.78230000  1.0 -0.1303841858
C  C65  1  0.27166000  0.09554000  0.78230000  1.0 -0.1303841858
C  C66  1  0.85380000  0.68860000  0.72900000  1.0 0.0532949181
C  C67  1  0.31140000  0.14620000  0.72900000  1.0 0.0532949181
C  C68  1  0.80170000  0.72950000  0.68140000  1.0 0.0705472851
C  C69  1  0.27050000  0.19830000  0.68140000  1.0 0.0705472851
C  C70  1  0.80010000  0.81010000  0.68710000  1.0 -0.1220487593
C  C71  1  0.18990000  0.19990000  0.68710000  1.0 -0.1220487593
C  C72  1  0.86006000  0.60194000  0.72519000  1.0 0.0587102072
C  C73  1  0.39806000  0.13994000  0.72519000  1.0 0.0587102072
C  C74  1  0.82016000  0.55664000  0.78250000  1.0 -0.1220487593
C  C75  1  0.44336000  0.17984000  0.78250000  1.0 -0.1220487593
C  C76  1  0.82318000  0.47566000  0.78640000  1.0 -0.0853984742
C  C77  1  0.52434000  0.17682000  0.78640000  1.0 -0.0853984742
C  C78  1  0.86602000  0.43992000  0.73290000  1.0 -0.0294351284
C  C79  1  0.56008000  0.13398000  0.73290000  1.0 -0.0294351284
C  C80  1  0.90588000  0.48518000  0.67560000  1.0 -0.1303841858
C  C81  1  0.51482000  0.09412000  0.67560000  1.0 -0.1303841858
C  C82  1  0.90290000  0.56620000  0.67170000  1.0 0.1227885992
C  C83  1  0.43380000  0.09710000  0.67170000  1.0 0.1227885992
C  C84  1  0.86312000  0.35346000  0.73150000  1.0 0.6057662875
C  C85  1  0.64654000  0.13688000  0.73150000  1.0 0.6057662875
C  C86  1  0.94596000  0.60940000  0.59250000  1.0 -0.3859816758
C  C87  1  0.39060000  0.05404000  0.59250000  1.0 -0.3859816758
C  C88  1  0.88400000  0.51360000  0.48720000  1.0 -0.5301826238
C  C89  1  0.48640000  0.11600000  0.48720000  1.0 -0.5301826238
C  C90  1  0.84795000  0.15205000  0.53867000  1.0 0.6165205152
C  C91  1  0.84863000  0.15137000  0.45081000  1.0 0.0016827672
C  C92  1  0.80065000  0.10495000  0.40930000  1.0 -0.0701852976
C  C93  1  0.89505000  0.19935000  0.40930000  1.0 -0.0701852976
C  C94  1  0.80313000  0.10047000  0.33077000  1.0 -0.1623655646
C  C95  1  0.89953000  0.19687000  0.33077000  1.0 -0.1623655646
C  C96  1  0.85194000  0.14806000  0.28916000  1.0 0.0587102072
C  C97  1  0.86028000  0.14532000  0.20270000  1.0 0.0587102072
C  C98  1  0.85468000  0.13972000  0.20270000  1.0 0.0587102072
C  C99  1  0.90118000  0.08662000  0.17400000  1.0 -0.1392241208
C  C100  1  0.91338000  0.09882000  0.17400000  1.0 -0.1392241208
C  C101  1  0.90218000  0.07742000  0.09370000  1.0 -0.0199370104
C  C102  1  0.92258000  0.09782000  0.09370000  1.0 -0.0199370104
C  C103  1  0.86236000  0.12704000  0.04220000  1.0 -0.0085966578
C  C104  1  0.87296000  0.13764000  0.04220000  1.0 -0.0085966578
C  C105  1  0.82146000  0.18574000  0.07090000  1.0 -0.1303841858
C  C106  1  0.81426000  0.17854000  0.07090000  1.0 -0.1303841858
C  C107  1  0.82047000  0.19493000  0.15120000  1.0 0.1063471671
C  C108  1  0.80507000  0.17953000  0.15120000  1.0 0.1063471671
C  C109  1  0.86300000  0.12180000  0.95570000  1.0 0.2703406425
C  C110  1  0.87820000  0.13700000  0.95570000  1.0 0.2703406425
C  C111  1  0.79170000  0.25850000  0.18580000  1.0 -0.1220487593
C  C112  1  0.74150000  0.20830000  0.18580000  1.0 -0.1220487593
C  C113  1  0.77640000  0.42620000  0.19770000  1.0 -0.5437414437
C  C114  1  0.57380000  0.22360000  0.19770000  1.0 -0.5437414437
S  S1  1  0.59630000  0.89770000  0.49280000  1.0 1.086119643
S  S2  1  0.10230000  0.40370000  0.49280000  1.0 1.086119643
S  S3  1  0.36130000  0.83670000  0.82790000  1.0 0.7569462867
S  S4  1  0.16330000  0.63870000  0.82790000  1.0 0.7569462867
S  S5  1  0.89770000  0.59630000  0.50720000  1.0 1.086119643
S  S6  1  0.40370000  0.10230000  0.50720000  1.0 1.086119643
S  S7  1  0.83670000  0.36130000  0.17210000  1.0 0.7569462867
S  S8  1  0.63870000  0.16330000  0.17210000  1.0 0.7569462867
O  O1  1  0.14548000  0.85452000  0.25090000  1.0 -0.9912764518
O  O2  1  0.96899000  0.89649000  0.20480000  1.0 -0.561584407
O  O3  1  0.10351000  0.03101000  0.20480000  1.0 -0.561584407
O  O4  1  0.96911000  0.80057000  0.29900000  1.0 -0.4992695539
O  O5  1  0.19943000  0.03089000  0.29900000  1.0 -0.4992695539
O  O6  1  0.31310000  0.82130000  0.22070000  1.0 -0.5540914624
O  O7  1  0.17870000  0.68690000  0.22070000  1.0 -0.5540914624
O  O8  1  0.32574000  0.91190000  0.31050000  1.0 -0.4875101535
O  O9  1  0.08810000  0.67426000  0.31050000  1.0 -0.4875101535
O  O10  1  0.10318000  0.79982000  0.42800000  1.0 -0.5197319725
O  O11  1  0.20018000  0.89682000  0.42800000  1.0 -0.5197319725
O  O12  1  0.17440000  0.82560000  0.08470000  1.0 -0.3859816758
O  O13  1  0.08400000  0.91600000  0.07190000  1.0 -0.3712107776
O  O14  1  0.63410000  0.82030000  0.49580000  1.0 -0.5123846619
O  O15  1  0.17970000  0.36590000  0.49580000  1.0 -0.5123846619
O  O16  1  0.64280000  0.94680000  0.56020000  1.0 -0.5437414437
O  O17  1  0.05320000  0.35720000  0.56020000  1.0 -0.5437414437
O  O18  1  0.38540000  0.84640000  0.91790000  1.0 -0.5197319725
O  O19  1  0.15360000  0.61460000  0.91790000  1.0 -0.5197319725
O  O20  1  0.37890000  0.91630000  0.78120000  1.0 -0.5197319725
O  O21  1  0.08370000  0.62110000  0.78120000  1.0 -0.5197319725
O  O22  1  0.85452000  0.14548000  0.74910000  1.0 -0.9912764518
O  O23  1  0.89649000  0.96899000  0.79520000  1.0 -0.561584407
O  O24  1  0.03101000  0.10351000  0.79520000  1.0 -0.561584407
O  O25  1  0.80057000  0.96911000  0.70100000  1.0 -0.4992695539
O  O26  1  0.03089000  0.19943000  0.70100000  1.0 -0.4992695539
O  O27  1  0.82130000  0.31310000  0.77930000  1.0 -0.5540914624
O  O28  1  0.68690000  0.17870000  0.77930000  1.0 -0.5540914624
O  O29  1  0.91190000  0.32574000  0.68950000  1.0 -0.4875101535
O  O30  1  0.67426000  0.08810000  0.68950000  1.0 -0.4875101535
O  O31  1  0.79982000  0.10318000  0.57200000  1.0 -0.5197319725
O  O32  1  0.89682000  0.20018000  0.57200000  1.0 -0.5197319725
O  O33  1  0.82560000  0.17440000  0.91530000  1.0 -0.3859816758
O  O34  1  0.91600000  0.08400000  0.92810000  1.0 -0.3712107776
O  O35  1  0.82030000  0.63410000  0.50420000  1.0 -0.5123846619
O  O36  1  0.36590000  0.17970000  0.50420000  1.0 -0.5123846619
O  O37  1  0.94680000  0.64280000  0.43980000  1.0 -0.5437414437
O  O38  1  0.35720000  0.05320000  0.43980000  1.0 -0.5437414437
O  O39  1  0.84640000  0.38540000  0.08210000  1.0 -0.5197319725
O  O40  1  0.61460000  0.15360000  0.08210000  1.0 -0.5197319725
O  O41  1  0.91630000  0.37890000  0.21880000  1.0 -0.5197319725
O  O42  1  0.62110000  0.08370000  0.21880000  1.0 -0.5197319725
