# DDEC6 charges by PACMAN v1.1 (https://github.com/mtap-research/PACMAN-charge/)
data_KUMXAU_ASR_pacman
_symmetry_space_group_name_H-M   'P 1'
_cell_length_a   17.58900000
_cell_length_b   17.58900000
_cell_length_c   9.93000000
_cell_angle_alpha   78.08100000
_cell_angle_beta   101.91900000
_cell_angle_gamma   50.72900000
_symmetry_Int_Tables_number   1
_chemical_formula_structural   ZnH18C37(NO)3
_chemical_formula_sum   'Zn2 H36 C74 N6 O6'
_cell_volume   2083.62089229
_cell_formula_units_Z   2
loop_
 _symmetry_equiv_pos_site_id
 _symmetry_equiv_pos_as_xyz
  1  'x, y, z'
loop_
 _atom_site_type_symbol
 _atom_site_label
 _atom_site_symmetry_multiplicity
 _atom_site_fract_x
 _atom_site_fract_y
 _atom_site_fract_z
 _atom_site_occupancy
 _atom_site_charge
Zn  Zn1  1  0.67703000  0.67703000  0.75000000  1.0 0.4741562363
Zn  Zn2  1  0.32297000  0.32297000  0.25000000  1.0 0.4741562363
H  H1  1  0.98058000  0.78636000  0.97861000  1.0 0.1173644912
H  H2  1  0.25935000  0.99603000  0.02248000  1.0 0.1060748454
H  H3  1  0.75889000  0.73675000  0.95608000  1.0 0.0888414793
H  H4  1  0.83586000  0.80512000  0.96439000  1.0 0.1391998585
H  H5  1  0.24873000  0.78655000  0.25134000  1.0 0.1173644912
H  H6  1  0.33642000  0.77744000  0.45889000  1.0 0.1297532152
H  H7  1  0.48286000  0.70856000  0.67121000  1.0 0.1021662112
H  H8  1  0.58564000  0.78566000  0.40972000  1.0 0.0888414793
H  H9  1  0.43490000  0.86802000  0.19113000  1.0 0.1297532152
H  H10  1  0.78636000  0.98058000  0.52139000  1.0 0.1173644912
H  H11  1  0.99603000  0.25935000  0.47752000  1.0 0.1060748454
H  H12  1  0.73675000  0.75889000  0.54392000  1.0 0.0888414793
H  H13  1  0.80512000  0.83586000  0.53561000  1.0 0.1391998585
H  H14  1  0.78655000  0.24873000  0.24866000  1.0 0.1173644912
H  H15  1  0.77744000  0.33642000  0.04111000  1.0 0.1297532152
H  H16  1  0.70856000  0.48286000  0.82879000  1.0 0.1021662112
H  H17  1  0.78566000  0.58564000  0.09028000  1.0 0.0888414793
H  H18  1  0.86802000  0.43490000  0.30887000  1.0 0.1297532152
H  H19  1  0.01942000  0.21364000  0.02139000  1.0 0.1173644912
H  H20  1  0.74065000  0.00397000  0.97752000  1.0 0.1060748454
H  H21  1  0.24111000  0.26325000  0.04392000  1.0 0.0888414793
H  H22  1  0.16414000  0.19488000  0.03561000  1.0 0.1391998585
H  H23  1  0.75127000  0.21345000  0.74866000  1.0 0.1173644912
H  H24  1  0.66358000  0.22256000  0.54111000  1.0 0.1297532152
H  H25  1  0.51714000  0.29144000  0.32879000  1.0 0.1021662112
H  H26  1  0.41436000  0.21434000  0.59028000  1.0 0.0888414793
H  H27  1  0.56510000  0.13198000  0.80887000  1.0 0.1297532152
H  H28  1  0.21364000  0.01942000  0.47861000  1.0 0.1173644912
H  H29  1  0.00397000  0.74065000  0.52248000  1.0 0.1060748454
H  H30  1  0.26325000  0.24111000  0.45608000  1.0 0.0888414793
H  H31  1  0.19488000  0.16414000  0.46439000  1.0 0.1391998585
H  H32  1  0.21345000  0.75127000  0.75134000  1.0 0.1173644912
H  H33  1  0.22256000  0.66358000  0.95889000  1.0 0.1297532152
H  H34  1  0.29144000  0.51714000  0.17121000  1.0 0.1021662112
H  H35  1  0.21434000  0.41436000  0.90972000  1.0 0.0888414793
H  H36  1  0.13198000  0.56510000  0.69113000  1.0 0.1297532152
C  C1  1  0.13670000  0.88330000  0.02610000  1.0 -0.0603251644
C  C2  1  0.00191000  0.88151000  0.88760000  1.0 -0.0535926502
C  C3  1  0.14230000  0.01050000  0.88840000  1.0 -0.0372765669
C  C4  1  0.09038000  0.83718000  0.03210000  1.0 0.3085939791
C  C5  1  0.95655000  0.84035000  0.88550000  1.0 -0.1429269556
C  C6  1  0.09519000  0.96819000  0.88730000  1.0 0.0503284482
C  C7  1  0.27059000  0.88259000  0.15890000  1.0 0.0503284482
C  C8  1  0.22851000  0.96711000  0.02320000  1.0 -0.1511660479
C  C9  1  0.76987000  0.75587000  0.87060000  1.0 0.0503284482
C  C10  1  0.81481000  0.79781000  0.87570000  1.0 -0.2068006191
C  C11  1  0.22241000  0.84261000  0.15880000  1.0 -0.1511660479
C  C12  1  0.36563000  0.83463000  0.29750000  1.0 0.1297532152
C  C13  1  0.38489000  0.78309000  0.44550000  1.0 -0.2008279506
C  C14  1  0.47327000  0.74067000  0.57180000  1.0 0.060603587
C  C15  1  0.53240000  0.78700000  0.42010000  1.0 0.0503284482
C  C16  1  0.44330000  0.83470000  0.28880000  1.0 -0.2192232958
C  C17  1  0.88330000  0.13670000  0.47390000  1.0 -0.0603251644
C  C18  1  0.88151000  0.00191000  0.61240000  1.0 -0.0535926502
C  C19  1  0.01050000  0.14230000  0.61160000  1.0 -0.0372765669
C  C20  1  0.83718000  0.09038000  0.46790000  1.0 0.3085939791
C  C21  1  0.84035000  0.95655000  0.61450000  1.0 -0.1429269556
C  C22  1  0.96819000  0.09519000  0.61270000  1.0 0.0503284482
C  C23  1  0.88259000  0.27059000  0.34110000  1.0 0.0503284482
C  C24  1  0.96711000  0.22851000  0.47680000  1.0 -0.1511660479
C  C25  1  0.75587000  0.76987000  0.62940000  1.0 0.0503284482
C  C26  1  0.79781000  0.81481000  0.62430000  1.0 -0.2068006191
C  C27  1  0.84261000  0.22241000  0.34120000  1.0 -0.1511660479
C  C28  1  0.83463000  0.36563000  0.20250000  1.0 0.1297532152
C  C29  1  0.78309000  0.38489000  0.05450000  1.0 -0.2008279506
C  C30  1  0.74067000  0.47327000  0.92820000  1.0 0.060603587
C  C31  1  0.78700000  0.53240000  0.07990000  1.0 0.0503284482
C  C32  1  0.83470000  0.44330000  0.21120000  1.0 -0.2192232958
C  C33  1  0.96490000  0.96490000  0.75000000  1.0 0.0335401278
C  C34  1  0.00940000  0.00940000  0.75000000  1.0 -0.0603251644
C  C35  1  0.87600000  0.87600000  0.75000000  1.0 0.0503284482
C  C36  1  0.82940000  0.82940000  0.75000000  1.0 0.1173644912
C  C37  1  0.10060000  0.10060000  0.75000000  1.0 0.3255882916
C  C38  1  0.86330000  0.11670000  0.97390000  1.0 -0.0603251644
C  C39  1  0.99809000  0.11849000  0.11240000  1.0 -0.0535926502
C  C40  1  0.85770000  0.98950000  0.11160000  1.0 -0.0372765669
C  C41  1  0.90962000  0.16282000  0.96790000  1.0 0.3085939791
C  C42  1  0.04345000  0.15965000  0.11450000  1.0 -0.1429269556
C  C43  1  0.90481000  0.03181000  0.11270000  1.0 0.0503284482
C  C44  1  0.72941000  0.11741000  0.84110000  1.0 0.0503284482
C  C45  1  0.77149000  0.03289000  0.97680000  1.0 -0.1511660479
C  C46  1  0.23013000  0.24413000  0.12940000  1.0 0.0503284482
C  C47  1  0.18519000  0.20219000  0.12430000  1.0 -0.2068006191
C  C48  1  0.77759000  0.15739000  0.84120000  1.0 -0.1511660479
C  C49  1  0.63437000  0.16537000  0.70250000  1.0 0.1297532152
C  C50  1  0.61511000  0.21691000  0.55450000  1.0 -0.2008279506
C  C51  1  0.52673000  0.25933000  0.42820000  1.0 0.060603587
C  C52  1  0.46760000  0.21300000  0.57990000  1.0 0.0503284482
C  C53  1  0.55670000  0.16530000  0.71120000  1.0 -0.2192232958
C  C54  1  0.11670000  0.86330000  0.52610000  1.0 -0.0603251644
C  C55  1  0.11849000  0.99809000  0.38760000  1.0 -0.0535926502
C  C56  1  0.98950000  0.85770000  0.38840000  1.0 -0.0372765669
C  C57  1  0.16282000  0.90962000  0.53210000  1.0 0.3085939791
C  C58  1  0.15965000  0.04345000  0.38550000  1.0 -0.1429269556
C  C59  1  0.03181000  0.90481000  0.38730000  1.0 0.0503284482
C  C60  1  0.11741000  0.72941000  0.65890000  1.0 0.0503284482
C  C61  1  0.03289000  0.77149000  0.52320000  1.0 -0.1511660479
C  C62  1  0.24413000  0.23013000  0.37060000  1.0 0.0503284482
C  C63  1  0.20219000  0.18519000  0.37570000  1.0 -0.2068006191
C  C64  1  0.15739000  0.77759000  0.65880000  1.0 -0.1511660479
C  C65  1  0.16537000  0.63437000  0.79750000  1.0 0.1297532152
C  C66  1  0.21691000  0.61511000  0.94550000  1.0 -0.2008279506
C  C67  1  0.25933000  0.52673000  0.07180000  1.0 0.060603587
C  C68  1  0.21300000  0.46760000  0.92010000  1.0 0.0503284482
C  C69  1  0.16530000  0.55670000  0.78880000  1.0 -0.2192232958
C  C70  1  0.03510000  0.03510000  0.25000000  1.0 0.0335401278
C  C71  1  0.99060000  0.99060000  0.25000000  1.0 -0.0603251644
C  C72  1  0.12400000  0.12400000  0.25000000  1.0 0.0503284482
C  C73  1  0.17060000  0.17060000  0.25000000  1.0 0.1173644912
C  C74  1  0.89940000  0.89940000  0.25000000  1.0 0.3255882916
N  N1  1  0.54717000  0.74257000  0.56030000  1.0 -0.2260731105
N  N2  1  0.74257000  0.54717000  0.93970000  1.0 -0.2192232958
N  N3  1  0.74098000  0.74098000  0.75000000  1.0 -0.2192232958
N  N4  1  0.45283000  0.25743000  0.43970000  1.0 -0.2260731105
N  N5  1  0.25743000  0.45283000  0.06030000  1.0 -0.2260731105
N  N6  1  0.25902000  0.25902000  0.25000000  1.0 -0.2192232958
O  O1  1  0.12437000  0.76377000  0.15210000  1.0 -0.409888627
O  O2  1  0.76377000  0.12437000  0.34790000  1.0 -0.409888627
O  O3  1  0.13948000  0.13948000  0.75000000  1.0 -0.4455676917
O  O4  1  0.87563000  0.23623000  0.84790000  1.0 -0.409888627
O  O5  1  0.23623000  0.87563000  0.65210000  1.0 -0.409888627
O  O6  1  0.86052000  0.86052000  0.25000000  1.0 -0.4455676917
