# DDEC6 charges by PACMAN v1.1 (https://github.com/mtap-research/PACMAN-charge/)
data_KUNJIP_ASR_pacman
_symmetry_space_group_name_H-M   'P 1'
_cell_length_a   15.35760000
_cell_length_b   18.64320000
_cell_length_c   26.91800000
_cell_angle_alpha   90.00000000
_cell_angle_beta   101.22000000
_cell_angle_gamma   90.00000000
_symmetry_Int_Tables_number   1
_chemical_formula_structural   Na4Cd5H38(C2O)48
_chemical_formula_sum   'Na8 Cd10 H76 C192 O96'
_cell_volume   7559.71997231
_cell_formula_units_Z   2
loop_
 _symmetry_equiv_pos_site_id
 _symmetry_equiv_pos_as_xyz
  1  'x, y, z'
loop_
 _atom_site_type_symbol
 _atom_site_label
 _atom_site_symmetry_multiplicity
 _atom_site_fract_x
 _atom_site_fract_y
 _atom_site_fract_z
 _atom_site_occupancy
 _atom_site_charge
Na  Na1  1  0.19800000  0.98940000  0.72740000  1.0 0.2114569157
Na  Na2  1  0.19010000  0.02360000  0.73680000  1.0 0.2711989894
Na  Na3  1  0.80200000  0.48940000  0.77260000  1.0 0.2114569157
Na  Na4  1  0.80990000  0.52360000  0.76320000  1.0 0.2711989894
Na  Na5  1  0.80200000  0.01060000  0.27260000  1.0 0.2114569157
Na  Na6  1  0.80990000  0.97640000  0.26320000  1.0 0.2711989894
Na  Na7  1  0.19800000  0.51060000  0.22740000  1.0 0.2114569157
Na  Na8  1  0.19010000  0.47640000  0.23680000  1.0 0.2711989894
Cd  Cd1  1  0.16083000  0.94390000  0.10377000  1.0 0.981019555
Cd  Cd2  1  0.89972000  0.46856000  0.04842000  1.0 1.0114544912
Cd  Cd3  1  0.83917000  0.44390000  0.39623000  1.0 0.981019555
Cd  Cd4  1  0.10028000  0.96856000  0.45158000  1.0 1.0114544912
Cd  Cd5  1  0.83917000  0.05610000  0.89623000  1.0 0.981019555
Cd  Cd6  1  0.10028000  0.53144000  0.95158000  1.0 1.0114544912
Cd  Cd7  1  0.16083000  0.55610000  0.60377000  1.0 0.981019555
Cd  Cd8  1  0.89972000  0.03144000  0.54842000  1.0 1.0114544912
Cd  Cd9  1  0.00000000  0.00000000  0.00000000  1.0 1.1132454261
Cd  Cd10  1  0.00000000  0.50000000  0.50000000  1.0 1.1132454261
H  H1  1  0.01660000  0.22240000  0.06100000  1.0 0.1477565601
H  H2  1  0.26840000  0.17060000  0.11940000  1.0 0.1290935917
H  H3  1  0.38080000  0.89980000  0.01870000  1.0 0.1290935917
H  H4  1  0.19810000  0.98540000  0.90800000  1.0 0.1204071663
H  H5  1  0.19410000  0.37650000  0.10450000  1.0 0.1368456915
H  H6  1  0.43890000  0.93030000  0.88220000  1.0 0.1123791117
H  H7  1  0.15300000  0.10880000  0.95930000  1.0 0.1290935917
H  H8  1  0.99710000  0.28250000  0.93210000  1.0 0.1477565601
H  H9  1  0.39490000  0.23310000  0.08930000  1.0 0.1123791117
H  H10  1  0.58190000  0.95370000  0.93970000  1.0 0.1368456915
H  H11  1  0.53960000  0.27180000  0.11360000  1.0 0.1290935917
H  H12  1  0.46680000  0.41160000  0.20780000  1.0 0.1204071663
H  H13  1  0.72240000  0.91110000  0.96950000  1.0 0.1290935917
H  H14  1  0.62140000  0.75650000  0.04510000  1.0 0.1671391859
H  H15  1  0.25950000  0.30460000  0.98220000  1.0 0.1290935917
H  H16  1  0.61600000  0.37030000  0.25330000  1.0 0.1290935917
H  H17  1  0.63890000  0.38040000  0.10760000  1.0 0.1368456915
H  H18  1  0.83990000  0.44290000  0.21670000  1.0 0.1477565601
H  H19  1  0.48060000  0.79650000  0.01050000  1.0 0.1798702351
H  H20  1  0.98340000  0.72240000  0.43900000  1.0 0.1477565601
H  H21  1  0.73160000  0.67060000  0.38060000  1.0 0.1290935917
H  H22  1  0.61920000  0.39980000  0.48130000  1.0 0.1290935917
H  H23  1  0.80190000  0.48540000  0.59200000  1.0 0.1204071663
H  H24  1  0.80590000  0.87650000  0.39550000  1.0 0.1368456915
H  H25  1  0.56110000  0.43030000  0.61780000  1.0 0.1123791117
H  H26  1  0.84700000  0.60880000  0.54070000  1.0 0.1290935917
H  H27  1  0.00290000  0.78250000  0.56790000  1.0 0.1477565601
H  H28  1  0.60510000  0.73310000  0.41070000  1.0 0.1123791117
H  H29  1  0.41810000  0.45370000  0.56030000  1.0 0.1368456915
H  H30  1  0.46040000  0.77180000  0.38640000  1.0 0.1290935917
H  H31  1  0.53320000  0.91160000  0.29220000  1.0 0.1204071663
H  H32  1  0.27760000  0.41110000  0.53050000  1.0 0.1290935917
H  H33  1  0.37860000  0.25650000  0.45490000  1.0 0.1671391859
H  H34  1  0.74050000  0.80460000  0.51780000  1.0 0.1290935917
H  H35  1  0.38400000  0.87030000  0.24670000  1.0 0.1290935917
H  H36  1  0.36110000  0.88040000  0.39240000  1.0 0.1368456915
H  H37  1  0.16010000  0.94290000  0.28330000  1.0 0.1477565601
H  H38  1  0.51940000  0.29650000  0.48950000  1.0 0.1798702351
H  H39  1  0.98340000  0.77760000  0.93900000  1.0 0.1477565601
H  H40  1  0.73160000  0.82940000  0.88060000  1.0 0.1290935917
H  H41  1  0.61920000  0.10020000  0.98130000  1.0 0.1290935917
H  H42  1  0.80190000  0.01460000  0.09200000  1.0 0.1204071663
H  H43  1  0.80590000  0.62350000  0.89550000  1.0 0.1368456915
H  H44  1  0.56110000  0.06970000  0.11780000  1.0 0.1123791117
H  H45  1  0.84700000  0.89120000  0.04070000  1.0 0.1290935917
H  H46  1  0.00290000  0.71750000  0.06790000  1.0 0.1477565601
H  H47  1  0.60510000  0.76690000  0.91070000  1.0 0.1123791117
H  H48  1  0.41810000  0.04630000  0.06030000  1.0 0.1368456915
H  H49  1  0.46040000  0.72820000  0.88640000  1.0 0.1290935917
H  H50  1  0.53320000  0.58840000  0.79220000  1.0 0.1204071663
H  H51  1  0.27760000  0.08890000  0.03050000  1.0 0.1290935917
H  H52  1  0.37860000  0.24350000  0.95490000  1.0 0.1630768015
H  H53  1  0.74050000  0.69540000  0.01780000  1.0 0.1290935917
H  H54  1  0.38400000  0.62970000  0.74670000  1.0 0.1290935917
H  H55  1  0.36110000  0.61960000  0.89240000  1.0 0.1368456915
H  H56  1  0.16010000  0.55710000  0.78330000  1.0 0.1477565601
H  H57  1  0.51940000  0.20350000  0.98950000  1.0 0.1798702351
H  H58  1  0.01660000  0.27760000  0.56100000  1.0 0.1477565601
H  H59  1  0.26840000  0.32940000  0.61940000  1.0 0.1290935917
H  H60  1  0.38080000  0.60020000  0.51870000  1.0 0.1290935917
H  H61  1  0.19810000  0.51460000  0.40800000  1.0 0.1204071663
H  H62  1  0.19410000  0.12350000  0.60450000  1.0 0.1368456915
H  H63  1  0.43890000  0.56970000  0.38220000  1.0 0.1123791117
H  H64  1  0.15300000  0.39120000  0.45930000  1.0 0.1290935917
H  H65  1  0.99710000  0.21750000  0.43210000  1.0 0.1477565601
H  H66  1  0.39490000  0.26690000  0.58930000  1.0 0.1123791117
H  H67  1  0.58190000  0.54630000  0.43970000  1.0 0.1368456915
H  H68  1  0.53960000  0.22820000  0.61360000  1.0 0.1290935917
H  H69  1  0.46680000  0.08840000  0.70780000  1.0 0.1204071663
H  H70  1  0.72240000  0.58890000  0.46950000  1.0 0.1290935917
H  H71  1  0.62140000  0.74350000  0.54510000  1.0 0.1630768015
H  H72  1  0.25950000  0.19540000  0.48220000  1.0 0.1290935917
H  H73  1  0.61600000  0.12970000  0.75330000  1.0 0.1290935917
H  H74  1  0.63890000  0.11960000  0.60760000  1.0 0.1368456915
H  H75  1  0.83990000  0.05710000  0.71670000  1.0 0.1477565601
H  H76  1  0.48060000  0.70350000  0.51050000  1.0 0.1798702351
C  C1  1  0.11690000  0.10450000  0.08060000  1.0 0.5712394252
C  C2  1  0.21580000  0.94800000  0.00350000  1.0 0.6007256194
C  C3  1  0.13910000  0.18470000  0.08870000  1.0 0.0035899647
C  C4  1  0.27840000  0.94360000  0.96770000  1.0 -0.0212709094
C  C5  1  0.07440000  0.23600000  0.07500000  1.0 -0.0965807006
C  C6  1  0.22540000  0.20550000  0.10920000  1.0 -0.1411611602
C  C7  1  0.36450000  0.91550000  0.98540000  1.0 -0.0920343588
C  C8  1  0.25460000  0.96680000  0.91950000  1.0 -0.1411611602
C  C9  1  0.98290000  0.14280000  0.92670000  1.0 0.5860822185
C  C10  1  0.09550000  0.30760000  0.08190000  1.0 0.0129179607
C  C11  1  0.24850000  0.27720000  0.11480000  1.0 0.0718944244
C  C12  1  0.42510000  0.91150000  0.95290000  1.0 0.0718944244
C  C13  1  0.31520000  0.96280000  0.88640000  1.0 0.047260322
C  C14  1  0.06270000  0.18880000  0.94270000  1.0 -0.0140240114
C  C15  1  0.02500000  0.36450000  0.06760000  1.0 0.5459959492
C  C16  1  0.18060000  0.32790000  0.10080000  1.0 -0.1136149034
C  C17  1  0.34210000  0.30010000  0.13320000  1.0 0.0763068072
C  C18  1  0.51560000  0.88030000  0.97240000  1.0 0.0718944244
C  C19  1  0.39930000  0.93410000  0.90420000  1.0 -0.1822104842
C  C20  1  0.28100000  0.96170000  0.82750000  1.0 0.2711989894
C  C21  1  0.14670000  0.15840000  0.95840000  1.0 -0.1201589463
C  C22  1  0.05330000  0.26260000  0.94220000  1.0 -0.0713490844
C  C23  1  0.40820000  0.26960000  0.11300000  1.0 -0.1201589463
C  C24  1  0.36350000  0.35440000  0.16970000  1.0 -0.0713490844
C  C25  1  0.58950000  0.91330000  0.96050000  1.0 -0.1303093896
C  C26  1  0.52950000  0.82070000  0.00300000  1.0 -0.0920343588
C  C27  1  0.22150000  0.20220000  0.97270000  1.0 0.0557004869
C  C28  1  0.12610000  0.30750000  0.95660000  1.0 -0.0212709094
C  C29  1  0.49550000  0.29300000  0.12790000  1.0 -0.1136149034
C  C30  1  0.45200000  0.37580000  0.18360000  1.0 -0.1201589463
C  C31  1  0.30480000  0.38080000  0.20060000  1.0 0.5167086854
C  C32  1  0.67410000  0.88800000  0.97850000  1.0 -0.1201589463
C  C33  1  0.61390000  0.79540000  0.02310000  1.0 -0.1303093896
C  C34  1  0.45470000  0.76770000  0.01050000  1.0 0.3256950587
C  C35  1  0.31170000  0.17110000  0.99020000  1.0 0.0718944244
C  C36  1  0.21020000  0.27540000  0.97210000  1.0 -0.1136149034
C  C37  1  0.11740000  0.38490000  0.95610000  1.0 0.5396202589
C  C38  1  0.51790000  0.34550000  0.16240000  1.0 0.0718944244
C  C39  1  0.61150000  0.37090000  0.17740000  1.0 0.0763068072
C  C40  1  0.64880000  0.38130000  0.22870000  1.0 -0.1201589463
C  C41  1  0.66250000  0.38690000  0.14180000  1.0 -0.1201589463
C  C42  1  0.73440000  0.40800000  0.24310000  1.0 -0.0039473986
C  C43  1  0.74800000  0.41240000  0.15660000  1.0 0.0129179607
C  C44  1  0.19850000  0.56810000  0.88300000  1.0 0.5396202589
C  C45  1  0.77250000  0.41990000  0.29810000  1.0 0.5396202589
C  C46  1  0.78300000  0.42410000  0.20710000  1.0 -0.0920343588
C  C47  1  0.62000000  0.75810000  0.07080000  1.0 0.3172153517
C  C48  1  0.29400000  0.00280000  0.83810000  1.0 0.2711989894
C  C49  1  0.88310000  0.60450000  0.41940000  1.0 0.5712394252
C  C50  1  0.78420000  0.44800000  0.49650000  1.0 0.6007256194
C  C51  1  0.86090000  0.68470000  0.41130000  1.0 0.0035899647
C  C52  1  0.72160000  0.44360000  0.53230000  1.0 -0.0140240114
C  C53  1  0.92560000  0.73600000  0.42500000  1.0 -0.0965807006
C  C54  1  0.77460000  0.70550000  0.39080000  1.0 -0.1411611602
C  C55  1  0.63550000  0.41550000  0.51460000  1.0 -0.0920343588
C  C56  1  0.74540000  0.46680000  0.58050000  1.0 -0.1411611602
C  C57  1  0.01710000  0.64280000  0.57330000  1.0 0.5860822185
C  C58  1  0.90450000  0.80760000  0.41810000  1.0 0.0129179607
C  C59  1  0.75150000  0.77720000  0.38520000  1.0 0.0718944244
C  C60  1  0.57490000  0.41150000  0.54710000  1.0 0.0718944244
C  C61  1  0.68480000  0.46280000  0.61360000  1.0 0.047260322
C  C62  1  0.93730000  0.68880000  0.55730000  1.0 -0.0140240114
C  C63  1  0.97500000  0.86450000  0.43240000  1.0 0.5459959492
C  C64  1  0.81940000  0.82790000  0.39920000  1.0 -0.1136149034
C  C65  1  0.65790000  0.80010000  0.36680000  1.0 0.0763068072
C  C66  1  0.48440000  0.38030000  0.52760000  1.0 0.0718944244
C  C67  1  0.60070000  0.43410000  0.59580000  1.0 -0.1822104842
C  C68  1  0.71900000  0.46170000  0.67250000  1.0 0.2711989894
C  C69  1  0.85330000  0.65840000  0.54160000  1.0 -0.1201589463
C  C70  1  0.94670000  0.76260000  0.55780000  1.0 -0.0713490844
C  C71  1  0.59180000  0.76960000  0.38700000  1.0 -0.1201589463
C  C72  1  0.63650000  0.85440000  0.33030000  1.0 -0.0713490844
C  C73  1  0.41050000  0.41330000  0.53950000  1.0 -0.1303093896
C  C74  1  0.47050000  0.32070000  0.49700000  1.0 -0.0920343588
C  C75  1  0.77850000  0.70220000  0.52730000  1.0 0.0557004869
C  C76  1  0.87390000  0.80750000  0.54340000  1.0 -0.0212709094
C  C77  1  0.50450000  0.79300000  0.37210000  1.0 -0.1136149034
C  C78  1  0.54800000  0.87580000  0.31640000  1.0 -0.1201589463
C  C79  1  0.69520000  0.88080000  0.29940000  1.0 0.5167086854
C  C80  1  0.32590000  0.38800000  0.52150000  1.0 -0.1201589463
C  C81  1  0.38610000  0.29540000  0.47690000  1.0 -0.1303093896
C  C82  1  0.54530000  0.26770000  0.48950000  1.0 0.3256950587
C  C83  1  0.68830000  0.67110000  0.50980000  1.0 0.0718944244
C  C84  1  0.78980000  0.77540000  0.52790000  1.0 -0.1136149034
C  C85  1  0.88260000  0.88490000  0.54390000  1.0 0.5396202589
C  C86  1  0.48210000  0.84550000  0.33760000  1.0 0.0718944244
C  C87  1  0.38850000  0.87090000  0.32260000  1.0 0.0763068072
C  C88  1  0.35120000  0.88130000  0.27130000  1.0 -0.1201589463
C  C89  1  0.33750000  0.88690000  0.35820000  1.0 -0.1201589463
C  C90  1  0.26560000  0.90800000  0.25690000  1.0 -0.0039473986
C  C91  1  0.25200000  0.91240000  0.34340000  1.0 0.0129179607
C  C92  1  0.80150000  0.06810000  0.61700000  1.0 0.5396202589
C  C93  1  0.22750000  0.91990000  0.20190000  1.0 0.5396202589
C  C94  1  0.21700000  0.92410000  0.29290000  1.0 -0.0920343588
C  C95  1  0.38000000  0.25810000  0.42920000  1.0 0.3172153517
C  C96  1  0.70600000  0.50280000  0.66190000  1.0 0.2711989894
C  C97  1  0.88310000  0.89550000  0.91940000  1.0 0.5712394252
C  C98  1  0.78420000  0.05200000  0.99650000  1.0 0.6007256194
C  C99  1  0.86090000  0.81530000  0.91130000  1.0 0.0035899647
C  C100  1  0.72160000  0.05640000  0.03230000  1.0 -0.0140240114
C  C101  1  0.92560000  0.76400000  0.92500000  1.0 -0.0965807006
C  C102  1  0.77460000  0.79450000  0.89080000  1.0 -0.1411611602
C  C103  1  0.63550000  0.08450000  0.01460000  1.0 -0.0920343588
C  C104  1  0.74540000  0.03320000  0.08050000  1.0 -0.1411611602
C  C105  1  0.01710000  0.85720000  0.07330000  1.0 0.5860822185
C  C106  1  0.90450000  0.69240000  0.91810000  1.0 0.0129179607
C  C107  1  0.75150000  0.72280000  0.88520000  1.0 0.0718944244
C  C108  1  0.57490000  0.08850000  0.04710000  1.0 0.0718944244
C  C109  1  0.68480000  0.03720000  0.11360000  1.0 0.047260322
C  C110  1  0.93730000  0.81120000  0.05730000  1.0 -0.0140240114
C  C111  1  0.97500000  0.63550000  0.93240000  1.0 0.5459959492
C  C112  1  0.81940000  0.67210000  0.89920000  1.0 -0.1136149034
C  C113  1  0.65790000  0.69990000  0.86680000  1.0 0.0763068072
C  C114  1  0.48440000  0.11970000  0.02760000  1.0 0.0718944244
C  C115  1  0.60070000  0.06590000  0.09580000  1.0 -0.1822104842
C  C116  1  0.71900000  0.03830000  0.17250000  1.0 0.2711989894
C  C117  1  0.85330000  0.84160000  0.04160000  1.0 -0.1201589463
C  C118  1  0.94670000  0.73740000  0.05780000  1.0 -0.0713490844
C  C119  1  0.59180000  0.73040000  0.88700000  1.0 -0.1201589463
C  C120  1  0.63650000  0.64560000  0.83030000  1.0 -0.0713490844
C  C121  1  0.41050000  0.08670000  0.03950000  1.0 -0.1303093896
C  C122  1  0.47050000  0.17930000  0.99700000  1.0 -0.0920343588
C  C123  1  0.77850000  0.79780000  0.02730000  1.0 0.0557004869
C  C124  1  0.87390000  0.69250000  0.04340000  1.0 -0.0212709094
C  C125  1  0.50450000  0.70700000  0.87210000  1.0 -0.1136149034
C  C126  1  0.54800000  0.62420000  0.81640000  1.0 -0.1136149034
C  C127  1  0.69520000  0.61920000  0.79940000  1.0 0.5167086854
C  C128  1  0.32590000  0.11200000  0.02150000  1.0 -0.1201589463
C  C129  1  0.38610000  0.20460000  0.97690000  1.0 -0.1303093896
C  C130  1  0.54530000  0.23230000  0.98950000  1.0 0.3256950587
C  C131  1  0.68830000  0.82890000  0.00980000  1.0 0.0718944244
C  C132  1  0.78980000  0.72460000  0.02790000  1.0 -0.1136149034
C  C133  1  0.88260000  0.61510000  0.04390000  1.0 0.5396202589
C  C134  1  0.48210000  0.65450000  0.83760000  1.0 0.0718944244
C  C135  1  0.38850000  0.62910000  0.82260000  1.0 0.0763068072
C  C136  1  0.35120000  0.61870000  0.77130000  1.0 -0.1201589463
C  C137  1  0.33750000  0.61310000  0.85820000  1.0 -0.1201589463
C  C138  1  0.26560000  0.59200000  0.75690000  1.0 -0.0039473986
C  C139  1  0.25200000  0.58760000  0.84340000  1.0 0.0129179607
C  C140  1  0.80150000  0.43190000  0.11700000  1.0 0.5396202589
C  C141  1  0.22750000  0.58010000  0.70190000  1.0 0.5396202589
C  C142  1  0.21700000  0.57590000  0.79290000  1.0 -0.0920343588
C  C143  1  0.38000000  0.24190000  0.92920000  1.0 0.3172153517
C  C144  1  0.70600000  0.99720000  0.16190000  1.0 0.2755729541
C  C145  1  0.11690000  0.39550000  0.58060000  1.0 0.5712394252
C  C146  1  0.21580000  0.55200000  0.50350000  1.0 0.6007256194
C  C147  1  0.13910000  0.31530000  0.58870000  1.0 0.0035899647
C  C148  1  0.27840000  0.55640000  0.46770000  1.0 -0.0212709094
C  C149  1  0.07440000  0.26400000  0.57500000  1.0 -0.0965807006
C  C150  1  0.22540000  0.29450000  0.60920000  1.0 -0.1411611602
C  C151  1  0.36450000  0.58450000  0.48540000  1.0 -0.0920343588
C  C152  1  0.25460000  0.53320000  0.41950000  1.0 -0.1411611602
C  C153  1  0.98290000  0.35720000  0.42670000  1.0 0.5860822185
C  C154  1  0.09550000  0.19240000  0.58190000  1.0 0.0129179607
C  C155  1  0.24850000  0.22280000  0.61480000  1.0 0.0718944244
C  C156  1  0.42510000  0.58850000  0.45290000  1.0 0.0718944244
C  C157  1  0.31520000  0.53720000  0.38640000  1.0 0.047260322
C  C158  1  0.06270000  0.31120000  0.44270000  1.0 -0.0140240114
C  C159  1  0.02500000  0.13550000  0.56760000  1.0 0.5459959492
C  C160  1  0.18060000  0.17210000  0.60080000  1.0 -0.1136149034
C  C161  1  0.34210000  0.19990000  0.63320000  1.0 0.0763068072
C  C162  1  0.51560000  0.61970000  0.47240000  1.0 0.0718944244
C  C163  1  0.39930000  0.56590000  0.40420000  1.0 -0.1822104842
C  C164  1  0.28100000  0.53830000  0.32750000  1.0 0.2711989894
C  C165  1  0.14670000  0.34160000  0.45840000  1.0 -0.1201589463
C  C166  1  0.05330000  0.23740000  0.44220000  1.0 -0.0713490844
C  C167  1  0.40820000  0.23040000  0.61300000  1.0 -0.1201589463
C  C168  1  0.36350000  0.14560000  0.66970000  1.0 -0.0713490844
C  C169  1  0.58950000  0.58670000  0.46050000  1.0 -0.1303093896
C  C170  1  0.52950000  0.67930000  0.50300000  1.0 -0.0920343588
C  C171  1  0.22150000  0.29780000  0.47270000  1.0 0.0557004869
C  C172  1  0.12610000  0.19250000  0.45660000  1.0 -0.0212709094
C  C173  1  0.49550000  0.20700000  0.62790000  1.0 -0.1136149034
C  C174  1  0.45200000  0.12420000  0.68360000  1.0 -0.1201589463
C  C175  1  0.30480000  0.11920000  0.70060000  1.0 0.5167086854
C  C176  1  0.67410000  0.61200000  0.47850000  1.0 -0.1201589463
C  C177  1  0.61390000  0.70460000  0.52310000  1.0 -0.1303093896
C  C178  1  0.45470000  0.73230000  0.51050000  1.0 0.3256950587
C  C179  1  0.31170000  0.32890000  0.49020000  1.0 0.0718944244
C  C180  1  0.21020000  0.22460000  0.47210000  1.0 -0.1136149034
C  C181  1  0.11740000  0.11510000  0.45610000  1.0 0.5396202589
C  C182  1  0.51790000  0.15450000  0.66240000  1.0 0.0718944244
C  C183  1  0.61150000  0.12910000  0.67740000  1.0 0.0763068072
C  C184  1  0.64880000  0.11870000  0.72870000  1.0 -0.1201589463
C  C185  1  0.66250000  0.11310000  0.64180000  1.0 -0.1201589463
C  C186  1  0.73440000  0.09200000  0.74310000  1.0 -0.0039473986
C  C187  1  0.74800000  0.08760000  0.65660000  1.0 0.0129179607
C  C188  1  0.19850000  0.93190000  0.38300000  1.0 0.5396202589
C  C189  1  0.77250000  0.08010000  0.79810000  1.0 0.5396202589
C  C190  1  0.78300000  0.07590000  0.70710000  1.0 -0.0920343588
C  C191  1  0.62000000  0.74190000  0.57080000  1.0 0.3172153517
C  C192  1  0.29400000  0.49720000  0.33810000  1.0 0.2755729541
O  O1  1  0.17340000  0.06380000  0.10290000  1.0 -0.5231894568
O  O2  1  0.24360000  0.92570000  0.04810000  1.0 -0.4903235103
O  O3  1  0.01060000  0.92520000  0.06901000  1.0 -0.5874398068
O  O4  1  0.09000000  0.82770000  0.09110000  1.0 -0.4967542232
O  O5  1  0.27380000  0.90910000  0.16940000  1.0 -0.4840202794
O  O6  1  0.15020000  0.94350000  0.18880000  1.0 -0.4705577856
O  O7  1  0.04480000  0.09080000  0.05300000  1.0 -0.5394486204
O  O8  1  0.14130000  0.97400000  0.98790000  1.0 -0.5494843886
O  O9  1  0.04610000  0.42840000  0.07320000  1.0 -0.4705577856
O  O10  1  0.94690000  0.34440000  0.05010000  1.0 -0.4903235103
O  O11  1  0.20060000  0.99430000  0.81400000  1.0 -0.0770744585
O  O12  1  0.32980000  0.96130000  0.79960000  1.0 -0.0288967829
O  O13  1  0.81570000  0.57520000  0.02930000  1.0 -0.4903235103
O  O14  1  0.95710000  0.58580000  0.05800000  1.0 -0.4705577856
O  O15  1  0.77000000  0.41940000  0.07130000  1.0 -0.4499149139
O  O16  1  0.87550000  0.46160000  0.13100000  1.0 -0.4424395378
O  O17  1  0.25640000  0.34940000  0.22510000  1.0 -0.4499149139
O  O18  1  0.29870000  0.45720000  0.20180000  1.0 -0.6518974618
O  O19  1  0.40000000  0.74450000  0.97500000  1.0 -0.3938531593
O  O20  1  0.45150000  0.75620000  0.05590000  1.0 -0.242766434
O  O21  1  0.67050000  0.76810000  0.11170000  1.0 -0.3702313394
O  O22  1  0.57070000  0.70550000  0.06790000  1.0 -0.2339367658
O  O23  1  0.23190000  0.04140000  0.82690000  1.0 -0.0503335983
O  O24  1  0.35100000  0.00690000  0.81020000  1.0 -0.0624204191
O  O25  1  0.82660000  0.56380000  0.39710000  1.0 -0.5231894568
O  O26  1  0.75640000  0.42570000  0.45190000  1.0 -0.4903235103
O  O27  1  0.98940000  0.42520000  0.43099000  1.0 -0.5874398068
O  O28  1  0.91000000  0.32770000  0.40890000  1.0 -0.4967542232
O  O29  1  0.72620000  0.40910000  0.33060000  1.0 -0.4840202794
O  O30  1  0.84980000  0.44350000  0.31120000  1.0 -0.4705577856
O  O31  1  0.95520000  0.59080000  0.44700000  1.0 -0.5394486204
O  O32  1  0.85870000  0.47400000  0.51210000  1.0 -0.5494843886
O  O33  1  0.95390000  0.92840000  0.42680000  1.0 -0.4705577856
O  O34  1  0.05310000  0.84440000  0.44990000  1.0 -0.4903235103
O  O35  1  0.79940000  0.49430000  0.68600000  1.0 -0.0770744585
O  O36  1  0.67020000  0.46130000  0.70040000  1.0 -0.0288967829
O  O37  1  0.18430000  0.07520000  0.47070000  1.0 -0.4903235103
O  O38  1  0.04290000  0.08580000  0.44200000  1.0 -0.4705577856
O  O39  1  0.23000000  0.91940000  0.42870000  1.0 -0.4499149139
O  O40  1  0.12450000  0.96160000  0.36900000  1.0 -0.4499149139
O  O41  1  0.74360000  0.84940000  0.27490000  1.0 -0.4499149139
O  O42  1  0.70130000  0.95720000  0.29820000  1.0 -0.6518974618
O  O43  1  0.60000000  0.24450000  0.52500000  1.0 -0.3938531593
O  O44  1  0.54850000  0.25620000  0.44410000  1.0 -0.242766434
O  O45  1  0.32950000  0.26810000  0.38830000  1.0 -0.3702313394
O  O46  1  0.42930000  0.20550000  0.43210000  1.0 -0.2339367658
O  O47  1  0.76810000  0.54140000  0.67310000  1.0 -0.0503335983
O  O48  1  0.64900000  0.50690000  0.68980000  1.0 -0.0624204191
O  O49  1  0.82660000  0.93620000  0.89710000  1.0 -0.5231894568
O  O50  1  0.75640000  0.07430000  0.95190000  1.0 -0.4903235103
O  O51  1  0.98940000  0.07480000  0.93099000  1.0 -0.5874398068
O  O52  1  0.91000000  0.17230000  0.90890000  1.0 -0.4967542232
O  O53  1  0.72620000  0.09090000  0.83060000  1.0 -0.4840202794
O  O54  1  0.84980000  0.05650000  0.81120000  1.0 -0.4705577856
O  O55  1  0.95520000  0.90920000  0.94700000  1.0 -0.5394486204
O  O56  1  0.85870000  0.02600000  0.01210000  1.0 -0.5494843886
O  O57  1  0.95390000  0.57160000  0.92680000  1.0 -0.4705577856
O  O58  1  0.05310000  0.65560000  0.94990000  1.0 -0.4903235103
O  O59  1  0.79940000  0.00570000  0.18600000  1.0 -0.0713490844
O  O60  1  0.67020000  0.03870000  0.20040000  1.0 -0.0288967829
O  O61  1  0.18430000  0.42480000  0.97070000  1.0 -0.4903235103
O  O62  1  0.04290000  0.41420000  0.94200000  1.0 -0.4705577856
O  O63  1  0.23000000  0.58060000  0.92870000  1.0 -0.4499149139
O  O64  1  0.12450000  0.53840000  0.86900000  1.0 -0.4424395378
O  O65  1  0.74360000  0.65060000  0.77490000  1.0 -0.4499149139
O  O66  1  0.70130000  0.54280000  0.79820000  1.0 -0.6518974618
O  O67  1  0.60000000  0.25550000  0.02500000  1.0 -0.3938531593
O  O68  1  0.54850000  0.24380000  0.94410000  1.0 -0.242766434
O  O69  1  0.32950000  0.23190000  0.88830000  1.0 -0.3702313394
O  O70  1  0.42930000  0.29450000  0.93210000  1.0 -0.2339367658
O  O71  1  0.76810000  0.95860000  0.17310000  1.0 -0.0503335983
O  O72  1  0.64900000  0.99310000  0.18980000  1.0 -0.0624204191
O  O73  1  0.17340000  0.43620000  0.60290000  1.0 -0.5231894568
O  O74  1  0.24360000  0.57430000  0.54810000  1.0 -0.4903235103
O  O75  1  0.01060000  0.57480000  0.56901000  1.0 -0.5874398068
O  O76  1  0.09000000  0.67230000  0.59110000  1.0 -0.4967542232
O  O77  1  0.27380000  0.59090000  0.66940000  1.0 -0.4840202794
O  O78  1  0.15020000  0.55650000  0.68880000  1.0 -0.4705577856
O  O79  1  0.04480000  0.40920000  0.55300000  1.0 -0.5394486204
O  O80  1  0.14130000  0.52600000  0.48790000  1.0 -0.5494843886
O  O81  1  0.04610000  0.07160000  0.57320000  1.0 -0.4705577856
O  O82  1  0.94690000  0.15560000  0.55010000  1.0 -0.4903235103
O  O83  1  0.20060000  0.50570000  0.31400000  1.0 -0.0713490844
O  O84  1  0.32980000  0.53870000  0.29960000  1.0 -0.0212709094
O  O85  1  0.81570000  0.92480000  0.52930000  1.0 -0.4903235103
O  O86  1  0.95710000  0.91420000  0.55800000  1.0 -0.4705577856
O  O87  1  0.77000000  0.08060000  0.57130000  1.0 -0.4499149139
O  O88  1  0.87550000  0.03840000  0.63100000  1.0 -0.4424395378
O  O89  1  0.25640000  0.15060000  0.72510000  1.0 -0.4499149139
O  O90  1  0.29870000  0.04280000  0.70180000  1.0 -0.6518974618
O  O91  1  0.40000000  0.75550000  0.47500000  1.0 -0.3938531593
O  O92  1  0.45150000  0.74380000  0.55590000  1.0 -0.242766434
O  O93  1  0.67050000  0.73190000  0.61170000  1.0 -0.3702313394
O  O94  1  0.57070000  0.79450000  0.56790000  1.0 -0.2339367658
O  O95  1  0.23190000  0.45860000  0.32690000  1.0 -0.0503335983
O  O96  1  0.35100000  0.49310000  0.31020000  1.0 -0.0624204191
