# DDEC6 charges by PACMAN v1.1 (https://github.com/mtap-research/PACMAN-charge/)
data_KUNWEW_ASR_pacman
_symmetry_space_group_name_H-M   'P 1'
_cell_length_a   18.27700000
_cell_length_b   18.27700000
_cell_length_c   18.27700000
_cell_angle_alpha   145.20700000
_cell_angle_beta   126.00400000
_cell_angle_gamma   65.85420000
_symmetry_Int_Tables_number   1
_chemical_formula_structural   Zn2H15C25(NO3)3
_chemical_formula_sum   'Zn8 H60 C100 N12 O36'
_cell_volume   2782.19300866
_cell_formula_units_Z   4
loop_
 _symmetry_equiv_pos_site_id
 _symmetry_equiv_pos_as_xyz
  1  'x, y, z'
loop_
 _atom_site_type_symbol
 _atom_site_label
 _atom_site_symmetry_multiplicity
 _atom_site_fract_x
 _atom_site_fract_y
 _atom_site_fract_z
 _atom_site_occupancy
 _atom_site_charge
Zn  Zn1  1  0.78544000  0.77665000  0.21133000  1.0 0.7945501007
Zn  Zn2  1  0.43468000  0.22335000  0.00879000  1.0 0.7945501007
Zn  Zn3  1  0.93468000  0.42589000  0.71133000  1.0 0.7945501007
Zn  Zn4  1  0.28544000  0.57411000  0.50879000  1.0 0.7945501007
Zn  Zn5  1  0.47716000  0.21089000  0.84147000  1.0 0.9343876041
Zn  Zn6  1  0.63058000  0.78911000  0.26627000  1.0 0.9343876041
Zn  Zn7  1  0.13058000  0.36431000  0.34147000  1.0 0.9343876041
Zn  Zn8  1  0.97716000  0.63569000  0.76627000  1.0 0.9343876041
H  H1  1  0.49120000  0.55610000  0.75570000  1.0 0.1201330967
H  H2  1  0.19960000  0.44390000  0.93510000  1.0 0.1201330967
H  H3  1  0.69960000  0.26450000  0.25570000  1.0 0.1201330967
H  H4  1  0.99120000  0.73550000  0.43510000  1.0 0.1201330967
H  H5  1  0.31880000  0.31680000  0.58460000  1.0 0.1201330967
H  H6  1  0.26780000  0.68320000  0.00200000  1.0 0.1201330967
H  H7  1  0.76780000  0.26580000  0.08460000  1.0 0.1201330967
H  H8  1  0.81880000  0.73420000  0.50200000  1.0 0.1201330967
H  H9  1  0.56640000  0.47160000  0.93240000  1.0 0.1280505254
H  H10  1  0.46080000  0.52840000  0.09480000  1.0 0.1280505254
H  H11  1  0.96080000  0.36600000  0.43240000  1.0 0.1280505254
H  H12  1  0.06640000  0.63400000  0.59480000  1.0 0.1280505254
H  H13  1  0.99010000  0.42150000  0.05260000  1.0 0.1280505254
H  H14  1  0.63110000  0.57850000  0.56860000  1.0 0.1280505254
H  H15  1  0.13110000  0.06250000  0.55260000  1.0 0.1280505254
H  H16  1  0.49010000  0.93750000  0.06860000  1.0 0.1280505254
H  H17  1  0.85820000  0.49650000  0.09090000  1.0 0.1280505254
H  H18  1  0.59440000  0.50350000  0.36170000  1.0 0.1280505254
H  H19  1  0.09440000  0.23270000  0.59090000  1.0 0.1280505254
H  H20  1  0.35820000  0.76730000  0.86170000  1.0 0.1280505254
H  H21  1  0.01070000  0.72450000  0.10260000  1.0 0.1201330967
H  H22  1  0.37810000  0.27550000  0.28620000  1.0 0.1201330967
H  H23  1  0.87810000  0.09190000  0.60260000  1.0 0.1201330967
H  H24  1  0.51070000  0.90810000  0.78620000  1.0 0.1201330967
H  H25  1  0.99770000  0.91150000  0.17980000  1.0 0.1201330967
H  H26  1  0.26830000  0.08850000  0.08620000  1.0 0.1201330967
H  H27  1  0.76830000  0.18210000  0.67980000  1.0 0.1201330967
H  H28  1  0.49770000  0.81790000  0.58620000  1.0 0.1201330967
H  H29  1  0.90060000  0.04890000  0.27550000  1.0 0.1280505254
H  H30  1  0.22660000  0.95110000  0.85170000  1.0 0.1280505254
H  H31  1  0.72660000  0.37490000  0.77550000  1.0 0.1280505254
H  H32  1  0.40060000  0.62510000  0.35170000  1.0 0.1280505254
H  H33  1  0.82430000  0.00450000  0.30100000  1.0 0.1105772093
H  H34  1  0.29650000  0.99550000  0.81980000  1.0 0.1105772093
H  H35  1  0.79650000  0.47670000  0.80100000  1.0 0.1105772093
H  H36  1  0.32430000  0.52330000  0.31980000  1.0 0.1105772093
H  H37  1  0.09590000  0.48370000  0.05740000  1.0 0.1280505254
H  H38  1  0.57370000  0.51630000  0.61220000  1.0 0.1280505254
H  H39  1  0.07370000  0.96150000  0.55740000  1.0 0.1280505254
H  H40  1  0.59590000  0.03850000  0.11220000  1.0 0.1280505254
H  H41  1  0.05540000  0.55750000  0.03010000  1.0 0.1201330967
H  H42  1  0.47260000  0.44250000  0.49790000  1.0 0.1201330967
H  H43  1  0.97260000  0.97470000  0.53010000  1.0 0.1201330967
H  H44  1  0.55540000  0.02530000  0.99790000  1.0 0.1201330967
H  H45  1  0.18170000  0.71130000  0.19280000  1.0 0.1201330967
H  H46  1  0.48150000  0.28870000  0.47040000  1.0 0.1201330967
H  H47  1  0.98150000  0.01110000  0.69280000  1.0 0.1201330967
H  H48  1  0.68170000  0.98890000  0.97040000  1.0 0.1201330967
H  H49  1  0.29110000  0.89300000  0.42670000  1.0 0.1201330967
H  H50  1  0.53370000  0.10700000  0.39810000  1.0 0.1201330967
H  H51  1  0.03370000  0.13560000  0.92670000  1.0 0.1201330967
H  H52  1  0.79110000  0.86440000  0.89810000  1.0 0.1201330967
H  H53  1  0.23650000  0.86380000  0.58430000  1.0 0.1105772093
H  H54  1  0.72050000  0.13620000  0.37270000  1.0 0.1105772093
H  H55  1  0.22050000  0.34780000  0.08430000  1.0 0.1105772093
H  H56  1  0.73650000  0.65220000  0.87270000  1.0 0.1105772093
H  H57  1  0.12550000  0.68860000  0.35490000  1.0 0.1201330967
H  H58  1  0.66630000  0.31140000  0.43690000  1.0 0.1201330967
H  H59  1  0.16630000  0.22940000  0.85490000  1.0 0.1201330967
H  H60  1  0.62550000  0.77060000  0.93690000  1.0 0.1201330967
C  C1  1  0.47791000  0.51261000  0.75630000  1.0 -0.1330305838
C  C2  1  0.24369000  0.48739000  0.96530000  1.0 -0.1330305838
C  C3  1  0.74369000  0.27839000  0.25630000  1.0 -0.1330305838
C  C4  1  0.97791000  0.72161000  0.46530000  1.0 -0.1330305838
C  C5  1  0.39454000  0.43324000  0.65130000  1.0 -0.0263712477
C  C6  1  0.21806000  0.56676000  0.96130000  1.0 -0.0263712477
C  C7  1  0.71806000  0.25676000  0.15130000  1.0 -0.0263712477
C  C8  1  0.89454000  0.74324000  0.46130000  1.0 -0.0263712477
C  C9  1  0.37554000  0.36794000  0.65260000  1.0 -0.1481990047
C  C10  1  0.28466000  0.63206000  0.00760000  1.0 -0.1481990047
C  C11  1  0.78466000  0.27706000  0.15260000  1.0 -0.1481990047
C  C12  1  0.87554000  0.72294000  0.50760000  1.0 -0.1481990047
C  C13  1  0.44220000  0.37940000  0.75680000  1.0 -0.0484263512
C  C14  1  0.37740000  0.62060000  0.06280000  1.0 -0.0484263512
C  C15  1  0.87740000  0.31460000  0.25680000  1.0 -0.0484263512
C  C16  1  0.94220000  0.68540000  0.56280000  1.0 -0.0484263512
C  C17  1  0.52310000  0.46110000  0.86100000  1.0 -0.1169062831
C  C18  1  0.39990000  0.53890000  0.06200000  1.0 -0.1169062831
C  C19  1  0.89990000  0.33790000  0.36100000  1.0 -0.1169062831
C  C20  1  0.02310000  0.66210000  0.56200000  1.0 -0.1169062831
C  C21  1  0.54193000  0.52783000  0.86250000  1.0 -0.0236806233
C  C22  1  0.33467000  0.47217000  0.01410000  1.0 -0.0236806233
C  C23  1  0.83467000  0.32057000  0.36250000  1.0 -0.0236806233
C  C24  1  0.04193000  0.67943000  0.51410000  1.0 -0.0236806233
C  C25  1  0.42390000  0.30410000  0.75460000  1.0 0.4438962735
C  C26  1  0.45050000  0.69590000  0.11980000  1.0 0.4438962735
C  C27  1  0.95050000  0.33070000  0.25460000  1.0 0.4438962735
C  C28  1  0.92390000  0.66930000  0.61980000  1.0 0.4451748527
C  C29  1  0.63142000  0.61912000  0.98150000  1.0 0.5503545798
C  C30  1  0.36238000  0.38088000  0.01230000  1.0 0.5503545798
C  C31  1  0.86238000  0.35008000  0.48150000  1.0 0.5503545798
C  C32  1  0.13142000  0.64992000  0.51230000  1.0 0.5503545798
C  C33  1  0.32316000  0.42306000  0.54270000  1.0 0.5799798391
C  C34  1  0.11964000  0.57694000  0.90010000  1.0 0.5799798391
C  C35  1  0.61964000  0.21954000  0.04270000  1.0 0.5799798391
C  C36  1  0.82316000  0.78046000  0.40010000  1.0 0.5799798391
C  C37  1  0.96200000  0.48970000  0.07550000  1.0 -0.1078260072
C  C38  1  0.58580000  0.51030000  0.47230000  1.0 -0.1078260072
C  C39  1  0.08580000  0.11350000  0.57550000  1.0 -0.1078260072
C  C40  1  0.46200000  0.88650000  0.97230000  1.0 -0.1078260072
C  C41  1  0.88990000  0.53240000  0.09810000  1.0 -0.0263712477
C  C42  1  0.56570000  0.46760000  0.35750000  1.0 -0.0263712477
C  C43  1  0.06570000  0.20820000  0.59810000  1.0 -0.0263712477
C  C44  1  0.38990000  0.79180000  0.85750000  1.0 -0.0263712477
C  C45  1  0.93011000  0.65761000  0.13290000  1.0 0.1756428278
C  C46  1  0.47529000  0.34239000  0.27250000  1.0 0.1756428278
C  C47  1  0.97529000  0.20279000  0.63290000  1.0 0.1756428278
C  C48  1  0.43011000  0.79721000  0.77250000  1.0 0.1756428278
C  C49  1  0.92787000  0.76587000  0.16880000  1.0 0.1483966953
C  C50  1  0.40293000  0.23413000  0.16200000  1.0 0.1483966953
C  C51  1  0.90293000  0.24093000  0.66880000  1.0 0.1483966953
C  C52  1  0.42787000  0.75907000  0.66200000  1.0 0.1483966953
C  C53  1  0.97420000  0.78370000  0.14590000  1.0 -0.1752810233
C  C54  1  0.36220000  0.21630000  0.19050000  1.0 -0.1752810233
C  C55  1  0.86220000  0.17170000  0.64590000  1.0 -0.1752810233
C  C56  1  0.47420000  0.82830000  0.69050000  1.0 -0.1752810233
C  C57  1  0.96520000  0.89430000  0.18990000  1.0 -0.043464245
C  C58  1  0.29560000  0.10570000  0.07090000  1.0 -0.043464245
C  C59  1  0.79560000  0.22470000  0.68990000  1.0 -0.043464245
C  C60  1  0.46520000  0.77530000  0.57090000  1.0 -0.043464245
C  C61  1  0.90850000  0.97610000  0.24740000  1.0 -0.1416911238
C  C62  1  0.27130000  0.02390000  0.93240000  1.0 -0.1416911238
C  C63  1  0.77130000  0.33890000  0.74740000  1.0 -0.1416911238
C  C64  1  0.40850000  0.66110000  0.43240000  1.0 -0.1416911238
C  C65  1  0.86350000  0.94850000  0.26260000  1.0 0.0681542404
C  C66  1  0.31410000  0.05150000  0.91500000  1.0 0.0681542404
C  C67  1  0.81410000  0.39910000  0.76260000  1.0 0.0681542404
C  C68  1  0.36350000  0.60090000  0.41500000  1.0 0.0681542404
C  C69  1  0.07090000  0.56140000  0.09410000  1.0 -0.1720591389
C  C70  1  0.53270000  0.43860000  0.50950000  1.0 -0.1720591389
C  C71  1  0.03270000  0.02320000  0.59410000  1.0 -0.1720591389
C  C72  1  0.57090000  0.97680000  0.00950000  1.0 -0.1720591389
C  C73  1  0.14328000  0.68168000  0.25000000  1.0 0.1019668061
C  C74  1  0.56832000  0.31832000  0.46160000  1.0 0.1019668061
C  C75  1  0.06832000  0.10672000  0.75000000  1.0 0.1019668061
C  C76  1  0.64328000  0.89328000  0.96160000  1.0 0.1019668061
C  C77  1  0.19230000  0.74310000  0.27240000  1.0 -0.1629359961
C  C78  1  0.52930000  0.25690000  0.44920000  1.0 -0.1629359961
C  C79  1  0.02930000  0.08010000  0.77240000  1.0 -0.1629359961
C  C80  1  0.69230000  0.91990000  0.94920000  1.0 -0.1629359961
C  C81  1  0.25773000  0.85243000  0.41270000  1.0 -0.1031713091
C  C82  1  0.56027000  0.14757000  0.40530000  1.0 -0.1031713091
C  C83  1  0.06027000  0.15497000  0.91270000  1.0 -0.1031713091
C  C84  1  0.75773000  0.84503000  0.90530000  1.0 -0.1031713091
C  C85  1  0.27285000  0.90005000  0.53040000  1.0 -0.0484263512
C  C86  1  0.63035000  0.09995000  0.37280000  1.0 -0.0484263512
C  C87  1  0.13035000  0.25755000  0.03040000  1.0 -0.0484263512
C  C88  1  0.77285000  0.74245000  0.87280000  1.0 -0.0484263512
C  C89  1  0.22429000  0.83469000  0.50560000  1.0 -0.1031713091
C  C90  1  0.67091000  0.16531000  0.38960000  1.0 -0.1031713091
C  C91  1  0.17091000  0.28131000  0.00560000  1.0 -0.1031713091
C  C92  1  0.72429000  0.71869000  0.88960000  1.0 -0.1031713091
C  C93  1  0.15918000  0.72898000  0.36880000  1.0 -0.1481990047
C  C94  1  0.63982000  0.27102000  0.43020000  1.0 -0.1481990047
C  C95  1  0.13982000  0.20962000  0.86880000  1.0 -0.1481990047
C  C96  1  0.65918000  0.79038000  0.93020000  1.0 -0.1481990047
C  C97  1  0.34295000  0.01915000  0.68200000  1.0 0.5799798391
C  C98  1  0.66285000  0.98085000  0.32380000  1.0 0.5799798391
C  C99  1  0.16285000  0.33905000  0.18200000  1.0 0.5799798391
C  C100  1  0.84295000  0.66095000  0.82380000  1.0 0.5799798391
N  N1  1  0.98668000  0.56668000  0.09320000  1.0 0.0206363074
N  N2  1  0.52652000  0.43332000  0.42000000  1.0 0.0206363074
N  N3  1  0.02652000  0.10652000  0.59320000  1.0 0.0206363074
N  N4  1  0.48668000  0.89348000  0.92000000  1.0 0.0206363074
N  N5  1  0.86942000  0.63592000  0.13290000  1.0 -0.3195388668
N  N6  1  0.49698000  0.36408000  0.23350000  1.0 -0.3195388668
N  N7  1  0.99698000  0.26348000  0.63290000  1.0 -0.3195388668
N  N8  1  0.36942000  0.73652000  0.73350000  1.0 -0.3195388668
N  N9  1  0.87167000  0.84577000  0.22590000  1.0 -0.2772634231
N  N10  1  0.38013000  0.15423000  0.02590000  1.0 -0.2772634231
N  N11  1  0.88013000  0.35423000  0.72590000  1.0 -0.2772634231
N  N12  1  0.37167000  0.64577000  0.52590000  1.0 -0.2772634231
O  O1  1  0.48893000  0.31933000  0.85160000  1.0 -0.5486992203
O  O2  1  0.53227000  0.68067000  0.16960000  1.0 -0.5486992203
O  O3  1  0.03227000  0.36267000  0.35160000  1.0 -0.5486992203
O  O4  1  0.98893000  0.63733000  0.66960000  1.0 -0.5486992203
O  O5  1  0.34190000  0.25870000  0.68760000  1.0 -0.0484263512
O  O6  1  0.42890000  0.74130000  0.08320000  1.0 -0.0484263512
O  O7  1  0.92890000  0.34570000  0.18760000  1.0 -0.0484263512
O  O8  1  0.84190000  0.65430000  0.58320000  1.0 -0.0484263512
O  O9  1  0.66556000  0.64296000  0.96040000  1.0 -0.5247079783
O  O10  1  0.31744000  0.35704000  0.02260000  1.0 -0.5247079783
O  O11  1  0.81744000  0.29484000  0.46040000  1.0 -0.5247079783
O  O12  1  0.16556000  0.70516000  0.52260000  1.0 -0.5247079783
O  O13  1  0.67060000  0.66790000  0.10270000  1.0 -0.5630107605
O  O14  1  0.43480000  0.33210000  0.00270000  1.0 -0.5630107605
O  O15  1  0.93480000  0.43210000  0.60270000  1.0 -0.5630107605
O  O16  1  0.17060000  0.56790000  0.50270000  1.0 -0.5630107605
O  O17  1  0.34627000  0.45747000  0.52040000  1.0 -0.5652877294
O  O18  1  0.06293000  0.54253000  0.88880000  1.0 -0.5652877294
O  O19  1  0.56293000  0.17413000  0.02040000  1.0 -0.5630107605
O  O20  1  0.84627000  0.82587000  0.38880000  1.0 -0.5652877294
O  O21  1  0.24126000  0.38146000  0.48000000  1.0 -0.5486992203
O  O22  1  0.09854000  0.61854000  0.85980000  1.0 -0.5486992203
O  O23  1  0.59854000  0.23874000  0.98000000  1.0 -0.5486992203
O  O24  1  0.74126000  0.76126000  0.35980000  1.0 -0.5486992203
O  O25  1  0.35525000  0.06235000  0.78770000  1.0 -0.5314224564
O  O26  1  0.72535000  0.93765000  0.29290000  1.0 -0.5314224564
O  O27  1  0.22535000  0.43245000  0.28770000  1.0 -0.5314224564
O  O28  1  0.85525000  0.56755000  0.79290000  1.0 -0.5314224564
O  O29  1  0.38439000  0.06799000  0.68980000  1.0 -0.5940296255
O  O30  1  0.62181000  0.93201000  0.31640000  1.0 -0.5940296255
O  O31  1  0.12181000  0.30541000  0.18980000  1.0 -0.5940296255
O  O32  1  0.88439000  0.69459000  0.81640000  1.0 -0.5940296255
O  O33  1  0.35990000  0.20900000  0.64030000  1.0 0.028990663
O  O34  1  0.43130000  0.79100000  0.15090000  1.0 0.028990663
O  O35  1  0.93130000  0.28040000  0.14030000  1.0 0.028990663
O  O36  1  0.85990000  0.71960000  0.65090000  1.0 0.028990663
