# DDEC6 charges by PACMAN v1.1 (https://github.com/mtap-research/PACMAN-charge/)
data_KUSQUM_ASR_pacman
_symmetry_space_group_name_H-M   'P 1'
_cell_length_a   10.19200000
_cell_length_b   18.23120000
_cell_length_c   20.89930000
_cell_angle_alpha   95.03100000
_cell_angle_beta   104.11300000
_cell_angle_gamma   90.00000000
_symmetry_Int_Tables_number   1
_chemical_formula_structural   Cd6Cu3H130C114(NO3)10
_chemical_formula_sum   'Cd6 Cu3 H130 C114 N10 O30'
_cell_volume   3750.70815143
_cell_formula_units_Z   1
loop_
 _symmetry_equiv_pos_site_id
 _symmetry_equiv_pos_as_xyz
  1  'x, y, z'
loop_
 _atom_site_type_symbol
 _atom_site_label
 _atom_site_symmetry_multiplicity
 _atom_site_fract_x
 _atom_site_fract_y
 _atom_site_fract_z
 _atom_site_occupancy
 _atom_site_charge
Cd  Cd1  1  0.86310000  0.73123000  0.32702000  1.0 0.924474165
Cd  Cd2  1  0.53608000  0.26877000  0.67298000  1.0 0.924474165
Cd  Cd3  1  0.17939000  0.77191000  0.67359000  1.0 0.9050444218
Cd  Cd4  1  0.50580000  0.22809000  0.32641000  1.0 0.9050444218
Cd  Cd5  1  0.02618000  0.74772000  0.50163000  1.0 1.1033632608
Cd  Cd6  1  0.52455000  0.25228000  0.49837000  1.0 1.1033632608
Cu  Cu1  1  0.50613000  0.55679000  0.96583000  1.0 0.3351516279
Cu  Cu2  1  0.54030000  0.44321000  0.03417000  1.0 0.3311229599
Cu  Cu3  1  0.59220000  0.00000000  0.00000000  1.0 0.5919961442
H  H1  1  0.14178000  0.51283000  0.49790000  1.0 0.1098465727
H  H2  1  0.64388000  0.48717000  0.50210000  1.0 0.1098465727
H  H3  1  0.27108000  0.39646000  0.48346000  1.0 0.1098465727
H  H4  1  0.78761000  0.60354000  0.51654000  1.0 0.1098465727
H  H5  1  0.29501000  0.45145000  0.29055000  1.0 0.0925810697
H  H6  1  0.00445000  0.54855000  0.70945000  1.0 0.0925810697
H  H7  1  0.16303000  0.56654000  0.30398000  1.0 0.1006643188
H  H8  1  0.85905000  0.43346000  0.69602000  1.0 0.1006643188
H  H9  1  0.07140000  0.93172000  0.29233000  1.0 0.1006643188
H  H10  1  0.77907000  0.06828000  0.70767000  1.0 0.1006643188
H  H11  1  0.20225000  0.05243000  0.29960000  1.0 0.1006643188
H  H12  1  0.90264000  0.94757000  0.70040000  1.0 0.1006643188
H  H13  1  0.42816000  0.01576000  0.49607000  1.0 0.1098465727
H  H14  1  0.93209000  0.98424000  0.50393000  1.0 0.1098465727
H  H15  1  0.29998000  0.89368000  0.48803000  1.0 0.1098465727
H  H16  1  0.81194000  0.10632000  0.51197000  1.0 0.1098465727
H  H17  1  0.33674000  0.66336000  0.49407000  1.0 0.1098465727
H  H18  1  0.84267000  0.33664000  0.50593000  1.0 0.1098465727
H  H19  1  0.49348000  0.64280000  0.41746000  1.0 0.1098465727
H  H20  1  0.07602000  0.35720000  0.58254000  1.0 0.1098465727
H  H21  1  0.72943000  0.83563000  0.51409000  1.0 0.1098465727
H  H22  1  0.21534000  0.16437000  0.48591000  1.0 0.1098465727
H  H23  1  0.57555000  0.85547000  0.59205000  1.0 0.1006643188
H  H24  1  0.98350000  0.14453000  0.40795000  1.0 0.1006643188
H  H25  1  0.80102000  0.88557000  0.36117000  1.0 0.0544234591
H  H26  1  0.43985000  0.11443000  0.63883000  1.0 0.0544234591
H  H27  1  0.44130000  0.98268000  0.27481000  1.0 0.1202969506
H  H28  1  0.16649000  0.01732000  0.72519000  1.0 0.1202969506
H  H29  1  0.45880000  0.88570000  0.25345000  1.0 0.1305676239
H  H30  1  0.20534000  0.11430000  0.74655000  1.0 0.1305676239
H  H31  1  0.52947000  0.95301000  0.21279000  1.0 0.1006643188
H  H32  1  0.31669000  0.04699000  0.78721000  1.0 0.1006643188
H  H33  1  0.59203000  0.04152000  0.36017000  1.0 0.1305676239
H  H34  1  0.23186000  0.95848000  0.63983000  1.0 0.1305676239
H  H35  1  0.74984000  0.04154000  0.33739000  1.0 0.1202969506
H  H36  1  0.41245000  0.95846000  0.66261000  1.0 0.1202969506
H  H37  1  0.73132000  0.99351000  0.40658000  1.0 0.1202969506
H  H38  1  0.32474000  0.00649000  0.59342000  1.0 0.1202969506
H  H39  1  0.62615000  0.73589000  0.18892000  1.0 0.1006643188
H  H40  1  0.43723000  0.26411000  0.81108000  1.0 0.1006643188
H  H41  1  0.97039000  0.61421000  0.24942000  1.0 0.1006643188
H  H42  1  0.72098000  0.38579000  0.75058000  1.0 0.1006643188
H  H43  1  0.94466000  0.25812000  0.14676000  1.0 0.1683666485
H  H44  1  0.79790000  0.74188000  0.85324000  1.0 0.1683666485
H  H45  1  0.90023000  0.46627000  0.10574000  1.0 0.151249476
H  H46  1  0.79449000  0.53373000  0.89426000  1.0 0.151249476
H  H47  1  0.03177000  0.51147000  0.17679000  1.0 0.1305676239
H  H48  1  0.85498000  0.48853000  0.82321000  1.0 0.1305676239
H  H49  1  0.45915000  0.70743000  0.09639000  1.0 0.0698616134
H  H50  1  0.36276000  0.29257000  0.90361000  1.0 0.0698616134
H  H51  1  0.30540000  0.71681000  0.01445000  1.0 0.0593514854
H  H52  1  0.29095000  0.28319000  0.98555000  1.0 0.0593514854
H  H53  1  0.37271000  0.77863000  0.93067000  1.0 0.0925810697
H  H54  1  0.44204000  0.22137000  0.06933000  1.0 0.0925810697
H  H55  1  0.52095000  0.72836000  0.95862000  1.0 0.0925810697
H  H56  1  0.56234000  0.27164000  0.04138000  1.0 0.0925810697
H  H57  1  0.33979000  0.71356000  0.82584000  1.0 0.1006643188
H  H58  1  0.51395000  0.28644000  0.17416000  1.0 0.1006643188
H  H59  1  0.47489000  0.65583000  0.85232000  1.0 0.1006643188
H  H60  1  0.62257000  0.34417000  0.14768000  1.0 0.1006643188
H  H61  1  0.23860000  0.58593000  0.76434000  1.0 0.151249476
H  H62  1  0.47426000  0.41407000  0.23566000  1.0 0.151249476
H  H63  1  0.10401000  0.57230000  0.80362000  1.0 0.1395304019
H  H64  1  0.30039000  0.42770000  0.19638000  1.0 0.1395304019
H  H65  1  0.24233000  0.51207000  0.81621000  1.0 0.1395304019
H  H66  1  0.42613000  0.48793000  0.18379000  1.0 0.1395304019
H  H67  1  0.09066000  0.71440000  0.96150000  1.0 0.1006643188
H  H68  1  0.12916000  0.28560000  0.03850000  1.0 0.1006643188
H  H69  1  0.00404000  0.64930000  0.89540000  1.0 0.1202969506
H  H70  1  0.10864000  0.35070000  0.10460000  1.0 0.1202969506
H  H71  1  0.10056000  0.72363000  0.87820000  1.0 0.1202969506
H  H72  1  0.22236000  0.27637000  0.12180000  1.0 0.1202969506
H  H73  1  0.26185000  0.51992000  0.95206000  1.0 0.0925810697
H  H74  1  0.30979000  0.48008000  0.04794000  1.0 0.0925810697
H  H75  1  0.08645000  0.54077000  0.92018000  1.0 0.1202969506
H  H76  1  0.16627000  0.45923000  0.07982000  1.0 0.1202969506
H  H77  1  0.17049000  0.57268000  0.00374000  1.0 0.1202969506
H  H78  1  0.16675000  0.42732000  0.99626000  1.0 0.1202969506
H  H79  1  0.98320000  0.34526000  0.93136000  1.0 -0.0103659844
H  H80  1  0.05184000  0.65474000  0.06864000  1.0 -0.0103659844
H  H81  1  0.27853000  0.07548000  0.88626000  1.0 -0.0539595985
H  H82  1  0.39227000  0.92452000  0.11374000  1.0 -0.0539595985
H  H83  1  0.93849000  0.37329000  0.91279000  1.0 -0.0103659844
H  H84  1  0.02570000  0.62671000  0.08721000  1.0 -0.0103659844
H  H85  1  0.43770000  0.86486000  0.75980000  1.0 0.0925810697
H  H86  1  0.67789000  0.13514000  0.24020000  1.0 0.0925810697
H  H87  1  0.07647000  0.81018000  0.80445000  1.0 0.0925810697
H  H88  1  0.27201000  0.18982000  0.19555000  1.0 0.0925810697
H  H89  1  0.02545000  0.84486000  0.90767000  1.0 0.1202969506
H  H90  1  0.11778000  0.15514000  0.09233000  1.0 0.1202969506
H  H91  1  0.10916000  0.92797000  0.95149000  1.0 0.1395304019
H  H92  1  0.15767000  0.07203000  0.04851000  1.0 0.1395304019
H  H93  1  0.17154000  0.84194000  0.97590000  1.0 0.1305676239
H  H94  1  0.19564000  0.15806000  0.02410000  1.0 0.1305676239
H  H95  1  0.56878000  0.94883000  0.81232000  1.0 0.0544234591
H  H96  1  0.75645000  0.05117000  0.18768000  1.0 0.0544234591
H  H97  1  0.70554000  0.01553000  0.82934000  1.0 0.0317239577
H  H98  1  0.87620000  0.98447000  0.17066000  1.0 0.0317239577
H  H99  1  0.53883000  0.11457000  0.83061000  1.0 0.1006643188
H  H100  1  0.70821000  0.88543000  0.16939000  1.0 0.1006643188
H  H101  1  0.69995000  0.14869000  0.83186000  1.0 0.1006643188
H  H102  1  0.86810000  0.85131000  0.16814000  1.0 0.1006643188
H  H103  1  0.57021000  0.15036000  0.95235000  1.0 0.0925810697
H  H104  1  0.61785000  0.84964000  0.04765000  1.0 0.0925810697
H  H105  1  0.61733000  0.22714000  0.91481000  1.0 0.0808848159
H  H106  1  0.70251000  0.77286000  0.08519000  1.0 0.0808848159
H  H107  1  0.86706000  0.27430000  0.02229000  1.0 0.1202969506
H  H108  1  0.84478000  0.72570000  0.97771000  1.0 0.1202969506
H  H109  1  0.88218000  0.20920000  0.07755000  1.0 0.0698616134
H  H110  1  0.80463000  0.79080000  0.92245000  1.0 0.0698616134
H  H111  1  0.71782000  0.24295000  0.04417000  1.0 0.1202969506
H  H112  1  0.67366000  0.75705000  0.95583000  1.0 0.1202969506
H  H113  1  0.92138000  0.18723000  0.86878000  1.0 0.1202969506
H  H114  1  0.05260000  0.81277000  0.13122000  1.0 0.1202969506
H  H115  1  0.06505000  0.13821000  0.91004000  1.0 0.1098465727
H  H116  1  0.15500000  0.86179000  0.08996000  1.0 0.1098465727
H  H117  1  0.01833000  0.22511000  0.94705000  1.0 0.1006643188
H  H118  1  0.07129000  0.77489000  0.05295000  1.0 0.1006643188
H  H119  1  0.91820000  0.03670000  0.88911000  1.0 0.1006643188
H  H120  1  0.02909000  0.96330000  0.11089000  1.0 0.0925810697
H  H121  1  0.90135000  0.98772000  0.04330000  1.0 0.0808848159
H  H122  1  0.85805000  0.01228000  0.95670000  1.0 0.0808848159
H  H123  1  0.96334000  0.12242000  0.00468000  1.0 0.0698616134
H  H124  1  0.95866000  0.87758000  0.99532000  1.0 0.0698616134
H  H125  1  0.39277000  0.93159000  0.07795000  1.0 0.0197262925
H  H126  1  0.31481000  0.06841000  0.92205000  1.0 0.0197262925
H  H127  1  0.20565000  0.03725000  0.18693000  1.0 -0.0103659844
H  H128  1  0.01872000  0.96275000  0.81307000  1.0 -0.0103659844
H  H129  1  0.22071000  0.99869000  0.17560000  1.0 -0.0103659844
H  H130  1  0.04511000  0.00131000  0.82440000  1.0 -0.0103659844
C  C1  1  0.14328000  0.54517000  0.40102000  1.0 -0.0370851697
C  C2  1  0.74225000  0.45483000  0.59898000  1.0 -0.0370851697
C  C3  1  0.17541000  0.49848000  0.45249000  1.0 -0.0894106736
C  C4  1  0.72292000  0.50152000  0.54751000  1.0 -0.0894106736
C  C5  1  0.24679000  0.43418000  0.44449000  1.0 -0.0894106736
C  C6  1  0.80230000  0.56582000  0.55551000  1.0 -0.0894106736
C  C7  1  0.28807000  0.41682000  0.38551000  1.0 -0.022678675
C  C8  1  0.90255000  0.58318000  0.61449000  1.0 -0.022678675
C  C9  1  0.25995000  0.46518000  0.33535000  1.0 -0.1082799535
C  C10  1  0.92459000  0.53482000  0.66465000  1.0 -0.1082799535
C  C11  1  0.18722000  0.52858000  0.34279000  1.0 -0.1082799535
C  C12  1  0.84443000  0.47142000  0.65721000  1.0 -0.1082799535
C  C13  1  0.06021000  0.61237000  0.40623000  1.0 0.5963623973
C  C14  1  0.65398000  0.38763000  0.59377000  1.0 0.5963623973
C  C15  1  0.35807000  0.34611000  0.37506000  1.0 0.5919961442
C  C16  1  0.98301000  0.65389000  0.62494000  1.0 0.5919961442
C  C17  1  0.17985000  0.90706000  0.38972000  1.0 -0.022678675
C  C18  1  0.79013000  0.09294000  0.61028000  1.0 -0.022678675
C  C19  1  0.15026000  0.95102000  0.33627000  1.0 -0.1082799535
C  C20  1  0.81399000  0.04898000  0.66373000  1.0 -0.1082799535
C  C21  1  0.22092000  0.01712000  0.34038000  1.0 -0.1000979354
C  C22  1  0.88055000  0.98288000  0.65962000  1.0 -0.1000979354
C  C23  1  0.32021000  0.03990000  0.39825000  1.0 -0.0370851697
C  C24  1  0.92196000  0.96010000  0.60175000  1.0 -0.0370851697
C  C25  1  0.34914000  0.99641000  0.45200000  1.0 -0.1082799535
C  C26  1  0.89714000  0.00359000  0.54800000  1.0 -0.1082799535
C  C27  1  0.27937000  0.92954000  0.44754000  1.0 -0.0894106736
C  C28  1  0.83182000  0.07046000  0.55246000  1.0 -0.0894106736
C  C29  1  0.10160000  0.83646000  0.38489000  1.0 0.5919961442
C  C30  1  0.71671000  0.16354000  0.61511000  1.0 0.5919961442
C  C31  1  0.39723000  0.11018000  0.40019000  1.0 0.5919961442
C  C32  1  0.99704000  0.88982000  0.59981000  1.0 0.5919961442
C  C33  1  0.44792000  0.76044000  0.54726000  1.0 -0.0274458712
C  C34  1  0.90066000  0.23956000  0.45274000  1.0 -0.0274458712
C  C35  1  0.42335000  0.70068000  0.49808000  1.0 -0.080897331
C  C36  1  0.92526000  0.29932000  0.50192000  1.0 -0.080897331
C  C37  1  0.50965000  0.68935000  0.45582000  1.0 -0.0894106736
C  C38  1  0.05382000  0.31065000  0.54418000  1.0 -0.0894106736
C  C39  1  0.61958000  0.73828000  0.46224000  1.0 -0.022678675
C  C40  1  0.15734000  0.26172000  0.53776000  1.0 -0.022678675
C  C41  1  0.64342000  0.79849000  0.51080000  1.0 -0.0894106736
C  C42  1  0.13262000  0.20151000  0.48920000  1.0 -0.0894106736
C  C43  1  0.55806000  0.80939000  0.55349000  1.0 -0.1000979354
C  C44  1  0.00457000  0.19061000  0.44651000  1.0 -0.1000979354
C  C45  1  0.35802000  0.77029000  0.59382000  1.0 0.5837756844
C  C46  1  0.76420000  0.22971000  0.40618000  1.0 0.5837756844
C  C47  1  0.70910000  0.72813000  0.41575000  1.0 0.5683500322
C  C48  1  0.29335000  0.27187000  0.58425000  1.0 0.5683500322
C  C49  1  0.71060000  0.88012000  0.31875000  1.0 0.3041310759
C  C50  1  0.39185000  0.11988000  0.68125000  1.0 0.3041310759
C  C51  1  0.50883000  0.94058000  0.26042000  1.0 -0.2581938205
C  C52  1  0.24840000  0.05942000  0.73958000  1.0 -0.2581938205
C  C53  1  0.67994000  0.00789000  0.35651000  1.0 -0.2688431142
C  C54  1  0.32343000  0.99211000  0.64349000  1.0 -0.2688431142
C  C55  1  0.68186000  0.68705000  0.17740000  1.0 0.0808848159
C  C56  1  0.50446000  0.31295000  0.82260000  1.0 0.0808848159
C  C57  1  0.62931000  0.63631000  0.12153000  1.0 -0.1418084202
C  C58  1  0.50778000  0.36369000  0.87847000  1.0 -0.1418084202
C  C59  1  0.70527000  0.57145000  0.11289000  1.0 0.3311229599
C  C60  1  0.59238000  0.42855000  0.88711000  1.0 0.3311229599
C  C61  1  0.84118000  0.56626000  0.15541000  1.0 0.0022764076
C  C62  1  0.68577000  0.43374000  0.84459000  1.0 0.0022764076
C  C63  1  0.87790000  0.62023000  0.21046000  1.0 0.0698616134
C  C64  1  0.66744000  0.37977000  0.78954000  1.0 0.0698616134
C  C65  1  0.92929000  0.51101000  0.14482000  1.0 -0.2991812674
C  C66  1  0.78447000  0.48899000  0.85518000  1.0 -0.2991812674
C  C67  1  0.50589000  0.65812000  0.07705000  1.0 0.1098465727
C  C68  1  0.42884000  0.34188000  0.92295000  1.0 0.1098465727
C  C69  1  0.34276000  0.67952000  0.97828000  1.0 0.0698616134
C  C70  1  0.36448000  0.32048000  0.02172000  1.0 0.0698616134
C  C71  1  0.41209000  0.72266000  0.93473000  1.0 -0.198947961
C  C72  1  0.47735000  0.27734000  0.06527000  1.0 -0.198947961
C  C73  1  0.38317000  0.67837000  0.86669000  1.0 -0.198947961
C  C74  1  0.51648000  0.32163000  0.13331000  1.0 -0.198947961
C  C75  1  0.28091000  0.62107000  0.86849000  1.0 0.0808848159
C  C76  1  0.41241000  0.37893000  0.13151000  1.0 0.0808848159
C  C77  1  0.21521000  0.57070000  0.81035000  1.0 -0.4035290328
C  C78  1  0.40486000  0.42930000  0.18965000  1.0 -0.4035290328
C  C79  1  0.22576000  0.63391000  0.92886000  1.0 0.1305676239
C  C80  1  0.29690000  0.36609000  0.07114000  1.0 0.1305676239
C  C81  1  0.09762000  0.68352000  0.91438000  1.0 -0.3930330622
C  C82  1  0.18324000  0.31648000  0.08562000  1.0 -0.3930330622
C  C83  1  0.18425000  0.56244000  0.95276000  1.0 -0.4035290328
C  C84  1  0.23149000  0.43756000  0.04724000  1.0 -0.4035290328
C  C85  1  0.37579000  0.86646000  0.79636000  1.0 0.0593514854
C  C86  1  0.57943000  0.13354000  0.20364000  1.0 0.0593514854
C  C87  1  0.42241000  0.90764000  0.85813000  1.0 -0.1418084202
C  C88  1  0.56428000  0.09236000  0.14187000  1.0 -0.1418084202
C  C89  1  0.34939000  0.90516000  0.90940000  1.0 0.3177975269
C  C90  1  0.43999000  0.09484000  0.09060000  1.0 0.3177975269
C  C91  1  0.21598000  0.87080000  0.88622000  1.0 0.0022764076
C  C92  1  0.32976000  0.12920000  0.11378000  1.0 0.0022764076
C  C93  1  0.17734000  0.83626000  0.82270000  1.0 0.0090078099
C  C94  1  0.35464000  0.16374000  0.17730000  1.0 0.0090078099
C  C95  1  0.12456000  0.87124000  0.93232000  1.0 -0.3930330622
C  C96  1  0.19223000  0.12876000  0.06768000  1.0 -0.3930330622
C  C97  1  0.53889000  0.95315000  0.86041000  1.0 0.1006643188
C  C98  1  0.67848000  0.04685000  0.13959000  1.0 0.1006643188
C  C99  1  0.70149000  0.04583000  0.87763000  1.0 0.1395304019
C  C100  1  0.82386000  0.95417000  0.12237000  1.0 0.1395304019
C  C101  1  0.64185000  0.12115000  0.86201000  1.0 -0.198947961
C  C102  1  0.77984000  0.87885000  0.13799000  1.0 -0.198947961
C  C103  1  0.64633000  0.16946000  0.92595000  1.0 -0.1884360311
C  C104  1  0.72039000  0.83054000  0.07405000  1.0 -0.1884360311
C  C105  1  0.78323000  0.17393000  0.97109000  1.0 0.0808848159
C  C106  1  0.81214000  0.82607000  0.02891000  1.0 0.0808848159
C  C107  1  0.80984000  0.22595000  0.02893000  1.0 -0.3930330622
C  C108  1  0.78091000  0.77405000  0.97107000  1.0 -0.3930330622
C  C109  1  0.84850000  0.05342000  0.92033000  1.0 -0.2299014849
C  C110  1  0.92817000  0.94658000  0.07967000  1.0 -0.2299014849
C  C111  1  0.98019000  0.17279000  0.91790000  1.0 -0.3788101224
C  C112  1  0.06229000  0.82721000  0.08210000  1.0 -0.3788101224
C  C113  1  0.89561000  0.12979000  0.95576000  1.0 0.0090078099
C  C114  1  0.93985000  0.87021000  0.04424000  1.0 0.0090078099
N  N1  1  0.63317000  0.94039000  0.31315000  1.0 0.0197262925
N  N2  1  0.32001000  0.05961000  0.68685000  1.0 0.0197262925
N  N3  1  0.80108000  0.67760000  0.22142000  1.0 -0.2445016948
N  N4  1  0.57966000  0.32240000  0.77858000  1.0 -0.2445016948
N  N5  1  0.44740000  0.63245000  0.01579000  1.0 -0.2889372257
N  N6  1  0.43161000  0.36755000  0.98421000  1.0 -0.2889372257
N  N7  1  0.25736000  0.82889000  0.77791000  1.0 -0.2767513988
N  N8  1  0.47945000  0.17111000  0.22209000  1.0 -0.2767513988
N  N9  1  0.61010000  0.00060000  0.90683000  1.0 -0.3197217283
N  N10  1  0.70327000  0.99940000  0.09317000  1.0 -0.3197217283
O  O1  1  0.03602000  0.63150000  0.46244000  1.0 -0.5570036767
O  O2  1  0.57358000  0.36850000  0.53756000  1.0 -0.5570036767
O  O3  1  0.02009000  0.64464000  0.35308000  1.0 -0.5805120913
O  O4  1  0.66701000  0.35536000  0.64692000  1.0 -0.5805120913
O  O5  1  0.36176000  0.29758000  0.41558000  1.0 -0.5805120913
O  O6  1  0.94618000  0.70242000  0.58442000  1.0 -0.5805120913
O  O7  1  0.40757000  0.33727000  0.32328000  1.0 -0.5570036767
O  O8  1  0.08429000  0.66273000  0.67672000  1.0 -0.5570036767
O  O9  1  0.00496000  0.82407000  0.33213000  1.0 -0.5805120913
O  O10  1  0.67282000  0.17593000  0.66787000  1.0 -0.5805120913
O  O11  1  0.13543000  0.79550000  0.43203000  1.0 -0.5674947126
O  O12  1  0.70340000  0.20450000  0.56797000  1.0 -0.5674947126
O  O13  1  0.38145000  0.13698000  0.34407000  1.0 -0.5674947126
O  O14  1  0.03738000  0.86302000  0.65593000  1.0 -0.5674947126
O  O15  1  0.47348000  0.13581000  0.45543000  1.0 -0.5674947126
O  O16  1  0.01805000  0.86419000  0.54457000  1.0 -0.5674947126
O  O17  1  0.24341000  0.73341000  0.57858000  1.0 -0.5992587952
O  O18  1  0.66483000  0.26659000  0.42142000  1.0 -0.5992587952
O  O19  1  0.39400000  0.81191000  0.64762000  1.0 -0.5674947126
O  O20  1  0.74639000  0.18809000  0.35238000  1.0 -0.5674947126
O  O21  1  0.67925000  0.68182000  0.36531000  1.0 -0.5194572357
O  O22  1  0.31394000  0.31818000  0.63469000  1.0 -0.5194572357
O  O23  1  0.81702000  0.77142000  0.42771000  1.0 -0.626256123
O  O24  1  0.38931000  0.22858000  0.57229000  1.0 -0.626256123
O  O25  1  0.68515000  0.82207000  0.28030000  1.0 -0.4635970442
O  O26  1  0.40484000  0.17793000  0.71970000  1.0 -0.4635970442
O  O27  1  0.66163000  0.51793000  0.06753000  1.0 -0.4409721119
O  O28  1  0.59409000  0.48207000  0.93247000  1.0 -0.4409721119
O  O29  1  0.39743000  0.92976000  0.96984000  1.0 -0.4409721119
O  O30  1  0.42758000  0.07024000  0.03016000  1.0 -0.4409721119
