# DDEC6 charges by PACMAN v1.1 (https://github.com/mtap-research/PACMAN-charge/)
data_KUTBAE_FSR_pacman
_symmetry_space_group_name_H-M   'P 1'
_cell_length_a   12.91970000
_cell_length_b   12.91970000
_cell_length_c   9.84910000
_cell_angle_alpha   90.00000000
_cell_angle_beta   90.00000000
_cell_angle_gamma   90.00000000
_symmetry_Int_Tables_number   1
_chemical_formula_structural   Co4P8O28F
_chemical_formula_sum   'Co8 P16 O56 F2'
_cell_volume   1643.99845690
_cell_formula_units_Z   2
loop_
 _symmetry_equiv_pos_site_id
 _symmetry_equiv_pos_as_xyz
  1  'x, y, z'
loop_
 _atom_site_type_symbol
 _atom_site_label
 _atom_site_symmetry_multiplicity
 _atom_site_fract_x
 _atom_site_fract_y
 _atom_site_fract_z
 _atom_site_occupancy
 _atom_site_charge
Co  Co1  1  0.94522000  0.86409000  0.63135000  1.0 1.0956263037
Co  Co2  1  0.05478000  0.13591000  0.63135000  1.0 1.0945102834
Co  Co3  1  0.13591000  0.94522000  0.36865000  1.0 1.0956263037
Co  Co4  1  0.86409000  0.05478000  0.36865000  1.0 1.0956263037
Co  Co5  1  0.55478000  0.36409000  0.13135000  1.0 1.0956263037
Co  Co6  1  0.44522000  0.63591000  0.13135000  1.0 1.0956263037
Co  Co7  1  0.36409000  0.44522000  0.86865000  1.0 1.0956263037
Co  Co8  1  0.63591000  0.55478000  0.86865000  1.0 1.0956263037
P  P1  1  0.86630000  0.63710000  0.77870000  1.0 0.1687471159
P  P2  1  0.13370000  0.36290000  0.77870000  1.0 0.1687471159
P  P3  1  0.36290000  0.86630000  0.22130000  1.0 0.1687471159
P  P4  1  0.63710000  0.13370000  0.22130000  1.0 0.1687471159
P  P5  1  0.63370000  0.13710000  0.27870000  1.0 0.1687471159
P  P6  1  0.36630000  0.86290000  0.27870000  1.0 0.1687471159
P  P7  1  0.13710000  0.36630000  0.72130000  1.0 0.1687471159
P  P8  1  0.86290000  0.63370000  0.72130000  1.0 0.1687471159
P  P9  1  0.92776000  0.82401000  0.31620000  1.0 1.2388148718
P  P10  1  0.07224000  0.17599000  0.31620000  1.0 1.2388148718
P  P11  1  0.17599000  0.92776000  0.68380000  1.0 1.2388148718
P  P12  1  0.82401000  0.07224000  0.68380000  1.0 1.2388148718
P  P13  1  0.57224000  0.32401000  0.81620000  1.0 1.2388148718
P  P14  1  0.42776000  0.67599000  0.81620000  1.0 1.2388148718
P  P15  1  0.32401000  0.42776000  0.18380000  1.0 1.2388148718
P  P16  1  0.67599000  0.57224000  0.18380000  1.0 1.2388148718
O  O1  1  0.88890000  0.60990000  0.93070000  1.0 0.0527930138
O  O2  1  0.11110000  0.39010000  0.93070000  1.0 0.0527930138
O  O3  1  0.39010000  0.88890000  0.06930000  1.0 0.0527930138
O  O4  1  0.60990000  0.11110000  0.06930000  1.0 0.0527930138
O  O5  1  0.61110000  0.10990000  0.43070000  1.0 0.0527930138
O  O6  1  0.38890000  0.89010000  0.43070000  1.0 0.0527930138
O  O7  1  0.10990000  0.38890000  0.56930000  1.0 0.0527930138
O  O8  1  0.89010000  0.61110000  0.56930000  1.0 0.0527930138
O  O9  1  0.91370000  0.78830000  0.46310000  1.0 -0.631783355
O  O10  1  0.08630000  0.21170000  0.46310000  1.0 -0.631783355
O  O11  1  0.21170000  0.91370000  0.53690000  1.0 -0.631783355
O  O12  1  0.78830000  0.08630000  0.53690000  1.0 -0.631783355
O  O13  1  0.58630000  0.28830000  0.96310000  1.0 -0.631783355
O  O14  1  0.41370000  0.71170000  0.96310000  1.0 -0.631783355
O  O15  1  0.28830000  0.41370000  0.03690000  1.0 -0.631783355
O  O16  1  0.71170000  0.58630000  0.03690000  1.0 -0.631783355
O  O17  1  0.04170000  0.84490000  0.28500000  1.0 -0.6480182744
O  O18  1  0.95830000  0.15510000  0.28500000  1.0 -0.6480182744
O  O19  1  0.15510000  0.04170000  0.71500000  1.0 -0.6480182744
O  O20  1  0.84490000  0.95830000  0.71500000  1.0 -0.6480182744
O  O21  1  0.45830000  0.34490000  0.78500000  1.0 -0.6480182744
O  O22  1  0.54170000  0.65510000  0.78500000  1.0 -0.6480182744
O  O23  1  0.34490000  0.54170000  0.21500000  1.0 -0.6480182744
O  O24  1  0.65510000  0.45830000  0.21500000  1.0 -0.6480182744
O  O25  1  0.86060000  0.91860000  0.28520000  1.0 -0.656845849
O  O26  1  0.13940000  0.08140000  0.28520000  1.0 -0.656845849
O  O27  1  0.08140000  0.86060000  0.71480000  1.0 -0.656845849
O  O28  1  0.91860000  0.13940000  0.71480000  1.0 -0.656845849
O  O29  1  0.63940000  0.41860000  0.78520000  1.0 -0.656845849
O  O30  1  0.36060000  0.58140000  0.78520000  1.0 -0.656845849
O  O31  1  0.41860000  0.36060000  0.21480000  1.0 -0.656845849
O  O32  1  0.58140000  0.63940000  0.21480000  1.0 -0.656845849
O  O33  1  0.88920000  0.74480000  0.75180000  1.0 -0.224322278
O  O34  1  0.11080000  0.25520000  0.75180000  1.0 -0.2265057153
O  O35  1  0.25520000  0.88920000  0.24820000  1.0 -0.224322278
O  O36  1  0.74480000  0.11080000  0.24820000  1.0 -0.224322278
O  O37  1  0.61080000  0.24480000  0.25180000  1.0 -0.224322278
O  O38  1  0.38920000  0.75520000  0.25180000  1.0 -0.224322278
O  O39  1  0.24480000  0.38920000  0.74820000  1.0 -0.2265057153
O  O40  1  0.75520000  0.61080000  0.74820000  1.0 -0.224322278
O  O41  1  0.89490000  0.73460000  0.21980000  1.0 -0.3571155667
O  O42  1  0.10510000  0.26540000  0.21980000  1.0 -0.3571155667
O  O43  1  0.26540000  0.89490000  0.78020000  1.0 -0.3571155667
O  O44  1  0.73460000  0.10510000  0.78020000  1.0 -0.3571155667
O  O45  1  0.60510000  0.23460000  0.71980000  1.0 -0.3571155667
O  O46  1  0.39490000  0.76540000  0.71980000  1.0 -0.3571155667
O  O47  1  0.23460000  0.39490000  0.28020000  1.0 -0.3571155667
O  O48  1  0.76540000  0.60510000  0.28020000  1.0 -0.3571155667
O  O49  1  0.94000000  0.56300000  0.80100000  1.0 0.1037193998
O  O50  1  0.06000000  0.43700000  0.80100000  1.0 0.1037193998
O  O51  1  0.43700000  0.94000000  0.19900000  1.0 0.1037193998
O  O52  1  0.56300000  0.06000000  0.19900000  1.0 0.1037193998
O  O53  1  0.56000000  0.06300000  0.30100000  1.0 0.1037193998
O  O54  1  0.44000000  0.93700000  0.30100000  1.0 0.1037193998
O  O55  1  0.06300000  0.44000000  0.69900000  1.0 0.1037193998
O  O56  1  0.93700000  0.56000000  0.69900000  1.0 0.1037193998
F  F1  1  0.00000000  0.00000000  0.50000000  1.0 -0.563720081
F  F2  1  0.50000000  0.50000000  0.00000000  1.0 -0.563720081
