# DDEC6 charges by PACMAN v1.1 (https://github.com/mtap-research/PACMAN-charge/)
data_KUTDEL_ASR_pacman
_symmetry_space_group_name_H-M   'P 1'
_cell_length_a   9.81630000
_cell_length_b   16.00390000
_cell_length_c   23.02200000
_cell_angle_alpha   90.00000000
_cell_angle_beta   90.00000000
_cell_angle_gamma   90.00000000
_symmetry_Int_Tables_number   1
_chemical_formula_structural   Ga3H20C32O15
_chemical_formula_sum   'Ga6 H40 C64 O30'
_cell_volume   3616.73510195
_cell_formula_units_Z   2
loop_
 _symmetry_equiv_pos_site_id
 _symmetry_equiv_pos_as_xyz
  1  'x, y, z'
loop_
 _atom_site_type_symbol
 _atom_site_label
 _atom_site_symmetry_multiplicity
 _atom_site_fract_x
 _atom_site_fract_y
 _atom_site_fract_z
 _atom_site_occupancy
 _atom_site_charge
Ga  Ga1  1  0.29349000  0.93564000  0.07040000  1.0 1.3192255052
Ga  Ga2  1  0.70651000  0.43564000  0.42960000  1.0 1.3192255052
Ga  Ga3  1  0.70651000  0.43564000  0.57040000  1.0 1.3192255052
Ga  Ga4  1  0.29349000  0.93564000  0.92960000  1.0 1.3192255052
Ga  Ga5  1  0.48702000  0.06394000  0.00000000  1.0 1.3482345195
Ga  Ga6  1  0.51298000  0.56394000  0.50000000  1.0 1.3482345195
H  H1  1  0.84100000  0.96240000  0.07470000  1.0 0.1322092993
H  H2  1  0.61450000  0.85850000  0.30120000  1.0 0.1120905804
H  H3  1  0.91200000  0.70550000  0.24510000  1.0 0.1120905804
H  H4  1  0.86730000  0.61360000  0.31940000  1.0 0.1322092993
H  H5  1  0.56810000  0.76920000  0.37800000  1.0 0.1210913455
H  H6  1  0.99380000  0.83390000  0.21200000  1.0 0.1210913455
H  H7  1  0.58750000  0.86700000  0.19640000  1.0 0.1365593078
H  H8  1  0.23370000  0.66580000  0.02000000  1.0 0.0803891504
H  H9  1  0.31540000  0.66880000  0.95990000  1.0 0.0937238338
H  H10  1  0.39650000  0.67190000  0.02010000  1.0 0.0803891504
H  H11  1  0.15900000  0.46240000  0.42530000  1.0 0.1322092993
H  H12  1  0.38550000  0.35850000  0.19880000  1.0 0.1120905804
H  H13  1  0.08800000  0.20550000  0.25490000  1.0 0.1120905804
H  H14  1  0.13270000  0.11360000  0.18060000  1.0 0.1322092993
H  H15  1  0.43190000  0.26920000  0.12200000  1.0 0.1210913455
H  H16  1  0.00620000  0.33390000  0.28800000  1.0 0.1210913455
H  H17  1  0.41250000  0.36700000  0.30360000  1.0 0.1365593078
H  H18  1  0.76630000  0.16580000  0.48000000  1.0 0.0803891504
H  H19  1  0.68460000  0.16880000  0.54010000  1.0 0.0937238338
H  H20  1  0.60350000  0.17190000  0.47990000  1.0 0.0738487991
H  H21  1  0.15900000  0.46240000  0.57470000  1.0 0.1322092993
H  H22  1  0.38550000  0.35850000  0.80120000  1.0 0.1120905804
H  H23  1  0.08800000  0.20550000  0.74510000  1.0 0.1120905804
H  H24  1  0.13270000  0.11360000  0.81940000  1.0 0.1322092993
H  H25  1  0.43190000  0.26920000  0.87800000  1.0 0.1210913455
H  H26  1  0.00620000  0.33390000  0.71200000  1.0 0.1210913455
H  H27  1  0.41250000  0.36700000  0.69640000  1.0 0.1365593078
H  H28  1  0.76630000  0.16580000  0.52000000  1.0 0.0803891504
H  H29  1  0.68460000  0.16880000  0.45990000  1.0 0.0937238338
H  H30  1  0.60350000  0.17190000  0.52010000  1.0 0.0738487991
H  H31  1  0.84100000  0.96240000  0.92530000  1.0 0.1322092993
H  H32  1  0.61450000  0.85850000  0.69880000  1.0 0.1120905804
H  H33  1  0.91200000  0.70550000  0.75490000  1.0 0.1120905804
H  H34  1  0.86730000  0.61360000  0.68060000  1.0 0.1322092993
H  H35  1  0.56810000  0.76920000  0.62200000  1.0 0.1210913455
H  H36  1  0.99380000  0.83390000  0.78800000  1.0 0.1210913455
H  H37  1  0.58750000  0.86700000  0.80360000  1.0 0.1365593078
H  H38  1  0.23370000  0.66580000  0.98000000  1.0 0.0803891504
H  H39  1  0.31540000  0.66880000  0.04010000  1.0 0.0937238338
H  H40  1  0.39650000  0.67190000  0.97990000  1.0 0.0803891504
C  C1  1  0.69570000  0.92120000  0.13180000  1.0 -0.0261002274
C  C2  1  0.57710000  0.95300000  0.09759000  1.0 0.5994679185
C  C3  1  0.82740000  0.93250000  0.10990000  1.0 -0.141266465
C  C4  1  0.66570000  0.80850000  0.30510000  1.0 -0.1461299134
C  C5  1  0.07860000  0.91150000  0.11480000  1.0 0.5188773127
C  C6  1  0.84100000  0.71780000  0.27180000  1.0 -0.1461299134
C  C7  1  0.81500000  0.66330000  0.31580000  1.0 -0.0910364853
C  C8  1  0.93900000  0.89970000  0.14000000  1.0 0.0276145043
C  C9  1  0.76640000  0.79140000  0.26480000  1.0 0.0803891504
C  C10  1  0.67540000  0.61680000  0.39900000  1.0 0.5994679185
C  C11  1  0.63680000  0.75540000  0.35060000  1.0 -0.0910364853
C  C12  1  0.78710000  0.84460000  0.21300000  1.0 0.0402553866
C  C13  1  0.91810000  0.85600000  0.19150000  1.0 -0.1610376721
C  C14  1  0.67720000  0.87630000  0.18230000  1.0 -0.1610376721
C  C15  1  0.71060000  0.68050000  0.35580000  1.0 -0.057393383
C  C16  1  0.30430000  0.42120000  0.36820000  1.0 -0.0261002274
C  C17  1  0.42290000  0.45300000  0.40241000  1.0 0.5994679185
C  C18  1  0.17260000  0.43250000  0.39010000  1.0 -0.141266465
C  C19  1  0.33430000  0.30850000  0.19490000  1.0 -0.1461299134
C  C20  1  0.92140000  0.41150000  0.38520000  1.0 0.5188773127
C  C21  1  0.15900000  0.21780000  0.22820000  1.0 -0.1461299134
C  C22  1  0.18500000  0.16330000  0.18420000  1.0 -0.0910364853
C  C23  1  0.06100000  0.39970000  0.36000000  1.0 0.0276145043
C  C24  1  0.23360000  0.29140000  0.23520000  1.0 0.0803891504
C  C25  1  0.32460000  0.11680000  0.10100000  1.0 0.5994679185
C  C26  1  0.36320000  0.25540000  0.14940000  1.0 -0.0910364853
C  C27  1  0.21290000  0.34460000  0.28700000  1.0 0.0402553866
C  C28  1  0.08190000  0.35600000  0.30850000  1.0 -0.1610376721
C  C29  1  0.32280000  0.37630000  0.31770000  1.0 -0.1610376721
C  C30  1  0.28940000  0.18050000  0.14420000  1.0 -0.057393383
C  C31  1  0.30430000  0.42120000  0.63180000  1.0 -0.0261002274
C  C32  1  0.42290000  0.45300000  0.59759000  1.0 0.5994679185
C  C33  1  0.17260000  0.43250000  0.60990000  1.0 -0.141266465
C  C34  1  0.33430000  0.30850000  0.80510000  1.0 -0.1461299134
C  C35  1  0.92140000  0.41150000  0.61480000  1.0 0.5188773127
C  C36  1  0.15900000  0.21780000  0.77180000  1.0 -0.1461299134
C  C37  1  0.18500000  0.16330000  0.81580000  1.0 -0.0910364853
C  C38  1  0.06100000  0.39970000  0.64000000  1.0 0.0276145043
C  C39  1  0.23360000  0.29140000  0.76480000  1.0 0.0803891504
C  C40  1  0.32460000  0.11680000  0.89900000  1.0 0.5994679185
C  C41  1  0.36320000  0.25540000  0.85060000  1.0 -0.0910364853
C  C42  1  0.21290000  0.34460000  0.71300000  1.0 0.0402553866
C  C43  1  0.08190000  0.35600000  0.69150000  1.0 -0.1610376721
C  C44  1  0.32280000  0.37630000  0.68230000  1.0 -0.1610376721
C  C45  1  0.28940000  0.18050000  0.85580000  1.0 -0.057393383
C  C46  1  0.69570000  0.92120000  0.86820000  1.0 -0.0261002274
C  C47  1  0.57710000  0.95300000  0.90241000  1.0 0.5994679185
C  C48  1  0.82740000  0.93250000  0.89010000  1.0 -0.141266465
C  C49  1  0.66570000  0.80850000  0.69490000  1.0 -0.1461299134
C  C50  1  0.07860000  0.91150000  0.88520000  1.0 0.5188773127
C  C51  1  0.84100000  0.71780000  0.72820000  1.0 -0.1461299134
C  C52  1  0.81500000  0.66330000  0.68420000  1.0 -0.0910364853
C  C53  1  0.93900000  0.89970000  0.86000000  1.0 0.0276145043
C  C54  1  0.76640000  0.79140000  0.73520000  1.0 0.0803891504
C  C55  1  0.67540000  0.61680000  0.60100000  1.0 0.5994679185
C  C56  1  0.63680000  0.75540000  0.64940000  1.0 -0.0910364853
C  C57  1  0.78710000  0.84460000  0.78700000  1.0 0.0402553866
C  C58  1  0.91810000  0.85600000  0.80850000  1.0 -0.1610376721
C  C59  1  0.67720000  0.87630000  0.81770000  1.0 -0.1610376721
C  C60  1  0.71060000  0.68050000  0.64420000  1.0 -0.057393383
C  C61  1  0.31320000  0.68920000  0.00000000  1.0 -0.4061461387
C  C62  1  0.30400000  0.78130000  0.00000000  1.0 0.5808673056
C  C63  1  0.68680000  0.18920000  0.50000000  1.0 -0.4061461387
C  C64  1  0.69600000  0.28130000  0.50000000  1.0 0.5808673056
O  O1  1  0.46410000  0.91750000  0.11060000  1.0 -0.5158264486
O  O2  1  0.18090000  0.89390000  0.14285000  1.0 -0.459489852
O  O3  1  0.59520000  0.63570000  0.44001000  1.0 -0.5501678137
O  O4  1  0.59800000  0.00290000  0.05926000  1.0 -0.5025629846
O  O5  1  0.08460000  0.93950000  0.06289000  1.0 -0.4845705775
O  O6  1  0.29880000  0.81720000  0.04780000  1.0 -0.6100396959
O  O7  1  0.72310000  0.54480000  0.39184000  1.0 -0.5129699407
O  O8  1  0.53590000  0.41750000  0.38940000  1.0 -0.5158264486
O  O9  1  0.81910000  0.39390000  0.35715000  1.0 -0.459489852
O  O10  1  0.40480000  0.13570000  0.05999000  1.0 -0.5501678137
O  O11  1  0.40200000  0.50290000  0.44074000  1.0 -0.5025629846
O  O12  1  0.91540000  0.43950000  0.43711000  1.0 -0.4876145272
O  O13  1  0.70120000  0.31720000  0.45220000  1.0 -0.6100396959
O  O14  1  0.27690000  0.04480000  0.10816000  1.0 -0.5129699407
O  O15  1  0.53590000  0.41750000  0.61060000  1.0 -0.5158264486
O  O16  1  0.81910000  0.39390000  0.64285000  1.0 -0.459489852
O  O17  1  0.40480000  0.13570000  0.94001000  1.0 -0.5501678137
O  O18  1  0.40200000  0.50290000  0.55926000  1.0 -0.5025629846
O  O19  1  0.91540000  0.43950000  0.56289000  1.0 -0.4876145272
O  O20  1  0.70120000  0.31720000  0.54780000  1.0 -0.6100396959
O  O21  1  0.27690000  0.04480000  0.89184000  1.0 -0.5129699407
O  O22  1  0.46410000  0.91750000  0.88940000  1.0 -0.5158264486
O  O23  1  0.18090000  0.89390000  0.85715000  1.0 -0.459489852
O  O24  1  0.59520000  0.63570000  0.55999000  1.0 -0.5501678137
O  O25  1  0.59800000  0.00290000  0.94074000  1.0 -0.5025629846
O  O26  1  0.08460000  0.93950000  0.93711000  1.0 -0.4845705775
O  O27  1  0.29880000  0.81720000  0.95220000  1.0 -0.6100396959
O  O28  1  0.72310000  0.54480000  0.60816000  1.0 -0.5129699407
O  O29  1  0.34900000  0.98010000  0.00000000  1.0 -0.8111171273
O  O30  1  0.65100000  0.48010000  0.50000000  1.0 -0.8170098809
