# DDEC6 charges by PACMAN v1.1 (https://github.com/mtap-research/PACMAN-charge/)
data_KUVMIZ_FSR_pacman
_symmetry_space_group_name_H-M   'P 1'
_cell_length_a   20.69380000
_cell_length_b   20.69380000
_cell_length_c   34.90000000
_cell_angle_alpha   88.62490000
_cell_angle_beta   91.37510000
_cell_angle_gamma   81.82120000
_symmetry_Int_Tables_number   1
_chemical_formula_structural   CuSiH31(C13N)4
_chemical_formula_sum   'Cu4 Si4 H124 C208 N16'
_cell_volume   14783.39849691
_cell_formula_units_Z   4
loop_
 _symmetry_equiv_pos_site_id
 _symmetry_equiv_pos_as_xyz
  1  'x, y, z'
loop_
 _atom_site_type_symbol
 _atom_site_label
 _atom_site_symmetry_multiplicity
 _atom_site_fract_x
 _atom_site_fract_y
 _atom_site_fract_z
 _atom_site_occupancy
 _atom_site_charge
Cu  Cu1  1  0.89085000  0.60457000  0.32340000  1.0 0.1615123232
Cu  Cu2  1  0.39543000  0.10915000  0.82340000  1.0 0.1615123232
Cu  Cu3  1  0.60457000  0.89085000  0.17660000  1.0 0.1615123232
Cu  Cu4  1  0.10915000  0.39543000  0.67660000  1.0 0.1615123232
Si  Si1  1  0.90513000  0.11305000  0.07340000  1.0 0.6231547692
Si  Si2  1  0.88695000  0.09487000  0.57340000  1.0 0.6266285477
Si  Si3  1  0.11305000  0.90513000  0.42660000  1.0 0.6266285477
Si  Si4  1  0.09487000  0.88695000  0.92660000  1.0 0.6266285477
H  H1  1  0.80000000  0.21620000  0.04570000  1.0 0.1099658361
H  H2  1  0.78380000  0.20000000  0.54570000  1.0 0.1099658361
H  H3  1  0.70800000  0.22140000  0.00480000  1.0 0.1099658361
H  H4  1  0.77860000  0.29200000  0.50480000  1.0 0.1099658361
H  H5  1  0.74820000  0.02660000  0.98930000  1.0 0.1099658361
H  H6  1  0.97340000  0.25180000  0.48930000  1.0 0.1099658361
H  H7  1  0.84030000  0.02130000  0.03010000  1.0 0.0995782942
H  H8  1  0.97870000  0.15970000  0.53010000  1.0 0.0995782942
H  H9  1  0.51930000  0.03250000  0.84880000  1.0 0.0995782942
H  H10  1  0.96750000  0.48070000  0.34880000  1.0 0.0995782942
H  H11  1  0.60850000  0.03510000  0.89270000  1.0 0.1413153176
H  H12  1  0.96490000  0.39150000  0.39270000  1.0 0.1413153176
H  H13  1  0.50850000  0.20370000  0.93320000  1.0 0.1413153176
H  H14  1  0.79630000  0.49150000  0.43320000  1.0 0.1413153176
H  H15  1  0.42310000  0.19370000  0.88820000  1.0 0.0995782942
H  H16  1  0.80630000  0.57690000  0.38820000  1.0 0.0995782942
H  H17  1  0.00380000  0.00140000  0.10100000  1.0 0.1099658361
H  H18  1  0.99860000  0.99620000  0.60100000  1.0 0.1099658361
H  H19  1  0.00240000  0.91080000  0.14220000  1.0 0.1199993254
H  H20  1  0.08920000  0.99760000  0.64220000  1.0 0.1199993254
H  H21  1  0.80910000  0.96530000  0.15790000  1.0 0.0995782942
H  H22  1  0.03470000  0.19090000  0.65790000  1.0 0.0995782942
H  H23  1  0.81050000  0.05590000  0.11660000  1.0 0.1099658361
H  H24  1  0.94410000  0.18950000  0.61660000  1.0 0.1099658361
H  H25  1  0.81970000  0.65910000  0.25250000  1.0 0.0995782942
H  H26  1  0.34090000  0.18030000  0.75250000  1.0 0.0995782942
H  H27  1  0.81880000  0.74180000  0.20650000  1.0 0.1306772255
H  H28  1  0.25820000  0.18120000  0.70650000  1.0 0.1306772255
H  H29  1  0.98440000  0.78860000  0.26050000  1.0 0.1413153176
H  H30  1  0.21140000  0.01560000  0.76050000  1.0 0.1413153176
H  H31  1  0.97440000  0.70400000  0.30630000  1.0 0.0995782942
H  H32  1  0.29600000  0.02560000  0.80630000  1.0 0.0995782942
H  H33  1  0.95550000  0.23770000  0.07110000  1.0 0.1099658361
H  H34  1  0.76230000  0.04450000  0.57110000  1.0 0.1099658361
H  H35  1  0.95060000  0.32800000  0.11060000  1.0 0.1099658361
H  H36  1  0.67200000  0.04940000  0.61060000  1.0 0.1099658361
H  H37  1  0.84460000  0.23880000  0.18650000  1.0 0.1099658361
H  H38  1  0.76120000  0.15540000  0.68650000  1.0 0.1099658361
H  H39  1  0.84960000  0.14840000  0.14710000  1.0 0.1099658361
H  H40  1  0.85160000  0.15040000  0.64710000  1.0 0.1099658361
H  H41  1  0.81210000  0.50450000  0.29980000  1.0 0.0995782942
H  H42  1  0.49550000  0.18790000  0.79980000  1.0 0.0995782942
H  H43  1  0.81070000  0.42230000  0.25320000  1.0 0.1413153176
H  H44  1  0.57770000  0.18930000  0.75320000  1.0 0.1413153176
H  H45  1  0.97560000  0.47980000  0.20830000  1.0 0.1413153176
H  H46  1  0.52020000  0.02440000  0.70830000  1.0 0.1413153176
H  H47  1  0.96980000  0.56180000  0.25590000  1.0 0.0995782942
H  H48  1  0.43820000  0.03020000  0.75590000  1.0 0.0995782942
H  H49  1  0.92370000  0.11370000  0.99170000  1.0 0.1099658361
H  H50  1  0.88630000  0.07630000  0.49170000  1.0 0.1099658361
H  H51  1  0.01170000  0.11410000  0.95090000  1.0 0.1199993254
H  H52  1  0.88590000  0.98830000  0.45090000  1.0 0.1199993254
H  H53  1  0.13590000  0.10470000  0.04310000  1.0 0.1199993254
H  H54  1  0.89530000  0.86410000  0.54310000  1.0 0.1199993254
H  H55  1  0.04790000  0.10430000  0.08390000  1.0 0.1099658361
H  H56  1  0.89570000  0.95210000  0.58390000  1.0 0.1099658361
H  H57  1  0.27000000  0.18700000  0.84000000  1.0 0.0926357978
H  H58  1  0.81300000  0.73000000  0.34000000  1.0 0.0926357978
H  H59  1  0.18680000  0.19240000  0.88620000  1.0 0.1413153176
H  H60  1  0.80760000  0.81320000  0.38620000  1.0 0.1413153176
H  H61  1  0.37540000  0.03820000  0.89570000  1.0 0.1099658361
H  H62  1  0.96180000  0.62460000  0.39570000  1.0 0.1099658361
H  H63  1  0.21620000  0.80000000  0.45430000  1.0 0.1099658361
H  H64  1  0.20000000  0.78380000  0.95430000  1.0 0.1099658361
H  H65  1  0.22140000  0.70800000  0.49520000  1.0 0.1099658361
H  H66  1  0.29200000  0.77860000  0.99520000  1.0 0.1099658361
H  H67  1  0.02660000  0.74820000  0.51070000  1.0 0.1099658361
H  H68  1  0.25180000  0.97340000  0.01070000  1.0 0.1099658361
H  H69  1  0.02130000  0.84030000  0.46990000  1.0 0.1099658361
H  H70  1  0.15970000  0.97870000  0.96990000  1.0 0.0995782942
H  H71  1  0.03250000  0.51930000  0.65120000  1.0 0.0995782942
H  H72  1  0.48070000  0.96750000  0.15120000  1.0 0.0995782942
H  H73  1  0.03510000  0.60850000  0.60730000  1.0 0.1413153176
H  H74  1  0.39150000  0.96490000  0.10730000  1.0 0.1413153176
H  H75  1  0.20370000  0.50850000  0.56680000  1.0 0.1413153176
H  H76  1  0.49150000  0.79630000  0.06680000  1.0 0.1413153176
H  H77  1  0.19370000  0.42310000  0.61180000  1.0 0.0995782942
H  H78  1  0.57690000  0.80630000  0.11180000  1.0 0.0995782942
H  H79  1  0.00140000  0.00380000  0.39900000  1.0 0.1099658361
H  H80  1  0.99620000  0.99860000  0.89900000  1.0 0.1099658361
H  H81  1  0.91080000  0.00240000  0.35780000  1.0 0.1199993254
H  H82  1  0.99760000  0.08920000  0.85780000  1.0 0.1199993254
H  H83  1  0.96530000  0.80910000  0.34210000  1.0 0.0995782942
H  H84  1  0.19090000  0.03470000  0.84210000  1.0 0.0995782942
H  H85  1  0.05590000  0.81050000  0.38340000  1.0 0.1099658361
H  H86  1  0.18950000  0.94410000  0.88340000  1.0 0.1099658361
H  H87  1  0.65910000  0.81970000  0.24750000  1.0 0.0995782942
H  H88  1  0.18030000  0.34090000  0.74750000  1.0 0.0995782942
H  H89  1  0.74180000  0.81880000  0.29350000  1.0 0.1306772255
H  H90  1  0.18120000  0.25820000  0.79350000  1.0 0.1306772255
H  H91  1  0.78860000  0.98440000  0.23950000  1.0 0.1413153176
H  H92  1  0.01560000  0.21140000  0.73950000  1.0 0.1413153176
H  H93  1  0.70400000  0.97440000  0.19370000  1.0 0.0995782942
H  H94  1  0.02560000  0.29600000  0.69370000  1.0 0.0995782942
H  H95  1  0.23770000  0.95550000  0.42890000  1.0 0.1099658361
H  H96  1  0.04450000  0.76230000  0.92890000  1.0 0.1099658361
H  H97  1  0.32800000  0.95060000  0.38940000  1.0 0.1099658361
H  H98  1  0.04940000  0.67200000  0.88940000  1.0 0.1099658361
H  H99  1  0.23880000  0.84460000  0.31350000  1.0 0.1099658361
H  H100  1  0.15540000  0.76120000  0.81350000  1.0 0.1099658361
H  H101  1  0.14840000  0.84960000  0.35290000  1.0 0.1099658361
H  H102  1  0.15040000  0.85160000  0.85290000  1.0 0.1099658361
H  H103  1  0.50450000  0.81210000  0.20020000  1.0 0.0995782942
H  H104  1  0.18790000  0.49550000  0.70020000  1.0 0.0995782942
H  H105  1  0.42230000  0.81070000  0.24680000  1.0 0.1413153176
H  H106  1  0.18930000  0.57770000  0.74680000  1.0 0.1413153176
H  H107  1  0.47980000  0.97560000  0.29170000  1.0 0.1413153176
H  H108  1  0.02440000  0.52020000  0.79170000  1.0 0.1413153176
H  H109  1  0.56180000  0.96980000  0.24410000  1.0 0.0995782942
H  H110  1  0.03020000  0.43820000  0.74410000  1.0 0.0995782942
H  H111  1  0.11370000  0.92370000  0.50830000  1.0 0.1099658361
H  H112  1  0.07630000  0.88630000  0.00830000  1.0 0.1099658361
H  H113  1  0.11410000  0.01170000  0.54910000  1.0 0.1199993254
H  H114  1  0.98830000  0.88590000  0.04910000  1.0 0.1199993254
H  H115  1  0.10470000  0.13590000  0.45690000  1.0 0.1199993254
H  H116  1  0.86410000  0.89530000  0.95690000  1.0 0.1199993254
H  H117  1  0.10430000  0.04790000  0.41610000  1.0 0.1099658361
H  H118  1  0.95210000  0.89570000  0.91610000  1.0 0.1099658361
H  H119  1  0.18700000  0.27000000  0.66000000  1.0 0.0926357978
H  H120  1  0.73000000  0.81300000  0.16000000  1.0 0.0926357978
H  H121  1  0.19240000  0.18680000  0.61380000  1.0 0.1413153176
H  H122  1  0.81320000  0.80760000  0.11380000  1.0 0.1413153176
H  H123  1  0.03820000  0.37540000  0.60430000  1.0 0.1099658361
H  H124  1  0.62460000  0.96180000  0.10430000  1.0 0.1099658361
C  C1  1  0.82870000  0.11830000  0.04180000  1.0 -0.2001508703
C  C2  1  0.88170000  0.17130000  0.54180000  1.0 -0.2001508703
C  C3  1  0.78950000  0.17770000  0.03430000  1.0 -0.0983145523
C  C4  1  0.82230000  0.21050000  0.53430000  1.0 -0.0983145523
C  C5  1  0.73480000  0.18080000  0.01000000  1.0 -0.1304378561
C  C6  1  0.81920000  0.26520000  0.51000000  1.0 -0.1304378561
C  C7  1  0.71950000  0.12450000  0.99320000  1.0 0.1413153176
C  C8  1  0.87550000  0.28050000  0.49320000  1.0 0.1413153176
C  C9  1  0.75870000  0.06510000  0.00070000  1.0 -0.1423633684
C  C10  1  0.93490000  0.24130000  0.50070000  1.0 -0.1423633684
C  C11  1  0.81340000  0.06200000  0.02500000  1.0 -0.0983145523
C  C12  1  0.93800000  0.18660000  0.52500000  1.0 -0.0983145523
C  C13  1  0.66130000  0.12650000  0.96920000  1.0 -0.1109431728
C  C14  1  0.87350000  0.33870000  0.46920000  1.0 -0.1109431728
C  C15  1  0.51880000  0.06760000  0.86580000  1.0 0.0509377049
C  C16  1  0.93240000  0.48120000  0.36580000  1.0 0.0600312733
C  C17  1  0.57140000  0.06800000  0.89200000  1.0 -0.209067666
C  C18  1  0.93200000  0.42860000  0.39200000  1.0 -0.209067666
C  C19  1  0.56530000  0.12030000  0.91710000  1.0 0.1615123232
C  C20  1  0.87970000  0.43470000  0.41710000  1.0 0.1615123232
C  C21  1  0.51160000  0.16840000  0.91610000  1.0 -0.209067666
C  C22  1  0.83160000  0.48840000  0.41610000  1.0 -0.209067666
C  C23  1  0.46180000  0.16300000  0.88890000  1.0 0.069392444
C  C24  1  0.83700000  0.53820000  0.38890000  1.0 0.069392444
C  C25  1  0.61690000  0.12470000  0.94720000  1.0 -0.0826725502
C  C26  1  0.87530000  0.38310000  0.44720000  1.0 -0.0826725502
C  C27  1  0.90730000  0.03710000  0.10490000  1.0 -0.189338272
C  C28  1  0.96290000  0.09270000  0.60490000  1.0 -0.189338272
C  C29  1  0.96420000  0.99400000  0.11250000  1.0 -0.0906462741
C  C30  1  0.00600000  0.03580000  0.61250000  1.0 -0.0906462741
C  C31  1  0.96340000  0.94020000  0.13700000  1.0 -0.150472774
C  C32  1  0.05980000  0.03660000  0.63700000  1.0 -0.150472774
C  C33  1  0.90560000  0.92940000  0.15390000  1.0 0.1306772255
C  C34  1  0.07060000  0.09440000  0.65390000  1.0 0.1306772255
C  C35  1  0.84860000  0.97260000  0.14630000  1.0 -0.1587602622
C  C36  1  0.02740000  0.15140000  0.64630000  1.0 -0.1587602622
C  C37  1  0.84940000  0.02640000  0.12180000  1.0 -0.0906462741
C  C38  1  0.97360000  0.15060000  0.62180000  1.0 -0.0906462741
C  C39  1  0.90570000  0.87410000  0.17980000  1.0 -0.0906462741
C  C40  1  0.12590000  0.09430000  0.67980000  1.0 -0.0906462741
C  C41  1  0.85280000  0.68640000  0.25400000  1.0 0.0509377049
C  C42  1  0.31360000  0.14720000  0.75400000  1.0 0.0509377049
C  C43  1  0.85160000  0.73500000  0.22630000  1.0 -0.2210058696
C  C44  1  0.26500000  0.14840000  0.72630000  1.0 -0.2210058696
C  C45  1  0.90180000  0.77420000  0.22900000  1.0 0.1695323982
C  C46  1  0.22580000  0.09820000  0.72900000  1.0 0.1695323982
C  C47  1  0.94980000  0.76320000  0.25860000  1.0 -0.2210058696
C  C48  1  0.23680000  0.05020000  0.75860000  1.0 -0.2210058696
C  C49  1  0.94370000  0.71190000  0.28550000  1.0 0.069392444
C  C50  1  0.28810000  0.05630000  0.78550000  1.0 0.069392444
C  C51  1  0.90280000  0.83020000  0.20160000  1.0 -0.1109431728
C  C52  1  0.16980000  0.09720000  0.70160000  1.0 -0.1109431728
C  C53  1  0.90310000  0.18450000  0.10540000  1.0 -0.209067666
C  C54  1  0.81550000  0.09690000  0.60540000  1.0 -0.209067666
C  C55  1  0.93310000  0.23790000  0.09460000  1.0 -0.0983145523
C  C56  1  0.76210000  0.06690000  0.59460000  1.0 -0.0983145523
C  C57  1  0.93010000  0.29150000  0.11800000  1.0 -0.1423633684
C  C58  1  0.70850000  0.06990000  0.61800000  1.0 -0.1423633684
C  C59  1  0.89710000  0.29190000  0.15220000  1.0 0.1413153176
C  C60  1  0.70810000  0.10290000  0.65220000  1.0 0.1466458985
C  C61  1  0.86720000  0.23860000  0.16310000  1.0 -0.1423633684
C  C62  1  0.76140000  0.13280000  0.66310000  1.0 -0.1423633684
C  C63  1  0.87010000  0.18490000  0.13970000  1.0 -0.0983145523
C  C64  1  0.81510000  0.12990000  0.63970000  1.0 -0.0983145523
C  C65  1  0.89270000  0.34710000  0.17800000  1.0 -0.1109431728
C  C66  1  0.65290000  0.10730000  0.67800000  1.0 -0.1109431728
C  C67  1  0.84500000  0.49860000  0.28110000  1.0 0.0600312733
C  C68  1  0.50140000  0.15500000  0.78110000  1.0 0.0600312733
C  C69  1  0.84380000  0.44960000  0.25360000  1.0 -0.209067666
C  C70  1  0.55040000  0.15620000  0.75360000  1.0 -0.209067666
C  C71  1  0.89360000  0.44300000  0.22710000  1.0 0.1695323982
C  C72  1  0.55700000  0.10640000  0.72710000  1.0 0.1695323982
C  C73  1  0.94210000  0.48410000  0.22670000  1.0 -0.209067666
C  C74  1  0.51590000  0.05790000  0.72670000  1.0 -0.209067666
C  C75  1  0.93850000  0.53230000  0.25510000  1.0 0.0600312733
C  C76  1  0.46770000  0.06150000  0.75510000  1.0 0.0600312733
C  C77  1  0.89380000  0.39100000  0.19870000  1.0 -0.0906462741
C  C78  1  0.60900000  0.10620000  0.69870000  1.0 -0.0826725502
C  C79  1  0.97750000  0.10910000  0.04170000  1.0 -0.2001508703
C  C80  1  0.89090000  0.02250000  0.54170000  1.0 -0.2001508703
C  C81  1  0.96670000  0.11190000  0.00220000  1.0 -0.0906462741
C  C82  1  0.88810000  0.03330000  0.50220000  1.0 -0.0906462741
C  C83  1  0.01910000  0.11210000  0.97790000  1.0 -0.150472774
C  C84  1  0.88790000  0.98090000  0.47790000  1.0 -0.150472774
C  C85  1  0.08210000  0.10930000  0.99310000  1.0 0.1413153176
C  C86  1  0.89070000  0.91790000  0.49310000  1.0 0.1413153176
C  C87  1  0.09290000  0.10650000  0.03270000  1.0 -0.150472774
C  C88  1  0.89350000  0.90710000  0.53270000  1.0 -0.150472774
C  C89  1  0.04050000  0.10630000  0.05690000  1.0 -0.0906462741
C  C90  1  0.89370000  0.95950000  0.55690000  1.0 -0.0906462741
C  C91  1  0.13730000  0.11510000  0.96900000  1.0 -0.0983145523
C  C92  1  0.88490000  0.86270000  0.46900000  1.0 -0.0983145523
C  C93  1  0.27420000  0.15680000  0.86120000  1.0 0.079811851
C  C94  1  0.84320000  0.72580000  0.36120000  1.0 0.079811851
C  C95  1  0.22460000  0.16040000  0.88840000  1.0 -0.2210058696
C  C96  1  0.83960000  0.77540000  0.38840000  1.0 -0.2210058696
C  C97  1  0.23420000  0.11400000  0.91910000  1.0 0.176887522
C  C98  1  0.88600000  0.76580000  0.41910000  1.0 0.176887522
C  C99  1  0.28920000  0.06700000  0.92330000  1.0 -0.2514184864
C  C100  1  0.93300000  0.71080000  0.42330000  1.0 -0.2561540208
C  C101  1  0.33620000  0.06840000  0.89430000  1.0 0.0338548296
C  C102  1  0.93160000  0.66380000  0.39430000  1.0 0.0338548296
C  C103  1  0.18090000  0.11390000  0.94760000  1.0 -0.0712219677
C  C104  1  0.88610000  0.81910000  0.44760000  1.0 -0.0712219677
C  C105  1  0.11830000  0.82870000  0.45820000  1.0 -0.2001508703
C  C106  1  0.17130000  0.88170000  0.95820000  1.0 -0.2001508703
C  C107  1  0.17770000  0.78950000  0.46570000  1.0 -0.0983145523
C  C108  1  0.21050000  0.82230000  0.96570000  1.0 -0.0983145523
C  C109  1  0.18080000  0.73480000  0.49000000  1.0 -0.1304378561
C  C110  1  0.26520000  0.81920000  0.99000000  1.0 -0.1304378561
C  C111  1  0.12450000  0.71950000  0.50680000  1.0 0.1413153176
C  C112  1  0.28050000  0.87550000  0.00680000  1.0 0.1413153176
C  C113  1  0.06510000  0.75870000  0.49930000  1.0 -0.1423633684
C  C114  1  0.24130000  0.93490000  0.99930000  1.0 -0.1423633684
C  C115  1  0.06200000  0.81340000  0.47500000  1.0 -0.0983145523
C  C116  1  0.18660000  0.93800000  0.97500000  1.0 -0.0983145523
C  C117  1  0.12650000  0.66130000  0.53080000  1.0 -0.1109431728
C  C118  1  0.33870000  0.87350000  0.03080000  1.0 -0.1159358448
C  C119  1  0.06760000  0.51880000  0.63420000  1.0 0.0509377049
C  C120  1  0.48120000  0.93240000  0.13420000  1.0 0.0509377049
C  C121  1  0.06800000  0.57140000  0.60800000  1.0 -0.209067666
C  C122  1  0.42860000  0.93200000  0.10800000  1.0 -0.209067666
C  C123  1  0.12030000  0.56530000  0.58290000  1.0 0.1615123232
C  C124  1  0.43470000  0.87970000  0.08290000  1.0 0.1615123232
C  C125  1  0.16840000  0.51160000  0.58390000  1.0 -0.209067666
C  C126  1  0.48840000  0.83160000  0.08390000  1.0 -0.2001508703
C  C127  1  0.16300000  0.46180000  0.61110000  1.0 0.069392444
C  C128  1  0.53820000  0.83700000  0.11110000  1.0 0.0600312733
C  C129  1  0.12470000  0.61690000  0.55280000  1.0 -0.0826725502
C  C130  1  0.38310000  0.87530000  0.05280000  1.0 -0.0826725502
C  C131  1  0.03710000  0.90730000  0.39510000  1.0 -0.189338272
C  C132  1  0.09270000  0.96290000  0.89510000  1.0 -0.189338272
C  C133  1  0.99400000  0.96420000  0.38750000  1.0 -0.0906462741
C  C134  1  0.03580000  0.00600000  0.88750000  1.0 -0.0906462741
C  C135  1  0.94020000  0.96340000  0.36300000  1.0 -0.150472774
C  C136  1  0.03660000  0.05980000  0.86300000  1.0 -0.150472774
C  C137  1  0.92940000  0.90560000  0.34610000  1.0 0.1306772255
C  C138  1  0.09440000  0.07060000  0.84610000  1.0 0.1306772255
C  C139  1  0.97260000  0.84860000  0.35370000  1.0 -0.1587602622
C  C140  1  0.15140000  0.02740000  0.85370000  1.0 -0.1587602622
C  C141  1  0.02640000  0.84940000  0.37820000  1.0 -0.0906462741
C  C142  1  0.15060000  0.97360000  0.87820000  1.0 -0.0906462741
C  C143  1  0.87410000  0.90570000  0.32020000  1.0 -0.0906462741
C  C144  1  0.09430000  0.12590000  0.82020000  1.0 -0.0906462741
C  C145  1  0.68640000  0.85280000  0.24600000  1.0 0.0509377049
C  C146  1  0.14720000  0.31360000  0.74600000  1.0 0.0509377049
C  C147  1  0.73500000  0.85160000  0.27370000  1.0 -0.2210058696
C  C148  1  0.14840000  0.26500000  0.77370000  1.0 -0.2210058696
C  C149  1  0.77420000  0.90180000  0.27100000  1.0 0.1695323982
C  C150  1  0.09820000  0.22580000  0.77100000  1.0 0.1695323982
C  C151  1  0.76320000  0.94980000  0.24140000  1.0 -0.2210058696
C  C152  1  0.05020000  0.23680000  0.74140000  1.0 -0.2210058696
C  C153  1  0.71190000  0.94370000  0.21450000  1.0 0.069392444
C  C154  1  0.05630000  0.28810000  0.71450000  1.0 0.069392444
C  C155  1  0.83020000  0.90280000  0.29840000  1.0 -0.1109431728
C  C156  1  0.09720000  0.16980000  0.79840000  1.0 -0.1109431728
C  C157  1  0.18450000  0.90310000  0.39460000  1.0 -0.209067666
C  C158  1  0.09690000  0.81550000  0.89460000  1.0 -0.209067666
C  C159  1  0.23790000  0.93310000  0.40540000  1.0 -0.0983145523
C  C160  1  0.06690000  0.76210000  0.90540000  1.0 -0.0983145523
C  C161  1  0.29150000  0.93010000  0.38200000  1.0 -0.1423633684
C  C162  1  0.06990000  0.70850000  0.88200000  1.0 -0.1423633684
C  C163  1  0.29190000  0.89710000  0.34780000  1.0 0.1413153176
C  C164  1  0.10290000  0.70810000  0.84780000  1.0 0.1413153176
C  C165  1  0.23860000  0.86720000  0.33690000  1.0 -0.1423633684
C  C166  1  0.13280000  0.76140000  0.83690000  1.0 -0.1423633684
C  C167  1  0.18490000  0.87010000  0.36030000  1.0 -0.0983145523
C  C168  1  0.12990000  0.81510000  0.86030000  1.0 -0.0983145523
C  C169  1  0.34710000  0.89270000  0.32200000  1.0 -0.1109431728
C  C170  1  0.10730000  0.65290000  0.82200000  1.0 -0.1109431728
C  C171  1  0.49860000  0.84500000  0.21890000  1.0 0.0600312733
C  C172  1  0.15500000  0.50140000  0.71890000  1.0 0.0600312733
C  C173  1  0.44960000  0.84380000  0.24640000  1.0 -0.209067666
C  C174  1  0.15620000  0.55040000  0.74640000  1.0 -0.209067666
C  C175  1  0.44300000  0.89360000  0.27290000  1.0 0.1695323982
C  C176  1  0.10640000  0.55700000  0.77290000  1.0 0.1695323982
C  C177  1  0.48410000  0.94210000  0.27330000  1.0 -0.209067666
C  C178  1  0.05790000  0.51590000  0.77330000  1.0 -0.209067666
C  C179  1  0.53230000  0.93850000  0.24490000  1.0 0.0600312733
C  C180  1  0.06150000  0.46770000  0.74490000  1.0 0.0600312733
C  C181  1  0.39100000  0.89380000  0.30130000  1.0 -0.0826725502
C  C182  1  0.10620000  0.60900000  0.80130000  1.0 -0.0906462741
C  C183  1  0.10910000  0.97750000  0.45830000  1.0 -0.2001508703
C  C184  1  0.02250000  0.89090000  0.95830000  1.0 -0.2001508703
C  C185  1  0.11190000  0.96670000  0.49780000  1.0 -0.0906462741
C  C186  1  0.03330000  0.88810000  0.99780000  1.0 -0.0906462741
C  C187  1  0.11210000  0.01910000  0.52210000  1.0 -0.150472774
C  C188  1  0.98090000  0.88790000  0.02210000  1.0 -0.150472774
C  C189  1  0.10930000  0.08210000  0.50690000  1.0 0.1413153176
C  C190  1  0.91790000  0.89070000  0.00690000  1.0 0.1413153176
C  C191  1  0.10650000  0.09290000  0.46730000  1.0 -0.150472774
C  C192  1  0.90710000  0.89350000  0.96730000  1.0 -0.150472774
C  C193  1  0.10630000  0.04050000  0.44310000  1.0 -0.0906462741
C  C194  1  0.95950000  0.89370000  0.94310000  1.0 -0.0906462741
C  C195  1  0.11510000  0.13730000  0.53100000  1.0 -0.0983145523
C  C196  1  0.86270000  0.88490000  0.03100000  1.0 -0.0983145523
C  C197  1  0.15680000  0.27420000  0.63880000  1.0 0.079811851
C  C198  1  0.72580000  0.84320000  0.13880000  1.0 0.079811851
C  C199  1  0.16040000  0.22460000  0.61160000  1.0 -0.2210058696
C  C200  1  0.77540000  0.83960000  0.11160000  1.0 -0.2210058696
C  C201  1  0.11400000  0.23420000  0.58090000  1.0 0.176887522
C  C202  1  0.76580000  0.88600000  0.08090000  1.0 0.176887522
C  C203  1  0.06700000  0.28920000  0.57670000  1.0 -0.2514184864
C  C204  1  0.71080000  0.93300000  0.07670000  1.0 -0.2514184864
C  C205  1  0.06840000  0.33620000  0.60570000  1.0 0.0338548296
C  C206  1  0.66380000  0.93160000  0.10570000  1.0 0.0338548296
C  C207  1  0.11390000  0.18090000  0.55240000  1.0 -0.0712219677
C  C208  1  0.81910000  0.88610000  0.05240000  1.0 -0.0712219677
N  N1  1  0.46830000  0.11550000  0.86430000  1.0 -0.2001508703
N  N2  1  0.88450000  0.53170000  0.36430000  1.0 -0.2001508703
N  N3  1  0.89700000  0.67460000  0.28270000  1.0 -0.2001508703
N  N4  1  0.32540000  0.10300000  0.78270000  1.0 -0.2001508703
N  N5  1  0.89160000  0.53640000  0.28080000  1.0 -0.2001508703
N  N6  1  0.46360000  0.10840000  0.78080000  1.0 -0.2001508703
N  N7  1  0.32560000  0.11260000  0.86480000  1.0 -0.209067666
N  N8  1  0.88740000  0.67440000  0.36480000  1.0 -0.209067666
N  N9  1  0.11550000  0.46830000  0.63570000  1.0 -0.2001508703
N  N10  1  0.53170000  0.88450000  0.13570000  1.0 -0.2001508703
N  N11  1  0.67460000  0.89700000  0.21730000  1.0 -0.2001508703
N  N12  1  0.10300000  0.32540000  0.71730000  1.0 -0.2001508703
N  N13  1  0.53640000  0.89160000  0.21920000  1.0 -0.2001508703
N  N14  1  0.10840000  0.46360000  0.71920000  1.0 -0.2001508703
N  N15  1  0.11260000  0.32560000  0.63520000  1.0 -0.209067666
N  N16  1  0.67440000  0.88740000  0.13520000  1.0 -0.209067666
