# DDEC6 charges by PACMAN v1.1 (https://github.com/mtap-research/PACMAN-charge/)
data_KUYPIF_ASR_pacman
_symmetry_space_group_name_H-M   'P 1'
_cell_length_a   16.83720000
_cell_length_b   16.83720000
_cell_length_c   6.94030000
_cell_angle_alpha   90.00000000
_cell_angle_beta   90.00000000
_cell_angle_gamma   144.45100000
_symmetry_Int_Tables_number   1
_chemical_formula_structural   Zn2H3C19N4O5
_chemical_formula_sum   'Zn4 H6 C38 N8 O10'
_cell_volume   1143.91104545
_cell_formula_units_Z   2
loop_
 _symmetry_equiv_pos_site_id
 _symmetry_equiv_pos_as_xyz
  1  'x, y, z'
loop_
 _atom_site_type_symbol
 _atom_site_label
 _atom_site_symmetry_multiplicity
 _atom_site_fract_x
 _atom_site_fract_y
 _atom_site_fract_z
 _atom_site_occupancy
 _atom_site_charge
Zn  Zn1  1  0.09617000  0.90383000  0.25000000  1.0 0.9002417169
Zn  Zn2  1  0.90383000  0.09617000  0.75000000  1.0 0.9002417169
Zn  Zn3  1  0.00000000  0.00000000  0.00000000  1.0 0.8424587689
Zn  Zn4  1  0.00000000  0.00000000  0.50000000  1.0 0.8424587689
H  H1  1  0.41580000  0.58420000  0.75000000  1.0 0.1326597698
H  H2  1  0.58420000  0.41580000  0.25000000  1.0 0.1326597698
H  H3  1  0.11330000  0.50090000  0.75000000  1.0 0.1501137868
H  H4  1  0.88670000  0.49910000  0.25000000  1.0 0.1501137868
H  H5  1  0.50090000  0.11330000  0.25000000  1.0 0.1501137868
H  H6  1  0.49910000  0.88670000  0.75000000  1.0 0.1501137868
C  C1  1  0.38680000  0.61320000  0.75000000  1.0 -0.090799813
C  C2  1  0.61320000  0.38680000  0.25000000  1.0 -0.090799813
C  C3  1  0.25310000  0.52290000  0.75000000  1.0 0.0007689377
C  C4  1  0.74690000  0.47710000  0.25000000  1.0 0.0007689377
C  C5  1  0.52290000  0.25310000  0.25000000  1.0 0.0007689377
C  C6  1  0.47710000  0.74690000  0.75000000  1.0 0.0007689377
C  C7  1  0.15370000  0.37630000  0.75000000  1.0 0.5361048423
C  C8  1  0.84630000  0.62370000  0.25000000  1.0 0.5361048423
C  C9  1  0.37630000  0.15370000  0.25000000  1.0 0.5361048423
C  C10  1  0.62370000  0.84630000  0.75000000  1.0 0.5361048423
C  C11  1  0.20630000  0.56550000  0.75000000  1.0 -0.1183772094
C  C12  1  0.79370000  0.43450000  0.25000000  1.0 -0.1183772094
C  C13  1  0.56550000  0.20630000  0.25000000  1.0 -0.1183772094
C  C14  1  0.43450000  0.79370000  0.75000000  1.0 -0.1183772094
C  C15  1  0.29910000  0.70090000  0.75000000  1.0 0.069919306
C  C16  1  0.70090000  0.29910000  0.25000000  1.0 0.069919306
C  C17  1  0.25180000  0.74820000  0.75000000  1.0 0.0513922173
C  C18  1  0.74820000  0.25180000  0.25000000  1.0 0.0513922173
C  C19  1  0.15970000  0.70090000  0.89000000  1.0 -0.0258170601
C  C20  1  0.84030000  0.29910000  0.39000000  1.0 -0.0258170601
C  C21  1  0.70090000  0.15970000  0.11000000  1.0 -0.0258170601
C  C22  1  0.29910000  0.84030000  0.61000000  1.0 -0.0248425256
C  C23  1  0.84030000  0.29910000  0.11000000  1.0 -0.0258170601
C  C24  1  0.15970000  0.70090000  0.61000000  1.0 -0.0258170601
C  C25  1  0.29910000  0.84030000  0.89000000  1.0 -0.0248425256
C  C26  1  0.70090000  0.15970000  0.39000000  1.0 -0.0248425256
C  C27  1  0.11660000  0.74540000  0.89100000  1.0 -0.0100272361
C  C28  1  0.88340000  0.25460000  0.39100000  1.0 -0.0100272361
C  C29  1  0.74540000  0.11660000  0.10900000  1.0 -0.0100272361
C  C30  1  0.25460000  0.88340000  0.60900000  1.0 -0.0100272361
C  C31  1  0.88340000  0.25460000  0.10900000  1.0 -0.0100272361
C  C32  1  0.11660000  0.74540000  0.60900000  1.0 -0.0100272361
C  C33  1  0.25460000  0.88340000  0.89100000  1.0 -0.0100272361
C  C34  1  0.74540000  0.11660000  0.39100000  1.0 -0.0100272361
C  C35  1  0.16490000  0.83510000  0.75000000  1.0 0.0007689377
C  C36  1  0.83510000  0.16490000  0.25000000  1.0 0.0007689377
C  C37  1  0.11880000  0.88120000  0.75000000  1.0 0.2907587282
C  C38  1  0.88120000  0.11880000  0.25000000  1.0 0.2907587282
N  N1  1  0.09530000  0.90470000  0.59110000  1.0 -0.200203941
N  N2  1  0.90470000  0.09530000  0.09110000  1.0 -0.200203941
N  N3  1  0.90470000  0.09530000  0.40890000  1.0 -0.200203941
N  N4  1  0.09530000  0.90470000  0.90890000  1.0 -0.200203941
N  N5  1  0.05610000  0.94390000  0.66130000  1.0 0.0262885925
N  N6  1  0.94390000  0.05610000  0.16130000  1.0 0.0262885925
N  N7  1  0.94390000  0.05610000  0.33870000  1.0 0.0262885925
N  N8  1  0.05610000  0.94390000  0.83870000  1.0 0.0262885925
O  O1  1  0.03190000  0.29270000  0.75000000  1.0 -0.4866465263
O  O2  1  0.96810000  0.70730000  0.25000000  1.0 -0.4866465263
O  O3  1  0.29270000  0.03190000  0.25000000  1.0 -0.4866465263
O  O4  1  0.70730000  0.96810000  0.75000000  1.0 -0.4866465263
O  O5  1  0.18870000  0.33333333  0.75000000  1.0 -0.4590672411
O  O6  1  0.81130000  0.66666667  0.25000000  1.0 -0.4590672411
O  O7  1  0.33333333  0.18870000  0.25000000  1.0 -0.4590672411
O  O8  1  0.66666667  0.81130000  0.75000000  1.0 -0.4590672411
O  O9  1  0.03370000  0.96630000  0.25000000  1.0 -0.9564124502
O  O10  1  0.96630000  0.03370000  0.75000000  1.0 -0.9504810132
