# DDEC6 charges by PACMAN v1.1 (https://github.com/mtap-research/PACMAN-charge/)
data_KUZYUB_ASR_pacman
_symmetry_space_group_name_H-M   'P 1'
_cell_length_a   24.97200000
_cell_length_b   24.97200000
_cell_length_c   9.85800000
_cell_angle_alpha   90.00000000
_cell_angle_beta   90.00000000
_cell_angle_gamma   120.00000000
_symmetry_Int_Tables_number   1
_chemical_formula_structural   Sm3(C33O16)2
_chemical_formula_sum   'Sm6 C132 O64'
_cell_volume   5323.85352249
_cell_formula_units_Z   2
loop_
 _symmetry_equiv_pos_site_id
 _symmetry_equiv_pos_as_xyz
  1  'x, y, z'
loop_
 _atom_site_type_symbol
 _atom_site_label
 _atom_site_symmetry_multiplicity
 _atom_site_fract_x
 _atom_site_fract_y
 _atom_site_fract_z
 _atom_site_occupancy
 _atom_site_charge
Sm  Sm1  1  0.39828000  0.77145000  0.25000000  1.0 1.4385606003
Sm  Sm2  1  0.22855000  0.62683000  0.25000000  1.0 1.4385606003
Sm  Sm3  1  0.37317000  0.60172000  0.25000000  1.0 1.4385606003
Sm  Sm4  1  0.77145000  0.39828000  0.75000000  1.0 1.4385606003
Sm  Sm5  1  0.62683000  0.22855000  0.75000000  1.0 1.4385606003
Sm  Sm6  1  0.60172000  0.37317000  0.75000000  1.0 1.4385606003
C  C1  1  0.43930000  0.72380000  0.75000000  1.0 0.015774421
C  C2  1  0.27620000  0.71550000  0.75000000  1.0 0.015774421
C  C3  1  0.28450000  0.56070000  0.75000000  1.0 0.015774421
C  C4  1  0.72380000  0.43930000  0.25000000  1.0 0.015774421
C  C5  1  0.71550000  0.27620000  0.25000000  1.0 0.015774421
C  C6  1  0.56070000  0.28450000  0.25000000  1.0 0.015774421
C  C7  1  0.45080000  0.70470000  0.62520000  1.0 -0.0617388844
C  C8  1  0.29530000  0.74610000  0.62520000  1.0 -0.0617388844
C  C9  1  0.25390000  0.54920000  0.62520000  1.0 -0.0617388844
C  C10  1  0.45080000  0.70470000  0.87480000  1.0 -0.0617388844
C  C11  1  0.29530000  0.74610000  0.87480000  1.0 -0.0617388844
C  C12  1  0.25390000  0.54920000  0.87480000  1.0 -0.0617388844
C  C13  1  0.70470000  0.45080000  0.37480000  1.0 -0.0617388844
C  C14  1  0.74610000  0.29530000  0.37480000  1.0 -0.0617388844
C  C15  1  0.54920000  0.25390000  0.37480000  1.0 -0.0617388844
C  C16  1  0.70470000  0.45080000  0.12520000  1.0 -0.0617388844
C  C17  1  0.74610000  0.29530000  0.12520000  1.0 -0.0617388844
C  C18  1  0.54920000  0.25390000  0.12520000  1.0 -0.0617388844
C  C19  1  0.47360000  0.66280000  0.62270000  1.0 -0.0230624586
C  C20  1  0.33720000  0.81080000  0.62270000  1.0 -0.0230624586
C  C21  1  0.18920000  0.52640000  0.62270000  1.0 -0.0230624586
C  C22  1  0.47360000  0.66280000  0.87730000  1.0 -0.0230624586
C  C23  1  0.33720000  0.81080000  0.87730000  1.0 -0.0230624586
C  C24  1  0.18920000  0.52640000  0.87730000  1.0 -0.0230624586
C  C25  1  0.66280000  0.47360000  0.37730000  1.0 -0.0230624586
C  C26  1  0.81080000  0.33720000  0.37730000  1.0 -0.0230624586
C  C27  1  0.52640000  0.18920000  0.37730000  1.0 -0.0230624586
C  C28  1  0.66280000  0.47360000  0.12270000  1.0 -0.0230624586
C  C29  1  0.81080000  0.33720000  0.12270000  1.0 -0.0230624586
C  C30  1  0.52640000  0.18920000  0.12270000  1.0 -0.0230624586
C  C31  1  0.48820000  0.64490000  0.75000000  1.0 0.0271406386
C  C32  1  0.35510000  0.84330000  0.75000000  1.0 0.0271406386
C  C33  1  0.15670000  0.51180000  0.75000000  1.0 0.0271406386
C  C34  1  0.64490000  0.48820000  0.25000000  1.0 0.0271406386
C  C35  1  0.84330000  0.35510000  0.25000000  1.0 0.0271406386
C  C36  1  0.51180000  0.15670000  0.25000000  1.0 0.0271406386
C  C37  1  0.43670000  0.72460000  0.49190000  1.0 0.4965176337
C  C38  1  0.27540000  0.71210000  0.49190000  1.0 0.4965176337
C  C39  1  0.28790000  0.56330000  0.49190000  1.0 0.4965176337
C  C40  1  0.43670000  0.72460000  0.00810000  1.0 0.4965176337
C  C41  1  0.27540000  0.71210000  0.00810000  1.0 0.4965176337
C  C42  1  0.28790000  0.56330000  0.00810000  1.0 0.4965176337
C  C43  1  0.72460000  0.43670000  0.50810000  1.0 0.4965176337
C  C44  1  0.71210000  0.27540000  0.50810000  1.0 0.4965176337
C  C45  1  0.56330000  0.28790000  0.50810000  1.0 0.4965176337
C  C46  1  0.72460000  0.43670000  0.99190000  1.0 0.4965176337
C  C47  1  0.71210000  0.27540000  0.99190000  1.0 0.4965176337
C  C48  1  0.56330000  0.28790000  0.99190000  1.0 0.4965176337
C  C49  1  0.51280000  0.60240000  0.77700000  1.0 0.0491204054
C  C50  1  0.39760000  0.91040000  0.77700000  1.0 0.0491204054
C  C51  1  0.08960000  0.48720000  0.77700000  1.0 0.0491204054
C  C52  1  0.51280000  0.60240000  0.72300000  1.0 0.0491204054
C  C53  1  0.39760000  0.91040000  0.72300000  1.0 0.0491204054
C  C54  1  0.08960000  0.48720000  0.72300000  1.0 0.0491204054
C  C55  1  0.60240000  0.51280000  0.22300000  1.0 0.0491204054
C  C56  1  0.91040000  0.39760000  0.22300000  1.0 0.0491204054
C  C57  1  0.48720000  0.08960000  0.22300000  1.0 0.0491204054
C  C58  1  0.60240000  0.51280000  0.27700000  1.0 0.0491204054
C  C59  1  0.91040000  0.39760000  0.27700000  1.0 0.0491204054
C  C60  1  0.48720000  0.08960000  0.27700000  1.0 0.0491204054
C  C61  1  0.48760000  0.55380000  0.86910000  1.0 -0.0230624586
C  C62  1  0.44620000  0.93380000  0.86910000  1.0 -0.0260025337
C  C63  1  0.06620000  0.51240000  0.86910000  1.0 -0.0230624586
C  C64  1  0.48760000  0.55380000  0.63090000  1.0 -0.0230624586
C  C65  1  0.44620000  0.93380000  0.63090000  1.0 -0.0260025337
C  C66  1  0.06620000  0.51240000  0.63090000  1.0 -0.0230624586
C  C67  1  0.55380000  0.48760000  0.13090000  1.0 -0.0260025337
C  C68  1  0.93380000  0.44620000  0.13090000  1.0 -0.0260025337
C  C69  1  0.51240000  0.06620000  0.13090000  1.0 -0.0230624586
C  C70  1  0.55380000  0.48760000  0.36910000  1.0 -0.0260025337
C  C71  1  0.93380000  0.44620000  0.36910000  1.0 -0.0260025337
C  C72  1  0.51240000  0.06620000  0.36910000  1.0 -0.0260025337
C  C73  1  0.50950000  0.51250000  0.87480000  1.0 -0.0895071713
C  C74  1  0.48750000  0.99700000  0.87480000  1.0 -0.0895071713
C  C75  1  0.00300000  0.49050000  0.87480000  1.0 -0.0895071713
C  C76  1  0.50950000  0.51250000  0.62520000  1.0 -0.0895071713
C  C77  1  0.48750000  0.99700000  0.62520000  1.0 -0.0895071713
C  C78  1  0.00300000  0.49050000  0.62520000  1.0 -0.0895071713
C  C79  1  0.51250000  0.50950000  0.12520000  1.0 -0.0895071713
C  C80  1  0.99700000  0.48750000  0.12520000  1.0 -0.0895071713
C  C81  1  0.49050000  0.00300000  0.12520000  1.0 -0.0895071713
C  C82  1  0.51250000  0.50950000  0.37480000  1.0 -0.0895071713
C  C83  1  0.99700000  0.48750000  0.37480000  1.0 -0.0895071713
C  C84  1  0.49050000  0.00300000  0.37480000  1.0 -0.0895071713
C  C85  1  0.55660000  0.51970000  0.78820000  1.0 0.0271406386
C  C86  1  0.48030000  0.03690000  0.78820000  1.0 0.0271406386
C  C87  1  0.96310000  0.44340000  0.78820000  1.0 0.0271406386
C  C88  1  0.55660000  0.51970000  0.71180000  1.0 0.0271406386
C  C89  1  0.48030000  0.03690000  0.71180000  1.0 0.0271406386
C  C90  1  0.96310000  0.44340000  0.71180000  1.0 0.0271406386
C  C91  1  0.51970000  0.55660000  0.21180000  1.0 0.0271406386
C  C92  1  0.03690000  0.48030000  0.21180000  1.0 0.0271406386
C  C93  1  0.44340000  0.96310000  0.21180000  1.0 0.0271406386
C  C94  1  0.51970000  0.55660000  0.28820000  1.0 0.0271406386
C  C95  1  0.03690000  0.48030000  0.28820000  1.0 0.0271406386
C  C96  1  0.44340000  0.96310000  0.28820000  1.0 0.0271406386
C  C97  1  0.58180000  0.56830000  0.69580000  1.0 -0.0362417111
C  C98  1  0.43170000  0.01350000  0.69580000  1.0 -0.0362417111
C  C99  1  0.98650000  0.41820000  0.69580000  1.0 -0.0362417111
C  C100  1  0.58180000  0.56830000  0.80420000  1.0 -0.0362417111
C  C101  1  0.43170000  0.01350000  0.80420000  1.0 -0.0362417111
C  C102  1  0.98650000  0.41820000  0.80420000  1.0 -0.0362417111
C  C103  1  0.56830000  0.58180000  0.30420000  1.0 -0.0362417111
C  C104  1  0.01350000  0.43170000  0.30420000  1.0 -0.0362417111
C  C105  1  0.41820000  0.98650000  0.30420000  1.0 -0.0362417111
C  C106  1  0.56830000  0.58180000  0.19580000  1.0 -0.0362417111
C  C107  1  0.01350000  0.43170000  0.19580000  1.0 -0.0362417111
C  C108  1  0.41820000  0.98650000  0.19580000  1.0 -0.0362417111
C  C109  1  0.55990000  0.60960000  0.69000000  1.0 -0.0617388844
C  C110  1  0.39040000  0.95030000  0.69000000  1.0 -0.0617388844
C  C111  1  0.04970000  0.44010000  0.69000000  1.0 -0.0617388844
C  C112  1  0.55990000  0.60960000  0.81000000  1.0 -0.0617388844
C  C113  1  0.39040000  0.95030000  0.81000000  1.0 -0.0617388844
C  C114  1  0.04970000  0.44010000  0.81000000  1.0 -0.0617388844
C  C115  1  0.60960000  0.55990000  0.31000000  1.0 -0.0617388844
C  C116  1  0.95030000  0.39040000  0.31000000  1.0 -0.0617388844
C  C117  1  0.44010000  0.04970000  0.31000000  1.0 -0.0617388844
C  C118  1  0.60960000  0.55990000  0.19000000  1.0 -0.0617388844
C  C119  1  0.95030000  0.39040000  0.19000000  1.0 -0.0617388844
C  C120  1  0.44010000  0.04970000  0.19000000  1.0 -0.0617388844
C  C121  1  0.57540000  0.47300000  0.78700000  1.0 0.2762955703
C  C122  1  0.52700000  0.10240000  0.78700000  1.0 0.2762955703
C  C123  1  0.89760000  0.42460000  0.78700000  1.0 0.2762955703
C  C124  1  0.57540000  0.47300000  0.71300000  1.0 0.2762955703
C  C125  1  0.52700000  0.10240000  0.71300000  1.0 0.2762955703
C  C126  1  0.89760000  0.42460000  0.71300000  1.0 0.2762955703
C  C127  1  0.47300000  0.57540000  0.21300000  1.0 0.2762955703
C  C128  1  0.10240000  0.52700000  0.21300000  1.0 0.2762955703
C  C129  1  0.42460000  0.89760000  0.21300000  1.0 0.2762955703
C  C130  1  0.47300000  0.57540000  0.28700000  1.0 0.2762955703
C  C131  1  0.10240000  0.52700000  0.28700000  1.0 0.2762955703
C  C132  1  0.42460000  0.89760000  0.28700000  1.0 0.2762955703
O  O1  1  0.43080000  0.76920000  0.48770000  1.0 -0.4132525187
O  O2  1  0.23080000  0.66160000  0.48770000  1.0 -0.4132525187
O  O3  1  0.33840000  0.56920000  0.48770000  1.0 -0.4132525187
O  O4  1  0.43080000  0.76920000  0.01230000  1.0 -0.4132525187
O  O5  1  0.23080000  0.66160000  0.01230000  1.0 -0.4132525187
O  O6  1  0.33840000  0.56920000  0.01230000  1.0 -0.4132525187
O  O7  1  0.76920000  0.43080000  0.51230000  1.0 -0.4132525187
O  O8  1  0.66160000  0.23080000  0.51230000  1.0 -0.4132525187
O  O9  1  0.56920000  0.33840000  0.51230000  1.0 -0.4132525187
O  O10  1  0.76920000  0.43080000  0.98770000  1.0 -0.4132525187
O  O11  1  0.66160000  0.23080000  0.98770000  1.0 -0.4132525187
O  O12  1  0.56920000  0.33840000  0.98770000  1.0 -0.4132525187
O  O13  1  0.44530000  0.68800000  0.39370000  1.0 -0.2448154784
O  O14  1  0.31200000  0.75730000  0.39370000  1.0 -0.2448154784
O  O15  1  0.24270000  0.55470000  0.39370000  1.0 -0.2448154784
O  O16  1  0.44530000  0.68800000  0.10630000  1.0 -0.2448154784
O  O17  1  0.31200000  0.75730000  0.10630000  1.0 -0.2448154784
O  O18  1  0.24270000  0.55470000  0.10630000  1.0 -0.2448154784
O  O19  1  0.68800000  0.44530000  0.60630000  1.0 -0.2448154784
O  O20  1  0.75730000  0.31200000  0.60630000  1.0 -0.2448154784
O  O21  1  0.55470000  0.24270000  0.60630000  1.0 -0.2448154784
O  O22  1  0.68800000  0.44530000  0.89370000  1.0 -0.2448154784
O  O23  1  0.75730000  0.31200000  0.89370000  1.0 -0.2448154784
O  O24  1  0.55470000  0.24270000  0.89370000  1.0 -0.2448154784
O  O25  1  0.55320000  0.42620000  0.87450000  1.0 -0.3316595353
O  O26  1  0.57380000  0.12700000  0.87450000  1.0 -0.3316595353
O  O27  1  0.87300000  0.44680000  0.87450000  1.0 -0.3316595353
O  O28  1  0.55320000  0.42620000  0.62550000  1.0 -0.3316595353
O  O29  1  0.57380000  0.12700000  0.62550000  1.0 -0.3316595353
O  O30  1  0.87300000  0.44680000  0.62550000  1.0 -0.3316595353
O  O31  1  0.42620000  0.55320000  0.12550000  1.0 -0.3316595353
O  O32  1  0.12700000  0.57380000  0.12550000  1.0 -0.3316595353
O  O33  1  0.44680000  0.87300000  0.12550000  1.0 -0.3316595353
O  O34  1  0.42620000  0.55320000  0.37450000  1.0 -0.3316595353
O  O35  1  0.12700000  0.57380000  0.37450000  1.0 -0.3316595353
O  O36  1  0.44680000  0.87300000  0.37450000  1.0 -0.3316595353
O  O37  1  0.61320000  0.47220000  0.68300000  1.0 -0.0895071713
O  O38  1  0.52780000  0.14100000  0.68300000  1.0 -0.0895071713
O  O39  1  0.85900000  0.38680000  0.68300000  1.0 -0.0895071713
O  O40  1  0.61320000  0.47220000  0.81700000  1.0 -0.0895071713
O  O41  1  0.52780000  0.14100000  0.81700000  1.0 -0.0895071713
O  O42  1  0.85900000  0.38680000  0.81700000  1.0 -0.0895071713
O  O43  1  0.47220000  0.61320000  0.31700000  1.0 -0.0895071713
O  O44  1  0.14100000  0.52780000  0.31700000  1.0 -0.0895071713
O  O45  1  0.38680000  0.85900000  0.31700000  1.0 -0.0895071713
O  O46  1  0.47220000  0.61320000  0.18300000  1.0 -0.0895071713
O  O47  1  0.14100000  0.52780000  0.18300000  1.0 -0.0895071713
O  O48  1  0.38680000  0.85900000  0.18300000  1.0 -0.0895071713
O  O49  1  0.33333333  0.66666667  0.18800000  1.0 -0.4153829462
O  O50  1  0.33333333  0.66666667  0.31200000  1.0 -0.4153829462
O  O51  1  0.66666667  0.33333333  0.81200000  1.0 -0.4132525187
O  O52  1  0.66666667  0.33333333  0.68800000  1.0 -0.4132525187
O  O53  1  0.42080000  0.69840000  0.39210000  1.0 -0.0754048511
O  O54  1  0.30160000  0.72240000  0.39210000  1.0 -0.0754048511
O  O55  1  0.27760000  0.57920000  0.39210000  1.0 -0.0754048511
O  O56  1  0.42080000  0.69840000  0.10790000  1.0 -0.0754048511
O  O57  1  0.30160000  0.72240000  0.10790000  1.0 -0.0754048511
O  O58  1  0.27760000  0.57920000  0.10790000  1.0 -0.0754048511
O  O59  1  0.69840000  0.42080000  0.60790000  1.0 -0.0754048511
O  O60  1  0.72240000  0.30160000  0.60790000  1.0 -0.0754048511
O  O61  1  0.57920000  0.27760000  0.60790000  1.0 -0.0754048511
O  O62  1  0.69840000  0.42080000  0.89210000  1.0 -0.0754048511
O  O63  1  0.72240000  0.30160000  0.89210000  1.0 -0.0754048511
O  O64  1  0.57920000  0.27760000  0.89210000  1.0 -0.0754048511
