# DDEC6 charges by PACMAN v1.1 (https://github.com/mtap-research/PACMAN-charge/)
data_LABMOT_FSR_pacman
_symmetry_space_group_name_H-M   'P 1'
_cell_length_a   18.76970000
_cell_length_b   18.76970000
_cell_length_c   29.64130000
_cell_angle_alpha   80.23380000
_cell_angle_beta   99.76620000
_cell_angle_gamma   132.61900000
_symmetry_Int_Tables_number   1
_chemical_formula_structural   Zn2H12C18I5N6
_chemical_formula_sum   'Zn16 H96 C144 I40 N48'
_cell_volume   7551.49035477
_cell_formula_units_Z   8
loop_
 _symmetry_equiv_pos_site_id
 _symmetry_equiv_pos_as_xyz
  1  'x, y, z'
loop_
 _atom_site_type_symbol
 _atom_site_label
 _atom_site_symmetry_multiplicity
 _atom_site_fract_x
 _atom_site_fract_y
 _atom_site_fract_z
 _atom_site_occupancy
 _atom_site_charge
Zn  Zn1  1  0.96349000  0.30371000  0.22877000  1.0 0.2057967958
Zn  Zn2  1  0.69629000  0.03651000  0.72877000  1.0 0.2057967958
Zn  Zn3  1  0.04196000  0.77184000  0.03942000  1.0 0.3962220092
Zn  Zn4  1  0.22816000  0.95804000  0.53942000  1.0 0.3962220092
Zn  Zn5  1  0.54749000  0.70719000  0.90726000  1.0 0.456795602
Zn  Zn6  1  0.29281000  0.45251000  0.40726000  1.0 0.456795602
Zn  Zn7  1  0.95340000  0.31540000  0.21650000  1.0 0.228939372
Zn  Zn8  1  0.68460000  0.04660000  0.71650000  1.0 0.228939372
Zn  Zn9  1  0.30371000  0.96349000  0.27123000  1.0 0.2057967958
Zn  Zn10  1  0.03651000  0.69629000  0.77123000  1.0 0.2057967958
Zn  Zn11  1  0.77184000  0.04196000  0.46058000  1.0 0.3962220092
Zn  Zn12  1  0.95804000  0.22816000  0.96058000  1.0 0.3962220092
Zn  Zn13  1  0.70719000  0.54749000  0.59274000  1.0 0.456795602
Zn  Zn14  1  0.45251000  0.29281000  0.09274000  1.0 0.456795602
Zn  Zn15  1  0.31540000  0.95340000  0.28350000  1.0 0.228939372
Zn  Zn16  1  0.04660000  0.68460000  0.78350000  1.0 0.228939372
H  H1  1  0.95850000  0.15790000  0.20150000  1.0 0.0901535119
H  H2  1  0.84210000  0.04150000  0.70150000  1.0 0.0901535119
H  H3  1  0.02940000  0.14040000  0.15400000  1.0 0.1284100354
H  H4  1  0.85960000  0.97060000  0.65400000  1.0 0.1284100354
H  H5  1  0.14560000  0.40200000  0.09110000  1.0 0.1374528925
H  H6  1  0.59800000  0.85440000  0.59110000  1.0 0.1374528925
H  H7  1  0.07080000  0.41300000  0.14090000  1.0 0.0698336979
H  H8  1  0.58700000  0.92920000  0.64090000  1.0 0.0698336979
H  H9  1  0.05110000  0.88030000  0.10630000  1.0 0.1018519755
H  H10  1  0.11970000  0.94890000  0.60630000  1.0 0.1018519755
H  H11  1  0.08540000  0.02080000  0.11280000  1.0 0.1374528925
H  H12  1  0.97920000  0.91460000  0.61280000  1.0 0.1374528925
H  H13  1  0.14860000  0.09740000  0.98040000  1.0 0.1374528925
H  H14  1  0.90260000  0.85140000  0.48040000  1.0 0.1374528925
H  H15  1  0.10300000  0.94900000  0.97650000  1.0 0.1018519755
H  H16  1  0.05100000  0.89700000  0.47650000  1.0 0.1018519755
H  H17  1  0.45610000  0.65090000  0.99390000  1.0 0.1083017648
H  H18  1  0.34910000  0.54390000  0.49390000  1.0 0.1083017648
H  H19  1  0.33990000  0.51510000  0.03780000  1.0 0.1374528925
H  H20  1  0.48490000  0.66010000  0.53780000  1.0 0.1374528925
H  H21  1  0.34570000  0.35550000  0.96490000  1.0 0.1374528925
H  H22  1  0.64450000  0.65430000  0.46490000  1.0 0.1374528925
H  H23  1  0.46370000  0.49710000  0.92290000  1.0 0.1083017648
H  H24  1  0.50290000  0.53630000  0.42290000  1.0 0.1083017648
H  H25  1  0.05490000  0.66010000  0.12260000  1.0 0.0783630636
H  H26  1  0.33990000  0.94510000  0.62260000  1.0 0.0783630636
H  H27  1  0.17070000  0.68110000  0.17730000  1.0 0.1083017648
H  H28  1  0.31890000  0.82930000  0.67730000  1.0 0.1083017648
H  H29  1  0.37020000  0.95520000  0.12190000  1.0 0.1284100354
H  H30  1  0.04480000  0.62980000  0.62190000  1.0 0.1284100354
H  H31  1  0.24950000  0.92670000  0.06800000  1.0 0.1083017648
H  H32  1  0.07330000  0.75050000  0.56800000  1.0 0.1083017648
H  H33  1  0.18930000  0.49510000  0.33580000  1.0 0.0901535119
H  H34  1  0.50490000  0.81070000  0.83580000  1.0 0.0901535119
H  H35  1  0.22380000  0.60900000  0.27560000  1.0 0.1284100354
H  H36  1  0.39100000  0.77620000  0.77560000  1.0 0.1284100354
H  H37  1  0.50400000  0.78860000  0.32720000  1.0 0.1234750216
H  H38  1  0.21140000  0.49600000  0.82720000  1.0 0.1234750216
H  H39  1  0.46060000  0.66880000  0.38540000  1.0 0.0901535119
H  H40  1  0.33120000  0.53940000  0.88540000  1.0 0.0901535119
H  H41  1  0.82100000  0.12420000  0.27870000  1.0 0.0783630636
H  H42  1  0.87580000  0.17900000  0.77870000  1.0 0.0783630636
H  H43  1  0.65780000  0.98200000  0.27810000  1.0 0.1374528925
H  H44  1  0.01800000  0.34220000  0.77810000  1.0 0.1374528925
H  H45  1  0.61120000  0.08380000  0.15710000  1.0 0.1374528925
H  H46  1  0.91620000  0.38880000  0.65710000  1.0 0.1374528925
H  H47  1  0.77560000  0.22200000  0.16100000  1.0 0.0901535119
H  H48  1  0.77800000  0.22440000  0.66100000  1.0 0.0901535119
H  H49  1  0.15790000  0.95850000  0.29850000  1.0 0.0901535119
H  H50  1  0.04150000  0.84210000  0.79850000  1.0 0.0901535119
H  H51  1  0.14040000  0.02940000  0.34600000  1.0 0.1284100354
H  H52  1  0.97060000  0.85960000  0.84600000  1.0 0.1284100354
H  H53  1  0.40200000  0.14560000  0.40890000  1.0 0.1374528925
H  H54  1  0.85440000  0.59800000  0.90890000  1.0 0.1374528925
H  H55  1  0.41300000  0.07080000  0.35910000  1.0 0.0698336979
H  H56  1  0.92920000  0.58700000  0.85910000  1.0 0.0698336979
H  H57  1  0.88030000  0.05110000  0.39370000  1.0 0.1018519755
H  H58  1  0.94890000  0.11970000  0.89370000  1.0 0.1018519755
H  H59  1  0.02080000  0.08540000  0.38720000  1.0 0.1374528925
H  H60  1  0.91460000  0.97920000  0.88720000  1.0 0.1374528925
H  H61  1  0.09740000  0.14860000  0.51960000  1.0 0.1374528925
H  H62  1  0.85140000  0.90260000  0.01960000  1.0 0.1374528925
H  H63  1  0.94900000  0.10300000  0.52350000  1.0 0.1018519755
H  H64  1  0.89700000  0.05100000  0.02350000  1.0 0.1018519755
H  H65  1  0.65090000  0.45610000  0.50610000  1.0 0.1083017648
H  H66  1  0.54390000  0.34910000  0.00610000  1.0 0.1083017648
H  H67  1  0.51510000  0.33990000  0.46220000  1.0 0.1374528925
H  H68  1  0.66010000  0.48490000  0.96220000  1.0 0.1374528925
H  H69  1  0.35550000  0.34570000  0.53510000  1.0 0.1374528925
H  H70  1  0.65430000  0.64450000  0.03510000  1.0 0.1374528925
H  H71  1  0.49710000  0.46370000  0.57710000  1.0 0.1083017648
H  H72  1  0.53630000  0.50290000  0.07710000  1.0 0.1083017648
H  H73  1  0.66010000  0.05490000  0.37740000  1.0 0.0783630636
H  H74  1  0.94510000  0.33990000  0.87740000  1.0 0.0783630636
H  H75  1  0.68110000  0.17070000  0.32270000  1.0 0.1083017648
H  H76  1  0.82930000  0.31890000  0.82270000  1.0 0.1083017648
H  H77  1  0.95520000  0.37020000  0.37810000  1.0 0.1284100354
H  H78  1  0.62980000  0.04480000  0.87810000  1.0 0.1284100354
H  H79  1  0.92670000  0.24950000  0.43200000  1.0 0.1083017648
H  H80  1  0.75050000  0.07330000  0.93200000  1.0 0.1083017648
H  H81  1  0.49510000  0.18930000  0.16420000  1.0 0.0901535119
H  H82  1  0.81070000  0.50490000  0.66420000  1.0 0.0901535119
H  H83  1  0.60900000  0.22380000  0.22440000  1.0 0.1284100354
H  H84  1  0.77620000  0.39100000  0.72440000  1.0 0.1284100354
H  H85  1  0.78860000  0.50400000  0.17280000  1.0 0.1234750216
H  H86  1  0.49600000  0.21140000  0.67280000  1.0 0.1234750216
H  H87  1  0.66880000  0.46060000  0.11460000  1.0 0.0901535119
H  H88  1  0.53940000  0.33120000  0.61460000  1.0 0.0901535119
H  H89  1  0.12420000  0.82100000  0.22130000  1.0 0.0783630636
H  H90  1  0.17900000  0.87580000  0.72130000  1.0 0.0783630636
H  H91  1  0.98200000  0.65780000  0.22190000  1.0 0.1374528925
H  H92  1  0.34220000  0.01800000  0.72190000  1.0 0.1374528925
H  H93  1  0.08380000  0.61120000  0.34290000  1.0 0.1374528925
H  H94  1  0.38880000  0.91620000  0.84290000  1.0 0.1374528925
H  H95  1  0.22200000  0.77560000  0.33900000  1.0 0.0901535119
H  H96  1  0.22440000  0.77800000  0.83900000  1.0 0.0901535119
C  C1  1  0.99800000  0.20900000  0.17900000  1.0 0.0698336979
C  C2  1  0.79100000  0.00200000  0.67900000  1.0 0.0698336979
C  C3  1  0.03970000  0.19790000  0.15050000  1.0 -0.1431701827
C  C4  1  0.80210000  0.96030000  0.65050000  1.0 -0.1431701827
C  C5  1  0.09610000  0.26930000  0.11690000  1.0 0.0601090672
C  C6  1  0.73070000  0.90390000  0.61690000  1.0 0.0601090672
C  C7  1  0.10740000  0.35060000  0.11380000  1.0 -0.1195231872
C  C8  1  0.64940000  0.89260000  0.61380000  1.0 -0.1195231872
C  C9  1  0.06330000  0.35710000  0.14370000  1.0 0.0601090672
C  C10  1  0.64290000  0.93670000  0.64370000  1.0 0.0601090672
C  C11  1  0.06950000  0.92470000  0.08000000  1.0 0.0601090672
C  C12  1  0.07530000  0.93050000  0.58000000  1.0 0.0601090672
C  C13  1  0.09090000  0.00830000  0.08450000  1.0 -0.149444433
C  C14  1  0.99170000  0.90910000  0.58450000  1.0 -0.149444433
C  C15  1  0.12135000  0.07505000  0.04660000  1.0 0.0507169468
C  C16  1  0.92495000  0.87865000  0.54660000  1.0 0.0507169468
C  C17  1  0.12685000  0.05255000  0.00670000  1.0 -0.149444433
C  C18  1  0.94745000  0.87315000  0.50670000  1.0 -0.149444433
C  C19  1  0.10077000  0.96463000  0.00480000  1.0 0.0901535119
C  C20  1  0.03537000  0.89923000  0.50480000  1.0 0.0901535119
C  C21  1  0.43216000  0.58964000  0.98760000  1.0 0.0698336979
C  C22  1  0.41036000  0.56784000  0.48760000  1.0 0.0698336979
C  C23  1  0.36306000  0.50934000  0.01380000  1.0 -0.149444433
C  C24  1  0.49066000  0.63694000  0.51380000  1.0 -0.149444433
C  C25  1  0.32648000  0.41852000  0.00516000  1.0 0.0601090672
C  C26  1  0.58148000  0.67352000  0.50516000  1.0 0.0601090672
C  C27  1  0.36653000  0.41547000  0.97100000  1.0 -0.149444433
C  C28  1  0.58453000  0.63347000  0.47100000  1.0 -0.149444433
C  C29  1  0.43645000  0.49975000  0.94610000  1.0 0.0507169468
C  C30  1  0.50025000  0.56355000  0.44610000  1.0 0.0507169468
C  C31  1  0.13983000  0.26037000  0.08460000  1.0 0.3705063564
C  C32  1  0.73963000  0.86017000  0.58460000  1.0 0.3705063564
C  C33  1  0.15064000  0.16976000  0.05080000  1.0 0.3705063564
C  C34  1  0.83024000  0.84936000  0.55080000  1.0 0.3705063564
C  C35  1  0.24642000  0.32958000  0.03139000  1.0 0.3587081944
C  C36  1  0.67042000  0.75358000  0.53139000  1.0 0.3587081944
C  C37  1  0.12000000  0.72060000  0.12250000  1.0 0.0698336979
C  C38  1  0.27940000  0.88000000  0.62250000  1.0 0.0698336979
C  C39  1  0.18830000  0.73270000  0.15510000  1.0 -0.1593449561
C  C40  1  0.26730000  0.81170000  0.65510000  1.0 -0.1593449561
C  C41  1  0.28301000  0.82079000  0.15530000  1.0 0.0507169468
C  C42  1  0.17921000  0.71699000  0.65530000  1.0 0.0507169468
C  C43  1  0.30580000  0.89380000  0.12250000  1.0 -0.1593449561
C  C44  1  0.10620000  0.69420000  0.62250000  1.0 -0.1593449561
C  C45  1  0.23350000  0.87630000  0.09070000  1.0 0.0901535119
C  C46  1  0.12370000  0.76650000  0.59070000  1.0 0.0901535119
C  C47  1  0.25449000  0.55451000  0.33300000  1.0 0.0698336979
C  C48  1  0.44549000  0.74551000  0.83300000  1.0 0.0698336979
C  C49  1  0.27425000  0.62215000  0.29730000  1.0 -0.1593449561
C  C50  1  0.37785000  0.72575000  0.79730000  1.0 -0.1593449561
C  C51  1  0.36933000  0.70967000  0.29390000  1.0 0.0601090672
C  C52  1  0.29033000  0.63067000  0.79390000  1.0 0.0601090672
C  C53  1  0.43912000  0.72788000  0.32750000  1.0 -0.149444433
C  C54  1  0.27212000  0.56088000  0.82750000  1.0 -0.149444433
C  C55  1  0.41260000  0.65580000  0.36190000  1.0 0.0901535119
C  C56  1  0.34420000  0.58740000  0.86190000  1.0 0.0901535119
C  C57  1  0.77750000  0.11630000  0.25380000  1.0 0.0507169468
C  C58  1  0.88370000  0.22250000  0.75380000  1.0 0.0507169468
C  C59  1  0.68030000  0.03090000  0.25350000  1.0 -0.1431701827
C  C60  1  0.96910000  0.31970000  0.75350000  1.0 -0.1431701827
C  C61  1  0.61792000  0.01848000  0.21750000  1.0 0.0601090672
C  C62  1  0.98152000  0.38208000  0.71750000  1.0 0.0601090672
C  C63  1  0.65290000  0.09030000  0.18260000  1.0 -0.149444433
C  C64  1  0.90970000  0.34710000  0.68260000  1.0 -0.149444433
C  C65  1  0.75110000  0.17290000  0.18560000  1.0 0.0601090672
C  C66  1  0.82710000  0.24890000  0.68560000  1.0 0.0601090672
C  C67  1  0.35819000  0.83721000  0.19060000  1.0 0.3705063564
C  C68  1  0.16279000  0.64181000  0.69060000  1.0 0.3705063564
C  C69  1  0.39715000  0.78285000  0.25480000  1.0 0.3705063564
C  C70  1  0.21715000  0.60285000  0.75480000  1.0 0.3705063564
C  C71  1  0.51381000  0.92659000  0.21760000  1.0 0.3587081944
C  C72  1  0.07341000  0.48619000  0.71760000  1.0 0.3587081944
C  C73  1  0.20900000  0.99800000  0.32100000  1.0 0.0698336979
C  C74  1  0.00200000  0.79100000  0.82100000  1.0 0.0698336979
C  C75  1  0.19790000  0.03970000  0.34950000  1.0 -0.1431701827
C  C76  1  0.96030000  0.80210000  0.84950000  1.0 -0.1431701827
C  C77  1  0.26930000  0.09610000  0.38310000  1.0 0.0601090672
C  C78  1  0.90390000  0.73070000  0.88310000  1.0 0.0601090672
C  C79  1  0.35060000  0.10740000  0.38620000  1.0 -0.1195231872
C  C80  1  0.89260000  0.64940000  0.88620000  1.0 -0.1195231872
C  C81  1  0.35710000  0.06330000  0.35630000  1.0 0.0601090672
C  C82  1  0.93670000  0.64290000  0.85630000  1.0 0.0601090672
C  C83  1  0.92470000  0.06950000  0.42000000  1.0 0.0601090672
C  C84  1  0.93050000  0.07530000  0.92000000  1.0 0.0601090672
C  C85  1  0.00830000  0.09090000  0.41550000  1.0 -0.149444433
C  C86  1  0.90910000  0.99170000  0.91550000  1.0 -0.149444433
C  C87  1  0.07505000  0.12135000  0.45340000  1.0 0.0507169468
C  C88  1  0.87865000  0.92495000  0.95340000  1.0 0.0507169468
C  C89  1  0.05255000  0.12685000  0.49330000  1.0 -0.149444433
C  C90  1  0.87315000  0.94745000  0.99330000  1.0 -0.149444433
C  C91  1  0.96463000  0.10077000  0.49520000  1.0 0.0901535119
C  C92  1  0.89923000  0.03537000  0.99520000  1.0 0.0901535119
C  C93  1  0.58964000  0.43216000  0.51240000  1.0 0.0698336979
C  C94  1  0.56784000  0.41036000  0.01240000  1.0 0.0698336979
C  C95  1  0.50934000  0.36306000  0.48620000  1.0 -0.149444433
C  C96  1  0.63694000  0.49066000  0.98620000  1.0 -0.149444433
C  C97  1  0.41852000  0.32648000  0.49484000  1.0 0.0601090672
C  C98  1  0.67352000  0.58148000  0.99484000  1.0 0.0601090672
C  C99  1  0.41547000  0.36653000  0.52900000  1.0 -0.149444433
C  C100  1  0.63347000  0.58453000  0.02900000  1.0 -0.149444433
C  C101  1  0.49975000  0.43645000  0.55390000  1.0 0.0507169468
C  C102  1  0.56355000  0.50025000  0.05390000  1.0 0.0507169468
C  C103  1  0.26037000  0.13983000  0.41540000  1.0 0.3705063564
C  C104  1  0.86017000  0.73963000  0.91540000  1.0 0.3705063564
C  C105  1  0.16976000  0.15064000  0.44920000  1.0 0.3705063564
C  C106  1  0.84936000  0.83024000  0.94920000  1.0 0.3705063564
C  C107  1  0.32958000  0.24642000  0.46861000  1.0 0.3587081944
C  C108  1  0.75358000  0.67042000  0.96861000  1.0 0.3587081944
C  C109  1  0.72060000  0.12000000  0.37750000  1.0 0.0698336979
C  C110  1  0.88000000  0.27940000  0.87750000  1.0 0.0698336979
C  C111  1  0.73270000  0.18830000  0.34490000  1.0 -0.1593449561
C  C112  1  0.81170000  0.26730000  0.84490000  1.0 -0.1593449561
C  C113  1  0.82079000  0.28301000  0.34470000  1.0 0.0507169468
C  C114  1  0.71699000  0.17921000  0.84470000  1.0 0.0507169468
C  C115  1  0.89380000  0.30580000  0.37750000  1.0 -0.1593449561
C  C116  1  0.69420000  0.10620000  0.87750000  1.0 -0.149444433
C  C117  1  0.87630000  0.23350000  0.40930000  1.0 0.0901535119
C  C118  1  0.76650000  0.12370000  0.90930000  1.0 0.0901535119
C  C119  1  0.55451000  0.25449000  0.16700000  1.0 0.0698336979
C  C120  1  0.74551000  0.44549000  0.66700000  1.0 0.0698336979
C  C121  1  0.62215000  0.27425000  0.20270000  1.0 -0.1593449561
C  C122  1  0.72575000  0.37785000  0.70270000  1.0 -0.1593449561
C  C123  1  0.70967000  0.36933000  0.20610000  1.0 0.0601090672
C  C124  1  0.63067000  0.29033000  0.70610000  1.0 0.0601090672
C  C125  1  0.72788000  0.43912000  0.17250000  1.0 -0.149444433
C  C126  1  0.56088000  0.27212000  0.67250000  1.0 -0.149444433
C  C127  1  0.65580000  0.41260000  0.13810000  1.0 0.0901535119
C  C128  1  0.58740000  0.34420000  0.63810000  1.0 0.0901535119
C  C129  1  0.11630000  0.77750000  0.24620000  1.0 0.0507169468
C  C130  1  0.22250000  0.88370000  0.74620000  1.0 0.0507169468
C  C131  1  0.03090000  0.68030000  0.24650000  1.0 -0.1431701827
C  C132  1  0.31970000  0.96910000  0.74650000  1.0 -0.1431701827
C  C133  1  0.01848000  0.61792000  0.28250000  1.0 0.0601090672
C  C134  1  0.38208000  0.98152000  0.78250000  1.0 0.0601090672
C  C135  1  0.09030000  0.65290000  0.31740000  1.0 -0.149444433
C  C136  1  0.34710000  0.90970000  0.81740000  1.0 -0.149444433
C  C137  1  0.17290000  0.75110000  0.31440000  1.0 0.0601090672
C  C138  1  0.24890000  0.82710000  0.81440000  1.0 0.0601090672
C  C139  1  0.83721000  0.35819000  0.30940000  1.0 0.3705063564
C  C140  1  0.64181000  0.16279000  0.80940000  1.0 0.3705063564
C  C141  1  0.78285000  0.39715000  0.24520000  1.0 0.3705063564
C  C142  1  0.60285000  0.21715000  0.74520000  1.0 0.3705063564
C  C143  1  0.92659000  0.51381000  0.28240000  1.0 0.3587081944
C  C144  1  0.48619000  0.07341000  0.78240000  1.0 0.3587081944
I  I1  1  0.02771000  0.27823000  0.30671000  1.0 0.0443663661
I  I2  1  0.72177000  0.97229000  0.80671000  1.0 0.0507169468
I  I3  1  0.99672000  0.45808000  0.20108000  1.0 0.0011542469
I  I4  1  0.54192000  0.00328000  0.70108000  1.0 0.0011542469
I  I5  1  0.88014000  0.64014000  0.07062000  1.0 -0.2991010184
I  I6  1  0.35986000  0.11986000  0.57062000  1.0 -0.2991010184
I  I7  1  0.10551000  0.78515000  0.96695000  1.0 -0.438219146
I  I8  1  0.21485000  0.89449000  0.46695000  1.0 -0.438219146
I  I9  1  0.62195000  0.85497000  0.94756000  1.0 -0.4316422279
I  I10  1  0.14503000  0.37805000  0.44756000  1.0 -0.4316422279
I  I11  1  0.62983000  0.68349000  0.86056000  1.0 -0.4316422279
I  I12  1  0.31651000  0.37017000  0.36056000  1.0 -0.4316422279
I  I13  1  0.02930000  0.30690000  0.29480000  1.0 -0.0096491637
I  I14  1  0.69310000  0.97070000  0.79480000  1.0 -0.0096491637
I  I15  1  0.97040000  0.45820000  0.18340000  1.0 0.0443663661
I  I16  1  0.54180000  0.02960000  0.68340000  1.0 0.0443663661
I  I17  1  0.88490000  0.63750000  0.06320000  1.0 -0.2511425327
I  I18  1  0.36250000  0.11510000  0.56320000  1.0 -0.2511425327
I  I19  1  0.09200000  0.77840000  0.96650000  1.0 -0.4095244995
I  I20  1  0.22160000  0.90800000  0.46650000  1.0 -0.4095244995
I  I21  1  0.27823000  0.02771000  0.19329000  1.0 0.0507169468
I  I22  1  0.97229000  0.72177000  0.69329000  1.0 0.0507169468
I  I23  1  0.45808000  0.99672000  0.29892000  1.0 0.0011542469
I  I24  1  0.00328000  0.54192000  0.79892000  1.0 0.0011542469
I  I25  1  0.64014000  0.88014000  0.42938000  1.0 -0.2991010184
I  I26  1  0.11986000  0.35986000  0.92938000  1.0 -0.2991010184
I  I27  1  0.78515000  0.10551000  0.53305000  1.0 -0.438219146
I  I28  1  0.89449000  0.21485000  0.03305000  1.0 -0.438219146
I  I29  1  0.85497000  0.62195000  0.55244000  1.0 -0.4316422279
I  I30  1  0.37805000  0.14503000  0.05244000  1.0 -0.4316422279
I  I31  1  0.68349000  0.62983000  0.63944000  1.0 -0.4316422279
I  I32  1  0.37017000  0.31651000  0.13944000  1.0 -0.4316422279
I  I33  1  0.30690000  0.02930000  0.20520000  1.0 -0.0096491637
I  I34  1  0.97070000  0.69310000  0.70520000  1.0 -0.0096491637
I  I35  1  0.45820000  0.97040000  0.31660000  1.0 0.0507169468
I  I36  1  0.02960000  0.54180000  0.81660000  1.0 0.0443663661
I  I37  1  0.63750000  0.88490000  0.43680000  1.0 -0.2511425327
I  I38  1  0.11510000  0.36250000  0.93680000  1.0 -0.2511425327
I  I39  1  0.77840000  0.09200000  0.53350000  1.0 -0.4095244995
I  I40  1  0.90800000  0.22160000  0.03350000  1.0 -0.4095244995
N  N1  1  0.01010000  0.28670000  0.17670000  1.0 -0.1593449561
N  N2  1  0.71330000  0.98990000  0.67670000  1.0 -0.1593449561
N  N3  1  0.07266000  0.90114000  0.04080000  1.0 -0.1720396228
N  N4  1  0.09886000  0.92734000  0.54080000  1.0 -0.1720396228
N  N5  1  0.46753000  0.58607000  0.95372000  1.0 -0.1901423271
N  N6  1  0.41393000  0.53247000  0.45372000  1.0 -0.1901423271
N  N7  1  0.10953000  0.17247000  0.08158000  1.0 -0.3791439096
N  N8  1  0.82753000  0.89047000  0.58158000  1.0 -0.3791439096
N  N9  1  0.21892000  0.24468000  0.02366000  1.0 -0.3909968669
N  N10  1  0.75532000  0.78108000  0.52366000  1.0 -0.3909968669
N  N11  1  0.20940000  0.34120000  0.06029000  1.0 -0.3791439096
N  N12  1  0.65880000  0.79060000  0.56029000  1.0 -0.3791439096
N  N13  1  0.14233000  0.79167000  0.09060000  1.0 -0.1593449561
N  N14  1  0.20833000  0.85767000  0.59060000  1.0 -0.1593449561
N  N15  1  0.32386000  0.56954000  0.36378000  1.0 -0.1720396228
N  N16  1  0.43046000  0.67614000  0.86378000  1.0 -0.1720396228
N  N17  1  0.81180000  0.18680000  0.22050000  1.0 -0.1720396228
N  N18  1  0.81320000  0.18820000  0.72050000  1.0 -0.1720396228
N  N19  1  0.32689000  0.76731000  0.22503000  1.0 -0.4095244995
N  N20  1  0.23269000  0.67311000  0.72503000  1.0 -0.4095244995
N  N21  1  0.49192000  0.86028000  0.25197000  1.0 -0.4095244995
N  N22  1  0.13972000  0.50808000  0.75197000  1.0 -0.4095244995
N  N23  1  0.45031000  0.91849000  0.18563000  1.0 -0.4095244995
N  N24  1  0.08151000  0.54969000  0.68563000  1.0 -0.4095244995
N  N25  1  0.28670000  0.01010000  0.32330000  1.0 -0.1593449561
N  N26  1  0.98990000  0.71330000  0.82330000  1.0 -0.1593449561
N  N27  1  0.90114000  0.07266000  0.45920000  1.0 -0.1720396228
N  N28  1  0.92734000  0.09886000  0.95920000  1.0 -0.1720396228
N  N29  1  0.58607000  0.46753000  0.54628000  1.0 -0.1901423271
N  N30  1  0.53247000  0.41393000  0.04628000  1.0 -0.1901423271
N  N31  1  0.17247000  0.10953000  0.41842000  1.0 -0.3791439096
N  N32  1  0.89047000  0.82753000  0.91842000  1.0 -0.3791439096
N  N33  1  0.24468000  0.21892000  0.47634000  1.0 -0.3909968669
N  N34  1  0.78108000  0.75532000  0.97634000  1.0 -0.3909968669
N  N35  1  0.34120000  0.20940000  0.43971000  1.0 -0.3791439096
N  N36  1  0.79060000  0.65880000  0.93971000  1.0 -0.3791439096
N  N37  1  0.79167000  0.14233000  0.40940000  1.0 -0.1593449561
N  N38  1  0.85767000  0.20833000  0.90940000  1.0 -0.1593449561
N  N39  1  0.56954000  0.32386000  0.13622000  1.0 -0.1720396228
N  N40  1  0.67614000  0.43046000  0.63622000  1.0 -0.1720396228
N  N41  1  0.18680000  0.81180000  0.27950000  1.0 -0.1720396228
N  N42  1  0.18820000  0.81320000  0.77950000  1.0 -0.1720396228
N  N43  1  0.76731000  0.32689000  0.27497000  1.0 -0.4095244995
N  N44  1  0.67311000  0.23269000  0.77497000  1.0 -0.4095244995
N  N45  1  0.86028000  0.49192000  0.24803000  1.0 -0.4095244995
N  N46  1  0.50808000  0.13972000  0.74803000  1.0 -0.4095244995
N  N47  1  0.91849000  0.45031000  0.31437000  1.0 -0.4095244995
N  N48  1  0.54969000  0.08151000  0.81437000  1.0 -0.4095244995
