# DDEC6 charges by PACMAN v1.1 (https://github.com/mtap-research/PACMAN-charge/)
data_LABQEN_FSR_pacman
_symmetry_space_group_name_H-M   'P 1'
_cell_length_a   18.58680000
_cell_length_b   18.58680000
_cell_length_c   30.83770000
_cell_angle_alpha   80.27420000
_cell_angle_beta   99.72580000
_cell_angle_gamma   132.66200000
_symmetry_Int_Tables_number   1
_chemical_formula_structural   ZnH4C6(IN)2
_chemical_formula_sum   'Zn24 H96 C144 I48 N48'
_cell_volume   7699.76472735
_cell_formula_units_Z   24
loop_
 _symmetry_equiv_pos_site_id
 _symmetry_equiv_pos_as_xyz
  1  'x, y, z'
loop_
 _atom_site_type_symbol
 _atom_site_label
 _atom_site_symmetry_multiplicity
 _atom_site_fract_x
 _atom_site_fract_y
 _atom_site_fract_z
 _atom_site_occupancy
 _atom_site_charge
Zn  Zn1  1  0.31815000  0.98025000  0.77250000  1.0 0.1421227228
Zn  Zn2  1  0.01975000  0.68185000  0.27250000  1.0 0.1421227228
Zn  Zn3  1  0.45189000  0.30811000  0.60100000  1.0 0.3769154296
Zn  Zn4  1  0.69189000  0.54811000  0.10100000  1.0 0.3769154296
Zn  Zn5  1  0.75889000  0.02551000  0.93670000  1.0 0.3381577914
Zn  Zn6  1  0.97449000  0.24111000  0.43670000  1.0 0.3381577914
Zn  Zn7  1  0.32890000  0.96810000  0.78610000  1.0 0.1853819237
Zn  Zn8  1  0.03190000  0.67110000  0.28610000  1.0 0.1773108215
Zn  Zn9  1  0.77220000  0.03820000  0.94650000  1.0 0.3500543893
Zn  Zn10  1  0.96180000  0.22780000  0.44650000  1.0 0.3500543893
Zn  Zn11  1  0.45360000  0.29940000  0.59700000  1.0 0.3933311225
Zn  Zn12  1  0.70060000  0.54640000  0.09700000  1.0 0.3933311225
Zn  Zn13  1  0.98025000  0.31815000  0.72750000  1.0 0.1421227228
Zn  Zn14  1  0.68185000  0.01975000  0.22750000  1.0 0.1469231815
Zn  Zn15  1  0.30811000  0.45189000  0.89900000  1.0 0.3769154296
Zn  Zn16  1  0.54811000  0.69189000  0.39900000  1.0 0.3769154296
Zn  Zn17  1  0.02551000  0.75889000  0.56330000  1.0 0.3381577914
Zn  Zn18  1  0.24111000  0.97449000  0.06330000  1.0 0.3381577914
Zn  Zn19  1  0.96810000  0.32890000  0.71390000  1.0 0.1853819237
Zn  Zn20  1  0.67110000  0.03190000  0.21390000  1.0 0.1773108215
Zn  Zn21  1  0.03820000  0.77220000  0.55350000  1.0 0.3500543893
Zn  Zn22  1  0.22780000  0.96180000  0.05350000  1.0 0.3500543893
Zn  Zn23  1  0.29940000  0.45360000  0.90300000  1.0 0.3960757227
Zn  Zn24  1  0.54640000  0.70060000  0.40300000  1.0 0.3960757227
H  H1  1  0.12000000  0.84320000  0.73100000  1.0 0.0698077404
H  H2  1  0.15680000  0.88000000  0.23100000  1.0 0.0698077404
H  H3  1  0.24520000  0.78400000  0.82550000  1.0 0.0698077404
H  H4  1  0.21600000  0.75480000  0.32550000  1.0 0.0698077404
H  H5  1  0.97800000  0.68160000  0.73070000  1.0 0.1217050728
H  H6  1  0.31840000  0.02200000  0.23070000  1.0 0.1217050728
H  H7  1  0.10870000  0.61830000  0.82600000  1.0 0.1217050728
H  H8  1  0.38170000  0.89130000  0.32600000  1.0 0.1217050728
H  H9  1  0.76590000  0.52230000  0.69310000  1.0 0.1119203837
H  H10  1  0.47770000  0.23410000  0.19310000  1.0 0.1119203837
H  H11  1  0.62460000  0.23560000  0.71900000  1.0 0.1119203837
H  H12  1  0.76440000  0.37540000  0.21900000  1.0 0.1119203837
H  H13  1  0.69420000  0.17840000  0.81030000  1.0 0.0969579563
H  H14  1  0.82160000  0.30580000  0.31030000  1.0 0.0969579563
H  H15  1  0.96480000  0.37240000  0.86940000  1.0 0.1119203837
H  H16  1  0.62760000  0.03520000  0.36940000  1.0 0.1119203837
H  H17  1  0.64030000  0.47970000  0.64020000  1.0 0.0698077404
H  H18  1  0.52030000  0.35970000  0.14020000  1.0 0.0698077404
H  H19  1  0.50660000  0.20100000  0.66230000  1.0 0.0698077404
H  H20  1  0.79900000  0.49340000  0.16230000  1.0 0.0698077404
H  H21  1  0.66790000  0.05730000  0.86080000  1.0 0.0500475758
H  H22  1  0.94270000  0.33210000  0.36080000  1.0 0.0500475758
H  H23  1  0.93020000  0.24700000  0.91890000  1.0 0.0819144835
H  H24  1  0.75300000  0.06980000  0.41890000  1.0 0.0819144835
H  H25  1  0.87510000  0.02210000  0.88940000  1.0 0.0698077404
H  H26  1  0.97790000  0.12490000  0.38940000  1.0 0.0698077404
H  H27  1  0.94290000  0.11230000  0.00780000  1.0 0.0698077404
H  H28  1  0.88770000  0.05710000  0.50780000  1.0 0.0698077404
H  H29  1  0.02300000  0.06240000  0.88970000  1.0 0.1217050728
H  H30  1  0.93760000  0.97700000  0.38970000  1.0 0.1217050728
H  H31  1  0.09460000  0.15400000  0.01070000  1.0 0.1217050728
H  H32  1  0.84600000  0.90540000  0.51070000  1.0 0.1217050728
H  H33  1  0.41800000  0.15420000  0.90980000  1.0 0.1217050728
H  H34  1  0.84580000  0.58200000  0.40980000  1.0 0.1217050728
H  H35  1  0.14480000  0.02660000  0.85430000  1.0 0.1217050728
H  H36  1  0.97340000  0.85520000  0.35430000  1.0 0.1217050728
H  H37  1  0.51180000  0.31400000  0.98230000  1.0 0.1296287187
H  H38  1  0.68600000  0.48820000  0.48230000  1.0 0.1296287187
H  H39  1  0.34910000  0.34910000  0.02880000  1.0 0.1296287187
H  H40  1  0.65090000  0.65090000  0.52880000  1.0 0.1296287187
H  H41  1  0.43200000  0.09080000  0.85800000  1.0 0.0574729935
H  H42  1  0.90920000  0.56800000  0.35800000  1.0 0.0574729935
H  H43  1  0.16950000  0.96790000  0.80320000  1.0 0.0698077404
H  H44  1  0.03210000  0.83050000  0.30320000  1.0 0.0698077404
H  H45  1  0.64580000  0.43320000  0.02800000  1.0 0.0819144835
H  H46  1  0.56680000  0.35420000  0.52800000  1.0 0.0819144835
H  H47  1  0.48710000  0.46990000  0.07180000  1.0 0.0698077404
H  H48  1  0.53010000  0.51290000  0.57180000  1.0 0.0698077404
H  H49  1  0.84320000  0.12000000  0.76900000  1.0 0.0698077404
H  H50  1  0.88000000  0.15680000  0.26900000  1.0 0.0698077404
H  H51  1  0.78400000  0.24520000  0.67450000  1.0 0.0698077404
H  H52  1  0.75480000  0.21600000  0.17450000  1.0 0.0698077404
H  H53  1  0.68160000  0.97800000  0.76930000  1.0 0.1217050728
H  H54  1  0.02200000  0.31840000  0.26930000  1.0 0.1217050728
H  H55  1  0.61830000  0.10870000  0.67400000  1.0 0.1217050728
H  H56  1  0.89130000  0.38170000  0.17400000  1.0 0.1217050728
H  H57  1  0.52230000  0.76590000  0.80690000  1.0 0.1119203837
H  H58  1  0.23410000  0.47770000  0.30690000  1.0 0.1119203837
H  H59  1  0.23560000  0.62460000  0.78100000  1.0 0.1119203837
H  H60  1  0.37540000  0.76440000  0.28100000  1.0 0.1119203837
H  H61  1  0.17840000  0.69420000  0.68970000  1.0 0.0969579563
H  H62  1  0.30580000  0.82160000  0.18970000  1.0 0.0969579563
H  H63  1  0.37240000  0.96480000  0.63060000  1.0 0.1119203837
H  H64  1  0.03520000  0.62760000  0.13060000  1.0 0.1119203837
H  H65  1  0.47970000  0.64030000  0.85980000  1.0 0.0698077404
H  H66  1  0.35970000  0.52030000  0.35980000  1.0 0.0698077404
H  H67  1  0.20100000  0.50660000  0.83770000  1.0 0.0698077404
H  H68  1  0.49340000  0.79900000  0.33770000  1.0 0.0698077404
H  H69  1  0.05730000  0.66790000  0.63920000  1.0 0.0500475758
H  H70  1  0.33210000  0.94270000  0.13920000  1.0 0.0500475758
H  H71  1  0.24700000  0.93020000  0.58110000  1.0 0.0819144835
H  H72  1  0.06980000  0.75300000  0.08110000  1.0 0.0819144835
H  H73  1  0.02210000  0.87510000  0.61060000  1.0 0.0698077404
H  H74  1  0.12490000  0.97790000  0.11060000  1.0 0.0698077404
H  H75  1  0.11230000  0.94290000  0.49220000  1.0 0.0698077404
H  H76  1  0.05710000  0.88770000  0.99220000  1.0 0.0698077404
H  H77  1  0.06240000  0.02300000  0.61030000  1.0 0.1217050728
H  H78  1  0.97700000  0.93760000  0.11030000  1.0 0.1217050728
H  H79  1  0.15400000  0.09460000  0.48930000  1.0 0.1217050728
H  H80  1  0.90540000  0.84600000  0.98930000  1.0 0.1217050728
H  H81  1  0.15420000  0.41800000  0.59020000  1.0 0.1217050728
H  H82  1  0.58200000  0.84580000  0.09020000  1.0 0.1217050728
H  H83  1  0.02660000  0.14480000  0.64570000  1.0 0.1217050728
H  H84  1  0.85520000  0.97340000  0.14570000  1.0 0.1217050728
H  H85  1  0.31400000  0.51180000  0.51770000  1.0 0.1296287187
H  H86  1  0.48820000  0.68600000  0.01770000  1.0 0.1296287187
H  H87  1  0.34910000  0.34910000  0.47120000  1.0 0.1296287187
H  H88  1  0.65090000  0.65090000  0.97120000  1.0 0.1296287187
H  H89  1  0.09080000  0.43200000  0.64200000  1.0 0.0574729935
H  H90  1  0.56800000  0.90920000  0.14200000  1.0 0.0574729935
H  H91  1  0.96790000  0.16950000  0.69680000  1.0 0.0698077404
H  H92  1  0.83050000  0.03210000  0.19680000  1.0 0.0698077404
H  H93  1  0.43320000  0.64580000  0.47200000  1.0 0.0819144835
H  H94  1  0.35420000  0.56680000  0.97200000  1.0 0.0819144835
H  H95  1  0.46990000  0.48710000  0.42820000  1.0 0.0698077404
H  H96  1  0.51290000  0.53010000  0.92820000  1.0 0.0698077404
C  C1  1  0.11730000  0.79650000  0.75090000  1.0 0.0328515745
C  C2  1  0.20350000  0.88270000  0.25090000  1.0 0.0328515745
C  C3  1  0.19030000  0.76210000  0.80540000  1.0 0.0328515745
C  C4  1  0.23790000  0.80970000  0.30540000  1.0 0.0328515745
C  C5  1  0.03250000  0.70090000  0.75060000  1.0 -0.169601122
C  C6  1  0.29910000  0.96750000  0.25060000  1.0 -0.169601122
C  C7  1  0.10860000  0.66380000  0.80660000  1.0 -0.169601122
C  C8  1  0.33620000  0.89140000  0.30660000  1.0 -0.169601122
C  C9  1  0.02700000  0.63220000  0.77970000  1.0 0.0500475758
C  C10  1  0.36780000  0.97300000  0.27970000  1.0 0.0500475758
C  C11  1  0.93460000  0.52600000  0.77960000  1.0 0.3381577914
C  C12  1  0.47400000  0.06540000  0.27960000  1.0 0.3319787056
C  C13  1  0.78720000  0.41160000  0.74630000  1.0 0.3500543893
C  C14  1  0.58840000  0.21280000  0.24630000  1.0 0.3500543893
C  C15  1  0.84630000  0.36730000  0.80380000  1.0 0.3555837245
C  C16  1  0.63270000  0.15370000  0.30380000  1.0 0.3500543893
C  C17  1  0.70730000  0.38310000  0.71160000  1.0 0.0698077404
C  C18  1  0.61690000  0.29270000  0.21160000  1.0 0.0698077404
C  C19  1  0.83070000  0.28910000  0.83500000  1.0 0.0420039755
C  C20  1  0.71090000  0.16930000  0.33500000  1.0 0.0420039755
C  C21  1  0.71220000  0.45540000  0.68770000  1.0 -0.1514363921
C  C22  1  0.54460000  0.28780000  0.18770000  1.0 -0.1514363921
C  C23  1  0.63000000  0.28700000  0.70270000  1.0 -0.1514363921
C  C24  1  0.71300000  0.37000000  0.20270000  1.0 -0.1514363921
C  C25  1  0.74410000  0.19450000  0.83270000  1.0 -0.1514363921
C  C26  1  0.80550000  0.25590000  0.33270000  1.0 -0.1514363921
C  C27  1  0.90220000  0.30800000  0.86740000  1.0 -0.163068547
C  C28  1  0.69200000  0.09780000  0.36740000  1.0 -0.163068547
C  C29  1  0.63800000  0.42960000  0.65580000  1.0 0.0328515745
C  C30  1  0.57040000  0.36200000  0.15580000  1.0 0.0328515745
C  C31  1  0.55960000  0.26720000  0.66910000  1.0 0.0420039755
C  C32  1  0.73280000  0.44040000  0.16910000  1.0 0.0420039755
C  C33  1  0.72900000  0.12280000  0.86270000  1.0 0.0180408106
C  C34  1  0.87720000  0.27100000  0.36270000  1.0 0.0180408106
C  C35  1  0.88140000  0.23280000  0.89630000  1.0 0.0500475758
C  C36  1  0.76720000  0.11860000  0.39630000  1.0 0.0500475758
C  C37  1  0.92040000  0.04980000  0.91460000  1.0 0.0574729935
C  C38  1  0.95020000  0.07960000  0.41460000  1.0 0.0574729935
C  C39  1  0.95960000  0.10200000  0.98350000  1.0 0.0500475758
C  C40  1  0.89800000  0.04040000  0.48350000  1.0 0.0500475758
C  C41  1  0.00790000  0.07310000  0.91450000  1.0 -0.163068547
C  C42  1  0.92690000  0.99210000  0.41450000  1.0 -0.163068547
C  C43  1  0.05010000  0.12690000  0.98520000  1.0 -0.1514363921
C  C44  1  0.87310000  0.94990000  0.48520000  1.0 -0.1514363921
C  C45  1  0.07410000  0.11230000  0.95110000  1.0 0.0500475758
C  C46  1  0.88770000  0.92590000  0.45110000  1.0 0.0500475758
C  C47  1  0.17030000  0.14330000  0.95120000  1.0 0.3319787056
C  C48  1  0.85670000  0.82970000  0.45120000  1.0 0.3319787056
C  C49  1  0.26780000  0.13740000  0.92070000  1.0 0.3319787056
C  C50  1  0.86260000  0.73220000  0.42070000  1.0 0.3319787056
C  C51  1  0.32890000  0.23770000  0.97420000  1.0 0.3141669006
C  C52  1  0.76230000  0.67110000  0.47420000  1.0 0.3141669006
C  C53  1  0.28090000  0.09850000  0.88730000  1.0 0.0420039755
C  C54  1  0.90150000  0.71910000  0.38730000  1.0 0.0420039755
C  C55  1  0.41550000  0.31650000  0.00240000  1.0 0.0574729935
C  C56  1  0.68350000  0.58450000  0.50240000  1.0 0.0574729935
C  C57  1  0.36560000  0.11620000  0.88800000  1.0 -0.163068547
C  C58  1  0.88380000  0.63440000  0.38800000  1.0 -0.163068547
C  C59  1  0.20490000  0.04130000  0.85530000  1.0 -0.169601122
C  C60  1  0.95870000  0.79510000  0.35530000  1.0 -0.169601122
C  C61  1  0.50450000  0.34370000  0.00130000  1.0 -0.1514363921
C  C62  1  0.65630000  0.49550000  0.50130000  1.0 -0.1514363921
C  C63  1  0.40930000  0.36450000  0.02830000  1.0 -0.169601122
C  C64  1  0.63550000  0.59070000  0.52830000  1.0 -0.169601122
C  C65  1  0.37310000  0.07850000  0.85710000  1.0 0.0180408106
C  C66  1  0.92150000  0.62690000  0.35710000  1.0 0.0180408106
C  C67  1  0.22080000  0.00680000  0.82520000  1.0 0.0574729935
C  C68  1  0.99320000  0.77920000  0.32520000  1.0 0.0574729935
C  C69  1  0.58440000  0.41540000  0.02830000  1.0 0.0420039755
C  C70  1  0.58460000  0.41560000  0.52830000  1.0 0.0420039755
C  C71  1  0.49200000  0.43640000  0.05400000  1.0 0.0420039755
C  C72  1  0.56360000  0.50800000  0.55400000  1.0 0.0420039755
C  C73  1  0.79650000  0.11730000  0.74910000  1.0 0.0328515745
C  C74  1  0.88270000  0.20350000  0.24910000  1.0 0.0328515745
C  C75  1  0.76210000  0.19030000  0.69460000  1.0 0.0328515745
C  C76  1  0.80970000  0.23790000  0.19460000  1.0 0.0328515745
C  C77  1  0.70090000  0.03250000  0.74940000  1.0 -0.169601122
C  C78  1  0.96750000  0.29910000  0.24940000  1.0 -0.169601122
C  C79  1  0.66380000  0.10860000  0.69340000  1.0 -0.169601122
C  C80  1  0.89140000  0.33620000  0.19340000  1.0 -0.169601122
C  C81  1  0.63220000  0.02700000  0.72030000  1.0 0.0500475758
C  C82  1  0.97300000  0.36780000  0.22030000  1.0 0.0500475758
C  C83  1  0.52600000  0.93460000  0.72040000  1.0 0.3381577914
C  C84  1  0.06540000  0.47400000  0.22040000  1.0 0.3381577914
C  C85  1  0.41160000  0.78720000  0.75370000  1.0 0.3500543893
C  C86  1  0.21280000  0.58840000  0.25370000  1.0 0.3500543893
C  C87  1  0.36730000  0.84630000  0.69620000  1.0 0.3500543893
C  C88  1  0.15370000  0.63270000  0.19620000  1.0 0.3555837245
C  C89  1  0.38310000  0.70730000  0.78840000  1.0 0.0698077404
C  C90  1  0.29270000  0.61690000  0.28840000  1.0 0.0698077404
C  C91  1  0.28910000  0.83070000  0.66500000  1.0 0.0420039755
C  C92  1  0.16930000  0.71090000  0.16500000  1.0 0.0420039755
C  C93  1  0.45540000  0.71220000  0.81230000  1.0 -0.1514363921
C  C94  1  0.28780000  0.54460000  0.31230000  1.0 -0.1514363921
C  C95  1  0.28700000  0.63000000  0.79730000  1.0 -0.1514363921
C  C96  1  0.37000000  0.71300000  0.29730000  1.0 -0.1514363921
C  C97  1  0.19450000  0.74410000  0.66730000  1.0 -0.1514363921
C  C98  1  0.25590000  0.80550000  0.16730000  1.0 -0.1514363921
C  C99  1  0.30800000  0.90220000  0.63260000  1.0 -0.163068547
C  C100  1  0.09780000  0.69200000  0.13260000  1.0 -0.163068547
C  C101  1  0.42960000  0.63800000  0.84420000  1.0 0.0328515745
C  C102  1  0.36200000  0.57040000  0.34420000  1.0 0.0328515745
C  C103  1  0.26720000  0.55960000  0.83090000  1.0 0.0420039755
C  C104  1  0.44040000  0.73280000  0.33090000  1.0 0.0420039755
C  C105  1  0.12280000  0.72900000  0.63730000  1.0 0.0180408106
C  C106  1  0.27100000  0.87720000  0.13730000  1.0 0.0180408106
C  C107  1  0.23280000  0.88140000  0.60370000  1.0 0.0500475758
C  C108  1  0.11860000  0.76720000  0.10370000  1.0 0.0500475758
C  C109  1  0.04980000  0.92040000  0.58540000  1.0 0.0574729935
C  C110  1  0.07960000  0.95020000  0.08540000  1.0 0.0574729935
C  C111  1  0.10200000  0.95960000  0.51650000  1.0 0.0500475758
C  C112  1  0.04040000  0.89800000  0.01650000  1.0 0.0500475758
C  C113  1  0.07310000  0.00790000  0.58550000  1.0 -0.163068547
C  C114  1  0.99210000  0.92690000  0.08550000  1.0 -0.163068547
C  C115  1  0.12690000  0.05010000  0.51480000  1.0 -0.1514363921
C  C116  1  0.94990000  0.87310000  0.01480000  1.0 -0.1514363921
C  C117  1  0.11230000  0.07410000  0.54890000  1.0 0.0500475758
C  C118  1  0.92590000  0.88770000  0.04890000  1.0 0.0500475758
C  C119  1  0.14330000  0.17030000  0.54880000  1.0 0.3319787056
C  C120  1  0.82970000  0.85670000  0.04880000  1.0 0.3319787056
C  C121  1  0.13740000  0.26780000  0.57930000  1.0 0.3319787056
C  C122  1  0.73220000  0.86260000  0.07930000  1.0 0.3319787056
C  C123  1  0.23770000  0.32890000  0.52580000  1.0 0.3141669006
C  C124  1  0.67110000  0.76230000  0.02580000  1.0 0.3141669006
C  C125  1  0.09850000  0.28090000  0.61270000  1.0 0.0420039755
C  C126  1  0.71910000  0.90150000  0.11270000  1.0 0.0420039755
C  C127  1  0.31650000  0.41550000  0.49760000  1.0 0.0574729935
C  C128  1  0.58450000  0.68350000  0.99760000  1.0 0.0574729935
C  C129  1  0.11620000  0.36560000  0.61200000  1.0 -0.163068547
C  C130  1  0.63440000  0.88380000  0.11200000  1.0 -0.163068547
C  C131  1  0.04130000  0.20490000  0.64470000  1.0 -0.169601122
C  C132  1  0.79510000  0.95870000  0.14470000  1.0 -0.169601122
C  C133  1  0.34370000  0.50450000  0.49870000  1.0 -0.1514363921
C  C134  1  0.49550000  0.65630000  0.99870000  1.0 -0.1514363921
C  C135  1  0.36450000  0.40930000  0.47170000  1.0 -0.169601122
C  C136  1  0.59070000  0.63550000  0.97170000  1.0 -0.169601122
C  C137  1  0.07850000  0.37310000  0.64290000  1.0 0.0180408106
C  C138  1  0.62690000  0.92150000  0.14290000  1.0 0.0180408106
C  C139  1  0.00680000  0.22080000  0.67480000  1.0 0.0574729935
C  C140  1  0.77920000  0.99320000  0.17480000  1.0 0.0574729935
C  C141  1  0.41540000  0.58440000  0.47170000  1.0 0.0420039755
C  C142  1  0.41560000  0.58460000  0.97170000  1.0 0.0420039755
C  C143  1  0.43640000  0.49200000  0.44600000  1.0 0.0420039755
C  C144  1  0.50800000  0.56360000  0.94600000  1.0 0.0420039755
I  I1  1  0.29514000  0.05826000  0.70124000  1.0 0.0328515745
I  I2  1  0.94174000  0.70486000  0.20124000  1.0 0.0328515745
I  I3  1  0.47071000  0.00729000  0.79551000  1.0 -0.0313165454
I  I4  1  0.99271000  0.52929000  0.29551000  1.0 -0.0313165454
I  I5  1  0.37321000  0.15257000  0.56434000  1.0 -0.3567171722
I  I6  1  0.84743000  0.62679000  0.06434000  1.0 -0.3545514374
I  I7  1  0.36277000  0.33863000  0.63747000  1.0 -0.0987704537
I  I8  1  0.66137000  0.63723000  0.13747000  1.0 -0.0942374586
I  I9  1  0.63369000  0.86811000  0.89779000  1.0 0.0077295219
I  I10  1  0.13189000  0.36631000  0.39779000  1.0 0.0034539838
I  I11  1  0.73524000  0.04696000  0.00962000  1.0 -0.106799896
I  I12  1  0.95304000  0.26476000  0.50962000  1.0 -0.0987704537
I  I13  1  0.32830000  0.05330000  0.71130000  1.0 -0.0221994112
I  I14  1  0.94670000  0.67170000  0.21130000  1.0 -0.0221994112
I  I15  1  0.46740000  0.97540000  0.81680000  1.0 0.0420039755
I  I16  1  0.02460000  0.53260000  0.31680000  1.0 0.0328515745
I  I17  1  0.75420000  0.08300000  0.01590000  1.0 -0.0385753551
I  I18  1  0.91700000  0.24580000  0.51590000  1.0 -0.0385753551
I  I19  1  0.64148000  0.87432000  0.91230000  1.0 -0.0313165454
I  I20  1  0.12568000  0.35852000  0.41230000  1.0 -0.0313165454
I  I21  1  0.35800000  0.31920000  0.63510000  1.0 -0.0942374586
I  I22  1  0.68080000  0.64200000  0.13510000  1.0 -0.0942374586
I  I23  1  0.37960000  0.14820000  0.56500000  1.0 -0.4032563894
I  I24  1  0.85180000  0.62040000  0.06500000  1.0 -0.4032563894
I  I25  1  0.05826000  0.29514000  0.79876000  1.0 0.0328515745
I  I26  1  0.70486000  0.94174000  0.29876000  1.0 0.0328515745
I  I27  1  0.00729000  0.47071000  0.70449000  1.0 -0.0313165454
I  I28  1  0.52929000  0.99271000  0.20449000  1.0 -0.0313165454
I  I29  1  0.15257000  0.37321000  0.93566000  1.0 -0.3567171722
I  I30  1  0.62679000  0.84743000  0.43566000  1.0 -0.3567171722
I  I31  1  0.33863000  0.36277000  0.86253000  1.0 -0.0987704537
I  I32  1  0.63723000  0.66137000  0.36253000  1.0 -0.0987704537
I  I33  1  0.86811000  0.63369000  0.60221000  1.0 0.0077295219
I  I34  1  0.36631000  0.13189000  0.10221000  1.0 0.0077295219
I  I35  1  0.04696000  0.73524000  0.49038000  1.0 -0.0987704537
I  I36  1  0.26476000  0.95304000  0.99038000  1.0 -0.0987704537
I  I37  1  0.05330000  0.32830000  0.78870000  1.0 -0.0221994112
I  I38  1  0.67170000  0.94670000  0.28870000  1.0 -0.0221994112
I  I39  1  0.97540000  0.46740000  0.68320000  1.0 0.0328515745
I  I40  1  0.53260000  0.02460000  0.18320000  1.0 0.0328515745
I  I41  1  0.08300000  0.75420000  0.48410000  1.0 -0.0385753551
I  I42  1  0.24580000  0.91700000  0.98410000  1.0 -0.0385753551
I  I43  1  0.87432000  0.64148000  0.58770000  1.0 -0.0313165454
I  I44  1  0.35852000  0.12568000  0.08770000  1.0 -0.0313165454
I  I45  1  0.31920000  0.35800000  0.86490000  1.0 -0.0942374586
I  I46  1  0.64200000  0.68080000  0.36490000  1.0 -0.0942374586
I  I47  1  0.14820000  0.37960000  0.93500000  1.0 -0.4032563894
I  I48  1  0.62040000  0.85180000  0.43500000  1.0 -0.4032563894
N  N1  1  0.30160000  0.02400000  0.82480000  1.0 -0.1815351835
N  N2  1  0.97600000  0.69840000  0.32480000  1.0 -0.1815351835
N  N3  1  0.19600000  0.82820000  0.77730000  1.0 -0.1815351835
N  N4  1  0.17180000  0.80400000  0.27730000  1.0 -0.1815351835
N  N5  1  0.86457000  0.50583000  0.74900000  1.0 -0.4363286166
N  N6  1  0.49417000  0.13543000  0.24900000  1.0 -0.4308899047
N  N7  1  0.92950000  0.46130000  0.80820000  1.0 -0.4308899047
N  N8  1  0.53870000  0.07050000  0.30820000  1.0 -0.4308899047
N  N9  1  0.77336000  0.33804000  0.77250000  1.0 -0.4308899047
N  N10  1  0.66196000  0.22664000  0.27250000  1.0 -0.4308899047
N  N11  1  0.56310000  0.33650000  0.64610000  1.0 -0.1887224271
N  N12  1  0.66350000  0.43690000  0.14610000  1.0 -0.1887224271
N  N13  1  0.79720000  0.14180000  0.89460000  1.0 -0.2009707271
N  N14  1  0.85820000  0.20280000  0.39460000  1.0 -0.2009707271
N  N15  1  0.54040000  0.42360000  0.55470000  1.0 -0.2086227491
N  N16  1  0.57640000  0.45960000  0.05470000  1.0 -0.2086227491
N  N17  1  0.89680000  0.06380000  0.94760000  1.0 -0.2188741035
N  N18  1  0.93620000  0.10320000  0.44760000  1.0 -0.2188741035
N  N19  1  0.17760000  0.10400000  0.92180000  1.0 -0.45247583
N  N20  1  0.89600000  0.82240000  0.42180000  1.0 -0.45247583
N  N21  1  0.24378000  0.21022000  0.97860000  1.0 -0.4363286166
N  N22  1  0.78978000  0.75622000  0.47860000  1.0 -0.4363286166
N  N23  1  0.34540000  0.20320000  0.94630000  1.0 -0.45247583
N  N24  1  0.79680000  0.65460000  0.44630000  1.0 -0.45247583
N  N25  1  0.02400000  0.30160000  0.67520000  1.0 -0.1815351835
N  N26  1  0.69840000  0.97600000  0.17520000  1.0 -0.1815351835
N  N27  1  0.82820000  0.19600000  0.72270000  1.0 -0.1815351835
N  N28  1  0.80400000  0.17180000  0.22270000  1.0 -0.1815351835
N  N29  1  0.50583000  0.86457000  0.75100000  1.0 -0.4308899047
N  N30  1  0.13543000  0.49417000  0.25100000  1.0 -0.4308899047
N  N31  1  0.46130000  0.92950000  0.69180000  1.0 -0.4308899047
N  N32  1  0.07050000  0.53870000  0.19180000  1.0 -0.4308899047
N  N33  1  0.33804000  0.77336000  0.72750000  1.0 -0.4308899047
N  N34  1  0.22664000  0.66196000  0.22750000  1.0 -0.4308899047
N  N35  1  0.33650000  0.56310000  0.85390000  1.0 -0.1887224271
N  N36  1  0.43690000  0.66350000  0.35390000  1.0 -0.1887224271
N  N37  1  0.14180000  0.79720000  0.60540000  1.0 -0.2009707271
N  N38  1  0.20280000  0.85820000  0.10540000  1.0 -0.2009707271
N  N39  1  0.42360000  0.54040000  0.94530000  1.0 -0.2086227491
N  N40  1  0.45960000  0.57640000  0.44530000  1.0 -0.2086227491
N  N41  1  0.06380000  0.89680000  0.55240000  1.0 -0.2188741035
N  N42  1  0.10320000  0.93620000  0.05240000  1.0 -0.2188741035
N  N43  1  0.10400000  0.17760000  0.57820000  1.0 -0.45247583
N  N44  1  0.82240000  0.89600000  0.07820000  1.0 -0.45247583
N  N45  1  0.21022000  0.24378000  0.52140000  1.0 -0.4363286166
N  N46  1  0.75622000  0.78978000  0.02140000  1.0 -0.4363286166
N  N47  1  0.20320000  0.34540000  0.55370000  1.0 -0.45247583
N  N48  1  0.65460000  0.79680000  0.05370000  1.0 -0.45247583
