# DDEC6 charges by PACMAN v1.1 (https://github.com/mtap-research/PACMAN-charge/)
data_LACYIA_FSR_pacman
_symmetry_space_group_name_H-M   'P 1'
_cell_length_a   23.48200000
_cell_length_b   23.48200000
_cell_length_c   16.31800000
_cell_angle_alpha   90.00000000
_cell_angle_beta   90.00000000
_cell_angle_gamma   120.00000000
_symmetry_Int_Tables_number   1
_chemical_formula_structural   Na6Pr2Zn3H96C156(N4O25)3
_chemical_formula_sum   'Na6 Pr2 Zn3 H96 C156 N12 O75'
_cell_volume   7792.33702589
_cell_formula_units_Z   1
loop_
 _symmetry_equiv_pos_site_id
 _symmetry_equiv_pos_as_xyz
  1  'x, y, z'
loop_
 _atom_site_type_symbol
 _atom_site_label
 _atom_site_symmetry_multiplicity
 _atom_site_fract_x
 _atom_site_fract_y
 _atom_site_fract_z
 _atom_site_occupancy
 _atom_site_charge
Na  Na1  1  0.51045000  0.37255000  0.00301000  1.0 0.8731792261
Na  Na2  1  0.62745000  0.13790000  0.00301000  1.0 0.8731792261
Na  Na3  1  0.86210000  0.48955000  0.00301000  1.0 0.8731792261
Na  Na4  1  0.37255000  0.51045000  0.99699000  1.0 0.8731792261
Na  Na5  1  0.13790000  0.62745000  0.99699000  1.0 0.8731792261
Na  Na6  1  0.48955000  0.86210000  0.99699000  1.0 0.8731792261
Pr  Pr1  1  0.66666667  0.33333333  0.03450000  1.0 2.0865515162
Pr  Pr2  1  0.33333333  0.66666667  0.96550000  1.0 2.0865515162
Zn  Zn1  1  0.63129000  0.63129000  0.50000000  1.0 0.7233119895
Zn  Zn2  1  0.36871000  0.00000000  0.50000000  1.0 0.7233119895
Zn  Zn3  1  0.00000000  0.36871000  0.50000000  1.0 0.7233119895
H  H1  1  0.54170000  0.50140000  0.50450000  1.0 0.4105529179
H  H2  1  0.49860000  0.04030000  0.50450000  1.0 0.4105529179
H  H3  1  0.95970000  0.45830000  0.50450000  1.0 0.4105529179
H  H4  1  0.50140000  0.54170000  0.49550000  1.0 0.4105529179
H  H5  1  0.04030000  0.49860000  0.49550000  1.0 0.4105529179
H  H6  1  0.45830000  0.95970000  0.49550000  1.0 0.4105529179
H  H7  1  0.96920000  0.66180000  0.78710000  1.0 0.2691744556
H  H8  1  0.33820000  0.30740000  0.78710000  1.0 0.2691744556
H  H9  1  0.69260000  0.03080000  0.78710000  1.0 0.2691744556
H  H10  1  0.66180000  0.96920000  0.21290000  1.0 0.2691744556
H  H11  1  0.30740000  0.33820000  0.21290000  1.0 0.2691744556
H  H12  1  0.03080000  0.69260000  0.21290000  1.0 0.2691744556
H  H13  1  0.69890000  0.61680000  0.20250000  1.0 0.1209046902
H  H14  1  0.38320000  0.08210000  0.20250000  1.0 0.1209046902
H  H15  1  0.91790000  0.30110000  0.20250000  1.0 0.1209046902
H  H16  1  0.61680000  0.69890000  0.79750000  1.0 0.1209046902
H  H17  1  0.08210000  0.38320000  0.79750000  1.0 0.1209046902
H  H18  1  0.30110000  0.91790000  0.79750000  1.0 0.1209046902
H  H19  1  0.68120000  0.49580000  0.25000000  1.0 0.1209046902
H  H20  1  0.50420000  0.18540000  0.25000000  1.0 0.1209046902
H  H21  1  0.81460000  0.31880000  0.25000000  1.0 0.1209046902
H  H22  1  0.49580000  0.68120000  0.75000000  1.0 0.1209046902
H  H23  1  0.18540000  0.50420000  0.75000000  1.0 0.1209046902
H  H24  1  0.31880000  0.81460000  0.75000000  1.0 0.1209046902
H  H25  1  0.76270000  0.49000000  0.90800000  1.0 0.1276070584
H  H26  1  0.51000000  0.27270000  0.90800000  1.0 0.1276070584
H  H27  1  0.72730000  0.23730000  0.90800000  1.0 0.1276070584
H  H28  1  0.49000000  0.76270000  0.09200000  1.0 0.1276070584
H  H29  1  0.27270000  0.51000000  0.09200000  1.0 0.1276070584
H  H30  1  0.23730000  0.72730000  0.09200000  1.0 0.1276070584
H  H31  1  0.62290000  0.49890000  0.77220000  1.0 0.1209046902
H  H32  1  0.50110000  0.12400000  0.77220000  1.0 0.1209046902
H  H33  1  0.87600000  0.37710000  0.77220000  1.0 0.1209046902
H  H34  1  0.49890000  0.62290000  0.22780000  1.0 0.1209046902
H  H35  1  0.12400000  0.50110000  0.22780000  1.0 0.1209046902
H  H36  1  0.37710000  0.87600000  0.22780000  1.0 0.1209046902
H  H37  1  0.81540000  0.61630000  0.71720000  1.0 0.1209046902
H  H38  1  0.38370000  0.19910000  0.71720000  1.0 0.1209046902
H  H39  1  0.80090000  0.18460000  0.71720000  1.0 0.1209046902
H  H40  1  0.61630000  0.81540000  0.28280000  1.0 0.1209046902
H  H41  1  0.19910000  0.38370000  0.28280000  1.0 0.1209046902
H  H42  1  0.18460000  0.80090000  0.28280000  1.0 0.1209046902
H  H43  1  0.77580000  0.52590000  0.45180000  1.0 0.1276070584
H  H44  1  0.47410000  0.24990000  0.45180000  1.0 0.1276070584
H  H45  1  0.75010000  0.22420000  0.45180000  1.0 0.1276070584
H  H46  1  0.52590000  0.77580000  0.54820000  1.0 0.1276070584
H  H47  1  0.24990000  0.47410000  0.54820000  1.0 0.1276070584
H  H48  1  0.22420000  0.75010000  0.54820000  1.0 0.1276070584
H  H49  1  0.85850000  0.54090000  0.15700000  1.0 0.1120222611
H  H50  1  0.45910000  0.31760000  0.15700000  1.0 0.1120222611
H  H51  1  0.68240000  0.14150000  0.15700000  1.0 0.1120222611
H  H52  1  0.54090000  0.85850000  0.84300000  1.0 0.1120222611
H  H53  1  0.31760000  0.45910000  0.84300000  1.0 0.1120222611
H  H54  1  0.14150000  0.68240000  0.84300000  1.0 0.1120222611
H  H55  1  0.63080000  0.67070000  0.18860000  1.0 0.1276070584
H  H56  1  0.32930000  0.96010000  0.18860000  1.0 0.1276070584
H  H57  1  0.03990000  0.36920000  0.18860000  1.0 0.1276070584
H  H58  1  0.67070000  0.63080000  0.81140000  1.0 0.1276070584
H  H59  1  0.96010000  0.32930000  0.81140000  1.0 0.1276070584
H  H60  1  0.36920000  0.03990000  0.81140000  1.0 0.1276070584
H  H61  1  0.76180000  0.52230000  0.60260000  1.0 0.1276070584
H  H62  1  0.47770000  0.23950000  0.60260000  1.0 0.1276070584
H  H63  1  0.76050000  0.23820000  0.60260000  1.0 0.1276070584
H  H64  1  0.52230000  0.76180000  0.39740000  1.0 0.1276070584
H  H65  1  0.23950000  0.47770000  0.39740000  1.0 0.1276070584
H  H66  1  0.23820000  0.76050000  0.39740000  1.0 0.1276070584
H  H67  1  0.84530000  0.64160000  0.35150000  1.0 0.1120222611
H  H68  1  0.35840000  0.20370000  0.35150000  1.0 0.1120222611
H  H69  1  0.79630000  0.15470000  0.35150000  1.0 0.1120222611
H  H70  1  0.64160000  0.84530000  0.64850000  1.0 0.1120222611
H  H71  1  0.20370000  0.35840000  0.64850000  1.0 0.1120222611
H  H72  1  0.15470000  0.79630000  0.64850000  1.0 0.1120222611
H  H73  1  0.60860000  0.44380000  0.10780000  1.0 0.3725104024
H  H74  1  0.55620000  0.16480000  0.10780000  1.0 0.3725104024
H  H75  1  0.83520000  0.39140000  0.10780000  1.0 0.3725104024
H  H76  1  0.44380000  0.60860000  0.89220000  1.0 0.3725104024
H  H77  1  0.16480000  0.55620000  0.89220000  1.0 0.3725104024
H  H78  1  0.39140000  0.83520000  0.89220000  1.0 0.3725104024
H  H79  1  0.57540000  0.48130000  0.12390000  1.0 0.3785517205
H  H80  1  0.51870000  0.09410000  0.12390000  1.0 0.3785517205
H  H81  1  0.90590000  0.42460000  0.12390000  1.0 0.3785517205
H  H82  1  0.48130000  0.57540000  0.87610000  1.0 0.3785517205
H  H83  1  0.09410000  0.51870000  0.87610000  1.0 0.3785517205
H  H84  1  0.42460000  0.90590000  0.87610000  1.0 0.3785517205
H  H85  1  0.41110000  0.37370000  0.10730000  1.0 0.3785517205
H  H86  1  0.62630000  0.03740000  0.10730000  1.0 0.3785517205
H  H87  1  0.96260000  0.58890000  0.10730000  1.0 0.3785517205
H  H88  1  0.37370000  0.41110000  0.89270000  1.0 0.3785517205
H  H89  1  0.03740000  0.62630000  0.89270000  1.0 0.3785517205
H  H90  1  0.58890000  0.96260000  0.89270000  1.0 0.3785517205
H  H91  1  0.42150000  0.40590000  0.02450000  1.0 0.2755876372
H  H92  1  0.59410000  0.01560000  0.02450000  1.0 0.2755876372
H  H93  1  0.98440000  0.57850000  0.02450000  1.0 0.2755876372
H  H94  1  0.40590000  0.42150000  0.97550000  1.0 0.2755876372
H  H95  1  0.01560000  0.59410000  0.97550000  1.0 0.2755876372
H  H96  1  0.57850000  0.98440000  0.97550000  1.0 0.2755876372
C  C1  1  0.76552000  0.51118000  0.19261000  1.0 0.0057480125
C  C2  1  0.48882000  0.25434000  0.19261000  1.0 0.0057480125
C  C3  1  0.74566000  0.23448000  0.19261000  1.0 0.0057480125
C  C4  1  0.51118000  0.76552000  0.80739000  1.0 0.0057480125
C  C5  1  0.25434000  0.48882000  0.80739000  1.0 0.0057480125
C  C6  1  0.23448000  0.74566000  0.80739000  1.0 0.0057480125
C  C7  1  0.68340000  0.61737000  0.33100000  1.0 0.1733670779
C  C8  1  0.38263000  0.06603000  0.33100000  1.0 0.1733670779
C  C9  1  0.93397000  0.31660000  0.33100000  1.0 0.1733670779
C  C10  1  0.61737000  0.68340000  0.66900000  1.0 0.1733670779
C  C11  1  0.06603000  0.38263000  0.66900000  1.0 0.1733670779
C  C12  1  0.31660000  0.93397000  0.66900000  1.0 0.1733670779
C  C13  1  0.73150000  0.45665000  0.13084000  1.0 0.5956943025
C  C14  1  0.54335000  0.27485000  0.13084000  1.0 0.5956943025
C  C15  1  0.72515000  0.26850000  0.13084000  1.0 0.5956943025
C  C16  1  0.45665000  0.73150000  0.86916000  1.0 0.5956943025
C  C17  1  0.27485000  0.54335000  0.86916000  1.0 0.5956943025
C  C18  1  0.26850000  0.72515000  0.86916000  1.0 0.5956943025
C  C19  1  0.67930000  0.62800000  0.24590000  1.0 -0.1984811091
C  C20  1  0.37200000  0.05130000  0.24590000  1.0 -0.1984811091
C  C21  1  0.94870000  0.32070000  0.24590000  1.0 -0.1984811091
C  C22  1  0.62800000  0.67930000  0.75410000  1.0 -0.1984811091
C  C23  1  0.05130000  0.37200000  0.75410000  1.0 -0.1984811091
C  C24  1  0.32070000  0.94870000  0.75410000  1.0 -0.1984811091
C  C25  1  0.72769000  0.52269000  0.24990000  1.0 -0.1502594312
C  C26  1  0.47731000  0.20500000  0.24990000  1.0 -0.1502594312
C  C27  1  0.79500000  0.27231000  0.24990000  1.0 -0.1502594312
C  C28  1  0.52269000  0.72769000  0.75010000  1.0 -0.1502594312
C  C29  1  0.20500000  0.47731000  0.75010000  1.0 -0.1502594312
C  C30  1  0.27231000  0.79500000  0.75010000  1.0 -0.1502594312
C  C31  1  0.71236000  0.57666000  0.58320000  1.0 0.1733670779
C  C32  1  0.42334000  0.13570000  0.58320000  1.0 0.1733670779
C  C33  1  0.86430000  0.28764000  0.58320000  1.0 0.1733670779
C  C34  1  0.57666000  0.71236000  0.41680000  1.0 0.1733670779
C  C35  1  0.13570000  0.42334000  0.41680000  1.0 0.1733670779
C  C36  1  0.28764000  0.86430000  0.41680000  1.0 0.1733670779
C  C37  1  0.68474000  0.48675000  0.84800000  1.0 0.0024303425
C  C38  1  0.51325000  0.19799000  0.84800000  1.0 0.0024303425
C  C39  1  0.80201000  0.31526000  0.84800000  1.0 0.0024303425
C  C40  1  0.48675000  0.68474000  0.15200000  1.0 0.0024303425
C  C41  1  0.19799000  0.51325000  0.15200000  1.0 0.0024303425
C  C42  1  0.31526000  0.80201000  0.15200000  1.0 0.0024303425
C  C43  1  0.71881000  0.58942000  0.36596000  1.0 -0.0606396121
C  C44  1  0.41058000  0.12939000  0.36596000  1.0 -0.0606396121
C  C45  1  0.87061000  0.28119000  0.36596000  1.0 -0.0606396121
C  C46  1  0.58942000  0.71881000  0.63404000  1.0 -0.0606396121
C  C47  1  0.12939000  0.41058000  0.63404000  1.0 -0.0606396121
C  C48  1  0.28119000  0.87061000  0.63404000  1.0 -0.0606396121
C  C49  1  0.75090000  0.50864000  0.86405000  1.0 -0.1294104951
C  C50  1  0.49136000  0.24226000  0.86405000  1.0 -0.1294104951
C  C51  1  0.75774000  0.24910000  0.86405000  1.0 -0.1294104951
C  C52  1  0.50864000  0.75090000  0.13595000  1.0 -0.1294104951
C  C53  1  0.24226000  0.49136000  0.13595000  1.0 -0.1294104951
C  C54  1  0.24910000  0.75774000  0.13595000  1.0 -0.1294104951
C  C55  1  0.71601000  0.56071000  0.73235000  1.0 0.0775190507
C  C56  1  0.43929000  0.15530000  0.73235000  1.0 0.0775190507
C  C57  1  0.84470000  0.28399000  0.73235000  1.0 0.0775190507
C  C58  1  0.56071000  0.71601000  0.26765000  1.0 0.0775190507
C  C59  1  0.15530000  0.43929000  0.26765000  1.0 0.0775190507
C  C60  1  0.28399000  0.84470000  0.26765000  1.0 0.0775190507
C  C61  1  0.66794000  0.51331000  0.78269000  1.0 -0.1419968044
C  C62  1  0.48669000  0.15463000  0.78269000  1.0 -0.1419968044
C  C63  1  0.84537000  0.33206000  0.78269000  1.0 -0.1419968044
C  C64  1  0.51331000  0.66794000  0.21731000  1.0 -0.1419968044
C  C65  1  0.15463000  0.48669000  0.21731000  1.0 -0.1419968044
C  C66  1  0.33206000  0.84537000  0.21731000  1.0 -0.1419968044
C  C67  1  0.72320000  0.57864000  0.44900000  1.0 0.1754234572
C  C68  1  0.42136000  0.14456000  0.44900000  1.0 0.1754234572
C  C69  1  0.85544000  0.27680000  0.44900000  1.0 0.1754234572
C  C70  1  0.57864000  0.72320000  0.55100000  1.0 0.1754234572
C  C71  1  0.14456000  0.42136000  0.55100000  1.0 0.1754234572
C  C72  1  0.27680000  0.85544000  0.55100000  1.0 0.1754234572
C  C73  1  0.75854000  0.57354000  0.30660000  1.0 0.086373769
C  C74  1  0.42646000  0.18500000  0.30660000  1.0 0.086373769
C  C75  1  0.81500000  0.24146000  0.30660000  1.0 0.086373769
C  C76  1  0.57354000  0.75854000  0.69340000  1.0 0.086373769
C  C77  1  0.18500000  0.42646000  0.69340000  1.0 0.086373769
C  C78  1  0.24146000  0.81500000  0.69340000  1.0 0.086373769
C  C79  1  0.78197000  0.58311000  0.75029000  1.0 -0.1786371293
C  C80  1  0.41689000  0.19886000  0.75029000  1.0 -0.1786371293
C  C81  1  0.80114000  0.21803000  0.75029000  1.0 -0.1786371293
C  C82  1  0.58311000  0.78197000  0.24971000  1.0 -0.1786371293
C  C83  1  0.19886000  0.41689000  0.24971000  1.0 -0.1786371293
C  C84  1  0.21803000  0.80114000  0.24971000  1.0 -0.1786371293
C  C85  1  0.75416000  0.54417000  0.48210000  1.0 -0.1984811091
C  C86  1  0.45583000  0.20999000  0.48210000  1.0 -0.1900259583
C  C87  1  0.79001000  0.24584000  0.48210000  1.0 -0.1984811091
C  C88  1  0.54417000  0.75416000  0.51790000  1.0 -0.1984811091
C  C89  1  0.20999000  0.45583000  0.51790000  1.0 -0.1900259583
C  C90  1  0.24584000  0.79001000  0.51790000  1.0 -0.1984811091
C  C91  1  0.69562000  0.58737000  0.66170000  1.0 -0.0606396121
C  C92  1  0.41263000  0.10825000  0.66170000  1.0 -0.0606396121
C  C93  1  0.89175000  0.30438000  0.66170000  1.0 -0.0606396121
C  C94  1  0.58737000  0.69562000  0.33830000  1.0 -0.0606396121
C  C95  1  0.10825000  0.41263000  0.33830000  1.0 -0.0606396121
C  C96  1  0.30438000  0.89175000  0.33830000  1.0 -0.0606396121
C  C97  1  0.83277000  0.54860000  0.19550000  1.0 -0.1294104951
C  C98  1  0.45140000  0.28417000  0.19550000  1.0 -0.1294104951
C  C99  1  0.71583000  0.16723000  0.19550000  1.0 -0.1294104951
C  C100  1  0.54860000  0.83277000  0.80450000  1.0 -0.1294104951
C  C101  1  0.28417000  0.45140000  0.80450000  1.0 -0.1294104951
C  C102  1  0.16723000  0.71583000  0.80450000  1.0 -0.1294104951
C  C103  1  0.64194000  0.65740000  0.23820000  1.0 -0.1900259583
C  C104  1  0.34260000  0.98454000  0.23820000  1.0 -0.1900259583
C  C105  1  0.01546000  0.35806000  0.23820000  1.0 -0.1900259583
C  C106  1  0.65740000  0.64194000  0.76180000  1.0 -0.1900259583
C  C107  1  0.98454000  0.34260000  0.76180000  1.0 -0.1900259583
C  C108  1  0.35806000  0.01546000  0.76180000  1.0 -0.1900259583
C  C109  1  0.74684000  0.54248000  0.56440000  1.0 -0.1984811091
C  C110  1  0.45752000  0.20436000  0.56440000  1.0 -0.1984811091
C  C111  1  0.79564000  0.25316000  0.56440000  1.0 -0.1984811091
C  C112  1  0.54248000  0.74684000  0.43560000  1.0 -0.1984811091
C  C113  1  0.20436000  0.45752000  0.43560000  1.0 -0.1984811091
C  C114  1  0.25316000  0.79564000  0.43560000  1.0 -0.1984811091
C  C115  1  0.82475000  0.60884000  0.31040000  1.0 -0.1786371293
C  C116  1  0.39116000  0.21591000  0.31040000  1.0 -0.1786371293
C  C117  1  0.78409000  0.17525000  0.31040000  1.0 -0.1786371293
C  C118  1  0.60884000  0.82475000  0.68960000  1.0 -0.1786371293
C  C119  1  0.21591000  0.39116000  0.68960000  1.0 -0.1786371293
C  C120  1  0.17525000  0.78409000  0.68960000  1.0 -0.1786371293
C  C121  1  0.63189000  0.43456000  0.90000000  1.0 0.6196231534
C  C122  1  0.56544000  0.19733000  0.90000000  1.0 0.6196231534
C  C123  1  0.80267000  0.36811000  0.90000000  1.0 0.6196231534
C  C124  1  0.43456000  0.63189000  0.10000000  1.0 0.6196231534
C  C125  1  0.19733000  0.56544000  0.10000000  1.0 0.6196231534
C  C126  1  0.36811000  0.80267000  0.10000000  1.0 0.6196231534
C  C127  1  0.93710000  0.64030000  0.25840000  1.0 0.4712336799
C  C128  1  0.35970000  0.29680000  0.25840000  1.0 0.4712336799
C  C129  1  0.70320000  0.06290000  0.25840000  1.0 0.4712336799
C  C130  1  0.64030000  0.93710000  0.74160000  1.0 0.4712336799
C  C131  1  0.29680000  0.35970000  0.74160000  1.0 0.4712336799
C  C132  1  0.06290000  0.70320000  0.74160000  1.0 0.4712336799
C  C133  1  0.79917000  0.55730000  0.81620000  1.0 -0.0226008814
C  C134  1  0.44270000  0.24187000  0.81620000  1.0 -0.0226008814
C  C135  1  0.75813000  0.20083000  0.81620000  1.0 -0.0226008814
C  C136  1  0.55730000  0.79917000  0.18380000  1.0 -0.0226008814
C  C137  1  0.24187000  0.44270000  0.18380000  1.0 -0.0226008814
C  C138  1  0.20083000  0.75813000  0.18380000  1.0 -0.0226008814
C  C139  1  0.86386000  0.59781000  0.25420000  1.0 -0.0422134012
C  C140  1  0.40219000  0.26605000  0.25420000  1.0 -0.0422134012
C  C141  1  0.73395000  0.13614000  0.25420000  1.0 -0.0422134012
C  C142  1  0.59781000  0.86386000  0.74580000  1.0 -0.0422134012
C  C143  1  0.26605000  0.40219000  0.74580000  1.0 -0.0422134012
C  C144  1  0.13614000  0.73395000  0.74580000  1.0 -0.0422134012
C  C145  1  0.62289000  0.66429000  0.31900000  1.0 0.1733670779
C  C146  1  0.33571000  0.95860000  0.31900000  1.0 0.1733670779
C  C147  1  0.04140000  0.37711000  0.31900000  1.0 0.1733670779
C  C148  1  0.66429000  0.62289000  0.68100000  1.0 0.1733670779
C  C149  1  0.95860000  0.33571000  0.68100000  1.0 0.1733670779
C  C150  1  0.37711000  0.04140000  0.68100000  1.0 0.1733670779
C  C151  1  0.87009000  0.58380000  0.83730000  1.0 0.4908485403
C  C152  1  0.41620000  0.28629000  0.83730000  1.0 0.4908485403
C  C153  1  0.71371000  0.12991000  0.83730000  1.0 0.4908485403
C  C154  1  0.58380000  0.87009000  0.16270000  1.0 0.4908485403
C  C155  1  0.28629000  0.41620000  0.16270000  1.0 0.4908485403
C  C156  1  0.12991000  0.71371000  0.16270000  1.0 0.4908485403
N  N1  1  0.69653000  0.59674000  0.51126000  1.0 -0.3831919144
N  N2  1  0.40326000  0.09979000  0.51126000  1.0 -0.3831919144
N  N3  1  0.90021000  0.30347000  0.51126000  1.0 -0.3831919144
N  N4  1  0.59674000  0.69653000  0.48874000  1.0 -0.3831919144
N  N5  1  0.09979000  0.40326000  0.48874000  1.0 -0.3831919144
N  N6  1  0.30347000  0.90021000  0.48874000  1.0 -0.3831919144
N  N7  1  0.64872000  0.63940000  0.37512000  1.0 -0.3862986922
N  N8  1  0.36060000  0.00932000  0.37512000  1.0 -0.3862986922
N  N9  1  0.99068000  0.35128000  0.37512000  1.0 -0.3862986922
N  N10  1  0.63940000  0.64872000  0.62488000  1.0 -0.3862986922
N  N11  1  0.00932000  0.36060000  0.62488000  1.0 -0.3862986922
N  N12  1  0.35128000  0.99068000  0.62488000  1.0 -0.3862986922
O  O1  1  0.54178000  0.54178000  0.50000000  1.0 -0.7341028561
O  O2  1  0.45822000  0.00000000  0.50000000  1.0 -0.7341028561
O  O3  1  0.00000000  0.45822000  0.50000000  1.0 -0.7341028561
O  O4  1  0.76382000  0.45435000  0.07162000  1.0 -0.6528959583
O  O5  1  0.54565000  0.30947000  0.07162000  1.0 -0.6528959583
O  O6  1  0.69053000  0.23618000  0.07162000  1.0 -0.6528959583
O  O7  1  0.45435000  0.76382000  0.92838000  1.0 -0.6528959583
O  O8  1  0.30947000  0.54565000  0.92838000  1.0 -0.6528959583
O  O9  1  0.23618000  0.69053000  0.92838000  1.0 -0.6528959583
O  O10  1  0.64635000  0.40030000  0.94429000  1.0 -0.6875606487
O  O11  1  0.59970000  0.24605000  0.94429000  1.0 -0.6875606487
O  O12  1  0.75395000  0.35365000  0.94429000  1.0 -0.6875606487
O  O13  1  0.40030000  0.64635000  0.05571000  1.0 -0.6875606487
O  O14  1  0.24605000  0.59970000  0.05571000  1.0 -0.6875606487
O  O15  1  0.35365000  0.75395000  0.05571000  1.0 -0.6875606487
O  O16  1  0.67177000  0.41461000  0.14203000  1.0 -0.6197010935
O  O17  1  0.58539000  0.25716000  0.14203000  1.0 -0.6197010935
O  O18  1  0.74284000  0.32823000  0.14203000  1.0 -0.6197010935
O  O19  1  0.41461000  0.67177000  0.85797000  1.0 -0.6197010935
O  O20  1  0.25716000  0.58539000  0.85797000  1.0 -0.6197010935
O  O21  1  0.32823000  0.74284000  0.85797000  1.0 -0.6197010935
O  O22  1  0.88844000  0.57012000  0.89887000  1.0 -0.5132575144
O  O23  1  0.42988000  0.31832000  0.89887000  1.0 -0.5132575144
O  O24  1  0.68168000  0.11156000  0.89887000  1.0 -0.5132575144
O  O25  1  0.57012000  0.88844000  0.10113000  1.0 -0.5132575144
O  O26  1  0.31832000  0.42988000  0.10113000  1.0 -0.5132575144
O  O27  1  0.11156000  0.68168000  0.10113000  1.0 -0.5132575144
O  O28  1  0.57534000  0.42793000  0.89489000  1.0 -0.6197010935
O  O29  1  0.57207000  0.14741000  0.89489000  1.0 -0.6197010935
O  O30  1  0.85259000  0.42466000  0.89489000  1.0 -0.6197010935
O  O31  1  0.42793000  0.57534000  0.10511000  1.0 -0.6197010935
O  O32  1  0.14741000  0.57207000  0.10511000  1.0 -0.6197010935
O  O33  1  0.42466000  0.85259000  0.10511000  1.0 -0.6197010935
O  O34  1  0.96220000  0.68640000  0.31060000  1.0 -0.0226008814
O  O35  1  0.31360000  0.27580000  0.31060000  1.0 -0.0226008814
O  O36  1  0.72420000  0.03780000  0.31060000  1.0 -0.0264438629
O  O37  1  0.68640000  0.96220000  0.68940000  1.0 -0.0226008814
O  O38  1  0.27580000  0.31360000  0.68940000  1.0 -0.0226008814
O  O39  1  0.03780000  0.72420000  0.68940000  1.0 -0.0226008814
O  O40  1  0.96978000  0.63934000  0.19880000  1.0 -0.4673999558
O  O41  1  0.36066000  0.33044000  0.19880000  1.0 -0.4673999558
O  O42  1  0.66956000  0.03022000  0.19880000  1.0 -0.4673999558
O  O43  1  0.63934000  0.96978000  0.80120000  1.0 -0.4673999558
O  O44  1  0.33044000  0.36066000  0.80120000  1.0 -0.4673999558
O  O45  1  0.03022000  0.66956000  0.80120000  1.0 -0.4673999558
O  O46  1  0.90920000  0.61190000  0.76780000  1.0 -0.0264438629
O  O47  1  0.38810000  0.29730000  0.76780000  1.0 -0.0264438629
O  O48  1  0.70270000  0.09080000  0.76780000  1.0 -0.0264438629
O  O49  1  0.61190000  0.90920000  0.23220000  1.0 -0.0226008814
O  O50  1  0.29730000  0.38810000  0.23220000  1.0 -0.0226008814
O  O51  1  0.09080000  0.70270000  0.23220000  1.0 -0.0226008814
O  O52  1  0.58210000  0.45620000  0.09420000  1.0 -0.739230902
O  O53  1  0.54380000  0.12590000  0.09420000  1.0 -0.739230902
O  O54  1  0.87410000  0.41790000  0.09420000  1.0 -0.739230902
O  O55  1  0.45620000  0.58210000  0.90580000  1.0 -0.739230902
O  O56  1  0.12590000  0.54380000  0.90580000  1.0 -0.739230902
O  O57  1  0.41790000  0.87410000  0.90580000  1.0 -0.739230902
O  O58  1  0.43383000  0.39323000  0.06586000  1.0 -0.7858415852
O  O59  1  0.60677000  0.04060000  0.06586000  1.0 -0.7858415852
O  O60  1  0.95940000  0.56617000  0.06586000  1.0 -0.7858415852
O  O61  1  0.39323000  0.43383000  0.93414000  1.0 -0.7858415852
O  O62  1  0.04060000  0.60677000  0.93414000  1.0 -0.7858415852
O  O63  1  0.56617000  0.95940000  0.93414000  1.0 -0.7858415852
O  O64  1  0.96050000  0.66070000  0.33120000  1.0 -0.0226008814
O  O65  1  0.33930000  0.29980000  0.33120000  1.0 -0.0226008814
O  O66  1  0.70020000  0.03950000  0.33120000  1.0 -0.0105202995
O  O67  1  0.66070000  0.96050000  0.66880000  1.0 -0.0105202995
O  O68  1  0.29980000  0.33930000  0.66880000  1.0 -0.0105202995
O  O69  1  0.03950000  0.70020000  0.66880000  1.0 -0.0105202995
O  O70  1  0.90960000  0.63330000  0.79040000  1.0 -0.1168307151
O  O71  1  0.36670000  0.27630000  0.79040000  1.0 -0.1168307151
O  O72  1  0.72370000  0.09040000  0.79040000  1.0 -0.1168307151
O  O73  1  0.63330000  0.90960000  0.20960000  1.0 -0.1168307151
O  O74  1  0.27630000  0.36670000  0.20960000  1.0 -0.1168307151
O  O75  1  0.09040000  0.72370000  0.20960000  1.0 -0.1168307151
