# DDEC6 charges by PACMAN v1.1 (https://github.com/mtap-research/PACMAN-charge/)
data_LACYUM_ASR_pacman
_symmetry_space_group_name_H-M   'P 1'
_cell_length_a   20.04140000
_cell_length_b   16.25900000
_cell_length_c   23.99600000
_cell_angle_alpha   90.00000000
_cell_angle_beta   114.52900000
_cell_angle_gamma   90.00000000
_symmetry_Int_Tables_number   1
_chemical_formula_structural   Zn3Fe6H32C80(N3O19)2
_chemical_formula_sum   'Zn6 Fe12 H64 C160 N12 O76'
_cell_volume   7113.50114536
_cell_formula_units_Z   2
loop_
 _symmetry_equiv_pos_site_id
 _symmetry_equiv_pos_as_xyz
  1  'x, y, z'
loop_
 _atom_site_type_symbol
 _atom_site_label
 _atom_site_symmetry_multiplicity
 _atom_site_fract_x
 _atom_site_fract_y
 _atom_site_fract_z
 _atom_site_occupancy
 _atom_site_charge
Zn  Zn1  1  0.00777000  0.00000000  0.51586000  1.0 0.3588739311
Zn  Zn2  1  0.99223000  0.00000000  0.48414000  1.0 0.3588739311
Zn  Zn3  1  0.27523000  0.00000000  0.01588000  1.0 0.3539435938
Zn  Zn4  1  0.72477000  0.00000000  0.98412000  1.0 0.3588739311
Zn  Zn5  1  0.24059000  0.00000000  0.01603000  1.0 0.3539435938
Zn  Zn6  1  0.75941000  0.00000000  0.98397000  1.0 0.3539435938
Fe  Fe1  1  0.58221000  0.50000000  0.33980000  1.0 0.8473429754
Fe  Fe2  1  0.41779000  0.50000000  0.66020000  1.0 0.8473429754
Fe  Fe3  1  0.74230000  0.50000000  0.66011000  1.0 0.8368010297
Fe  Fe4  1  0.25770000  0.50000000  0.33989000  1.0 0.8368010297
Fe  Fe5  1  0.63950000  0.39632000  0.25451000  1.0 1.0486550405
Fe  Fe6  1  0.36050000  0.39632000  0.74549000  1.0 1.0486550405
Fe  Fe7  1  0.36050000  0.60368000  0.74549000  1.0 1.0486550405
Fe  Fe8  1  0.63950000  0.60368000  0.25451000  1.0 1.0486550405
Fe  Fe9  1  0.88493000  0.60367000  0.74549000  1.0 1.0486550405
Fe  Fe10  1  0.11507000  0.60367000  0.25451000  1.0 1.0486550405
Fe  Fe11  1  0.11507000  0.39633000  0.25451000  1.0 1.0486550405
Fe  Fe12  1  0.88493000  0.39633000  0.74549000  1.0 1.0486550405
H  H1  1  0.77530000  0.77250000  0.40730000  1.0 0.1402786926
H  H2  1  0.22470000  0.77250000  0.59270000  1.0 0.1402786926
H  H3  1  0.22470000  0.22750000  0.59270000  1.0 0.1402786926
H  H4  1  0.77530000  0.22750000  0.40730000  1.0 0.1402786926
H  H5  1  0.86760000  0.77290000  0.59250000  1.0 0.1402786926
H  H6  1  0.13240000  0.77290000  0.40750000  1.0 0.1402786926
H  H7  1  0.13240000  0.22710000  0.40750000  1.0 0.1402786926
H  H8  1  0.86760000  0.22710000  0.59250000  1.0 0.1402786926
H  H9  1  0.44190000  0.22780000  0.18120000  1.0 0.1402786926
H  H10  1  0.55810000  0.22780000  0.81880000  1.0 0.1402786926
H  H11  1  0.55810000  0.77220000  0.81880000  1.0 0.1402786926
H  H12  1  0.44190000  0.77220000  0.18120000  1.0 0.1402786926
H  H13  1  0.70970000  0.60650000  0.49990000  1.0 0.1311867367
H  H14  1  0.29030000  0.60650000  0.50010000  1.0 0.1311867367
H  H15  1  0.29030000  0.39350000  0.50010000  1.0 0.1311867367
H  H16  1  0.70970000  0.39350000  0.49990000  1.0 0.1311867367
H  H17  1  0.74990000  0.92330000  0.50020000  1.0 0.1311867367
H  H18  1  0.25010000  0.92330000  0.49980000  1.0 0.1311867367
H  H19  1  0.25010000  0.07670000  0.49980000  1.0 0.1311867367
H  H20  1  0.74990000  0.07670000  0.50020000  1.0 0.1311867367
H  H21  1  0.23950000  0.22780000  0.18110000  1.0 0.1402786926
H  H22  1  0.76050000  0.22780000  0.81890000  1.0 0.1402786926
H  H23  1  0.76050000  0.77220000  0.81890000  1.0 0.1402786926
H  H24  1  0.23950000  0.77220000  0.18110000  1.0 0.1402786926
H  H25  1  0.27390000  0.22190000  0.84860000  1.0 0.1311867367
H  H26  1  0.72610000  0.22190000  0.15140000  1.0 0.1311867367
H  H27  1  0.72610000  0.77810000  0.15140000  1.0 0.1311867367
H  H28  1  0.27390000  0.77810000  0.84860000  1.0 0.1311867367
H  H29  1  0.23010000  0.30720000  0.95820000  1.0 0.1311867367
H  H30  1  0.76990000  0.30720000  0.04180000  1.0 0.1311867367
H  H31  1  0.76990000  0.69280000  0.04180000  1.0 0.1311867367
H  H32  1  0.23010000  0.69280000  0.95820000  1.0 0.1311867367
H  H33  1  0.07430000  0.22170000  0.84860000  1.0 0.1311867367
H  H34  1  0.92570000  0.22170000  0.15140000  1.0 0.1311867367
H  H35  1  0.92570000  0.77830000  0.15140000  1.0 0.1311867367
H  H36  1  0.07430000  0.77830000  0.84860000  1.0 0.1311867367
H  H37  1  0.28510000  0.30750000  0.07220000  1.0 0.1311867367
H  H38  1  0.71490000  0.30750000  0.92780000  1.0 0.1311867367
H  H39  1  0.71490000  0.69250000  0.92780000  1.0 0.1311867367
H  H40  1  0.28510000  0.69250000  0.07220000  1.0 0.1311867367
H  H41  1  0.39180000  0.39480000  0.28320000  1.0 0.1311867367
H  H42  1  0.60820000  0.39480000  0.71680000  1.0 0.1311867367
H  H43  1  0.60820000  0.60520000  0.71680000  1.0 0.1311867367
H  H44  1  0.39180000  0.60520000  0.28320000  1.0 0.1311867367
H  H45  1  0.93890000  0.69420000  0.50120000  1.0 0.1311867367
H  H46  1  0.06110000  0.69420000  0.49880000  1.0 0.1311867367
H  H47  1  0.06110000  0.30580000  0.49880000  1.0 0.1311867367
H  H48  1  0.93890000  0.30580000  0.50120000  1.0 0.1311867367
H  H49  1  0.14340000  0.07600000  0.78610000  1.0 0.1311867367
H  H50  1  0.85660000  0.07600000  0.21390000  1.0 0.1311867367
H  H51  1  0.85660000  0.92400000  0.21390000  1.0 0.1311867367
H  H52  1  0.14340000  0.92400000  0.78610000  1.0 0.1311867367
H  H53  1  0.55190000  0.50000000  0.09620000  1.0 0.0920045217
H  H54  1  0.44810000  0.50000000  0.90380000  1.0 0.0920045217
H  H55  1  0.37300000  0.07610000  0.24510000  1.0 0.1311867367
H  H56  1  0.62700000  0.07610000  0.75490000  1.0 0.1311867367
H  H57  1  0.62700000  0.92390000  0.75490000  1.0 0.1311867367
H  H58  1  0.37300000  0.92390000  0.24510000  1.0 0.1311867367
H  H59  1  0.95340000  0.50000000  0.90400000  1.0 0.0920045217
H  H60  1  0.04660000  0.50000000  0.09600000  1.0 0.0920045217
H  H61  1  0.11970000  0.38160000  0.74090000  1.0 0.1402786926
H  H62  1  0.88030000  0.38160000  0.25910000  1.0 0.1402786926
H  H63  1  0.88030000  0.61840000  0.25910000  1.0 0.1402786926
H  H64  1  0.11970000  0.61840000  0.74090000  1.0 0.1402786926
C  C1  1  0.85691000  0.93180000  0.50003000  1.0 0.1614098586
C  C2  1  0.14309000  0.93180000  0.49997000  1.0 0.1614098586
C  C3  1  0.14309000  0.06820000  0.49997000  1.0 0.1614098586
C  C4  1  0.85691000  0.06820000  0.50003000  1.0 0.1614098586
C  C5  1  0.94523000  0.82480000  0.50013000  1.0 0.1614098586
C  C6  1  0.05477000  0.82480000  0.49987000  1.0 0.1614098586
C  C7  1  0.05477000  0.17520000  0.49987000  1.0 0.1614098586
C  C8  1  0.94523000  0.17520000  0.50013000  1.0 0.1614098586
C  C9  1  0.87903000  0.85080000  0.49977000  1.0 -0.0784313418
C  C10  1  0.12097000  0.85080000  0.50023000  1.0 -0.0784313418
C  C11  1  0.12097000  0.14920000  0.50023000  1.0 -0.0784313418
C  C12  1  0.87903000  0.14920000  0.49977000  1.0 -0.0784313418
C  C13  1  0.82788000  0.78360000  0.50024000  1.0 0.0811840481
C  C14  1  0.17212000  0.78360000  0.49976000  1.0 0.0811840481
C  C15  1  0.17212000  0.21640000  0.49976000  1.0 0.0811840481
C  C16  1  0.82788000  0.21640000  0.50024000  1.0 0.0811840481
C  C17  1  0.77907000  0.75000000  0.44500000  1.0 -0.1508266728
C  C18  1  0.22093000  0.75000000  0.55500000  1.0 -0.1508266728
C  C19  1  0.22093000  0.25000000  0.55500000  1.0 -0.1508266728
C  C20  1  0.77907000  0.25000000  0.44500000  1.0 -0.1508266728
C  C21  1  0.83393000  0.75010000  0.55487000  1.0 -0.1508266728
C  C22  1  0.16607000  0.75010000  0.44513000  1.0 -0.1508266728
C  C23  1  0.16607000  0.24990000  0.44513000  1.0 -0.1508266728
C  C24  1  0.83393000  0.24990000  0.55487000  1.0 -0.1508266728
C  C25  1  0.33800000  0.21710000  0.17542000  1.0 0.0920045217
C  C26  1  0.66200000  0.21710000  0.82458000  1.0 0.0920045217
C  C27  1  0.66200000  0.78290000  0.82458000  1.0 0.0920045217
C  C28  1  0.33800000  0.78290000  0.17542000  1.0 0.0920045217
C  C29  1  0.32320000  0.06830000  0.14651000  1.0 0.1676051672
C  C30  1  0.67680000  0.06830000  0.85349000  1.0 0.1676051672
C  C31  1  0.67680000  0.93170000  0.85349000  1.0 0.1676051672
C  C32  1  0.32320000  0.93170000  0.14651000  1.0 0.1676051672
C  C33  1  0.19250000  0.06780000  0.88540000  1.0 0.1676051672
C  C34  1  0.80750000  0.06780000  0.11460000  1.0 0.1676051672
C  C35  1  0.80750000  0.93220000  0.11460000  1.0 0.1676051672
C  C36  1  0.19250000  0.93220000  0.88540000  1.0 0.1676051672
C  C37  1  0.73530000  0.68250000  0.44540000  1.0 -0.0127904495
C  C38  1  0.26470000  0.68250000  0.55460000  1.0 -0.0127904495
C  C39  1  0.26470000  0.31750000  0.55460000  1.0 -0.0127904495
C  C40  1  0.73530000  0.31750000  0.44540000  1.0 -0.0127904495
C  C41  1  0.40770000  0.24980000  0.19533000  1.0 -0.1508266728
C  C42  1  0.59230000  0.24980000  0.80467000  1.0 -0.1508266728
C  C43  1  0.59230000  0.75020000  0.80467000  1.0 -0.1508266728
C  C44  1  0.40770000  0.75020000  0.19533000  1.0 -0.1508266728
C  C45  1  0.79070000  0.68250000  0.55536000  1.0 -0.023963539
C  C46  1  0.20930000  0.68250000  0.44464000  1.0 -0.023963539
C  C47  1  0.20930000  0.31750000  0.44464000  1.0 -0.023963539
C  C48  1  0.79070000  0.31750000  0.55536000  1.0 -0.023963539
C  C49  1  0.20240000  0.14940000  0.90529000  1.0 -0.0784313418
C  C50  1  0.79760000  0.14940000  0.09471000  1.0 -0.0784313418
C  C51  1  0.79760000  0.85060000  0.09471000  1.0 -0.0784313418
C  C52  1  0.20240000  0.85060000  0.90529000  1.0 -0.0784313418
C  C53  1  0.74070000  0.65080000  0.49990000  1.0 -0.171748341
C  C54  1  0.25930000  0.65080000  0.50010000  1.0 -0.171748341
C  C55  1  0.25930000  0.34920000  0.50010000  1.0 -0.171748341
C  C56  1  0.74070000  0.34920000  0.49990000  1.0 -0.171748341
C  C57  1  0.28340000  0.17510000  0.06642000  1.0 0.1760242656
C  C58  1  0.71660000  0.17510000  0.93358000  1.0 0.1760242656
C  C59  1  0.71660000  0.82490000  0.93358000  1.0 0.1760242656
C  C60  1  0.28340000  0.82490000  0.06642000  1.0 0.1760242656
C  C61  1  0.23220000  0.17580000  0.96520000  1.0 0.1402786926
C  C62  1  0.76780000  0.17580000  0.03480000  1.0 0.1402786926
C  C63  1  0.76780000  0.82420000  0.03480000  1.0 0.1402786926
C  C64  1  0.23220000  0.82420000  0.96520000  1.0 0.1402786926
C  C65  1  0.17800000  0.21480000  0.85606000  1.0 0.0639522746
C  C66  1  0.82200000  0.21480000  0.14394000  1.0 0.0639522746
C  C67  1  0.82200000  0.78520000  0.14394000  1.0 0.0639522746
C  C68  1  0.17800000  0.78520000  0.85606000  1.0 0.0639522746
C  C69  1  0.78800000  0.95800000  0.50010000  1.0 -0.1800779399
C  C70  1  0.21200000  0.95800000  0.49990000  1.0 -0.1800779399
C  C71  1  0.21200000  0.04200000  0.49990000  1.0 -0.1800779399
C  C72  1  0.78800000  0.04200000  0.50010000  1.0 -0.1800779399
C  C73  1  0.31340000  0.14890000  0.12670000  1.0 -0.0983877704
C  C74  1  0.68660000  0.14890000  0.87330000  1.0 -0.0983877704
C  C75  1  0.68660000  0.85110000  0.87330000  1.0 -0.0983877704
C  C76  1  0.31340000  0.85110000  0.12670000  1.0 -0.0983877704
C  C77  1  0.28760000  0.24990000  0.19515000  1.0 -0.1508266728
C  C78  1  0.71240000  0.24990000  0.80485000  1.0 -0.1508266728
C  C79  1  0.71240000  0.75010000  0.80485000  1.0 -0.1508266728
C  C80  1  0.28760000  0.75010000  0.19515000  1.0 -0.1508266728
C  C81  1  0.42740000  0.31590000  0.23656000  1.0 -0.0127904495
C  C82  1  0.57260000  0.31590000  0.76344000  1.0 -0.0127904495
C  C83  1  0.57260000  0.68410000  0.76344000  1.0 -0.0127904495
C  C84  1  0.42740000  0.68410000  0.23656000  1.0 -0.0127904495
C  C85  1  0.30890000  0.31640000  0.23638000  1.0 -0.026192918
C  C86  1  0.69110000  0.31640000  0.76362000  1.0 -0.026192918
C  C87  1  0.69110000  0.68360000  0.76362000  1.0 -0.026192918
C  C88  1  0.30890000  0.68360000  0.23638000  1.0 -0.026192918
C  C89  1  0.22580000  0.24410000  0.83400000  1.0 -0.13931836
C  C90  1  0.77420000  0.24410000  0.16600000  1.0 -0.13931836
C  C91  1  0.77420000  0.75590000  0.16600000  1.0 -0.13931836
C  C92  1  0.22580000  0.75590000  0.83400000  1.0 -0.13931836
C  C93  1  0.24230000  0.26030000  0.98410000  1.0 -0.1619804523
C  C94  1  0.75770000  0.26030000  0.01590000  1.0 -0.1619804523
C  C95  1  0.75770000  0.73970000  0.01590000  1.0 -0.1619804523
C  C96  1  0.24230000  0.73970000  0.98410000  1.0 -0.1619804523
C  C97  1  0.10770000  0.24410000  0.83390000  1.0 -0.1313436777
C  C98  1  0.89230000  0.24410000  0.16610000  1.0 -0.1313436777
C  C99  1  0.89230000  0.75590000  0.16610000  1.0 -0.1313436777
C  C100  1  0.10770000  0.75590000  0.83390000  1.0 -0.1313436777
C  C101  1  0.27290000  0.26030000  0.04650000  1.0 -0.185244672
C  C102  1  0.72710000  0.26030000  0.95350000  1.0 -0.185244672
C  C103  1  0.72710000  0.73970000  0.95350000  1.0 -0.185244672
C  C104  1  0.27290000  0.73970000  0.04650000  1.0 -0.185244672
C  C105  1  0.26120000  0.33900000  0.76980000  1.0 0.5420002863
C  C106  1  0.73880000  0.33900000  0.23020000  1.0 0.5420002863
C  C107  1  0.73880000  0.66100000  0.23020000  1.0 0.5420002863
C  C108  1  0.26120000  0.66100000  0.76980000  1.0 0.5420002863
C  C109  1  0.37820000  0.34910000  0.25606000  1.0 -0.1619804523
C  C110  1  0.62180000  0.34910000  0.74394000  1.0 -0.1619804523
C  C111  1  0.62180000  0.65090000  0.74394000  1.0 -0.1619804523
C  C112  1  0.37820000  0.65090000  0.25606000  1.0 -0.1619804523
C  C113  1  0.08460000  0.30590000  0.79030000  1.0 -0.0127904495
C  C114  1  0.91540000  0.30590000  0.20970000  1.0 -0.0127904495
C  C115  1  0.91540000  0.69410000  0.20970000  1.0 -0.0127904495
C  C116  1  0.08460000  0.69410000  0.79030000  1.0 -0.0127904495
C  C117  1  0.96660000  0.74120000  0.50050000  1.0 -0.1800779399
C  C118  1  0.03340000  0.74120000  0.49950000  1.0 -0.1800779399
C  C119  1  0.03340000  0.25880000  0.49950000  1.0 -0.1800779399
C  C120  1  0.96660000  0.25880000  0.50050000  1.0 -0.1800779399
C  C121  1  0.16070000  0.04130000  0.82108000  1.0 -0.171748341
C  C122  1  0.83930000  0.04130000  0.17892000  1.0 -0.171748341
C  C123  1  0.83930000  0.95870000  0.17892000  1.0 -0.171748341
C  C124  1  0.16070000  0.95870000  0.82108000  1.0 -0.171748341
C  C125  1  0.57710000  0.50000000  0.13950000  1.0 0.4837090372
C  C126  1  0.42290000  0.50000000  0.86050000  1.0 0.4837090372
C  C127  1  0.35530000  0.04150000  0.21000000  1.0 -0.1800779399
C  C128  1  0.64470000  0.04150000  0.79000000  1.0 -0.1800779399
C  C129  1  0.64470000  0.95850000  0.79000000  1.0 -0.1800779399
C  C130  1  0.35530000  0.95850000  0.21000000  1.0 -0.1800779399
C  C131  1  0.20490000  0.30620000  0.79020000  1.0 0.0017817609
C  C132  1  0.79510000  0.30620000  0.20980000  1.0 0.0017817609
C  C133  1  0.79510000  0.69380000  0.20980000  1.0 0.0017817609
C  C134  1  0.20490000  0.69380000  0.79020000  1.0 0.0017817609
C  C135  1  0.25590000  0.35870000  0.25580000  1.0 0.5070661551
C  C136  1  0.74410000  0.35870000  0.74420000  1.0 0.5070661551
C  C137  1  0.74410000  0.64130000  0.74420000  1.0 0.5033207014
C  C138  1  0.25590000  0.64130000  0.25580000  1.0 0.5070661551
C  C139  1  0.00880000  0.33830000  0.76970000  1.0 0.5420002863
C  C140  1  0.99120000  0.33830000  0.23030000  1.0 0.5420002863
C  C141  1  0.99120000  0.66170000  0.23030000  1.0 0.5420002863
C  C142  1  0.00880000  0.66170000  0.76970000  1.0 0.5420002863
C  C143  1  0.68510000  0.64150000  0.38600000  1.0 0.5070661551
C  C144  1  0.31490000  0.64150000  0.61400000  1.0 0.5070661551
C  C145  1  0.31490000  0.35850000  0.61400000  1.0 0.5070661551
C  C146  1  0.68510000  0.35850000  0.38600000  1.0 0.5070661551
C  C147  1  0.50050000  0.35920000  0.25620000  1.0 0.5033207014
C  C148  1  0.49950000  0.35920000  0.74380000  1.0 0.5033207014
C  C149  1  0.49950000  0.64080000  0.74380000  1.0 0.5033207014
C  C150  1  0.50050000  0.64080000  0.25620000  1.0 0.5033207014
C  C151  1  0.93610000  0.50000000  0.86070000  1.0 0.4837090372
C  C152  1  0.06390000  0.50000000  0.13930000  1.0 0.4837090372
C  C153  1  0.79940000  0.64170000  0.61420000  1.0 0.5033207014
C  C154  1  0.20060000  0.64170000  0.38580000  1.0 0.5033207014
C  C155  1  0.20060000  0.35830000  0.38580000  1.0 0.5033207014
C  C156  1  0.79940000  0.35830000  0.61420000  1.0 0.5033207014
C  C157  1  0.13410000  0.33770000  0.76960000  1.0 -0.1179425828
C  C158  1  0.86590000  0.33770000  0.23040000  1.0 -0.1179425828
C  C159  1  0.86590000  0.66230000  0.23040000  1.0 -0.1179425828
C  C160  1  0.13410000  0.66230000  0.76960000  1.0 -0.1179425828
N  N1  1  0.00000000  0.87420000  0.50000000  1.0 -0.3016563381
N  N2  1  0.00000000  0.12580000  0.50000000  1.0 -0.3016563381
N  N3  1  0.89770000  0.00000000  0.49970000  1.0 -0.3095686361
N  N4  1  0.10230000  0.00000000  0.50030000  1.0 -0.3095686361
N  N5  1  0.21170000  0.00000000  0.92280000  1.0 -0.2846715376
N  N6  1  0.78830000  0.00000000  0.07720000  1.0 -0.2846715376
N  N7  1  0.30520000  0.00000000  0.10970000  1.0 -0.3016563381
N  N8  1  0.69480000  0.00000000  0.89030000  1.0 -0.292719768
N  N9  1  0.25826000  0.12458000  0.01673000  1.0 -0.292719768
N  N10  1  0.74174000  0.12458000  0.98327000  1.0 -0.292719768
N  N11  1  0.74174000  0.87542000  0.98327000  1.0 -0.292719768
N  N12  1  0.25826000  0.87542000  0.01673000  1.0 -0.292719768
O  O1  1  0.68761000  0.66156000  0.33727000  1.0 -0.4600627348
O  O2  1  0.31239000  0.66156000  0.66273000  1.0 -0.4600627348
O  O3  1  0.31239000  0.33844000  0.66273000  1.0 -0.4600627348
O  O4  1  0.68761000  0.33844000  0.33727000  1.0 -0.4600627348
O  O5  1  0.84620000  0.50000000  0.71450000  1.0 -0.7517427132
O  O6  1  0.15380000  0.50000000  0.28550000  1.0 -0.7517427132
O  O7  1  0.63190000  0.50000000  0.28575000  1.0 -0.7439561412
O  O8  1  0.36810000  0.50000000  0.71425000  1.0 -0.7439561412
O  O9  1  0.85029000  0.66144000  0.66238000  1.0 -0.4501799718
O  O10  1  0.14971000  0.66144000  0.33762000  1.0 -0.4501799718
O  O11  1  0.14971000  0.33856000  0.33762000  1.0 -0.4501799718
O  O12  1  0.85029000  0.33856000  0.66238000  1.0 -0.4501799718
O  O13  1  0.19290000  0.33410000  0.23698000  1.0 -0.4362125024
O  O14  1  0.80710000  0.33410000  0.76302000  1.0 -0.4362125024
O  O15  1  0.80710000  0.66590000  0.76302000  1.0 -0.4362125024
O  O16  1  0.19290000  0.66590000  0.23698000  1.0 -0.4362125024
O  O17  1  0.54441000  0.33390000  0.23707000  1.0 -0.4362125024
O  O18  1  0.45559000  0.33390000  0.76293000  1.0 -0.4362125024
O  O19  1  0.45559000  0.66610000  0.76293000  1.0 -0.4362125024
O  O20  1  0.54441000  0.66610000  0.23707000  1.0 -0.4362125024
O  O21  1  0.96129000  0.29810000  0.78044000  1.0 -0.5068639443
O  O22  1  0.03871000  0.29810000  0.21956000  1.0 -0.5068639443
O  O23  1  0.03871000  0.70190000  0.21956000  1.0 -0.5068639443
O  O24  1  0.96129000  0.70190000  0.78044000  1.0 -0.5068639443
O  O25  1  0.31903000  0.29830000  0.78053000  1.0 -0.5036765412
O  O26  1  0.68097000  0.29830000  0.21947000  1.0 -0.5036765412
O  O27  1  0.68097000  0.70170000  0.21947000  1.0 -0.5036765412
O  O28  1  0.31903000  0.70170000  0.78053000  1.0 -0.5036765412
O  O29  1  0.25119000  0.40580000  0.74343000  1.0 -0.4715238437
O  O30  1  0.74881000  0.40580000  0.25657000  1.0 -0.4715238437
O  O31  1  0.74881000  0.59420000  0.25657000  1.0 -0.4715238437
O  O32  1  0.25119000  0.59420000  0.74343000  1.0 -0.4715238437
O  O33  1  0.59180000  0.43070000  0.16488000  1.0 -0.4790506139
O  O34  1  0.40820000  0.43070000  0.83512000  1.0 -0.4790506139
O  O35  1  0.40820000  0.56930000  0.83512000  1.0 -0.4790506139
O  O36  1  0.59180000  0.56930000  0.16488000  1.0 -0.4790506139
O  O37  1  0.99224000  0.40590000  0.74359000  1.0 -0.4790506139
O  O38  1  0.00776000  0.40590000  0.25641000  1.0 -0.4790506139
O  O39  1  0.00776000  0.59410000  0.25641000  1.0 -0.4790506139
O  O40  1  0.99224000  0.59410000  0.74359000  1.0 -0.4790506139
O  O41  1  0.92580000  0.56920000  0.83503000  1.0 -0.4790506139
O  O42  1  0.07420000  0.56920000  0.16497000  1.0 -0.4790506139
O  O43  1  0.07420000  0.43080000  0.16497000  1.0 -0.4790506139
O  O44  1  0.92580000  0.43080000  0.83503000  1.0 -0.4790506139
O  O45  1  0.49850000  0.43280000  0.28150000  1.0 -0.185244672
O  O46  1  0.50150000  0.43280000  0.71850000  1.0 -0.185244672
O  O47  1  0.50150000  0.56720000  0.71850000  1.0 -0.185244672
O  O48  1  0.49850000  0.56720000  0.28150000  1.0 -0.185244672
O  O49  1  0.62990000  0.60140000  0.38410000  1.0 -0.1508266728
O  O50  1  0.37010000  0.60140000  0.61590000  1.0 -0.1508266728
O  O51  1  0.37010000  0.39860000  0.61590000  1.0 -0.1619804523
O  O52  1  0.62990000  0.39860000  0.38410000  1.0 -0.1619804523
O  O53  1  0.28340000  0.43370000  0.28210000  1.0 -0.1800779399
O  O54  1  0.71660000  0.43370000  0.71790000  1.0 -0.1800779399
O  O55  1  0.71660000  0.56630000  0.71790000  1.0 -0.1800779399
O  O56  1  0.28340000  0.56630000  0.28210000  1.0 -0.171748341
O  O57  1  0.74650000  0.60160000  0.61630000  1.0 -0.1313436777
O  O58  1  0.25350000  0.60160000  0.38370000  1.0 -0.1313436777
O  O59  1  0.25350000  0.39840000  0.38370000  1.0 -0.1313436777
O  O60  1  0.74650000  0.39840000  0.61630000  1.0 -0.1313436777
O  O61  1  0.52320000  0.39960000  0.30600000  1.0 -0.1800779399
O  O62  1  0.47680000  0.39960000  0.69400000  1.0 -0.1800779399
O  O63  1  0.47680000  0.60040000  0.69400000  1.0 -0.1800779399
O  O64  1  0.52320000  0.60040000  0.30600000  1.0 -0.1800779399
O  O65  1  0.28340000  0.39820000  0.30610000  1.0 -0.1800779399
O  O66  1  0.71660000  0.39820000  0.69390000  1.0 -0.1800779399
O  O67  1  0.71660000  0.60180000  0.69390000  1.0 -0.1800779399
O  O68  1  0.28340000  0.60180000  0.30610000  1.0 -0.1800779399
O  O69  1  0.75960000  0.57180000  0.59990000  1.0 -0.13931836
O  O70  1  0.24040000  0.57180000  0.40010000  1.0 -0.13931836
O  O71  1  0.24040000  0.42820000  0.40010000  1.0 -0.13931836
O  O72  1  0.75960000  0.42820000  0.59990000  1.0 -0.13931836
O  O73  1  0.66120000  0.57110000  0.40020000  1.0 -0.1619804523
O  O74  1  0.33880000  0.57110000  0.59980000  1.0 -0.1619804523
O  O75  1  0.33880000  0.42890000  0.59980000  1.0 -0.1619804523
O  O76  1  0.66120000  0.42890000  0.40020000  1.0 -0.1619804523
