# DDEC6 charges by PACMAN v1.1 (https://github.com/mtap-research/PACMAN-charge/)
data_LACYEW_ASR_pacman
_symmetry_space_group_name_H-M   'P 1'
_cell_length_a   21.17950000
_cell_length_b   21.17950000
_cell_length_c   21.17950000
_cell_angle_alpha   143.94200000
_cell_angle_beta   98.66490000
_cell_angle_gamma   92.34540000
_symmetry_Int_Tables_number   1
_chemical_formula_structural   NaPrZnH10C26(NO6)2
_chemical_formula_sum   'Na4 Pr4 Zn4 H40 C104 N8 O48'
_cell_volume   5307.67155709
_cell_formula_units_Z   4
loop_
 _symmetry_equiv_pos_site_id
 _symmetry_equiv_pos_as_xyz
  1  'x, y, z'
loop_
 _atom_site_type_symbol
 _atom_site_label
 _atom_site_symmetry_multiplicity
 _atom_site_fract_x
 _atom_site_fract_y
 _atom_site_fract_z
 _atom_site_occupancy
 _atom_site_charge
Na  Na1  1  0.20985000  0.20985000  0.50000000  1.0 0.8388323537
Na  Na2  1  0.29015000  0.79015000  0.00000000  1.0 0.8388323537
Na  Na3  1  0.79015000  0.79015000  0.50000000  1.0 0.8388323537
Na  Na4  1  0.70985000  0.20985000  0.00000000  1.0 0.8388323537
Pr  Pr1  1  0.32272000  0.00000000  0.32272000  1.0 1.3729633889
Pr  Pr2  1  0.17728000  0.50000000  0.67728000  1.0 1.3729633889
Pr  Pr3  1  0.67728000  0.00000000  0.67728000  1.0 1.3802039823
Pr  Pr4  1  0.82272000  0.50000000  0.32272000  1.0 1.3802039823
Zn  Zn1  1  0.75000000  0.68690000  0.93690000  1.0 0.3601473993
Zn  Zn2  1  0.25000000  0.31310000  0.06310000  1.0 0.3601473993
Zn  Zn3  1  0.75000000  0.63130000  0.88130000  1.0 0.3601473993
Zn  Zn4  1  0.25000000  0.36870000  0.11870000  1.0 0.3601473993
H  H1  1  0.01460000  0.89950000  0.18830000  1.0 0.1129695474
H  H2  1  0.48540000  0.67370000  0.88490000  1.0 0.1129695474
H  H3  1  0.21120000  0.32630000  0.81170000  1.0 0.1129695474
H  H4  1  0.28880000  0.10050000  0.11510000  1.0 0.1129695474
H  H5  1  0.98540000  0.10050000  0.81170000  1.0 0.1129695474
H  H6  1  0.51460000  0.32630000  0.11510000  1.0 0.1129695474
H  H7  1  0.78880000  0.67370000  0.18830000  1.0 0.1129695474
H  H8  1  0.71120000  0.89950000  0.88490000  1.0 0.1129695474
H  H9  1  0.97220000  0.69150000  0.07990000  1.0 0.1129695474
H  H10  1  0.52780000  0.60770000  0.71930000  1.0 0.1129695474
H  H11  1  0.11160000  0.39230000  0.92010000  1.0 0.1129695474
H  H12  1  0.38840000  0.30850000  0.28070000  1.0 0.1129695474
H  H13  1  0.02780000  0.30850000  0.92010000  1.0 0.1129695474
H  H14  1  0.47220000  0.39230000  0.28070000  1.0 0.1129695474
H  H15  1  0.88840000  0.60770000  0.07990000  1.0 0.1129695474
H  H16  1  0.61160000  0.69150000  0.71930000  1.0 0.1129695474
H  H17  1  0.99730000  0.62540000  0.85490000  1.0 0.1129695474
H  H18  1  0.50270000  0.35760000  0.62810000  1.0 0.1129695474
H  H19  1  0.27050000  0.64240000  0.14510000  1.0 0.1129695474
H  H20  1  0.22950000  0.37460000  0.37190000  1.0 0.1129695474
H  H21  1  0.00270000  0.37460000  0.14510000  1.0 0.1129695474
H  H22  1  0.49730000  0.64240000  0.37190000  1.0 0.1129695474
H  H23  1  0.72950000  0.35760000  0.85490000  1.0 0.1129695474
H  H24  1  0.77050000  0.62540000  0.62810000  1.0 0.1129695474
H  H25  1  0.96420000  0.82410000  0.94930000  1.0 0.1129695474
H  H26  1  0.53580000  0.48510000  0.85990000  1.0 0.1129695474
H  H27  1  0.37480000  0.51490000  0.05070000  1.0 0.1129695474
H  H28  1  0.12520000  0.17590000  0.14010000  1.0 0.1129695474
H  H29  1  0.03580000  0.17590000  0.05070000  1.0 0.1129695474
H  H30  1  0.46420000  0.51490000  0.14010000  1.0 0.1129695474
H  H31  1  0.62520000  0.48510000  0.94930000  1.0 0.1129695474
H  H32  1  0.87480000  0.82410000  0.85990000  1.0 0.1129695474
H  H33  1  0.17900000  0.82890000  0.08830000  1.0 0.0842387578
H  H34  1  0.32100000  0.40930000  0.64990000  1.0 0.0850188261
H  H35  1  0.24060000  0.59070000  0.91170000  1.0 0.0850188261
H  H36  1  0.25940000  0.17110000  0.35010000  1.0 0.0850188261
H  H37  1  0.82100000  0.17110000  0.91170000  1.0 0.0850188261
H  H38  1  0.67900000  0.59070000  0.35010000  1.0 0.0850188261
H  H39  1  0.75940000  0.40930000  0.08830000  1.0 0.0850188261
H  H40  1  0.74060000  0.82890000  0.64990000  1.0 0.0850188261
C  C1  1  0.89110000  0.69490000  0.01080000  1.0 0.1436707279
C  C2  1  0.60890000  0.61970000  0.80380000  1.0 0.1436707279
C  C3  1  0.18410000  0.38030000  0.98920000  1.0 0.1436707279
C  C4  1  0.31590000  0.30510000  0.19620000  1.0 0.1436707279
C  C5  1  0.10890000  0.30510000  0.98920000  1.0 0.1436707279
C  C6  1  0.39110000  0.38030000  0.19620000  1.0 0.1436707279
C  C7  1  0.81590000  0.61970000  0.01080000  1.0 0.1436707279
C  C8  1  0.68410000  0.69490000  0.80380000  1.0 0.1436707279
C  C9  1  0.09050000  0.71490000  0.95440000  1.0 -0.0710142847
C  C10  1  0.40950000  0.36390000  0.62440000  1.0 -0.0710142847
C  C11  1  0.26050000  0.63610000  0.04560000  1.0 -0.0710142847
C  C12  1  0.23950000  0.28510000  0.37560000  1.0 -0.0710142847
C  C13  1  0.90950000  0.28510000  0.04560000  1.0 -0.0710142847
C  C14  1  0.59050000  0.63610000  0.37560000  1.0 -0.0710142847
C  C15  1  0.73950000  0.36390000  0.95440000  1.0 -0.0710142847
C  C16  1  0.76050000  0.71490000  0.62440000  1.0 -0.0710142847
C  C17  1  0.03440000  0.85400000  0.12960000  1.0 -0.1585112796
C  C18  1  0.46560000  0.59520000  0.81960000  1.0 -0.1585112796
C  C19  1  0.22440000  0.40480000  0.87040000  1.0 -0.1585112796
C  C20  1  0.27560000  0.14600000  0.18040000  1.0 -0.1585112796
C  C21  1  0.96560000  0.14600000  0.87040000  1.0 -0.1585112796
C  C22  1  0.53440000  0.40480000  0.18040000  1.0 -0.1585112796
C  C23  1  0.77560000  0.59520000  0.12960000  1.0 -0.1585112796
C  C24  1  0.72440000  0.85400000  0.81960000  1.0 -0.1585112796
C  C25  1  0.99510000  0.76170000  0.01820000  1.0 0.06714406
C  C26  1  0.50490000  0.52310000  0.76660000  1.0 0.06714406
C  C27  1  0.24350000  0.47690000  0.98180000  1.0 0.06714406
C  C28  1  0.25650000  0.23830000  0.23340000  1.0 0.06714406
C  C29  1  0.00490000  0.23830000  0.98180000  1.0 0.06714406
C  C30  1  0.49510000  0.47690000  0.23340000  1.0 0.06714406
C  C31  1  0.75650000  0.52310000  0.01820000  1.0 0.06714406
C  C32  1  0.74350000  0.76170000  0.76660000  1.0 0.06714406
C  C33  1  0.92540000  0.67520000  0.05500000  1.0 -0.202927698
C  C34  1  0.57460000  0.62960000  0.74980000  1.0 -0.202927698
C  C35  1  0.12020000  0.37040000  0.94500000  1.0 -0.202927698
C  C36  1  0.37980000  0.32480000  0.25020000  1.0 -0.202927698
C  C37  1  0.07460000  0.32480000  0.94500000  1.0 -0.202927698
C  C38  1  0.42540000  0.37040000  0.25020000  1.0 -0.202927698
C  C39  1  0.87980000  0.62960000  0.05500000  1.0 -0.202927698
C  C40  1  0.62020000  0.67520000  0.74980000  1.0 -0.202927698
C  C41  1  0.91890000  0.73320000  0.98910000  1.0 -0.1125575719
C  C42  1  0.58110000  0.57020000  0.81430000  1.0 -0.1125575719
C  C43  1  0.24410000  0.42980000  0.01090000  1.0 -0.1125575719
C  C44  1  0.25590000  0.26680000  0.18570000  1.0 -0.1125575719
C  C45  1  0.08110000  0.26680000  0.01090000  1.0 -0.1125575719
C  C46  1  0.41890000  0.42980000  0.18570000  1.0 -0.1125575719
C  C47  1  0.75590000  0.57020000  0.98910000  1.0 -0.1125575719
C  C48  1  0.74410000  0.73320000  0.81430000  1.0 -0.1125575719
C  C49  1  0.12210000  0.64780000  0.86710000  1.0 0.4779207012
C  C50  1  0.37790000  0.24500000  0.52570000  1.0 0.4779207012
C  C51  1  0.28070000  0.75500000  0.13290000  1.0 0.4779207012
C  C52  1  0.21930000  0.35220000  0.47430000  1.0 0.4779207012
C  C53  1  0.87790000  0.35220000  0.13290000  1.0 0.4779207012
C  C54  1  0.62210000  0.75500000  0.47430000  1.0 0.4779207012
C  C55  1  0.71930000  0.24500000  0.86710000  1.0 0.4779207012
C  C56  1  0.78070000  0.64780000  0.52570000  1.0 0.4779207012
C  C57  1  0.02480000  0.69120000  0.93140000  1.0 -0.1585112796
C  C58  1  0.47520000  0.40660000  0.66640000  1.0 -0.1585112796
C  C59  1  0.25980000  0.59340000  0.06860000  1.0 -0.1585112796
C  C60  1  0.24020000  0.30880000  0.33360000  1.0 -0.1585112796
C  C61  1  0.97520000  0.30880000  0.06860000  1.0 -0.1585112796
C  C62  1  0.52480000  0.59340000  0.33360000  1.0 -0.1585112796
C  C63  1  0.74020000  0.40660000  0.93140000  1.0 -0.1585112796
C  C64  1  0.75980000  0.69120000  0.66640000  1.0 -0.1585112796
C  C65  1  0.14840000  0.98390000  0.27550000  1.0 0.5091814226
C  C66  1  0.35160000  0.62710000  0.83550000  1.0 0.5091814226
C  C67  1  0.20840000  0.37290000  0.72450000  1.0 0.5091814226
C  C68  1  0.29160000  0.01610000  0.16450000  1.0 0.5091814226
C  C69  1  0.85160000  0.01610000  0.72450000  1.0 0.5091814226
C  C70  1  0.64840000  0.37290000  0.16450000  1.0 0.5091814226
C  C71  1  0.79160000  0.62710000  0.27550000  1.0 0.5091814226
C  C72  1  0.70840000  0.98390000  0.83550000  1.0 0.5091814226
C  C73  1  0.88680000  0.74560000  0.94000000  1.0 0.1540854996
C  C74  1  0.61320000  0.55320000  0.85880000  1.0 0.1540854996
C  C75  1  0.30560000  0.44680000  0.06000000  1.0 0.1540854996
C  C76  1  0.19440000  0.25440000  0.14120000  1.0 0.1540854996
C  C77  1  0.11320000  0.25440000  0.06000000  1.0 0.1540854996
C  C78  1  0.38680000  0.44680000  0.14120000  1.0 0.1540854996
C  C79  1  0.69440000  0.55320000  0.94000000  1.0 0.1540854996
C  C80  1  0.80560000  0.74560000  0.85880000  1.0 0.1540854996
C  C81  1  0.91780000  0.79600000  0.92720000  1.0 -0.202927698
C  C82  1  0.58220000  0.50940000  0.87820000  1.0 -0.202927698
C  C83  1  0.36880000  0.49060000  0.07280000  1.0 -0.202927698
C  C84  1  0.13120000  0.20400000  0.12180000  1.0 -0.202927698
C  C85  1  0.08220000  0.20400000  0.07280000  1.0 -0.202927698
C  C86  1  0.41780000  0.49060000  0.12180000  1.0 -0.202927698
C  C87  1  0.63120000  0.50940000  0.92720000  1.0 -0.202927698
C  C88  1  0.86880000  0.79600000  0.87820000  1.0 -0.202927698
C  C89  1  0.13200000  0.81250000  0.07130000  1.0 -0.1585112796
C  C90  1  0.36800000  0.43930000  0.68050000  1.0 -0.1585112796
C  C91  1  0.24120000  0.56070000  0.92870000  1.0 -0.1585112796
C  C92  1  0.25880000  0.18750000  0.31950000  1.0 -0.1585112796
C  C93  1  0.86800000  0.18750000  0.92870000  1.0 -0.1585112796
C  C94  1  0.63200000  0.56070000  0.31950000  1.0 -0.1585112796
C  C95  1  0.75880000  0.43930000  0.07130000  1.0 -0.1585112796
C  C96  1  0.74120000  0.81250000  0.68050000  1.0 -0.1585112796
C  C97  1  0.10520000  0.88090000  0.15650000  1.0 -0.0568159325
C  C98  1  0.39480000  0.55130000  0.77570000  1.0 -0.0568159325
C  C99  1  0.22440000  0.44870000  0.84350000  1.0 -0.0568159325
C  C100  1  0.27560000  0.11910000  0.22430000  1.0 -0.0568159325
C  C101  1  0.89480000  0.11910000  0.84350000  1.0 -0.0568159325
C  C102  1  0.60520000  0.44870000  0.22430000  1.0 -0.0568159325
C  C103  1  0.77560000  0.55130000  0.15650000  1.0 -0.0568159325
C  C104  1  0.72440000  0.88090000  0.77570000  1.0 -0.0568159325
N  N1  1  0.82490000  0.65950000  0.98440000  1.0 -0.3191060671
N  N2  1  0.67510000  0.65950000  0.83460000  1.0 -0.3191060671
N  N3  1  0.17510000  0.34050000  0.01560000  1.0 -0.3191060671
N  N4  1  0.32490000  0.34050000  0.16540000  1.0 -0.3191060671
N  N5  1  0.81940000  0.72180000  0.90240000  1.0 -0.3191060671
N  N6  1  0.68060000  0.58300000  0.90240000  1.0 -0.3191060671
N  N7  1  0.31940000  0.41700000  0.09760000  1.0 -0.3191060671
N  N8  1  0.18060000  0.27820000  0.09760000  1.0 -0.3191060671
O  O1  1  0.18168000  0.67268000  0.88500000  1.0 -0.6103749969
O  O2  1  0.31832000  0.20332000  0.49100000  1.0 -0.6103749969
O  O3  1  0.28768000  0.79668000  0.11500000  1.0 -0.6103749969
O  O4  1  0.21232000  0.32732000  0.50900000  1.0 -0.6103749969
O  O5  1  0.81832000  0.32732000  0.11500000  1.0 -0.6103749969
O  O6  1  0.68168000  0.79668000  0.50900000  1.0 -0.6103749969
O  O7  1  0.71232000  0.20332000  0.88500000  1.0 -0.6103749969
O  O8  1  0.78768000  0.67268000  0.49100000  1.0 -0.6103749969
O  O9  1  0.20760000  0.97580000  0.29740000  1.0 -0.2337627248
O  O10  1  0.29240000  0.58980000  0.76820000  1.0 -0.2337627248
O  O11  1  0.17840000  0.41020000  0.70260000  1.0 -0.2337627248
O  O12  1  0.32160000  0.02420000  0.23180000  1.0 -0.2337627248
O  O13  1  0.79240000  0.02420000  0.70260000  1.0 -0.2337627248
O  O14  1  0.70760000  0.41020000  0.23180000  1.0 -0.2337627248
O  O15  1  0.82160000  0.58980000  0.29740000  1.0 -0.2337627248
O  O16  1  0.67840000  0.97580000  0.76820000  1.0 -0.2337627248
O  O17  1  0.12100000  0.05290000  0.34910000  1.0 -0.5326330686
O  O18  1  0.37900000  0.72810000  0.93190000  1.0 -0.5326330686
O  O19  1  0.20380000  0.27190000  0.65090000  1.0 -0.5326330686
O  O20  1  0.29620000  0.94710000  0.06810000  1.0 -0.5326330686
O  O21  1  0.87900000  0.94710000  0.65090000  1.0 -0.5326330686
O  O22  1  0.62100000  0.27190000  0.06810000  1.0 -0.5326330686
O  O23  1  0.79620000  0.72810000  0.34910000  1.0 -0.5326330686
O  O24  1  0.70380000  0.05290000  0.93190000  1.0 -0.5326330686
O  O25  1  0.08490000  0.56530000  0.76100000  1.0 -0.1032855832
O  O26  1  0.41510000  0.17610000  0.48040000  1.0 -0.1032855832
O  O27  1  0.30430000  0.82390000  0.23900000  1.0 -0.1032855832
O  O28  1  0.19570000  0.43470000  0.51960000  1.0 -0.1032855832
O  O29  1  0.91510000  0.43470000  0.23900000  1.0 -0.1032855832
O  O30  1  0.58490000  0.82390000  0.51960000  1.0 -0.1032855832
O  O31  1  0.69570000  0.17610000  0.76100000  1.0 -0.1032855832
O  O32  1  0.80430000  0.56530000  0.48040000  1.0 -0.1032855832
O  O33  1  0.20700000  0.00140000  0.29020000  1.0 -0.1763382993
O  O34  1  0.29300000  0.58320000  0.79440000  1.0 -0.1763382993
O  O35  1  0.21120000  0.41680000  0.70980000  1.0 -0.1763382993
O  O36  1  0.28880000  0.99860000  0.20560000  1.0 -0.1733910838
O  O37  1  0.79300000  0.99860000  0.70980000  1.0 -0.1763382993
O  O38  1  0.70700000  0.41680000  0.20560000  1.0 -0.1763382993
O  O39  1  0.78880000  0.58320000  0.29020000  1.0 -0.1763382993
O  O40  1  0.71120000  0.00140000  0.79440000  1.0 -0.1763382993
O  O41  1  0.08650000  0.53760000  0.76290000  1.0 -0.0796742761
O  O42  1  0.41350000  0.17640000  0.45110000  1.0 -0.0796742761
O  O43  1  0.27470000  0.82360000  0.23710000  1.0 -0.0796742761
O  O44  1  0.22530000  0.46240000  0.54890000  1.0 -0.0796742761
O  O45  1  0.91350000  0.46240000  0.23710000  1.0 -0.0796742761
O  O46  1  0.58650000  0.82360000  0.54890000  1.0 -0.0796742761
O  O47  1  0.72530000  0.17640000  0.76290000  1.0 -0.0796742761
O  O48  1  0.77470000  0.53760000  0.45110000  1.0 -0.0796742761
