# DDEC6 charges by PACMAN v1.1 (https://github.com/mtap-research/PACMAN-charge/)
data_LACZAT_ASR_pacman
_symmetry_space_group_name_H-M   'P 1'
_cell_length_a   25.08040000
_cell_length_b   25.08040000
_cell_length_c   16.27100000
_cell_angle_alpha   90.00000000
_cell_angle_beta   90.00000000
_cell_angle_gamma   133.10600000
_symmetry_Int_Tables_number   1
_chemical_formula_structural   Mn6Zn3H33C81(N3O16)2
_chemical_formula_sum   'Mn12 Zn6 H66 C162 N12 O64'
_cell_volume   7472.39791961
_cell_formula_units_Z   2
loop_
 _symmetry_equiv_pos_site_id
 _symmetry_equiv_pos_as_xyz
  1  'x, y, z'
loop_
 _atom_site_type_symbol
 _atom_site_label
 _atom_site_symmetry_multiplicity
 _atom_site_fract_x
 _atom_site_fract_y
 _atom_site_fract_z
 _atom_site_occupancy
 _atom_site_charge
Mn  Mn1  1  0.76714000  0.92640000  0.00000000  1.0 1.0832606676
Mn  Mn2  1  0.23286000  0.07360000  0.00000000  1.0 1.0851838314
Mn  Mn3  1  0.07360000  0.23286000  0.00000000  1.0 1.0832606676
Mn  Mn4  1  0.92640000  0.76714000  0.00000000  1.0 1.0832606676
Mn  Mn5  1  0.62079000  0.85817000  0.88749000  1.0 0.9805825748
Mn  Mn6  1  0.37921000  0.14183000  0.88749000  1.0 0.9805825748
Mn  Mn7  1  0.14183000  0.37921000  0.11251000  1.0 0.9805825748
Mn  Mn8  1  0.85817000  0.62079000  0.11251000  1.0 0.9805825748
Mn  Mn9  1  0.37921000  0.14183000  0.11251000  1.0 0.9805825748
Mn  Mn10  1  0.62079000  0.85817000  0.11251000  1.0 0.9805825748
Mn  Mn11  1  0.85817000  0.62079000  0.88749000  1.0 0.9805825748
Mn  Mn12  1  0.14183000  0.37921000  0.88749000  1.0 0.9805825748
Zn  Zn1  1  0.49220000  0.50780000  0.50000000  1.0 0.3662447356
Zn  Zn2  1  0.50780000  0.49220000  0.50000000  1.0 0.3662447356
Zn  Zn3  1  0.78120000  0.26482000  0.50000000  1.0 0.3776212358
Zn  Zn4  1  0.21880000  0.73518000  0.50000000  1.0 0.3776212358
Zn  Zn5  1  0.73518000  0.21880000  0.50000000  1.0 0.3776212358
Zn  Zn6  1  0.26482000  0.78120000  0.50000000  1.0 0.3776212358
H  H1  1  0.80160000  0.80160000  0.88410000  1.0 0.1358968949
H  H2  1  0.19840000  0.19840000  0.88410000  1.0 0.1358968949
H  H3  1  0.19840000  0.19840000  0.11590000  1.0 0.1358968949
H  H4  1  0.80160000  0.80160000  0.11590000  1.0 0.1358968949
H  H5  1  0.75030000  0.75030000  0.57680000  1.0 0.1301405929
H  H6  1  0.24970000  0.24970000  0.57680000  1.0 0.1301405929
H  H7  1  0.24970000  0.24970000  0.42320000  1.0 0.1301405929
H  H8  1  0.75030000  0.75030000  0.42320000  1.0 0.1301405929
H  H9  1  0.73590000  0.06150000  0.72400000  1.0 0.1301405929
H  H10  1  0.26410000  0.93850000  0.72400000  1.0 0.1301405929
H  H11  1  0.93850000  0.26410000  0.27600000  1.0 0.1301405929
H  H12  1  0.06150000  0.73590000  0.27600000  1.0 0.1301405929
H  H13  1  0.26410000  0.93850000  0.27600000  1.0 0.1301405929
H  H14  1  0.73590000  0.06150000  0.27600000  1.0 0.1301405929
H  H15  1  0.06150000  0.73590000  0.72400000  1.0 0.1301405929
H  H16  1  0.93850000  0.26410000  0.72400000  1.0 0.1301405929
H  H17  1  0.64020000  0.72820000  0.72310000  1.0 0.1231561972
H  H18  1  0.35980000  0.27180000  0.72310000  1.0 0.1231561972
H  H19  1  0.27180000  0.35980000  0.27690000  1.0 0.1231561972
H  H20  1  0.72820000  0.64020000  0.27690000  1.0 0.1231561972
H  H21  1  0.35980000  0.27180000  0.27690000  1.0 0.1231561972
H  H22  1  0.64020000  0.72820000  0.27690000  1.0 0.1231561972
H  H23  1  0.72820000  0.64020000  0.72310000  1.0 0.1231561972
H  H24  1  0.27180000  0.35980000  0.72310000  1.0 0.1231561972
H  H25  1  0.86700000  0.13300000  0.57510000  1.0 0.1301405929
H  H26  1  0.13300000  0.86700000  0.57510000  1.0 0.1301405929
H  H27  1  0.86700000  0.13300000  0.42490000  1.0 0.1301405929
H  H28  1  0.13300000  0.86700000  0.42490000  1.0 0.1301405929
H  H29  1  0.88690000  0.11310000  0.88710000  1.0 0.1231561972
H  H30  1  0.11310000  0.88690000  0.88710000  1.0 0.1231561972
H  H31  1  0.88690000  0.11310000  0.11290000  1.0 0.1231561972
H  H32  1  0.11310000  0.88690000  0.11290000  1.0 0.1231561972
H  H33  1  0.78540000  0.21460000  0.80710000  1.0 0.1301405929
H  H34  1  0.21460000  0.78540000  0.80710000  1.0 0.1301405929
H  H35  1  0.78540000  0.21460000  0.19290000  1.0 0.1301405929
H  H36  1  0.21460000  0.78540000  0.19290000  1.0 0.1301405929
H  H37  1  0.90850000  0.09150000  0.00000000  1.0 0.0665492662
H  H38  1  0.09150000  0.90850000  0.00000000  1.0 0.0665492662
H  H39  1  0.77870000  0.42290000  0.72090000  1.0 0.1301405929
H  H40  1  0.22130000  0.57710000  0.72090000  1.0 0.1301405929
H  H41  1  0.57710000  0.22130000  0.27910000  1.0 0.1301405929
H  H42  1  0.42290000  0.77870000  0.27910000  1.0 0.1301405929
H  H43  1  0.22130000  0.57710000  0.27910000  1.0 0.1301405929
H  H44  1  0.77870000  0.42290000  0.27910000  1.0 0.1301405929
H  H45  1  0.42290000  0.77870000  0.72090000  1.0 0.1301405929
H  H46  1  0.57710000  0.22130000  0.72090000  1.0 0.1301405929
H  H47  1  0.62230000  0.37770000  0.86820000  1.0 0.1358968949
H  H48  1  0.37770000  0.62230000  0.86820000  1.0 0.1358968949
H  H49  1  0.62230000  0.37770000  0.13180000  1.0 0.1358968949
H  H50  1  0.37770000  0.62230000  0.13180000  1.0 0.1358968949
H  H51  1  0.64880000  0.35120000  0.57430000  1.0 0.1358968949
H  H52  1  0.35120000  0.64880000  0.57430000  1.0 0.1358968949
H  H53  1  0.64880000  0.35120000  0.42570000  1.0 0.1358968949
H  H54  1  0.35120000  0.64880000  0.42570000  1.0 0.1358968949
H  H55  1  0.56230000  0.56230000  0.80730000  1.0 0.1301405929
H  H56  1  0.43770000  0.43770000  0.80730000  1.0 0.1301405929
H  H57  1  0.43770000  0.43770000  0.19270000  1.0 0.1301405929
H  H58  1  0.56230000  0.56230000  0.19270000  1.0 0.1301405929
H  H59  1  0.73100000  0.26900000  0.80660000  1.0 0.1301405929
H  H60  1  0.26900000  0.73100000  0.80660000  1.0 0.1301405929
H  H61  1  0.73100000  0.26900000  0.19340000  1.0 0.1301405929
H  H62  1  0.26900000  0.73100000  0.19340000  1.0 0.1301405929
H  H63  1  0.56670000  0.95090000  0.00000000  1.0 0.2055306606
H  H64  1  0.43330000  0.04910000  0.00000000  1.0 0.2055306606
H  H65  1  0.04910000  0.43330000  0.00000000  1.0 0.2055306606
H  H66  1  0.95090000  0.56670000  0.00000000  1.0 0.2042929702
C  C1  1  0.55520000  0.55520000  0.67610000  1.0 0.1693970584
C  C2  1  0.44480000  0.44480000  0.67610000  1.0 0.1693970584
C  C3  1  0.44480000  0.44480000  0.32390000  1.0 0.1693970584
C  C4  1  0.55520000  0.55520000  0.32390000  1.0 0.1693970584
C  C5  1  0.64350000  0.64350000  0.56830000  1.0 0.1616541245
C  C6  1  0.35650000  0.35650000  0.56830000  1.0 0.1616541245
C  C7  1  0.35650000  0.35650000  0.43170000  1.0 0.1616541245
C  C8  1  0.64350000  0.64350000  0.43170000  1.0 0.1616541245
C  C9  1  0.62210000  0.62210000  0.64890000  1.0 -0.0738985903
C  C10  1  0.37790000  0.37790000  0.64890000  1.0 -0.0738985903
C  C11  1  0.37790000  0.37790000  0.35110000  1.0 -0.0738985903
C  C12  1  0.62210000  0.62210000  0.35110000  1.0 -0.0738985903
C  C13  1  0.67400000  0.67400000  0.71590000  1.0 0.0644508002
C  C14  1  0.32600000  0.32600000  0.71590000  1.0 0.0665492662
C  C15  1  0.32600000  0.32600000  0.28410000  1.0 0.0665492662
C  C16  1  0.67400000  0.67400000  0.28410000  1.0 0.0644508002
C  C17  1  0.69639000  0.30361000  0.56810000  1.0 0.1693970584
C  C18  1  0.30361000  0.69639000  0.56810000  1.0 0.1693970584
C  C19  1  0.69639000  0.30361000  0.43190000  1.0 0.1693970584
C  C20  1  0.30361000  0.69639000  0.43190000  1.0 0.1693970584
C  C21  1  0.76920000  0.76920000  0.84140000  1.0 -0.1096726112
C  C22  1  0.23080000  0.23080000  0.84140000  1.0 -0.1096726112
C  C23  1  0.23080000  0.23080000  0.15860000  1.0 -0.1096726112
C  C24  1  0.76920000  0.76920000  0.15860000  1.0 -0.1096726112
C  C25  1  0.71961000  0.77235000  0.81080000  1.0 -0.0080538029
C  C26  1  0.28039000  0.22765000  0.81080000  1.0 -0.0080538029
C  C27  1  0.22765000  0.28039000  0.18920000  1.0 -0.0080538029
C  C28  1  0.77235000  0.71961000  0.18920000  1.0 -0.0080538029
C  C29  1  0.28039000  0.22765000  0.18920000  1.0 -0.0080538029
C  C30  1  0.71961000  0.77235000  0.18920000  1.0 -0.0080538029
C  C31  1  0.77235000  0.71961000  0.81080000  1.0 -0.0080538029
C  C32  1  0.22765000  0.28039000  0.81080000  1.0 -0.0080538029
C  C33  1  0.71200000  0.71200000  0.54220000  1.0 -0.1595664356
C  C34  1  0.28800000  0.28800000  0.54220000  1.0 -0.1595664356
C  C35  1  0.28800000  0.28800000  0.45780000  1.0 -0.1595664356
C  C36  1  0.71200000  0.71200000  0.45780000  1.0 -0.1595664356
C  C37  1  0.78365000  0.09639000  0.74650000  1.0 -0.1384099038
C  C38  1  0.21635000  0.90361000  0.74650000  1.0 -0.1384099038
C  C39  1  0.90361000  0.21635000  0.25350000  1.0 -0.1384099038
C  C40  1  0.09639000  0.78365000  0.25350000  1.0 -0.1384099038
C  C41  1  0.21635000  0.90361000  0.25350000  1.0 -0.1384099038
C  C42  1  0.78365000  0.09639000  0.25350000  1.0 -0.1384099038
C  C43  1  0.09639000  0.78365000  0.74650000  1.0 -0.1384099038
C  C44  1  0.90361000  0.21635000  0.74650000  1.0 -0.1384099038
C  C45  1  0.73454000  0.26546000  0.67470000  1.0 0.1891967081
C  C46  1  0.26546000  0.73454000  0.67470000  1.0 0.1891967081
C  C47  1  0.73454000  0.26546000  0.32530000  1.0 0.1891967081
C  C48  1  0.26546000  0.73454000  0.32530000  1.0 0.1891967081
C  C49  1  0.67285000  0.72513000  0.74620000  1.0 -0.148908896
C  C50  1  0.32715000  0.27487000  0.74620000  1.0 -0.148908896
C  C51  1  0.27487000  0.32715000  0.25380000  1.0 -0.148908896
C  C52  1  0.72513000  0.67285000  0.25380000  1.0 -0.148908896
C  C53  1  0.32715000  0.27487000  0.25380000  1.0 -0.148908896
C  C54  1  0.67285000  0.72513000  0.25380000  1.0 -0.148908896
C  C55  1  0.72513000  0.67285000  0.74620000  1.0 -0.148908896
C  C56  1  0.27487000  0.32715000  0.74620000  1.0 -0.148908896
C  C57  1  0.80342000  0.07666000  0.81130000  1.0 -0.0018797971
C  C58  1  0.19658000  0.92334000  0.81130000  1.0 -0.0018797971
C  C59  1  0.92334000  0.19658000  0.18870000  1.0 -0.0018797971
C  C60  1  0.07666000  0.80342000  0.18870000  1.0 -0.0018797971
C  C61  1  0.19658000  0.92334000  0.18870000  1.0 -0.0018797971
C  C62  1  0.80342000  0.07666000  0.18870000  1.0 -0.0018797971
C  C63  1  0.07666000  0.80342000  0.81130000  1.0 -0.0018797971
C  C64  1  0.92334000  0.19658000  0.81130000  1.0 -0.0018797971
C  C65  1  0.83332000  0.16668000  0.71440000  1.0 0.0644508002
C  C66  1  0.16668000  0.83332000  0.71440000  1.0 0.0644508002
C  C67  1  0.83332000  0.16668000  0.28560000  1.0 0.0644508002
C  C68  1  0.16668000  0.83332000  0.28560000  1.0 0.0644508002
C  C69  1  0.70542000  0.29458000  0.64720000  1.0 -0.1011728305
C  C70  1  0.29458000  0.70542000  0.64720000  1.0 -0.1011728305
C  C71  1  0.70542000  0.29458000  0.35280000  1.0 -0.1011728305
C  C72  1  0.29458000  0.70542000  0.35280000  1.0 -0.1011728305
C  C73  1  0.78211000  0.21789000  0.67550000  1.0 0.147606703
C  C74  1  0.21789000  0.78211000  0.67550000  1.0 0.147606703
C  C75  1  0.78211000  0.21789000  0.32450000  1.0 0.147606703
C  C76  1  0.21789000  0.78211000  0.32450000  1.0 0.147606703
C  C77  1  0.85027000  0.14973000  0.54110000  1.0 -0.173652533
C  C78  1  0.14973000  0.85027000  0.54110000  1.0 -0.173652533
C  C79  1  0.85027000  0.14973000  0.45890000  1.0 -0.173652533
C  C80  1  0.14973000  0.85027000  0.45890000  1.0 -0.173652533
C  C81  1  0.68291000  0.31709000  0.71440000  1.0 0.0796375633
C  C82  1  0.31709000  0.68291000  0.71440000  1.0 0.0796375633
C  C83  1  0.68291000  0.31709000  0.28560000  1.0 0.0796375633
C  C84  1  0.31709000  0.68291000  0.28560000  1.0 0.0796375633
C  C85  1  0.81132000  0.18868000  0.65020000  1.0 -0.0738985903
C  C86  1  0.18868000  0.81132000  0.65020000  1.0 -0.0771304545
C  C87  1  0.81132000  0.18868000  0.34980000  1.0 -0.0771304545
C  C88  1  0.18868000  0.81132000  0.34980000  1.0 -0.0771304545
C  C89  1  0.82067000  0.17933000  0.56950000  1.0 0.147606703
C  C90  1  0.17933000  0.82067000  0.56950000  1.0 0.147606703
C  C91  1  0.82067000  0.17933000  0.43050000  1.0 0.147606703
C  C92  1  0.17933000  0.82067000  0.43050000  1.0 0.147606703
C  C93  1  0.87326000  0.12674000  0.84320000  1.0 -0.1303889412
C  C94  1  0.12674000  0.87326000  0.84320000  1.0 -0.1303889412
C  C95  1  0.87326000  0.12674000  0.15680000  1.0 -0.1303889412
C  C96  1  0.12674000  0.87326000  0.15680000  1.0 -0.1303889412
C  C97  1  0.77314000  0.22686000  0.76020000  1.0 -0.173652533
C  C98  1  0.22686000  0.77314000  0.76020000  1.0 -0.173652533
C  C99  1  0.77314000  0.22686000  0.23980000  1.0 -0.173652533
C  C100  1  0.22686000  0.77314000  0.23980000  1.0 -0.173652533
C  C101  1  0.70890000  0.41026000  0.79830000  1.0 0.0040907491
C  C102  1  0.29110000  0.58974000  0.79830000  1.0 0.0040907491
C  C103  1  0.58974000  0.29110000  0.20170000  1.0 0.0040907491
C  C104  1  0.41026000  0.70890000  0.20170000  1.0 0.0040907491
C  C105  1  0.29110000  0.58974000  0.20170000  1.0 0.0040907491
C  C106  1  0.70890000  0.41026000  0.20170000  1.0 0.0040907491
C  C107  1  0.41026000  0.70890000  0.79830000  1.0 0.0040907491
C  C108  1  0.58974000  0.29110000  0.79830000  1.0 0.0040907491
C  C109  1  0.71547000  0.82393000  0.84790000  1.0 0.5766063914
C  C110  1  0.28453000  0.17607000  0.84790000  1.0 0.5766063914
C  C111  1  0.17607000  0.28453000  0.15210000  1.0 0.5766063914
C  C112  1  0.82393000  0.71547000  0.15210000  1.0 0.5766063914
C  C113  1  0.28453000  0.17607000  0.15210000  1.0 0.5766063914
C  C114  1  0.71547000  0.82393000  0.15210000  1.0 0.5766063914
C  C115  1  0.82393000  0.71547000  0.84790000  1.0 0.5766063914
C  C116  1  0.17607000  0.28453000  0.84790000  1.0 0.5766063914
C  C117  1  0.92916000  0.07084000  0.00000000  1.0 0.4925171011
C  C118  1  0.07084000  0.92916000  0.00000000  1.0 0.4925171011
C  C119  1  0.73035000  0.38853000  0.74190000  1.0 -0.1384099038
C  C120  1  0.26965000  0.61147000  0.74190000  1.0 -0.1384099038
C  C121  1  0.61147000  0.26965000  0.25810000  1.0 -0.1384099038
C  C122  1  0.38853000  0.73035000  0.25810000  1.0 -0.1384099038
C  C123  1  0.26965000  0.61147000  0.25810000  1.0 -0.1384099038
C  C124  1  0.73035000  0.38853000  0.25810000  1.0 -0.1384099038
C  C125  1  0.38853000  0.73035000  0.74190000  1.0 -0.1384099038
C  C126  1  0.61147000  0.26965000  0.74190000  1.0 -0.1384099038
C  C127  1  0.63757000  0.36243000  0.82870000  1.0 -0.1096726112
C  C128  1  0.36243000  0.63757000  0.82870000  1.0 -0.1164514176
C  C129  1  0.63757000  0.36243000  0.17130000  1.0 -0.1096726112
C  C130  1  0.36243000  0.63757000  0.17130000  1.0 -0.1164514176
C  C131  1  0.66552000  0.33448000  0.54000000  1.0 -0.148908896
C  C132  1  0.33448000  0.66552000  0.54000000  1.0 -0.148908896
C  C133  1  0.66552000  0.33448000  0.46000000  1.0 -0.148908896
C  C134  1  0.33448000  0.66552000  0.46000000  1.0 -0.148908896
C  C135  1  0.53400000  0.53400000  0.76040000  1.0 -0.1595664356
C  C136  1  0.46600000  0.46600000  0.76040000  1.0 -0.1595664356
C  C137  1  0.46600000  0.46600000  0.23960000  1.0 -0.1595664356
C  C138  1  0.53400000  0.53400000  0.23960000  1.0 -0.1595664356
C  C139  1  0.74863000  0.00177000  0.84920000  1.0 0.5766063914
C  C140  1  0.25137000  0.99823000  0.84920000  1.0 0.5766063914
C  C141  1  0.99823000  0.25137000  0.15080000  1.0 0.5766063914
C  C142  1  0.00177000  0.74863000  0.15080000  1.0 0.5766063914
C  C143  1  0.25137000  0.99823000  0.15080000  1.0 0.5766063914
C  C144  1  0.74863000  0.00177000  0.15080000  1.0 0.5766063914
C  C145  1  0.00177000  0.74863000  0.84920000  1.0 0.5766063914
C  C146  1  0.99823000  0.25137000  0.84920000  1.0 0.5766063914
C  C147  1  0.74342000  0.25658000  0.75990000  1.0 -0.1883050106
C  C148  1  0.25658000  0.74342000  0.75990000  1.0 -0.1883050106
C  C149  1  0.74342000  0.25658000  0.24010000  1.0 -0.1883050106
C  C150  1  0.25658000  0.74342000  0.24010000  1.0 -0.1883050106
C  C151  1  0.76213000  0.48847000  0.83080000  1.0 0.5384070747
C  C152  1  0.23787000  0.51153000  0.83080000  1.0 0.5384070747
C  C153  1  0.51153000  0.23787000  0.16920000  1.0 0.5384070747
C  C154  1  0.48847000  0.76213000  0.16920000  1.0 0.5384070747
C  C155  1  0.23787000  0.51153000  0.16920000  1.0 0.5384070747
C  C156  1  0.76213000  0.48847000  0.16920000  1.0 0.5384070747
C  C157  1  0.48847000  0.76213000  0.83080000  1.0 0.5384070747
C  C158  1  0.51153000  0.23787000  0.83080000  1.0 0.5384070747
C  C159  1  0.57770000  0.92130000  0.00000000  1.0 0.417546513
C  C160  1  0.42230000  0.07870000  0.00000000  1.0 0.4135635419
C  C161  1  0.07870000  0.42230000  0.00000000  1.0 0.4135635419
C  C162  1  0.92130000  0.57770000  0.00000000  1.0 0.4135635419
N  N1  1  0.50000000  0.50000000  0.62570000  1.0 -0.3081055559
N  N2  1  0.50000000  0.50000000  0.37430000  1.0 -0.3081055559
N  N3  1  0.60270000  0.60270000  0.50000000  1.0 -0.3022899456
N  N4  1  0.39730000  0.39730000  0.50000000  1.0 -0.3022899456
N  N5  1  0.80192000  0.19808000  0.50000000  1.0 -0.3227765537
N  N6  1  0.19808000  0.80192000  0.50000000  1.0 -0.3227765537
N  N7  1  0.71361000  0.28639000  0.50000000  1.0 -0.2826159871
N  N8  1  0.28639000  0.71361000  0.50000000  1.0 -0.2826159871
N  N9  1  0.75784000  0.24216000  0.62470000  1.0 -0.3022899456
N  N10  1  0.24216000  0.75784000  0.62470000  1.0 -0.3022899456
N  N11  1  0.75784000  0.24216000  0.37530000  1.0 -0.3022899456
N  N12  1  0.24216000  0.75784000  0.37530000  1.0 -0.3022899456
O  O1  1  0.64871000  0.84203000  0.00000000  1.0 -0.7773104983
O  O2  1  0.35129000  0.15797000  0.00000000  1.0 -0.7773104983
O  O3  1  0.15797000  0.35129000  0.00000000  1.0 -0.7740353621
O  O4  1  0.84203000  0.64871000  0.00000000  1.0 -0.7773104983
O  O5  1  0.88578000  0.00190000  0.00000000  1.0 -0.4781536271
O  O6  1  0.11422000  0.99810000  0.00000000  1.0 -0.4781536271
O  O7  1  0.99810000  0.11422000  0.00000000  1.0 -0.4781536271
O  O8  1  0.00190000  0.88578000  0.00000000  1.0 -0.4781536271
O  O9  1  0.76303000  0.86741000  0.90033000  1.0 -0.5133205108
O  O10  1  0.23697000  0.13259000  0.90033000  1.0 -0.5133205108
O  O11  1  0.13259000  0.23697000  0.09967000  1.0 -0.5133205108
O  O12  1  0.86741000  0.76303000  0.09967000  1.0 -0.5133205108
O  O13  1  0.23697000  0.13259000  0.09967000  1.0 -0.5133205108
O  O14  1  0.76303000  0.86741000  0.09967000  1.0 -0.5133205108
O  O15  1  0.86741000  0.76303000  0.90033000  1.0 -0.5133205108
O  O16  1  0.13259000  0.23697000  0.90033000  1.0 -0.5133205108
O  O17  1  0.66457000  0.81853000  0.82539000  1.0 -0.499644266
O  O18  1  0.33543000  0.18147000  0.82539000  1.0 -0.499644266
O  O19  1  0.18147000  0.33543000  0.17461000  1.0 -0.499644266
O  O20  1  0.81853000  0.66457000  0.17461000  1.0 -0.499644266
O  O21  1  0.33543000  0.18147000  0.17461000  1.0 -0.499644266
O  O22  1  0.66457000  0.81853000  0.17461000  1.0 -0.499644266
O  O23  1  0.81853000  0.66457000  0.82539000  1.0 -0.499644266
O  O24  1  0.18147000  0.33543000  0.82539000  1.0 -0.499644266
O  O25  1  0.74475000  0.50567000  0.88900000  1.0 -0.4495323278
O  O26  1  0.25525000  0.49433000  0.88900000  1.0 -0.4495323278
O  O27  1  0.49433000  0.25525000  0.11100000  1.0 -0.4495323278
O  O28  1  0.50567000  0.74475000  0.11100000  1.0 -0.4495323278
O  O29  1  0.25525000  0.49433000  0.11100000  1.0 -0.4495323278
O  O30  1  0.74475000  0.50567000  0.11100000  1.0 -0.4495323278
O  O31  1  0.50567000  0.74475000  0.88900000  1.0 -0.4495323278
O  O32  1  0.49433000  0.25525000  0.88900000  1.0 -0.4495323278
O  O33  1  0.68762000  0.95654000  0.81590000  1.0 -0.4781536271
O  O34  1  0.31238000  0.04346000  0.81590000  1.0 -0.4747281946
O  O35  1  0.04346000  0.31238000  0.18410000  1.0 -0.4781536271
O  O36  1  0.95654000  0.68762000  0.18410000  1.0 -0.4781536271
O  O37  1  0.31238000  0.04346000  0.18410000  1.0 -0.4781536271
O  O38  1  0.68762000  0.95654000  0.18410000  1.0 -0.4781536271
O  O39  1  0.95654000  0.68762000  0.81590000  1.0 -0.4747281946
O  O40  1  0.04346000  0.31238000  0.81590000  1.0 -0.4781536271
O  O41  1  0.76678000  0.99058000  0.91230000  1.0 -0.5336412913
O  O42  1  0.23322000  0.00942000  0.91230000  1.0 -0.5336412913
O  O43  1  0.00942000  0.23322000  0.08770000  1.0 -0.5336412913
O  O44  1  0.99058000  0.76678000  0.08770000  1.0 -0.5336412913
O  O45  1  0.23322000  0.00942000  0.08770000  1.0 -0.5336412913
O  O46  1  0.76678000  0.99058000  0.08770000  1.0 -0.5336412913
O  O47  1  0.99058000  0.76678000  0.91230000  1.0 -0.5336412913
O  O48  1  0.00942000  0.23322000  0.91230000  1.0 -0.5336412913
O  O49  1  0.82169000  0.53395000  0.79390000  1.0 -0.4781536271
O  O50  1  0.17831000  0.46605000  0.79390000  1.0 -0.4781536271
O  O51  1  0.46605000  0.17831000  0.20610000  1.0 -0.4781536271
O  O52  1  0.53395000  0.82169000  0.20610000  1.0 -0.4781536271
O  O53  1  0.17831000  0.46605000  0.20610000  1.0 -0.4781536271
O  O54  1  0.82169000  0.53395000  0.20610000  1.0 -0.4781536271
O  O55  1  0.53395000  0.82169000  0.79390000  1.0 -0.4781536271
O  O56  1  0.46605000  0.17831000  0.79390000  1.0 -0.4781536271
O  O57  1  0.58235000  0.90845000  0.93890000  1.0 -0.2443464673
O  O58  1  0.41765000  0.09155000  0.93890000  1.0 -0.2474082089
O  O59  1  0.09155000  0.41765000  0.06110000  1.0 -0.2443464673
O  O60  1  0.90845000  0.58235000  0.06110000  1.0 -0.2474082089
O  O61  1  0.41765000  0.09155000  0.06110000  1.0 -0.2474082089
O  O62  1  0.58235000  0.90845000  0.06110000  1.0 -0.2443464673
O  O63  1  0.90845000  0.58235000  0.93890000  1.0 -0.2474082089
O  O64  1  0.09155000  0.41765000  0.93890000  1.0 -0.2443464673
