# DDEC6 charges by PACMAN v1.1 (https://github.com/mtap-research/PACMAN-charge/)
data_LACZEX_ASR_pacman
_symmetry_space_group_name_H-M   'P 1'
_cell_length_a   21.35280000
_cell_length_b   21.35280000
_cell_length_c   21.35280000
_cell_angle_alpha   145.98300000
_cell_angle_beta   95.58250000
_cell_angle_gamma   94.23490000
_symmetry_Int_Tables_number   1
_chemical_formula_structural   Na4CoH20C52(NO4)4
_chemical_formula_sum   'Na8 Co2 H40 C104 N8 O32'
_cell_volume   5207.85623957
_cell_formula_units_Z   2
loop_
 _symmetry_equiv_pos_site_id
 _symmetry_equiv_pos_as_xyz
  1  'x, y, z'
loop_
 _atom_site_type_symbol
 _atom_site_label
 _atom_site_symmetry_multiplicity
 _atom_site_fract_x
 _atom_site_fract_y
 _atom_site_fract_z
 _atom_site_occupancy
 _atom_site_charge
Na  Na1  1  0.30072000  0.00000000  0.30072000  1.0 0.9138577913
Na  Na2  1  0.19928000  0.50000000  0.69928000  1.0 0.9138577913
Na  Na3  1  0.69928000  0.00000000  0.69928000  1.0 0.9324785804
Na  Na4  1  0.80072000  0.50000000  0.30072000  1.0 0.9138577913
Na  Na5  1  0.29295000  0.29295000  0.50000000  1.0 0.9389841889
Na  Na6  1  0.20705000  0.70705000  0.00000000  1.0 0.9389841889
Na  Na7  1  0.70705000  0.70705000  0.50000000  1.0 0.9389841889
Na  Na8  1  0.79295000  0.29295000  0.00000000  1.0 0.9619339441
Co  Co1  1  0.75000000  0.86796000  0.11796000  1.0 0.6583828365
Co  Co2  1  0.25000000  0.13204000  0.88204000  1.0 0.6583828365
H  H1  1  0.17330000  0.08540000  0.33690000  1.0 0.1308343147
H  H2  1  0.32670000  0.66360000  0.91210000  1.0 0.1308343147
H  H3  1  0.24850000  0.33640000  0.66310000  1.0 0.1308343147
H  H4  1  0.25150000  0.91460000  0.08790000  1.0 0.1308343147
H  H5  1  0.82670000  0.91460000  0.66310000  1.0 0.1308343147
H  H6  1  0.67330000  0.33640000  0.08790000  1.0 0.1308343147
H  H7  1  0.75150000  0.66360000  0.33690000  1.0 0.1308343147
H  H8  1  0.74850000  0.08540000  0.91210000  1.0 0.1308343147
H  H9  1  0.00010000  0.16350000  0.38860000  1.0 0.1220329718
H  H10  1  0.49990000  0.88850000  0.16340000  1.0 0.1220329718
H  H11  1  0.27490000  0.11150000  0.61140000  1.0 0.1220329718
H  H12  1  0.22510000  0.83650000  0.83660000  1.0 0.1220329718
H  H13  1  0.99990000  0.83650000  0.61140000  1.0 0.1220329718
H  H14  1  0.50010000  0.11150000  0.83660000  1.0 0.1220329718
H  H15  1  0.72510000  0.88850000  0.38860000  1.0 0.1220329718
H  H16  1  0.77490000  0.16350000  0.16340000  1.0 0.1220329718
H  H17  1  0.00370000  0.82750000  0.10620000  1.0 0.1220329718
H  H18  1  0.49630000  0.60250000  0.82380000  1.0 0.1220329718
H  H19  1  0.22130000  0.39750000  0.89380000  1.0 0.1220329718
H  H20  1  0.27870000  0.17250000  0.17620000  1.0 0.1220329718
H  H21  1  0.99630000  0.17250000  0.89380000  1.0 0.1220329718
H  H22  1  0.50370000  0.39750000  0.17620000  1.0 0.1220329718
H  H23  1  0.77870000  0.60250000  0.10620000  1.0 0.1220329718
H  H24  1  0.72130000  0.82750000  0.82380000  1.0 0.1220329718
H  H25  1  0.96500000  0.91160000  0.29160000  1.0 0.1308343147
H  H26  1  0.53500000  0.82660000  0.94660000  1.0 0.1308343147
H  H27  1  0.12000000  0.17340000  0.70840000  1.0 0.1308343147
H  H28  1  0.38000000  0.08840000  0.05340000  1.0 0.1308343147
H  H29  1  0.03500000  0.08840000  0.70840000  1.0 0.1308343147
H  H30  1  0.46500000  0.17340000  0.05340000  1.0 0.1308343147
H  H31  1  0.88000000  0.82660000  0.29160000  1.0 0.1308343147
H  H32  1  0.62000000  0.91160000  0.94660000  1.0 0.1308343147
H  H33  1  0.96300000  0.04030000  0.16350000  1.0 0.1308343147
H  H34  1  0.53700000  0.70050000  0.07730000  1.0 0.1308343147
H  H35  1  0.37680000  0.29950000  0.83650000  1.0 0.1308343147
H  H36  1  0.12320000  0.95970000  0.92270000  1.0 0.1308343147
H  H37  1  0.03700000  0.95970000  0.83650000  1.0 0.1308343147
H  H38  1  0.46300000  0.29950000  0.92270000  1.0 0.1308343147
H  H39  1  0.62320000  0.70050000  0.16350000  1.0 0.1308343147
H  H40  1  0.87680000  0.04030000  0.07730000  1.0 0.1308343147
C  C1  1  0.09203000  0.14306000  0.37837000  1.0 0.0087150734
C  C2  1  0.40797000  0.78634000  0.05103000  1.0 0.0087150734
C  C3  1  0.26469000  0.21366000  0.62163000  1.0 0.0087150734
C  C4  1  0.23531000  0.85694000  0.94897000  1.0 0.0087150734
C  C5  1  0.90797000  0.85694000  0.62163000  1.0 0.0087150734
C  C6  1  0.59203000  0.21366000  0.94897000  1.0 0.0087150734
C  C7  1  0.73531000  0.78634000  0.37837000  1.0 0.0087150734
C  C8  1  0.76469000  0.14306000  0.05103000  1.0 0.0087150734
C  C9  1  0.99065000  0.98997000  0.24160000  1.0 0.0707927055
C  C10  1  0.50935000  0.75095000  0.99932000  1.0 0.0707927055
C  C11  1  0.24837000  0.24905000  0.75840000  1.0 0.0707927055
C  C12  1  0.25163000  0.01003000  0.00068000  1.0 0.0707927055
C  C13  1  0.00935000  0.01003000  0.75840000  1.0 0.0707927055
C  C14  1  0.49065000  0.24905000  0.00068000  1.0 0.0707927055
C  C15  1  0.75163000  0.75095000  0.24160000  1.0 0.0707927055
C  C16  1  0.74837000  0.98997000  0.99932000  1.0 0.0707927055
C  C17  1  0.12676000  0.06105000  0.31271000  1.0 -0.1061947712
C  C18  1  0.37324000  0.68595000  0.93429000  1.0 -0.1061947712
C  C19  1  0.24834000  0.31405000  0.68729000  1.0 -0.1061947712
C  C20  1  0.25166000  0.93895000  0.06571000  1.0 -0.1061947712
C  C21  1  0.87324000  0.93895000  0.68729000  1.0 -0.1061947712
C  C22  1  0.62676000  0.31405000  0.06571000  1.0 -0.1061947712
C  C23  1  0.75166000  0.68595000  0.31271000  1.0 -0.1061947712
C  C24  1  0.74834000  0.06105000  0.93429000  1.0 -0.1061947712
C  C25  1  0.09442000  0.94485000  0.21295000  1.0 0.0087150734
C  C26  1  0.40558000  0.61853000  0.85043000  1.0 0.0087150734
C  C27  1  0.23190000  0.38147000  0.78705000  1.0 0.0087150734
C  C28  1  0.26810000  0.05515000  0.14957000  1.0 0.0087150734
C  C29  1  0.90558000  0.05515000  0.78705000  1.0 0.0087150734
C  C30  1  0.59442000  0.38147000  0.14957000  1.0 0.0087150734
C  C31  1  0.76810000  0.61853000  0.21295000  1.0 0.0087150734
C  C32  1  0.73190000  0.94485000  0.85043000  1.0 0.0087150734
C  C33  1  0.88470000  0.96620000  0.15734000  1.0 0.1845121679
C  C34  1  0.61530000  0.77264000  0.08150000  1.0 0.1845121679
C  C35  1  0.30886000  0.22736000  0.84266000  1.0 0.1845121679
C  C36  1  0.19114000  0.03380000  0.91850000  1.0 0.1845121679
C  C37  1  0.11530000  0.03380000  0.84266000  1.0 0.1845121679
C  C38  1  0.38470000  0.22736000  0.91850000  1.0 0.1845121679
C  C39  1  0.69114000  0.77264000  0.15734000  1.0 0.1845121679
C  C40  1  0.80886000  0.96620000  0.08150000  1.0 0.1845121679
C  C41  1  0.88554000  0.90395000  0.21441000  1.0 0.1845121679
C  C42  1  0.61446000  0.82887000  0.01841000  1.0 0.1845121679
C  C43  1  0.18954000  0.17113000  0.78559000  1.0 0.1845121679
C  C44  1  0.31046000  0.09605000  0.98159000  1.0 0.1845121679
C  C45  1  0.11446000  0.09605000  0.78559000  1.0 0.1845121679
C  C46  1  0.38554000  0.17113000  0.98159000  1.0 0.1845121679
C  C47  1  0.81046000  0.82887000  0.21441000  1.0 0.1845121679
C  C48  1  0.68954000  0.90395000  0.01841000  1.0 0.1845121679
C  C49  1  0.91710000  0.95134000  0.20264000  1.0 -0.0656871691
C  C50  1  0.58290000  0.78554000  0.03424000  1.0 -0.0656871691
C  C51  1  0.24870000  0.21446000  0.79736000  1.0 -0.0656871691
C  C52  1  0.25130000  0.04866000  0.96576000  1.0 -0.0656871691
C  C53  1  0.08290000  0.04866000  0.79736000  1.0 -0.0656871691
C  C54  1  0.41710000  0.21446000  0.96576000  1.0 -0.0656871691
C  C55  1  0.75130000  0.78554000  0.20264000  1.0 -0.0656871691
C  C56  1  0.74870000  0.95134000  0.03424000  1.0 -0.0656871691
C  C57  1  0.02397000  0.10704000  0.34285000  1.0 -0.1536230429
C  C58  1  0.47603000  0.81888000  0.08307000  1.0 -0.1536230429
C  C59  1  0.26419000  0.18112000  0.65715000  1.0 -0.1536230429
C  C60  1  0.23581000  0.89296000  0.91693000  1.0 -0.1536230429
C  C61  1  0.97603000  0.89296000  0.65715000  1.0 -0.1536230429
C  C62  1  0.52397000  0.18112000  0.91693000  1.0 -0.1536230429
C  C63  1  0.73581000  0.81888000  0.34285000  1.0 -0.1536230429
C  C64  1  0.76419000  0.10704000  0.08307000  1.0 -0.1536230429
C  C65  1  0.02596000  0.90825000  0.17607000  1.0 -0.1536230429
C  C66  1  0.47404000  0.65011000  0.88229000  1.0 -0.1536230429
C  C67  1  0.23218000  0.34989000  0.82393000  1.0 -0.1536230429
C  C68  1  0.26782000  0.09175000  0.11771000  1.0 -0.1536230429
C  C69  1  0.97404000  0.09175000  0.82393000  1.0 -0.1536230429
C  C70  1  0.52596000  0.34989000  0.11771000  1.0 -0.1536230429
C  C71  1  0.76782000  0.65011000  0.17607000  1.0 -0.1536230429
C  C72  1  0.73218000  0.90825000  0.88229000  1.0 -0.1536230429
C  C73  1  0.91898000  0.89124000  0.26402000  1.0 -0.1683126383
C  C74  1  0.58102000  0.84504000  0.97226000  1.0 -0.1683126383
C  C75  1  0.12722000  0.15496000  0.73598000  1.0 -0.1683126383
C  C76  1  0.37278000  0.10876000  0.02774000  1.0 -0.1683126383
C  C77  1  0.08102000  0.10876000  0.73598000  1.0 -0.1683126383
C  C78  1  0.41898000  0.15496000  0.02774000  1.0 -0.1683126383
C  C79  1  0.87278000  0.84504000  0.26402000  1.0 -0.1683126383
C  C80  1  0.62722000  0.89124000  0.97226000  1.0 -0.1683126383
C  C81  1  0.91710000  0.01370000  0.14346000  1.0 -0.1683126383
C  C82  1  0.58290000  0.72636000  0.09660000  1.0 -0.1683126383
C  C83  1  0.37024000  0.27364000  0.85654000  1.0 -0.1683126383
C  C84  1  0.12976000  0.98630000  0.90340000  1.0 -0.1683126383
C  C85  1  0.08290000  0.98630000  0.85654000  1.0 -0.1683126383
C  C86  1  0.41710000  0.27364000  0.90340000  1.0 -0.1683126383
C  C87  1  0.62976000  0.72636000  0.14346000  1.0 -0.1683126383
C  C88  1  0.87024000  0.01370000  0.09660000  1.0 -0.1683126383
C  C89  1  0.12750000  0.27244000  0.48932000  1.0 0.5768710112
C  C90  1  0.37250000  0.86182000  0.14494000  1.0 0.5768710112
C  C91  1  0.28312000  0.13818000  0.51068000  1.0 0.5768710112
C  C92  1  0.21688000  0.72756000  0.85506000  1.0 0.5768710112
C  C93  1  0.87250000  0.72756000  0.51068000  1.0 0.5768710112
C  C94  1  0.62750000  0.13818000  0.85506000  1.0 0.5768710112
C  C95  1  0.71688000  0.86182000  0.48932000  1.0 0.5768710112
C  C96  1  0.78312000  0.27244000  0.14494000  1.0 0.5768710112
C  C97  1  0.13241000  0.85498000  0.14137000  1.0 0.5768710112
C  C98  1  0.36759000  0.50896000  0.72257000  1.0 0.5768710112
C  C99  1  0.21361000  0.49104000  0.85863000  1.0 0.5768710112
C  C100  1  0.28639000  0.14502000  0.27743000  1.0 0.5768710112
C  C101  1  0.86759000  0.14502000  0.85863000  1.0 0.5768710112
C  C102  1  0.63241000  0.49104000  0.27743000  1.0 0.5768710112
C  C103  1  0.78639000  0.50896000  0.14137000  1.0 0.5768710112
C  C104  1  0.71361000  0.85498000  0.72257000  1.0 0.5768710112
N  N1  1  0.81795000  0.93797000  0.12002000  1.0 -0.358128608
N  N2  1  0.68205000  0.80207000  0.12002000  1.0 -0.358128608
N  N3  1  0.31795000  0.19793000  0.87998000  1.0 -0.358128608
N  N4  1  0.18205000  0.06203000  0.87998000  1.0 -0.358128608
N  N5  1  0.81891000  0.86572000  0.18463000  1.0 -0.3546662594
N  N6  1  0.68109000  0.86572000  0.04681000  1.0 -0.358128608
N  N7  1  0.18109000  0.13428000  0.81537000  1.0 -0.358128608
N  N8  1  0.31891000  0.13428000  0.95319000  1.0 -0.358128608
O  O1  1  0.18687000  0.30132000  0.50679000  1.0 -0.5958553731
O  O2  1  0.31313000  0.81992000  0.11445000  1.0 -0.5958553731
O  O3  1  0.29453000  0.18008000  0.49321000  1.0 -0.5958553731
O  O4  1  0.20547000  0.69868000  0.88555000  1.0 -0.5958553731
O  O5  1  0.81313000  0.69868000  0.49321000  1.0 -0.5958553731
O  O6  1  0.68687000  0.18008000  0.88555000  1.0 -0.5902477038
O  O7  1  0.70547000  0.81992000  0.50679000  1.0 -0.5958553731
O  O8  1  0.79453000  0.30132000  0.11445000  1.0 -0.5958553731
O  O9  1  0.19211000  0.88837000  0.18632000  1.0 -0.5902477038
O  O10  1  0.30789000  0.49421000  0.69626000  1.0 -0.5902477038
O  O11  1  0.20205000  0.50579000  0.81368000  1.0 -0.5902477038
O  O12  1  0.29795000  0.11163000  0.30374000  1.0 -0.5902477038
O  O13  1  0.80789000  0.11163000  0.81368000  1.0 -0.5902477038
O  O14  1  0.69211000  0.50579000  0.30374000  1.0 -0.5902477038
O  O15  1  0.79795000  0.49421000  0.18632000  1.0 -0.5902477038
O  O16  1  0.70205000  0.88837000  0.69626000  1.0 -0.5902477038
O  O17  1  0.09618000  0.34276000  0.55602000  1.0 -0.4796692992
O  O18  1  0.40382000  0.95984000  0.24658000  1.0 -0.4796692992
O  O19  1  0.28674000  0.04016000  0.44398000  1.0 -0.4796692992
O  O20  1  0.21326000  0.65724000  0.75342000  1.0 -0.4796692992
O  O21  1  0.90382000  0.65724000  0.44398000  1.0 -0.4796692992
O  O22  1  0.59618000  0.04016000  0.75342000  1.0 -0.4796692992
O  O23  1  0.71326000  0.95984000  0.55602000  1.0 -0.4796692992
O  O24  1  0.78674000  0.34276000  0.24658000  1.0 -0.4796692992
O  O25  1  0.10288000  0.75152000  0.04166000  1.0 -0.505339768
O  O26  1  0.39712000  0.43878000  0.64864000  1.0 -0.505339768
O  O27  1  0.20986000  0.56122000  0.95834000  1.0 -0.505339768
O  O28  1  0.29014000  0.24848000  0.35136000  1.0 -0.505339768
O  O29  1  0.89712000  0.24848000  0.95834000  1.0 -0.505339768
O  O30  1  0.60288000  0.56122000  0.35136000  1.0 -0.5046262706
O  O31  1  0.79014000  0.43878000  0.04166000  1.0 -0.505339768
O  O32  1  0.70986000  0.75152000  0.64864000  1.0 -0.505339768
