# DDEC6 charges by PACMAN v1.1 (https://github.com/mtap-research/PACMAN-charge/)
data_LACZIB_ASR_pacman
_symmetry_space_group_name_H-M   'P 1'
_cell_length_a   21.40080000
_cell_length_b   21.40080000
_cell_length_c   21.40080000
_cell_angle_alpha   94.82340000
_cell_angle_beta   94.82340000
_cell_angle_gamma   146.28700000
_symmetry_Int_Tables_number   1
_chemical_formula_structural   Na2ZnH10C26(NO4)2
_chemical_formula_sum   'Na8 Zn4 H40 C104 N8 O32'
_cell_volume   5206.39191406
_cell_formula_units_Z   4
loop_
 _symmetry_equiv_pos_site_id
 _symmetry_equiv_pos_as_xyz
  1  'x, y, z'
loop_
 _atom_site_type_symbol
 _atom_site_label
 _atom_site_symmetry_multiplicity
 _atom_site_fract_x
 _atom_site_fract_y
 _atom_site_fract_z
 _atom_site_occupancy
 _atom_site_charge
Na  Na1  1  0.32940000  0.87500000  0.95442000  1.0 0.9424792313
Na  Na2  1  0.92058000  0.37498000  0.04558000  1.0 0.9424792313
Na  Na3  1  0.62498000  0.07940000  0.95440000  1.0 0.9227700515
Na  Na4  1  0.12500000  0.67058000  0.04560000  1.0 0.9227700515
Na  Na5  1  0.92060000  0.87500000  0.54558000  1.0 0.9227700515
Na  Na6  1  0.32942000  0.37502000  0.45442000  1.0 0.9227700515
Na  Na7  1  0.62502000  0.67060000  0.54560000  1.0 0.9227700515
Na  Na8  1  0.12500000  0.07942000  0.45440000  1.0 0.9227700515
Zn  Zn1  1  0.47011000  0.47011000  0.00000000  1.0 0.3658589953
Zn  Zn2  1  0.72011000  0.22011000  0.50000000  1.0 0.3658589953
Zn  Zn3  1  0.77989000  0.27989000  0.50000000  1.0 0.3658589953
Zn  Zn4  1  0.52989000  0.52989000  0.00000000  1.0 0.3658589953
H  H1  1  0.71160000  0.28880000  0.00000000  1.0 0.121892309
H  H2  1  0.28880000  0.71160000  0.00000000  1.0 0.121892309
H  H3  1  0.96160000  0.46160000  0.92280000  1.0 0.121892309
H  H4  1  0.53880000  0.03880000  0.07720000  1.0 0.121892309
H  H5  1  0.53840000  0.46120000  0.50000000  1.0 0.121892309
H  H6  1  0.96120000  0.03840000  0.50000000  1.0 0.121892309
H  H7  1  0.28840000  0.28840000  0.57720000  1.0 0.121892309
H  H8  1  0.71120000  0.71120000  0.42280000  1.0 0.121892309
H  H9  1  0.79470000  0.54290000  0.02840000  1.0 0.121892309
H  H10  1  0.51450000  0.76630000  0.97160000  1.0 0.121892309
H  H11  1  0.01630000  0.54470000  0.75180000  1.0 0.121892309
H  H12  1  0.79290000  0.26450000  0.24820000  1.0 0.121892309
H  H13  1  0.45530000  0.20710000  0.47160000  1.0 0.121892309
H  H14  1  0.73550000  0.98370000  0.52840000  1.0 0.121892309
H  H15  1  0.23370000  0.20530000  0.74820000  1.0 0.121892309
H  H16  1  0.45710000  0.48550000  0.25180000  1.0 0.121892309
H  H17  1  0.45650000  0.20480000  0.97170000  1.0 0.121892309
H  H18  1  0.23310000  0.48480000  0.02830000  1.0 0.121892309
H  H19  1  0.73480000  0.20650000  0.75170000  1.0 0.121892309
H  H20  1  0.45480000  0.98310000  0.24830000  1.0 0.121892309
H  H21  1  0.79350000  0.54520000  0.52830000  1.0 0.121892309
H  H22  1  0.01690000  0.26520000  0.47170000  1.0 0.121892309
H  H23  1  0.51520000  0.54350000  0.74830000  1.0 0.121892309
H  H24  1  0.79520000  0.76690000  0.25170000  1.0 0.121892309
H  H25  1  0.45680000  0.32680000  0.78460000  1.0 0.1299629052
H  H26  1  0.54220000  0.67220000  0.21540000  1.0 0.1299629052
H  H27  1  0.92220000  0.20680000  0.63000000  1.0 0.1299629052
H  H28  1  0.57680000  0.29220000  0.37000000  1.0 0.1299629052
H  H29  1  0.79320000  0.42320000  0.71540000  1.0 0.1299629052
H  H30  1  0.70780000  0.07780000  0.28460000  1.0 0.1299629052
H  H31  1  0.32780000  0.54320000  0.87000000  1.0 0.1299629052
H  H32  1  0.67320000  0.45780000  0.13000000  1.0 0.1299629052
H  H33  1  0.54180000  0.32640000  0.87000000  1.0 0.1299629052
H  H34  1  0.45640000  0.67180000  0.13000000  1.0 0.1299629052
H  H35  1  0.92180000  0.29180000  0.71540000  1.0 0.1299629052
H  H36  1  0.57640000  0.20640000  0.28460000  1.0 0.1299629052
H  H37  1  0.70820000  0.42360000  0.63000000  1.0 0.1299629052
H  H38  1  0.79360000  0.07820000  0.37000000  1.0 0.1299629052
H  H39  1  0.32820000  0.45820000  0.78460000  1.0 0.1299629052
H  H40  1  0.67360000  0.54360000  0.21540000  1.0 0.1299629052
C  C1  1  0.62060000  0.37947000  0.00005000  1.0 0.061780502
C  C2  1  0.37942000  0.62055000  0.99995000  1.0 0.061780502
C  C3  1  0.87055000  0.37060000  0.74113000  1.0 0.061780502
C  C4  1  0.62947000  0.12942000  0.25887000  1.0 0.061780502
C  C5  1  0.62940000  0.37053000  0.49995000  1.0 0.061780502
C  C6  1  0.87058000  0.12945000  0.50005000  1.0 0.061780502
C  C7  1  0.37945000  0.37940000  0.75887000  1.0 0.061780502
C  C8  1  0.62053000  0.62058000  0.24113000  1.0 0.061780502
C  C9  1  0.60097000  0.46448000  0.06069000  1.0 0.1636648019
C  C10  1  0.40379000  0.54028000  0.93931000  1.0 0.1636648019
C  C11  1  0.79028000  0.35097000  0.63649000  1.0 0.1636648019
C  C12  1  0.71448000  0.15379000  0.36351000  1.0 0.1636648019
C  C13  1  0.64903000  0.28552000  0.43931000  1.0 0.1636648019
C  C14  1  0.84621000  0.20972000  0.56069000  1.0 0.1636648019
C  C15  1  0.45972000  0.39903000  0.86351000  1.0 0.1636648019
C  C16  1  0.53552000  0.59621000  0.13649000  1.0 0.1636648019
C  C17  1  0.53571000  0.39929000  0.93948000  1.0 0.1670043701
C  C18  1  0.45981000  0.59623000  0.06052000  1.0 0.1670043701
C  C19  1  0.84623000  0.28571000  0.63642000  1.0 0.1670043701
C  C20  1  0.64929000  0.20981000  0.36358000  1.0 0.1670043701
C  C21  1  0.71429000  0.35071000  0.56052000  1.0 0.1670043701
C  C22  1  0.79019000  0.15377000  0.43948000  1.0 0.1670043701
C  C23  1  0.40377000  0.46429000  0.86358000  1.0 0.1670043701
C  C24  1  0.60071000  0.54019000  0.13642000  1.0 0.1670043701
C  C25  1  0.58385000  0.41620000  0.00001000  1.0 -0.0719843116
C  C26  1  0.41619000  0.58384000  0.99999000  1.0 -0.0719843116
C  C27  1  0.83384000  0.33385000  0.66765000  1.0 -0.0719843116
C  C28  1  0.66620000  0.16619000  0.33235000  1.0 -0.0719843116
C  C29  1  0.66615000  0.33380000  0.49999000  1.0 -0.0719843116
C  C30  1  0.83381000  0.16616000  0.50001000  1.0 -0.0719843116
C  C31  1  0.41616000  0.41615000  0.83235000  1.0 -0.0719843116
C  C32  1  0.58380000  0.58381000  0.16765000  1.0 -0.0719843116
C  C33  1  0.68831000  0.31192000  0.00003000  1.0 -0.1098185723
C  C34  1  0.31189000  0.68828000  0.99997000  1.0 -0.1098185723
C  C35  1  0.93828000  0.43831000  0.87639000  1.0 -0.1098185723
C  C36  1  0.56192000  0.06189000  0.12361000  1.0 -0.1098185723
C  C37  1  0.56169000  0.43808000  0.49997000  1.0 -0.1098185723
C  C38  1  0.93811000  0.06172000  0.50003000  1.0 -0.1098185723
C  C39  1  0.31172000  0.31169000  0.62361000  1.0 -0.1098185723
C  C40  1  0.68808000  0.68811000  0.37639000  1.0 -0.1098185723
C  C41  1  0.73718000  0.46214000  0.01698000  1.0 -0.1499917247
C  C42  1  0.44516000  0.72020000  0.98302000  1.0 -0.1499917247
C  C43  1  0.97020000  0.48718000  0.77504000  1.0 -0.1499917247
C  C44  1  0.71214000  0.19516000  0.22496000  1.0 -0.1499917247
C  C45  1  0.51282000  0.28786000  0.48302000  1.0 -0.1499917247
C  C46  1  0.80484000  0.02980000  0.51698000  1.0 -0.1499917247
C  C47  1  0.27980000  0.26282000  0.72496000  1.0 -0.1499917247
C  C48  1  0.53786000  0.55484000  0.27504000  1.0 -0.1499917247
C  C49  1  0.53726000  0.26229000  0.98307000  1.0 -0.1499917247
C  C50  1  0.27922000  0.55419000  0.01693000  1.0 -0.1499917247
C  C51  1  0.80419000  0.28726000  0.77497000  1.0 -0.1499917247
C  C52  1  0.51229000  0.02922000  0.22503000  1.0 -0.1499917247
C  C53  1  0.71274000  0.48771000  0.51693000  1.0 -0.1499917247
C  C54  1  0.97078000  0.19581000  0.48307000  1.0 -0.1499917247
C  C55  1  0.44581000  0.46274000  0.72503000  1.0 -0.1499917247
C  C56  1  0.73771000  0.72078000  0.27497000  1.0 -0.1499917247
C  C57  1  0.57048000  0.22697000  0.98237000  1.0 0.0057090634
C  C58  1  0.24460000  0.58811000  0.01763000  1.0 0.0057090634
C  C59  1  0.83811000  0.32048000  0.84351000  1.0 0.0057090634
C  C60  1  0.47697000  0.99460000  0.15649000  1.0 0.0057090634
C  C61  1  0.67952000  0.52303000  0.51763000  1.0 0.0057090634
C  C62  1  0.00540000  0.16189000  0.48237000  1.0 0.0057090634
C  C63  1  0.41189000  0.42952000  0.65649000  1.0 0.0057090634
C  C64  1  0.77303000  0.75540000  0.34351000  1.0 0.0057090634
C  C65  1  0.77266000  0.42926000  0.01760000  1.0 0.0041788891
C  C66  1  0.41166000  0.75506000  0.98240000  1.0 0.0057090634
C  C67  1  0.00506000  0.52266000  0.84340000  1.0 0.0041788891
C  C68  1  0.67926000  0.16166000  0.15660000  1.0 0.0041788891
C  C69  1  0.47734000  0.32074000  0.48240000  1.0 0.0041788891
C  C70  1  0.83834000  0.99494000  0.51760000  1.0 0.0057090634
C  C71  1  0.24494000  0.22734000  0.65660000  1.0 0.0041788891
C  C72  1  0.57074000  0.58834000  0.34340000  1.0 0.0041788891
C  C73  1  0.47555000  0.35242000  0.83043000  1.0 -0.1603191579
C  C74  1  0.52199000  0.64512000  0.16957000  1.0 -0.1603191579
C  C75  1  0.89512000  0.22555000  0.62313000  1.0 -0.1603191579
C  C76  1  0.60242000  0.27199000  0.37687000  1.0 -0.1603191579
C  C77  1  0.77445000  0.39758000  0.66957000  1.0 -0.1603191579
C  C78  1  0.72801000  0.10488000  0.33043000  1.0 -0.1603191579
C  C79  1  0.35488000  0.52445000  0.87687000  1.0 -0.1603191579
C  C80  1  0.64758000  0.47801000  0.12313000  1.0 -0.1603191579
C  C81  1  0.52190000  0.35234000  0.87690000  1.0 -0.1603191579
C  C82  1  0.47544000  0.64500000  0.12310000  1.0 -0.1603191579
C  C83  1  0.89500000  0.27190000  0.66956000  1.0 -0.1603191579
C  C84  1  0.60234000  0.22544000  0.33044000  1.0 -0.1603191579
C  C85  1  0.72810000  0.39766000  0.62310000  1.0 -0.1603191579
C  C86  1  0.77456000  0.10500000  0.37690000  1.0 -0.1603191579
C  C87  1  0.35500000  0.47810000  0.83044000  1.0 -0.1603191579
C  C88  1  0.64766000  0.52456000  0.16956000  1.0 -0.1603191579
C  C89  1  0.90095000  0.52117000  0.03760000  1.0 0.5776444794
C  C90  1  0.48357000  0.86335000  0.96240000  1.0 0.5776444794
C  C91  1  0.11335000  0.65095000  0.87978000  1.0 0.5776444794
C  C92  1  0.77117000  0.23357000  0.12022000  1.0 0.5776444794
C  C93  1  0.34905000  0.22883000  0.46240000  1.0 0.5776444794
C  C94  1  0.76643000  0.88665000  0.53760000  1.0 0.5776444794
C  C95  1  0.13665000  0.09905000  0.62022000  1.0 0.5776444794
C  C96  1  0.47883000  0.51643000  0.37978000  1.0 0.5776444794
C  C97  1  0.47864000  0.09890000  0.96264000  1.0 0.5776444794
C  C98  1  0.13626000  0.51600000  0.03736000  1.0 0.5776444794
C  C99  1  0.76600000  0.22864000  0.87974000  1.0 0.5776444794
C  C100  1  0.34890000  0.88626000  0.12026000  1.0 0.5776444794
C  C101  1  0.77136000  0.65110000  0.53736000  1.0 0.5776444794
C  C102  1  0.11374000  0.23400000  0.46264000  1.0 0.5776444794
C  C103  1  0.48400000  0.52136000  0.62026000  1.0 0.5776444794
C  C104  1  0.90110000  0.86374000  0.37974000  1.0 0.5776444794
N  N1  1  0.49621000  0.42579000  0.92974000  1.0 -0.2977961293
N  N2  1  0.49605000  0.56647000  0.07026000  1.0 -0.2977961293
N  N3  1  0.81647000  0.24621000  0.57042000  1.0 -0.2977961293
N  N4  1  0.67579000  0.24605000  0.42958000  1.0 -0.2977961293
N  N5  1  0.75379000  0.32421000  0.57026000  1.0 -0.2977961293
N  N6  1  0.75395000  0.18353000  0.42974000  1.0 -0.2977961293
N  N7  1  0.43353000  0.50379000  0.92958000  1.0 -0.2977961293
N  N8  1  0.57421000  0.50395000  0.07042000  1.0 -0.2977961293
O  O1  1  0.92846000  0.48901000  0.04849000  1.0 -0.6072037137
O  O2  1  0.44052000  0.87997000  0.95151000  1.0 -0.6072037137
O  O3  1  0.12997000  0.67846000  0.93945000  1.0 -0.6021855391
O  O4  1  0.73901000  0.19052000  0.06055000  1.0 -0.6021855391
O  O5  1  0.32154000  0.26099000  0.45151000  1.0 -0.6072037137
O  O6  1  0.80948000  0.87003000  0.54849000  1.0 -0.6072037137
O  O7  1  0.12003000  0.07154000  0.56055000  1.0 -0.6021855391
O  O8  1  0.51099000  0.55948000  0.43945000  1.0 -0.6072037137
O  O9  1  0.51085000  0.07143000  0.95180000  1.0 -0.6072037137
O  O10  1  0.11963000  0.55905000  0.04820000  1.0 -0.6072037137
O  O11  1  0.80905000  0.26085000  0.93942000  1.0 -0.6072037137
O  O12  1  0.32143000  0.86963000  0.06058000  1.0 -0.6072037137
O  O13  1  0.73915000  0.67857000  0.54820000  1.0 -0.6072037137
O  O14  1  0.13037000  0.19095000  0.45180000  1.0 -0.6021855391
O  O15  1  0.44095000  0.48915000  0.56058000  1.0 -0.6072037137
O  O16  1  0.92857000  0.88037000  0.43942000  1.0 -0.6072037137
O  O17  1  0.97470000  0.62477000  0.04151000  1.0 -0.491059796
O  O18  1  0.58326000  0.93319000  0.95849000  1.0 -0.491059796
O  O19  1  0.18319000  0.72470000  0.84993000  1.0 -0.491059796
O  O20  1  0.87477000  0.33326000  0.15007000  1.0 -0.491059796
O  O21  1  0.27530000  0.12523000  0.45849000  1.0 -0.491059796
O  O22  1  0.66674000  0.81681000  0.54151000  1.0 -0.491059796
O  O23  1  0.06681000  0.02530000  0.65007000  1.0 -0.491059796
O  O24  1  0.37523000  0.41674000  0.34993000  1.0 -0.491059796
O  O25  1  0.37516000  0.02525000  0.95847000  1.0 -0.491059796
O  O26  1  0.06678000  0.41669000  0.04153000  1.0 -0.491059796
O  O27  1  0.66666667  0.12516000  0.84991000  1.0 -0.491059796
O  O28  1  0.27525000  0.81678000  0.15009000  1.0 -0.491059796
O  O29  1  0.87484000  0.72475000  0.54153000  1.0 -0.491059796
O  O30  1  0.18322000  0.33333333  0.45847000  1.0 -0.491059796
O  O31  1  0.58331000  0.62484000  0.65009000  1.0 -0.491059796
O  O32  1  0.97475000  0.93322000  0.34991000  1.0 -0.491059796
