# DDEC6 charges by PACMAN v1.1 (https://github.com/mtap-research/PACMAN-charge/)
data_LADHIJ_ASR_pacman
_symmetry_space_group_name_H-M   'P 1'
_cell_length_a   14.88580000
_cell_length_b   23.05500000
_cell_length_c   17.78340000
_cell_angle_alpha   90.00000000
_cell_angle_beta   108.90500000
_cell_angle_gamma   90.00000000
_symmetry_Int_Tables_number   1
_chemical_formula_structural   Zn4H15C26(N5O6)2
_chemical_formula_sum   'Zn16 H60 C104 N40 O48'
_cell_volume   5773.90251733
_cell_formula_units_Z   4
loop_
 _symmetry_equiv_pos_site_id
 _symmetry_equiv_pos_as_xyz
  1  'x, y, z'
loop_
 _atom_site_type_symbol
 _atom_site_label
 _atom_site_symmetry_multiplicity
 _atom_site_fract_x
 _atom_site_fract_y
 _atom_site_fract_z
 _atom_site_occupancy
 _atom_site_charge
Zn  Zn1  1  0.44513000  0.17982000  0.15277000  1.0 0.7767396267
Zn  Zn2  1  0.55487000  0.67982000  0.34723000  1.0 0.7767396267
Zn  Zn3  1  0.55487000  0.82018000  0.84723000  1.0 0.7767396267
Zn  Zn4  1  0.44513000  0.32018000  0.65277000  1.0 0.7767396267
Zn  Zn5  1  0.18950000  0.20061000  0.80748000  1.0 0.6704056407
Zn  Zn6  1  0.81050000  0.70061000  0.69252000  1.0 0.6704056407
Zn  Zn7  1  0.81050000  0.79939000  0.19252000  1.0 0.6704056407
Zn  Zn8  1  0.18950000  0.29939000  0.30748000  1.0 0.6704056407
Zn  Zn9  1  0.36698000  0.39765000  0.31181000  1.0 0.6638328279
Zn  Zn10  1  0.63302000  0.89765000  0.18819000  1.0 0.6638328279
Zn  Zn11  1  0.63302000  0.60235000  0.68819000  1.0 0.6704056407
Zn  Zn12  1  0.36698000  0.10235000  0.81181000  1.0 0.6704056407
Zn  Zn13  1  0.99855000  0.03723000  0.29902000  1.0 0.8334973748
Zn  Zn14  1  0.00145000  0.53723000  0.20098000  1.0 0.8334973748
Zn  Zn15  1  0.00145000  0.96277000  0.70098000  1.0 0.8334973748
Zn  Zn16  1  0.99855000  0.46277000  0.79902000  1.0 0.8334973748
H  H1  1  0.37420000  0.88080000  0.24230000  1.0 0.1262751685
H  H2  1  0.62580000  0.38080000  0.25770000  1.0 0.1262751685
H  H3  1  0.62580000  0.11920000  0.75770000  1.0 0.1219755953
H  H4  1  0.37420000  0.61920000  0.74230000  1.0 0.1262751685
H  H5  1  0.23690000  0.89910000  0.27080000  1.0 0.1219755953
H  H6  1  0.76310000  0.39910000  0.22920000  1.0 0.1219755953
H  H7  1  0.76310000  0.10090000  0.72920000  1.0 0.1219755953
H  H8  1  0.23690000  0.60090000  0.77080000  1.0 0.1219755953
H  H9  1  0.25250000  0.06670000  0.21610000  1.0 0.1394001287
H  H10  1  0.74750000  0.56670000  0.28390000  1.0 0.1394001287
H  H11  1  0.74750000  0.93330000  0.78390000  1.0 0.1394001287
H  H12  1  0.25250000  0.43330000  0.71610000  1.0 0.1394001287
H  H13  1  0.45770000  0.31710000  0.20150000  1.0 0.1394001287
H  H14  1  0.54230000  0.81710000  0.29850000  1.0 0.1394001287
H  H15  1  0.54230000  0.68290000  0.79850000  1.0 0.1394001287
H  H16  1  0.45770000  0.18290000  0.70150000  1.0 0.1394001287
H  H17  1  0.22380000  0.98650000  0.75610000  1.0 0.1394001287
H  H18  1  0.77620000  0.48650000  0.74390000  1.0 0.1394001287
H  H19  1  0.77620000  0.01350000  0.24390000  1.0 0.1394001287
H  H20  1  0.22380000  0.51350000  0.25610000  1.0 0.1394001287
H  H21  1  0.02460000  0.10000000  0.73210000  1.0 0.1394001287
H  H22  1  0.97540000  0.60000000  0.76790000  1.0 0.1394001287
H  H23  1  0.97540000  0.90000000  0.26790000  1.0 0.1394001287
H  H24  1  0.02460000  0.40000000  0.23210000  1.0 0.1394001287
H  H25  1  0.76010000  0.15660000  0.23560000  1.0 0.1394001287
H  H26  1  0.23990000  0.65660000  0.26440000  1.0 0.1394001287
H  H27  1  0.23990000  0.84340000  0.76440000  1.0 0.1394001287
H  H28  1  0.76010000  0.34340000  0.73560000  1.0 0.1394001287
H  H29  1  0.26550000  0.20430000  0.20400000  1.0 0.1394001287
H  H30  1  0.73450000  0.70430000  0.29600000  1.0 0.1394001287
H  H31  1  0.73450000  0.79570000  0.79600000  1.0 0.1394001287
H  H32  1  0.26550000  0.29570000  0.70400000  1.0 0.1394001287
H  H33  1  0.27660000  0.22370000  0.00110000  1.0 0.1394001287
H  H34  1  0.72340000  0.72370000  0.49890000  1.0 0.1394001287
H  H35  1  0.72340000  0.77630000  0.99890000  1.0 0.1394001287
H  H36  1  0.27660000  0.27630000  0.50110000  1.0 0.1394001287
H  H37  1  0.46800000  0.10880000  0.00680000  1.0 0.1450126911
H  H38  1  0.53200000  0.60880000  0.49320000  1.0 0.1394001287
H  H39  1  0.53200000  0.89120000  0.99320000  1.0 0.1450126911
H  H40  1  0.46800000  0.39120000  0.50680000  1.0 0.1450126911
H  H41  1  0.87220000  0.33490000  0.18680000  1.0 0.1262751685
H  H42  1  0.12780000  0.83490000  0.31320000  1.0 0.1262751685
H  H43  1  0.12780000  0.66510000  0.81320000  1.0 0.1262751685
H  H44  1  0.87220000  0.16510000  0.68680000  1.0 0.1262751685
H  H45  1  0.71070000  0.31770000  0.14680000  1.0 0.1219755953
H  H46  1  0.28930000  0.81770000  0.35320000  1.0 0.1219755953
H  H47  1  0.28930000  0.68230000  0.85320000  1.0 0.1219755953
H  H48  1  0.71070000  0.18230000  0.64680000  1.0 0.1219755953
H  H49  1  0.23080000  0.03090000  0.52620000  1.0 0.1691087285
H  H50  1  0.76920000  0.53090000  0.97380000  1.0 0.1691087285
H  H51  1  0.76920000  0.96910000  0.47380000  1.0 0.1691087285
H  H52  1  0.23080000  0.46910000  0.02620000  1.0 0.1691087285
H  H53  1  0.22690000  0.09880000  0.52850000  1.0 0.1609869744
H  H54  1  0.77310000  0.59880000  0.97150000  1.0 0.1609869744
H  H55  1  0.77310000  0.90120000  0.47150000  1.0 0.1609869744
H  H56  1  0.22690000  0.40120000  0.02850000  1.0 0.1609869744
H  H57  1  0.14600000  0.06190000  0.54370000  1.0 0.1609869744
H  H58  1  0.85400000  0.56190000  0.95630000  1.0 0.1609869744
H  H59  1  0.85400000  0.93810000  0.45630000  1.0 0.1609869744
H  H60  1  0.14600000  0.43810000  0.04370000  1.0 0.1609869744
C  C1  1  0.35020000  0.91840000  0.23780000  1.0 -0.1064190422
C  C2  1  0.64980000  0.41840000  0.26220000  1.0 -0.1064190422
C  C3  1  0.64980000  0.08160000  0.76220000  1.0 -0.1064190422
C  C4  1  0.35020000  0.58160000  0.73780000  1.0 -0.1064190422
C  C5  1  0.14290000  0.99460000  0.26810000  1.0 0.5502861286
C  C6  1  0.85710000  0.49460000  0.23190000  1.0 0.5502861286
C  C7  1  0.85710000  0.00540000  0.73190000  1.0 0.5502861286
C  C8  1  0.14290000  0.50540000  0.76810000  1.0 0.5502861286
C  C9  1  0.22970000  0.98490000  0.24510000  1.0 -0.0102438927
C  C10  1  0.77030000  0.48490000  0.25490000  1.0 -0.0102438927
C  C11  1  0.77030000  0.01510000  0.75490000  1.0 -0.0102438927
C  C12  1  0.22970000  0.51510000  0.74510000  1.0 -0.0102438927
C  C13  1  0.26760000  0.92910000  0.25400000  1.0 -0.0973584646
C  C14  1  0.73240000  0.42910000  0.24600000  1.0 -0.0973584646
C  C15  1  0.73240000  0.07090000  0.74600000  1.0 -0.0973584646
C  C16  1  0.26760000  0.57090000  0.75400000  1.0 -0.0928015349
C  C17  1  0.27760000  0.02940000  0.22210000  1.0 -0.0973584646
C  C18  1  0.72240000  0.52940000  0.27790000  1.0 -0.0973584646
C  C19  1  0.72240000  0.97060000  0.77790000  1.0 -0.0973584646
C  C20  1  0.27760000  0.47060000  0.72210000  1.0 -0.0973584646
C  C21  1  0.39860000  0.96310000  0.21480000  1.0 -0.0102438927
C  C22  1  0.60140000  0.46310000  0.28520000  1.0 -0.0102438927
C  C23  1  0.60140000  0.03690000  0.78520000  1.0 -0.0102438927
C  C24  1  0.39860000  0.53690000  0.71480000  1.0 -0.0102438927
C  C25  1  0.36220000  0.01900000  0.20790000  1.0 -0.0230298057
C  C26  1  0.63780000  0.51900000  0.29210000  1.0 -0.0230298057
C  C27  1  0.63780000  0.98100000  0.79210000  1.0 -0.0230298057
C  C28  1  0.36220000  0.48100000  0.70790000  1.0 -0.0230298057
C  C29  1  0.40570000  0.29940000  0.21000000  1.0 0.1609869744
C  C30  1  0.59430000  0.79940000  0.29000000  1.0 0.1609869744
C  C31  1  0.59430000  0.70060000  0.79000000  1.0 0.1609869744
C  C32  1  0.40570000  0.20060000  0.71000000  1.0 0.1609869744
C  C33  1  0.19210000  0.02140000  0.75560000  1.0 0.1691087285
C  C34  1  0.80790000  0.52140000  0.74440000  1.0 0.1691087285
C  C35  1  0.80790000  0.97860000  0.24440000  1.0 0.1691087285
C  C36  1  0.19210000  0.47860000  0.25560000  1.0 0.1691087285
C  C37  1  0.08420000  0.08300000  0.74290000  1.0 0.1691087285
C  C38  1  0.91580000  0.58300000  0.75710000  1.0 0.1691087285
C  C39  1  0.91580000  0.91700000  0.25710000  1.0 0.1691087285
C  C40  1  0.08420000  0.41700000  0.24290000  1.0 0.1691087285
C  C41  1  0.87930000  0.20160000  0.24590000  1.0 -0.0273024771
C  C42  1  0.12070000  0.70160000  0.25410000  1.0 -0.0273024771
C  C43  1  0.12070000  0.79840000  0.75410000  1.0 -0.0273024771
C  C44  1  0.87930000  0.29840000  0.74590000  1.0 -0.0273024771
C  C45  1  0.78230000  0.19250000  0.22560000  1.0 -0.0928015349
C  C46  1  0.21770000  0.69250000  0.27440000  1.0 -0.0928015349
C  C47  1  0.21770000  0.80750000  0.77440000  1.0 -0.0928015349
C  C48  1  0.78230000  0.30750000  0.72560000  1.0 -0.0928015349
C  C49  1  0.30120000  0.23810000  0.21120000  1.0 0.1691087285
C  C50  1  0.69880000  0.73810000  0.28880000  1.0 0.1609869744
C  C51  1  0.69880000  0.76190000  0.78880000  1.0 0.1609869744
C  C52  1  0.30120000  0.26190000  0.71120000  1.0 0.1609869744
C  C53  1  0.31160000  0.19530000  0.98600000  1.0 0.1609869744
C  C54  1  0.68840000  0.69530000  0.51400000  1.0 0.1609869744
C  C55  1  0.68840000  0.80470000  0.01400000  1.0 0.1609869744
C  C56  1  0.31160000  0.30470000  0.48600000  1.0 0.1609869744
C  C57  1  0.94690000  0.15230000  0.27940000  1.0 0.5586560463
C  C58  1  0.05310000  0.65230000  0.22060000  1.0 0.5586560463
C  C59  1  0.05310000  0.84770000  0.72060000  1.0 0.5586560463
C  C60  1  0.94690000  0.34770000  0.77940000  1.0 0.5586560463
C  C61  1  0.41550000  0.13310000  0.98910000  1.0 0.188325345
C  C62  1  0.58450000  0.63310000  0.51090000  1.0 0.188325345
C  C63  1  0.58450000  0.86690000  0.01090000  1.0 0.188325345
C  C64  1  0.41550000  0.36690000  0.48910000  1.0 0.188325345
C  C65  1  0.41300000  0.06820000  0.18380000  1.0 0.5657530273
C  C66  1  0.58700000  0.56820000  0.31620000  1.0 0.5657530273
C  C67  1  0.58700000  0.93180000  0.81620000  1.0 0.5657530273
C  C68  1  0.41300000  0.43180000  0.68380000  1.0 0.5657530273
C  C69  1  0.84970000  0.29900000  0.19640000  1.0 -0.1170339179
C  C70  1  0.15030000  0.79900000  0.30360000  1.0 -0.1170339179
C  C71  1  0.15030000  0.70100000  0.80360000  1.0 -0.1170339179
C  C72  1  0.84970000  0.20100000  0.69640000  1.0 -0.1170339179
C  C73  1  0.71830000  0.23560000  0.19080000  1.0 -0.0230298057
C  C74  1  0.28170000  0.73560000  0.30920000  1.0 -0.0230298057
C  C75  1  0.28170000  0.76440000  0.80920000  1.0 -0.0230298057
C  C76  1  0.71830000  0.26440000  0.69080000  1.0 -0.0230298057
C  C77  1  0.91330000  0.25580000  0.23350000  1.0 0.005509797
C  C78  1  0.08670000  0.75580000  0.26650000  1.0 0.005509797
C  C79  1  0.08670000  0.74420000  0.76650000  1.0 0.005509797
C  C80  1  0.91330000  0.24420000  0.73350000  1.0 0.005509797
C  C81  1  0.75290000  0.28900000  0.17360000  1.0 -0.0928015349
C  C82  1  0.24710000  0.78900000  0.32640000  1.0 -0.0928015349
C  C83  1  0.24710000  0.71100000  0.82640000  1.0 -0.0928015349
C  C84  1  0.75290000  0.21100000  0.67360000  1.0 -0.0928015349
C  C85  1  0.01660000  0.27080000  0.25710000  1.0 0.5586560463
C  C86  1  0.98340000  0.77080000  0.24290000  1.0 0.5586560463
C  C87  1  0.98340000  0.72920000  0.74290000  1.0 0.5586560463
C  C88  1  0.01660000  0.22920000  0.75710000  1.0 0.5586560463
C  C89  1  0.61350000  0.22800000  0.16970000  1.0 0.5586560463
C  C90  1  0.38650000  0.72800000  0.33030000  1.0 0.5586560463
C  C91  1  0.38650000  0.77200000  0.83030000  1.0 0.5586560463
C  C92  1  0.61350000  0.27200000  0.66970000  1.0 0.5586560463
C  C93  1  0.49040000  0.94750000  0.20370000  1.0 0.5775914933
C  C94  1  0.50960000  0.44750000  0.29630000  1.0 0.5775914933
C  C95  1  0.50960000  0.05250000  0.79630000  1.0 0.5775914933
C  C96  1  0.49040000  0.55250000  0.70370000  1.0 0.5775914933
C  C97  1  0.18970000  0.06400000  0.51420000  1.0 -0.4497558926
C  C98  1  0.81030000  0.56400000  0.98580000  1.0 -0.4497558926
C  C99  1  0.81030000  0.93600000  0.48580000  1.0 -0.4497558926
C  C100  1  0.18970000  0.43600000  0.01420000  1.0 -0.4497558926
C  C101  1  0.14310000  0.06490000  0.43950000  1.0 0.338413253
C  C102  1  0.85690000  0.56490000  0.06050000  1.0 0.338413253
C  C103  1  0.85690000  0.93510000  0.56050000  1.0 0.338413253
C  C104  1  0.14310000  0.43510000  0.93950000  1.0 0.338413253
N  N1  1  0.16400000  0.11212000  0.76790000  1.0 -0.189461418
N  N2  1  0.83600000  0.61212000  0.73210000  1.0 -0.189461418
N  N3  1  0.83600000  0.88788000  0.23210000  1.0 -0.189461418
N  N4  1  0.16400000  0.38788000  0.26790000  1.0 -0.189461418
N  N5  1  0.29140000  0.17590000  0.91280000  1.0 -0.189461418
N  N6  1  0.70860000  0.67590000  0.58720000  1.0 -0.189461418
N  N7  1  0.70860000  0.82410000  0.08720000  1.0 -0.189461418
N  N8  1  0.29140000  0.32410000  0.41280000  1.0 -0.189461418
N  N9  1  0.35210000  0.32497000  0.24550000  1.0 -0.189461418
N  N10  1  0.64790000  0.82497000  0.25450000  1.0 -0.189461418
N  N11  1  0.64790000  0.67503000  0.75450000  1.0 -0.189461418
N  N12  1  0.35210000  0.17503000  0.74550000  1.0 -0.189461418
N  N13  1  0.23440000  0.07076000  0.77480000  1.0 -0.1956321751
N  N14  1  0.76560000  0.57076000  0.72520000  1.0 -0.1956321751
N  N15  1  0.76560000  0.92924000  0.22520000  1.0 -0.189461418
N  N16  1  0.23440000  0.42924000  0.27480000  1.0 -0.189461418
N  N17  1  0.37790000  0.24506000  0.18730000  1.0 -0.3115694975
N  N18  1  0.62210000  0.74506000  0.31270000  1.0 -0.3115694975
N  N19  1  0.62210000  0.75494000  0.81270000  1.0 -0.3115694975
N  N20  1  0.37790000  0.25494000  0.68730000  1.0 -0.3115694975
N  N21  1  0.38850000  0.16918000  0.03660000  1.0 -0.3115694975
N  N22  1  0.61150000  0.66918000  0.46340000  1.0 -0.3115694975
N  N23  1  0.61150000  0.83082000  0.96340000  1.0 -0.3115694975
N  N24  1  0.38850000  0.33082000  0.53660000  1.0 -0.3115694975
N  N25  1  0.28300000  0.28504000  0.24580000  1.0 -0.1819512159
N  N26  1  0.71700000  0.78504000  0.25420000  1.0 -0.1819512159
N  N27  1  0.71700000  0.71496000  0.75420000  1.0 -0.1819512159
N  N28  1  0.28300000  0.21496000  0.74580000  1.0 -0.1819512159
N  N29  1  0.36040000  0.13551000  0.91560000  1.0 -0.1819512159
N  N30  1  0.63960000  0.63551000  0.58440000  1.0 -0.1819512159
N  N31  1  0.63960000  0.86449000  0.08440000  1.0 -0.1819512159
N  N32  1  0.36040000  0.36449000  0.41560000  1.0 -0.1819512159
N  N33  1  0.09750000  0.02596000  0.73480000  1.0 -0.3115694975
N  N34  1  0.90250000  0.52596000  0.76520000  1.0 -0.3115694975
N  N35  1  0.90250000  0.97404000  0.26520000  1.0 -0.3115694975
N  N36  1  0.09750000  0.47404000  0.23480000  1.0 -0.3115694975
N  N37  1  0.06060000  0.04190000  0.41380000  1.0 -0.4701486682
N  N38  1  0.93940000  0.54190000  0.08620000  1.0 -0.4701486682
N  N39  1  0.93940000  0.95810000  0.58620000  1.0 -0.4701486682
N  N40  1  0.06060000  0.45810000  0.91380000  1.0 -0.4701486682
O  O1  1  0.58420000  0.17965000  0.18790000  1.0 -0.5166109358
O  O2  1  0.41580000  0.67965000  0.31210000  1.0 -0.5166109358
O  O3  1  0.41580000  0.82035000  0.81210000  1.0 -0.5166109358
O  O4  1  0.58420000  0.32035000  0.68790000  1.0 -0.5166109358
O  O5  1  0.03150000  0.16147000  0.31180000  1.0 -0.4497558926
O  O6  1  0.96850000  0.66147000  0.18820000  1.0 -0.4497558926
O  O7  1  0.96850000  0.83853000  0.68820000  1.0 -0.4497558926
O  O8  1  0.03150000  0.33853000  0.81180000  1.0 -0.4497558926
O  O9  1  0.06190000  0.26029000  0.21090000  1.0 -0.5166109358
O  O10  1  0.93810000  0.76029000  0.28910000  1.0 -0.5166109358
O  O11  1  0.93810000  0.73971000  0.78910000  1.0 -0.5166109358
O  O12  1  0.06190000  0.23971000  0.71090000  1.0 -0.5166109358
O  O13  1  0.05320000  0.29719000  0.32200000  1.0 -0.5107587394
O  O14  1  0.94680000  0.79719000  0.17800000  1.0 -0.5107587394
O  O15  1  0.94680000  0.70281000  0.67800000  1.0 -0.5107587394
O  O16  1  0.05320000  0.20281000  0.82200000  1.0 -0.5107587394
O  O17  1  0.46520000  0.05849000  0.14420000  1.0 -0.4804395665
O  O18  1  0.53480000  0.55849000  0.35580000  1.0 -0.4804395665
O  O19  1  0.53480000  0.94151000  0.85580000  1.0 -0.4804395665
O  O20  1  0.46520000  0.44151000  0.64420000  1.0 -0.4804395665
O  O21  1  0.48980000  0.91270000  0.14970000  1.0 -0.5107587394
O  O22  1  0.51020000  0.41270000  0.35030000  1.0 -0.5107587394
O  O23  1  0.51020000  0.08730000  0.85030000  1.0 -0.5107587394
O  O24  1  0.48980000  0.58730000  0.64970000  1.0 -0.5107587394
O  O25  1  0.39620000  0.11858000  0.20690000  1.0 -0.5473777359
O  O26  1  0.60380000  0.61858000  0.29310000  1.0 -0.5473777359
O  O27  1  0.60380000  0.88142000  0.79310000  1.0 -0.5473777359
O  O28  1  0.39620000  0.38142000  0.70690000  1.0 -0.5473777359
O  O29  1  0.09920000  0.04280000  0.24880000  1.0 -0.4947175835
O  O30  1  0.90080000  0.54280000  0.25120000  1.0 -0.4947175835
O  O31  1  0.90080000  0.95720000  0.75120000  1.0 -0.4953942155
O  O32  1  0.09920000  0.45720000  0.74880000  1.0 -0.4953942155
O  O33  1  0.90910000  0.10209000  0.27040000  1.0 -0.5269607906
O  O34  1  0.09090000  0.60209000  0.22960000  1.0 -0.5269607906
O  O35  1  0.09090000  0.89791000  0.72960000  1.0 -0.5269607906
O  O36  1  0.90910000  0.39791000  0.77040000  1.0 -0.5269607906
O  O37  1  0.11680000  0.95691000  0.30510000  1.0 -0.5107587394
O  O38  1  0.88320000  0.45691000  0.19490000  1.0 -0.5107587394
O  O39  1  0.88320000  0.04309000  0.69490000  1.0 -0.5107587394
O  O40  1  0.11680000  0.54309000  0.80510000  1.0 -0.5107587394
O  O41  1  0.55910000  0.26754000  0.13670000  1.0 -0.5269607906
O  O42  1  0.44090000  0.76754000  0.36330000  1.0 -0.5269607906
O  O43  1  0.44090000  0.73246000  0.86330000  1.0 -0.5269607906
O  O44  1  0.55910000  0.23246000  0.63670000  1.0 -0.5269607906
O  O45  1  0.56740000  0.96376000  0.25300000  1.0 -0.5107587394
O  O46  1  0.43260000  0.46376000  0.24700000  1.0 -0.5107587394
O  O47  1  0.43260000  0.03624000  0.74700000  1.0 -0.5107587394
O  O48  1  0.56740000  0.53624000  0.75300000  1.0 -0.5107587394
