# DDEC6 charges by PACMAN v1.1 (https://github.com/mtap-research/PACMAN-charge/)
data_LAGCON_ASR_pacman
_symmetry_space_group_name_H-M   'P 1'
_cell_length_a   15.45820000
_cell_length_b   15.45820000
_cell_length_c   16.52350000
_cell_angle_alpha   90.00000000
_cell_angle_beta   90.00000000
_cell_angle_gamma   120.00000000
_symmetry_Int_Tables_number   1
_chemical_formula_structural   ZnAg3H27C51(NO)6
_chemical_formula_sum   'Zn2 Ag6 H54 C102 N12 O12'
_cell_volume   3419.40482661
_cell_formula_units_Z   2
loop_
 _symmetry_equiv_pos_site_id
 _symmetry_equiv_pos_as_xyz
  1  'x, y, z'
loop_
 _atom_site_type_symbol
 _atom_site_label
 _atom_site_symmetry_multiplicity
 _atom_site_fract_x
 _atom_site_fract_y
 _atom_site_fract_z
 _atom_site_occupancy
 _atom_site_charge
Zn  Zn1  1  0.66666667  0.33333333  0.67826000  1.0 0.9649594674
Zn  Zn2  1  0.33333333  0.66666667  0.32174000  1.0 0.9649594674
Ag  Ag1  1  0.40088000  0.27331000  0.76279000  1.0 0.4603682855
Ag  Ag2  1  0.72669000  0.12757000  0.76279000  1.0 0.4603682855
Ag  Ag3  1  0.87243000  0.59912000  0.76279000  1.0 0.4603682855
Ag  Ag4  1  0.59912000  0.72669000  0.23721000  1.0 0.4603682855
Ag  Ag5  1  0.27331000  0.87243000  0.23721000  1.0 0.4603682855
Ag  Ag6  1  0.12757000  0.40088000  0.23721000  1.0 0.4603682855
H  H1  1  0.47320000  0.44890000  0.71900000  1.0 0.1173803749
H  H2  1  0.55110000  0.02430000  0.71900000  1.0 0.1173803749
H  H3  1  0.97570000  0.52680000  0.71900000  1.0 0.1173803749
H  H4  1  0.52680000  0.55110000  0.28100000  1.0 0.1173803749
H  H5  1  0.44890000  0.97570000  0.28100000  1.0 0.1173803749
H  H6  1  0.02430000  0.47320000  0.28100000  1.0 0.1173803749
H  H7  1  0.50510000  0.34040000  0.47760000  1.0 0.1173803749
H  H8  1  0.65960000  0.16470000  0.47760000  1.0 0.1173803749
H  H9  1  0.83530000  0.49490000  0.47760000  1.0 0.1173803749
H  H10  1  0.49490000  0.65960000  0.52240000  1.0 0.1173803749
H  H11  1  0.34040000  0.83530000  0.52240000  1.0 0.1173803749
H  H12  1  0.16470000  0.50510000  0.52240000  1.0 0.1173803749
H  H13  1  0.36830000  0.43190000  0.62960000  1.0 0.1173803749
H  H14  1  0.56810000  0.93640000  0.62960000  1.0 0.1173803749
H  H15  1  0.06360000  0.63170000  0.62960000  1.0 0.1173803749
H  H16  1  0.63170000  0.56810000  0.37040000  1.0 0.1173803749
H  H17  1  0.43190000  0.06360000  0.37040000  1.0 0.1173803749
H  H18  1  0.93640000  0.36830000  0.37040000  1.0 0.1173803749
H  H19  1  0.39280000  0.32300000  0.37640000  1.0 0.1173803749
H  H20  1  0.67700000  0.06980000  0.37640000  1.0 0.1173803749
H  H21  1  0.93020000  0.60720000  0.37640000  1.0 0.1173803749
H  H22  1  0.60720000  0.67700000  0.62360000  1.0 0.1173803749
H  H23  1  0.32300000  0.93020000  0.62360000  1.0 0.1173803749
H  H24  1  0.06980000  0.39280000  0.62360000  1.0 0.1173803749
H  H25  1  0.25750000  0.41550000  0.52960000  1.0 0.1173803749
H  H26  1  0.58450000  0.84200000  0.52960000  1.0 0.1173803749
H  H27  1  0.15800000  0.74250000  0.52960000  1.0 0.1173803749
H  H28  1  0.74250000  0.58450000  0.47040000  1.0 0.1173803749
H  H29  1  0.41550000  0.15800000  0.47040000  1.0 0.1173803749
H  H30  1  0.84200000  0.25750000  0.47040000  1.0 0.1173803749
H  H31  1  0.67850000  0.46600000  0.90220000  1.0 0.1273055548
H  H32  1  0.53400000  0.21250000  0.90220000  1.0 0.1273055548
H  H33  1  0.78750000  0.32150000  0.90220000  1.0 0.1273055548
H  H34  1  0.32150000  0.53400000  0.09780000  1.0 0.1273055548
H  H35  1  0.46600000  0.78750000  0.09780000  1.0 0.1273055548
H  H36  1  0.21250000  0.67850000  0.09780000  1.0 0.1273055548
H  H37  1  0.53430000  0.58740000  0.79190000  1.0 0.1173803749
H  H38  1  0.41260000  0.94690000  0.79190000  1.0 0.1173803749
H  H39  1  0.05310000  0.46570000  0.79190000  1.0 0.1173803749
H  H40  1  0.46570000  0.41260000  0.20810000  1.0 0.1173803749
H  H41  1  0.58740000  0.05310000  0.20810000  1.0 0.1173803749
H  H42  1  0.94690000  0.53430000  0.20810000  1.0 0.1173803749
H  H43  1  0.67950000  0.54450000  0.02240000  1.0 0.1126318672
H  H44  1  0.45550000  0.13500000  0.02240000  1.0 0.1126318672
H  H45  1  0.86500000  0.32050000  0.02240000  1.0 0.1126318672
H  H46  1  0.32050000  0.45550000  0.97760000  1.0 0.1126318672
H  H47  1  0.54450000  0.86500000  0.97760000  1.0 0.1126318672
H  H48  1  0.13500000  0.67950000  0.97760000  1.0 0.1126318672
H  H49  1  0.54120000  0.67190000  0.91010000  1.0 0.1173803749
H  H50  1  0.32810000  0.86930000  0.91010000  1.0 0.1173803749
H  H51  1  0.13070000  0.45880000  0.91010000  1.0 0.1173803749
H  H52  1  0.45880000  0.32810000  0.08990000  1.0 0.1173803749
H  H53  1  0.67190000  0.13070000  0.08990000  1.0 0.1173803749
H  H54  1  0.86930000  0.54120000  0.08990000  1.0 0.1173803749
C  C1  1  0.60250000  0.46170000  0.76090000  1.0 0.3555983254
C  C2  1  0.53830000  0.14080000  0.76090000  1.0 0.3555983254
C  C3  1  0.85920000  0.39750000  0.76090000  1.0 0.3555983254
C  C4  1  0.39750000  0.53830000  0.23910000  1.0 0.3555983254
C  C5  1  0.46170000  0.85920000  0.23910000  1.0 0.3555983254
C  C6  1  0.14080000  0.60250000  0.23910000  1.0 0.3555983254
C  C7  1  0.52470000  0.43710000  0.70490000  1.0 -0.4999578795
C  C8  1  0.56290000  0.08760000  0.70490000  1.0 -0.4999578795
C  C9  1  0.91240000  0.47530000  0.70490000  1.0 -0.4999578795
C  C10  1  0.47530000  0.56290000  0.29510000  1.0 -0.4999578795
C  C11  1  0.43710000  0.91240000  0.29510000  1.0 -0.4999578795
C  C12  1  0.08760000  0.52470000  0.29510000  1.0 -0.4999578795
C  C13  1  0.52190000  0.39440000  0.62680000  1.0 0.3669829666
C  C14  1  0.60560000  0.12750000  0.62680000  1.0 0.3669829666
C  C15  1  0.87250000  0.47810000  0.62680000  1.0 0.3669829666
C  C16  1  0.47810000  0.60560000  0.37320000  1.0 0.3669829666
C  C17  1  0.39440000  0.87250000  0.37320000  1.0 0.3669829666
C  C18  1  0.12750000  0.52190000  0.37320000  1.0 0.3669829666
C  C19  1  0.44810000  0.38710000  0.56450000  1.0 0.0212853098
C  C20  1  0.61290000  0.06100000  0.56450000  1.0 0.0212853098
C  C21  1  0.93900000  0.55190000  0.56450000  1.0 0.0212853098
C  C22  1  0.55190000  0.61290000  0.43550000  1.0 0.0212853098
C  C23  1  0.38710000  0.93900000  0.43550000  1.0 0.0212853098
C  C24  1  0.06100000  0.44810000  0.43550000  1.0 0.0212853098
C  C25  1  0.45500000  0.35540000  0.48870000  1.0 -0.1192704961
C  C26  1  0.64460000  0.09960000  0.48870000  1.0 -0.1192704961
C  C27  1  0.90040000  0.54500000  0.48870000  1.0 -0.1192704961
C  C28  1  0.54500000  0.64460000  0.51130000  1.0 -0.1192704961
C  C29  1  0.35540000  0.90040000  0.51130000  1.0 -0.1192704961
C  C30  1  0.09960000  0.45500000  0.51130000  1.0 -0.1192704961
C  C31  1  0.37380000  0.40970000  0.57860000  1.0 -0.1303463004
C  C32  1  0.59030000  0.96410000  0.57860000  1.0 -0.1303463004
C  C33  1  0.03590000  0.62620000  0.57860000  1.0 -0.1303463004
C  C34  1  0.62620000  0.59030000  0.42140000  1.0 -0.1303463004
C  C35  1  0.40970000  0.03590000  0.42140000  1.0 -0.1303463004
C  C36  1  0.96410000  0.37380000  0.42140000  1.0 -0.1303463004
C  C37  1  0.38800000  0.34530000  0.42750000  1.0 -0.1411825932
C  C38  1  0.65470000  0.04270000  0.42750000  1.0 -0.1411825932
C  C39  1  0.95730000  0.61200000  0.42750000  1.0 -0.1411825932
C  C40  1  0.61200000  0.65470000  0.57250000  1.0 -0.1411825932
C  C41  1  0.34530000  0.95730000  0.57250000  1.0 -0.1411825932
C  C42  1  0.04270000  0.38800000  0.57250000  1.0 -0.1411825932
C  C43  1  0.30750000  0.40030000  0.51900000  1.0 -0.1303463004
C  C44  1  0.59970000  0.90720000  0.51900000  1.0 -0.1303463004
C  C45  1  0.09280000  0.69250000  0.51900000  1.0 -0.1303463004
C  C46  1  0.69250000  0.59970000  0.48100000  1.0 -0.1303463004
C  C47  1  0.40030000  0.09280000  0.48100000  1.0 -0.1303463004
C  C48  1  0.90720000  0.30750000  0.48100000  1.0 -0.1303463004
C  C49  1  0.31630000  0.36830000  0.44360000  1.0 0.0454657176
C  C50  1  0.63170000  0.94800000  0.44360000  1.0 0.0454657176
C  C51  1  0.05200000  0.68370000  0.44360000  1.0 0.0454657176
C  C52  1  0.68370000  0.63170000  0.55640000  1.0 0.0454657176
C  C53  1  0.36830000  0.05200000  0.55640000  1.0 0.0454657176
C  C54  1  0.94800000  0.31630000  0.55640000  1.0 0.0454657176
C  C55  1  0.24750000  0.35870000  0.38130000  1.0 0.2936621009
C  C56  1  0.64130000  0.88880000  0.38130000  1.0 0.2936621009
C  C57  1  0.11120000  0.75250000  0.38130000  1.0 0.2936621009
C  C58  1  0.75250000  0.64130000  0.61870000  1.0 0.2936621009
C  C59  1  0.35870000  0.11120000  0.61870000  1.0 0.2936621009
C  C60  1  0.88880000  0.24750000  0.61870000  1.0 0.2936621009
C  C61  1  0.60410000  0.51680000  0.83530000  1.0 0.0324006328
C  C62  1  0.48320000  0.08730000  0.83530000  1.0 0.0212853098
C  C63  1  0.91270000  0.39590000  0.83530000  1.0 0.0212853098
C  C64  1  0.39590000  0.48320000  0.16470000  1.0 0.0212853098
C  C65  1  0.51680000  0.91270000  0.16470000  1.0 0.0212853098
C  C66  1  0.08730000  0.60410000  0.16470000  1.0 0.0212853098
C  C67  1  0.64920000  0.50600000  0.90410000  1.0 -0.1111112884
C  C68  1  0.49400000  0.14320000  0.90410000  1.0 -0.1111112884
C  C69  1  0.85680000  0.35080000  0.90410000  1.0 -0.1111112884
C  C70  1  0.35080000  0.49400000  0.09590000  1.0 -0.1111112884
C  C71  1  0.50600000  0.85680000  0.09590000  1.0 -0.1111112884
C  C72  1  0.14320000  0.64920000  0.09590000  1.0 -0.1111112884
C  C73  1  0.56400000  0.57910000  0.83790000  1.0 -0.1303463004
C  C74  1  0.42090000  0.98490000  0.83790000  1.0 -0.1303463004
C  C75  1  0.01510000  0.43600000  0.83790000  1.0 -0.1303463004
C  C76  1  0.43600000  0.42090000  0.16210000  1.0 -0.1303463004
C  C77  1  0.57910000  0.01510000  0.16210000  1.0 -0.1303463004
C  C78  1  0.98490000  0.56400000  0.16210000  1.0 -0.1303463004
C  C79  1  0.65150000  0.55390000  0.97580000  1.0 -0.1411825932
C  C80  1  0.44610000  0.09760000  0.97580000  1.0 -0.1411825932
C  C81  1  0.90240000  0.34850000  0.97580000  1.0 -0.1411825932
C  C82  1  0.34850000  0.44610000  0.02420000  1.0 -0.1411825932
C  C83  1  0.55390000  0.90240000  0.02420000  1.0 -0.1411825932
C  C84  1  0.09760000  0.65150000  0.02420000  1.0 -0.1411825932
C  C85  1  0.56770000  0.62950000  0.90860000  1.0 -0.1411825932
C  C86  1  0.37050000  0.93820000  0.90860000  1.0 -0.1411825932
C  C87  1  0.06180000  0.43230000  0.90860000  1.0 -0.1411825932
C  C88  1  0.43230000  0.37050000  0.09140000  1.0 -0.1411825932
C  C89  1  0.62950000  0.06180000  0.09140000  1.0 -0.1411825932
C  C90  1  0.93820000  0.56770000  0.09140000  1.0 -0.1411825932
C  C91  1  0.61090000  0.61580000  0.97600000  1.0 0.0324006328
C  C92  1  0.38420000  0.99510000  0.97600000  1.0 0.0324006328
C  C93  1  0.00490000  0.38910000  0.97600000  1.0 0.0324006328
C  C94  1  0.38910000  0.38420000  0.02400000  1.0 0.0324006328
C  C95  1  0.61580000  0.00490000  0.02400000  1.0 0.0324006328
C  C96  1  0.99510000  0.61090000  0.02400000  1.0 0.0324006328
C  C97  1  0.61320000  0.66690000  0.05030000  1.0 0.2936621009
C  C98  1  0.33310000  0.94630000  0.05030000  1.0 0.2936621009
C  C99  1  0.05370000  0.38680000  0.05030000  1.0 0.2936621009
C  C100  1  0.38680000  0.33310000  0.94970000  1.0 0.2936621009
C  C101  1  0.66690000  0.05370000  0.94970000  1.0 0.2936621009
C  C102  1  0.94630000  0.61320000  0.94970000  1.0 0.2936621009
N  N1  1  0.61260000  0.70570000  0.10790000  1.0 -0.3991762301
N  N2  1  0.29430000  0.90690000  0.10790000  1.0 -0.3991762301
N  N3  1  0.09310000  0.38740000  0.10790000  1.0 -0.3991762301
N  N4  1  0.38740000  0.29430000  0.89210000  1.0 -0.3991762301
N  N5  1  0.70570000  0.09310000  0.89210000  1.0 -0.3991762301
N  N6  1  0.90690000  0.61260000  0.89210000  1.0 -0.3991762301
N  N7  1  0.19410000  0.35020000  0.32940000  1.0 -0.386286979
N  N8  1  0.64980000  0.84390000  0.32940000  1.0 -0.386286979
N  N9  1  0.15610000  0.80590000  0.32940000  1.0 -0.386286979
N  N10  1  0.80590000  0.64980000  0.67060000  1.0 -0.386286979
N  N11  1  0.35020000  0.15610000  0.67060000  1.0 -0.386286979
N  N12  1  0.84390000  0.19410000  0.67060000  1.0 -0.386286979
O  O1  1  0.67250000  0.44236000  0.75412000  1.0 -0.4892375818
O  O2  1  0.55764000  0.23014000  0.75412000  1.0 -0.4892375818
O  O3  1  0.76986000  0.32750000  0.75412000  1.0 -0.4892375818
O  O4  1  0.32750000  0.55764000  0.24588000  1.0 -0.4892375818
O  O5  1  0.44236000  0.76986000  0.24588000  1.0 -0.4892375818
O  O6  1  0.23014000  0.67250000  0.24588000  1.0 -0.4892375818
O  O7  1  0.58030000  0.36490000  0.60412000  1.0 -0.4548462084
O  O8  1  0.63510000  0.21540000  0.60412000  1.0 -0.4564580015
O  O9  1  0.78460000  0.41970000  0.60412000  1.0 -0.4564580015
O  O10  1  0.41970000  0.63510000  0.39588000  1.0 -0.4564580015
O  O11  1  0.36490000  0.78460000  0.39588000  1.0 -0.4564580015
O  O12  1  0.21540000  0.58030000  0.39588000  1.0 -0.4564580015
