# DDEC6 charges by PACMAN v1.1 (https://github.com/mtap-research/PACMAN-charge/)
data_LAGVEX_FSR_pacman
_symmetry_space_group_name_H-M   'P 1'
_cell_length_a   14.36600000
_cell_length_b   15.18900000
_cell_length_c   18.83300000
_cell_angle_alpha   67.91000000
_cell_angle_beta   82.66600000
_cell_angle_gamma   81.06500000
_symmetry_Int_Tables_number   1
_chemical_formula_structural   ZnH14C20N4O5
_chemical_formula_sum   'Zn6 H84 C120 N24 O30'
_cell_volume   3750.81447038
_cell_formula_units_Z   6
loop_
 _symmetry_equiv_pos_site_id
 _symmetry_equiv_pos_as_xyz
  1  'x, y, z'
loop_
 _atom_site_type_symbol
 _atom_site_label
 _atom_site_symmetry_multiplicity
 _atom_site_fract_x
 _atom_site_fract_y
 _atom_site_fract_z
 _atom_site_occupancy
 _atom_site_charge
Zn  Zn1  1  0.54698000  0.06572000  0.79463000  1.0 0.7583680368
Zn  Zn2  1  0.02198000  0.90358000  0.34621000  1.0 0.6912318981
Zn  Zn3  1  0.51188000  0.31692000  0.13964000  1.0 0.7583680368
Zn  Zn4  1  0.45302000  0.93428000  0.20537000  1.0 0.7583680368
Zn  Zn5  1  0.97802000  0.09642000  0.65379000  1.0 0.6912318981
Zn  Zn6  1  0.48812000  0.68308000  0.86036000  1.0 0.7583680368
H  H1  1  0.37590000  0.93450000  0.82390000  1.0 0.1301358724
H  H2  1  0.29480000  0.92470000  0.72320000  1.0 0.1405235105
H  H3  1  0.50780000  0.07810000  0.63070000  1.0 0.1108323861
H  H4  1  0.46920000  0.11240000  0.51770000  1.0 0.1301358724
H  H5  1  0.29600000  0.08540000  0.37680000  1.0 0.1405235105
H  H6  1  0.26210000  0.94350000  0.60450000  1.0 0.1405235105
H  H7  1  0.52300000  0.23110000  0.42090000  1.0 0.1197340301
H  H8  1  0.57720000  0.32080000  0.28860000  1.0 0.1301358724
H  H9  1  0.39800000  0.15770000  0.27970000  1.0 0.1197340301
H  H10  1  0.20120000  0.98810000  0.36720000  1.0 0.1197340301
H  H11  1  0.00890000  0.86580000  0.52670000  1.0 0.1301358724
H  H12  1  0.11880000  0.91780000  0.58780000  1.0 0.1301358724
H  H13  1  0.51630000  0.89780000  0.94640000  1.0 0.1108323861
H  H14  1  0.35680000  0.14410000  0.88860000  1.0 0.1301358724
H  H15  1  0.27870000  0.03530000  0.00210000  1.0 0.1301358724
H  H16  1  0.48630000  0.76550000  0.03010000  1.0 0.1405235105
H  H17  1  0.33170000  0.62080000  0.21900000  1.0 0.1301358724
H  H18  1  0.25670000  0.90040000  0.10660000  1.0 0.1301358724
H  H19  1  0.17260000  0.62050000  0.27560000  1.0 0.1301358724
H  H20  1  0.05390000  0.67830000  0.35610000  1.0 0.1197340301
H  H21  1  0.19120000  0.89390000  0.22750000  1.0 0.1197340301
H  H22  1  0.39120000  0.50280000  0.14020000  1.0 0.1197340301
H  H23  1  0.61420000  0.63150000  0.12570000  1.0 0.1301358724
H  H24  1  0.66560000  0.46870000  0.13410000  1.0 0.1301358724
H  H25  1  0.74050000  0.31990000  0.95520000  1.0 0.1108323861
H  H26  1  0.88290000  0.34590000  0.88280000  1.0 0.1301358724
H  H27  1  0.00730000  0.30920000  0.07290000  1.0 0.1197340301
H  H28  1  0.86270000  0.28540000  0.14300000  1.0 0.1108323861
H  H29  1  0.10950000  0.47170000  0.95670000  1.0 0.1405235105
H  H30  1  0.24400000  0.45490000  0.01890000  1.0 0.1197340301
H  H31  1  0.29410000  0.18030000  0.03840000  1.0 0.1021073489
H  H32  1  0.16040000  0.19780000  0.97570000  1.0 0.1301358724
H  H33  1  0.42280000  0.40580000  0.70320000  1.0 0.1108323861
H  H34  1  0.42990000  0.56170000  0.61930000  1.0 0.1405235105
H  H35  1  0.67800000  0.47970000  0.52820000  1.0 0.1301358724
H  H36  1  0.67160000  0.32410000  0.61190000  1.0 0.1197340301
H  H37  1  0.68720000  0.62710000  0.59250000  1.0 0.1301358724
H  H38  1  0.82220000  0.70320000  0.54710000  1.0 0.1197340301
H  H39  1  0.72910000  0.81220000  0.33530000  1.0 0.1108323861
H  H40  1  0.60020000  0.73050000  0.38080000  1.0 0.1405235105
H  H41  1  0.72040000  0.87830000  0.83360000  1.0 0.1108323861
H  H42  1  0.02100000  0.14900000  0.20200000  1.0 0.0881737822
H  H43  1  0.62410000  0.06550000  0.17610000  1.0 0.1301358724
H  H44  1  0.70520000  0.07530000  0.27680000  1.0 0.1405235105
H  H45  1  0.49220000  0.92190000  0.36930000  1.0 0.1108323861
H  H46  1  0.53080000  0.88760000  0.48230000  1.0 0.1301358724
H  H47  1  0.70400000  0.91460000  0.62320000  1.0 0.1405235105
H  H48  1  0.73790000  0.05650000  0.39550000  1.0 0.1405235105
H  H49  1  0.47700000  0.76890000  0.57910000  1.0 0.1197340301
H  H50  1  0.42280000  0.67920000  0.71140000  1.0 0.1301358724
H  H51  1  0.60200000  0.84230000  0.72030000  1.0 0.1197340301
H  H52  1  0.79880000  0.01190000  0.63280000  1.0 0.1197340301
H  H53  1  0.99110000  0.13420000  0.47330000  1.0 0.1301358724
H  H54  1  0.88120000  0.08220000  0.41220000  1.0 0.1301358724
H  H55  1  0.48370000  0.10220000  0.05360000  1.0 0.1108323861
H  H56  1  0.64320000  0.85590000  0.11140000  1.0 0.1301358724
H  H57  1  0.72130000  0.96470000  0.99790000  1.0 0.1301358724
H  H58  1  0.51370000  0.23450000  0.96990000  1.0 0.1405235105
H  H59  1  0.66830000  0.37920000  0.78100000  1.0 0.1301358724
H  H60  1  0.74330000  0.09960000  0.89340000  1.0 0.1301358724
H  H61  1  0.82740000  0.37950000  0.72440000  1.0 0.1301358724
H  H62  1  0.94610000  0.32170000  0.64390000  1.0 0.1197340301
H  H63  1  0.80880000  0.10610000  0.77250000  1.0 0.1197340301
H  H64  1  0.60880000  0.49720000  0.85980000  1.0 0.1197340301
H  H65  1  0.38580000  0.36850000  0.87430000  1.0 0.1301358724
H  H66  1  0.33440000  0.53130000  0.86590000  1.0 0.1197340301
H  H67  1  0.25950000  0.68010000  0.04480000  1.0 0.1108323861
H  H68  1  0.11710000  0.65410000  0.11720000  1.0 0.1301358724
H  H69  1  0.99270000  0.69080000  0.92710000  1.0 0.1197340301
H  H70  1  0.13730000  0.71460000  0.85700000  1.0 0.1108323861
H  H71  1  0.89050000  0.52830000  0.04330000  1.0 0.1405235105
H  H72  1  0.75600000  0.54510000  0.98110000  1.0 0.1197340301
H  H73  1  0.70590000  0.81970000  0.96160000  1.0 0.1021073489
H  H74  1  0.83960000  0.80220000  0.02430000  1.0 0.1301358724
H  H75  1  0.57720000  0.59420000  0.29680000  1.0 0.1108323861
H  H76  1  0.57010000  0.43830000  0.38070000  1.0 0.1405235105
H  H77  1  0.32200000  0.52030000  0.47180000  1.0 0.1301358724
H  H78  1  0.32840000  0.67590000  0.38810000  1.0 0.1197340301
H  H79  1  0.31280000  0.37290000  0.40750000  1.0 0.1301358724
H  H80  1  0.17780000  0.29680000  0.45290000  1.0 0.1197340301
H  H81  1  0.27090000  0.18780000  0.66470000  1.0 0.1108323861
H  H82  1  0.39980000  0.26950000  0.61920000  1.0 0.1405235105
H  H83  1  0.27960000  0.12170000  0.16640000  1.0 0.1108323861
H  H84  1  0.97900000  0.85100000  0.79800000  1.0 0.0881737822
C  C1  1  0.39200000  0.96290000  0.77160000  1.0 -0.0246510459
C  C2  1  0.34740000  0.95640000  0.71680000  1.0 -0.0995745973
C  C3  1  0.46480000  0.04130000  0.66640000  1.0 0.0881737822
C  C4  1  0.36930000  0.02500000  0.57270000  1.0 0.1820193372
C  C5  1  0.41840000  0.08610000  0.51070000  1.0 -0.289743104
C  C6  1  0.39030000  0.10760000  0.43730000  1.0 0.1904601166
C  C7  1  0.31470000  0.07010000  0.42590000  1.0 -0.289743104
C  C8  1  0.26710000  0.00880000  0.48970000  1.0 0.1904601166
C  C9  1  0.29410000  0.98550000  0.56250000  1.0 -0.2778382534
C  C10  1  0.50440000  0.22720000  0.37680000  1.0 -0.1071716958
C  C11  1  0.53400000  0.27620000  0.30360000  1.0 -0.0420691333
C  C12  1  0.43610000  0.18750000  0.29800000  1.0 0.1108323861
C  C13  1  0.16690000  0.96420000  0.41440000  1.0 0.0881737822
C  C14  1  0.06150000  0.89690000  0.50220000  1.0 -0.0261892089
C  C15  1  0.12180000  0.92580000  0.53610000  1.0 -0.0995745973
C  C16  1  0.46740000  0.94590000  0.94590000  1.0 0.1108323861
C  C17  1  0.37950000  0.08070000  0.91490000  1.0 -0.0420691333
C  C18  1  0.33570000  0.02100000  0.97690000  1.0 -0.1071716958
C  C19  1  0.37490000  0.84720000  0.05920000  1.0 0.2011002219
C  C20  1  0.43480000  0.76500000  0.06550000  1.0 -0.2359729492
C  C21  1  0.41650000  0.68210000  0.12570000  1.0 0.1904601166
C  C22  1  0.34210000  0.67800000  0.17890000  1.0 -0.2627620929
C  C23  1  0.28300000  0.76030000  0.17200000  1.0 0.1904601166
C  C24  1  0.29800000  0.84520000  0.11170000  1.0 -0.2627620929
C  C25  1  0.16090000  0.68270000  0.27520000  1.0 -0.1071716958
C  C26  1  0.09660000  0.71480000  0.31970000  1.0 -0.0420691333
C  C27  1  0.17080000  0.83350000  0.24900000  1.0 0.1197340301
C  C28  1  0.45370000  0.51430000  0.13690000  1.0 0.1301358724
C  C29  1  0.57580000  0.58580000  0.12940000  1.0 -0.091655752
C  C30  1  0.60320000  0.49670000  0.13360000  1.0 -0.0420691333
C  C31  1  0.69400000  0.29030000  0.10360000  1.0 0.5343939281
C  C32  1  0.78540000  0.30340000  0.05530000  1.0 -0.0420691333
C  C33  1  0.79370000  0.31920000  0.97890000  1.0 -0.0995745973
C  C34  1  0.87910000  0.33400000  0.93520000  1.0 -0.2217510366
C  C35  1  0.95770000  0.33100000  0.97070000  1.0 0.2524903035
C  C36  1  0.95350000  0.31230000  0.04900000  1.0 -0.2217510366
C  C37  1  0.86680000  0.29840000  0.09040000  1.0 -0.091655752
C  C38  1  0.12180000  0.33620000  0.96190000  1.0 0.2377767927
C  C39  1  0.14650000  0.41280000  0.97380000  1.0 -0.2084330652
C  C40  1  0.22650000  0.40280000  0.01140000  1.0 -0.091655752
C  C41  1  0.28070000  0.31420000  0.03790000  1.0 -0.0420691333
C  C42  1  0.25630000  0.23880000  0.02290000  1.0 -0.1255837315
C  C43  1  0.17670000  0.24900000  0.98520000  1.0 -0.2084330652
C  C44  1  0.36700000  0.30040000  0.07960000  1.0 0.5237052656
C  C45  1  0.53460000  0.24890000  0.71920000  1.0 0.5237052656
C  C46  1  0.54660000  0.34750000  0.66640000  1.0 -0.0664473893
C  C47  1  0.47470000  0.42060000  0.66770000  1.0 -0.0995745973
C  C48  1  0.47840000  0.51400000  0.61780000  1.0 -0.2084330652
C  C49  1  0.55500000  0.53450000  0.56650000  1.0 0.2377767927
C  C50  1  0.62640000  0.46430000  0.56390000  1.0 -0.2217510366
C  C51  1  0.62260000  0.37110000  0.61390000  1.0 -0.091655752
C  C52  1  0.63410000  0.67080000  0.48890000  1.0 0.2301442689
C  C53  1  0.69780000  0.66300000  0.54050000  1.0 -0.2217510366
C  C54  1  0.77740000  0.70960000  0.51350000  1.0 -0.091655752
C  C55  1  0.79100000  0.76620000  0.43600000  1.0 -0.0787628003
C  C56  1  0.72200000  0.77370000  0.38700000  1.0 -0.1203330503
C  C57  1  0.64510000  0.72560000  0.41400000  1.0 -0.1788103812
C  C58  1  0.87870000  0.81750000  0.40640000  1.0 0.3946414805
C  C59  1  0.71390000  0.94350000  0.79850000  1.0 0.4358502841
C  C60  1  0.00300000  0.09380000  0.24800000  1.0 0.4358502841
C  C61  1  0.60800000  0.03710000  0.22840000  1.0 -0.0246510459
C  C62  1  0.65260000  0.04360000  0.28320000  1.0 -0.0995745973
C  C63  1  0.53520000  0.95870000  0.33360000  1.0 0.0881737822
C  C64  1  0.63070000  0.97500000  0.42730000  1.0 0.1820193372
C  C65  1  0.58160000  0.91390000  0.48930000  1.0 -0.289743104
C  C66  1  0.60970000  0.89240000  0.56270000  1.0 0.1904601166
C  C67  1  0.68530000  0.92990000  0.57410000  1.0 -0.289743104
C  C68  1  0.73290000  0.99120000  0.51030000  1.0 0.1904601166
C  C69  1  0.70590000  0.01450000  0.43750000  1.0 -0.2778382534
C  C70  1  0.49560000  0.77280000  0.62320000  1.0 -0.1071716958
C  C71  1  0.46600000  0.72380000  0.69640000  1.0 -0.0420691333
C  C72  1  0.56390000  0.81250000  0.70200000  1.0 0.1108323861
C  C73  1  0.83310000  0.03580000  0.58560000  1.0 0.0881737822
C  C74  1  0.93850000  0.10310000  0.49780000  1.0 -0.0261892089
C  C75  1  0.87820000  0.07420000  0.46390000  1.0 -0.0995745973
C  C76  1  0.53260000  0.05410000  0.05410000  1.0 0.1108323861
C  C77  1  0.62050000  0.91930000  0.08510000  1.0 -0.0420691333
C  C78  1  0.66430000  0.97900000  0.02310000  1.0 -0.0995745973
C  C79  1  0.62510000  0.15280000  0.94080000  1.0 0.2011002219
C  C80  1  0.56520000  0.23500000  0.93450000  1.0 -0.2359729492
C  C81  1  0.58350000  0.31790000  0.87430000  1.0 0.1904601166
C  C82  1  0.65790000  0.32200000  0.82110000  1.0 -0.2627620929
C  C83  1  0.71700000  0.23970000  0.82800000  1.0 0.1904601166
C  C84  1  0.70200000  0.15480000  0.88830000  1.0 -0.2627620929
C  C85  1  0.83910000  0.31730000  0.72480000  1.0 -0.1071716958
C  C86  1  0.90340000  0.28520000  0.68030000  1.0 -0.0420691333
C  C87  1  0.82920000  0.16650000  0.75100000  1.0 0.1197340301
C  C88  1  0.54630000  0.48570000  0.86310000  1.0 0.1301358724
C  C89  1  0.42420000  0.41420000  0.87060000  1.0 -0.091655752
C  C90  1  0.39680000  0.50330000  0.86640000  1.0 -0.0420691333
C  C91  1  0.30600000  0.70970000  0.89640000  1.0 0.5343939281
C  C92  1  0.21460000  0.69660000  0.94470000  1.0 -0.0420691333
C  C93  1  0.20630000  0.68080000  0.02110000  1.0 -0.0995745973
C  C94  1  0.12090000  0.66600000  0.06480000  1.0 -0.2217510366
C  C95  1  0.04230000  0.66900000  0.02930000  1.0 0.2524903035
C  C96  1  0.04650000  0.68770000  0.95100000  1.0 -0.2217510366
C  C97  1  0.13320000  0.70160000  0.90960000  1.0 -0.0995745973
C  C98  1  0.87820000  0.66380000  0.03810000  1.0 0.2377767927
C  C99  1  0.85350000  0.58720000  0.02620000  1.0 -0.2084330652
C  C100  1  0.77350000  0.59720000  0.98860000  1.0 -0.091655752
C  C101  1  0.71930000  0.68580000  0.96210000  1.0 -0.0420691333
C  C102  1  0.74370000  0.76120000  0.97710000  1.0 -0.1255837315
C  C103  1  0.82330000  0.75100000  0.01480000  1.0 -0.2084330652
C  C104  1  0.63300000  0.69960000  0.92040000  1.0 0.5237052656
C  C105  1  0.46540000  0.75110000  0.28080000  1.0 0.5237052656
C  C106  1  0.45340000  0.65250000  0.33360000  1.0 -0.0664473893
C  C107  1  0.52530000  0.57940000  0.33230000  1.0 -0.0995745973
C  C108  1  0.52160000  0.48600000  0.38220000  1.0 -0.2084330652
C  C109  1  0.44500000  0.46550000  0.43350000  1.0 0.2377767927
C  C110  1  0.37360000  0.53570000  0.43610000  1.0 -0.2217510366
C  C111  1  0.37740000  0.62890000  0.38610000  1.0 -0.091655752
C  C112  1  0.36590000  0.32920000  0.51110000  1.0 0.2301442689
C  C113  1  0.30220000  0.33700000  0.45950000  1.0 -0.2217510366
C  C114  1  0.22260000  0.29040000  0.48650000  1.0 -0.091655752
C  C115  1  0.20900000  0.23380000  0.56400000  1.0 -0.0787628003
C  C116  1  0.27800000  0.22630000  0.61300000  1.0 -0.1203330503
C  C117  1  0.35490000  0.27440000  0.58600000  1.0 -0.1788103812
C  C118  1  0.12130000  0.18250000  0.59360000  1.0 0.3956002212
C  C119  1  0.28610000  0.05650000  0.20150000  1.0 0.4358502841
C  C120  1  0.99700000  0.90620000  0.75200000  1.0 0.4358502841
N  N1  1  0.46520000  0.01710000  0.74068000  1.0 -0.2778382534
N  N2  1  0.39480000  0.00660000  0.64797000  1.0 -0.0086708795
N  N3  1  0.44160000  0.17090000  0.37305000  1.0 -0.0010531153
N  N4  1  0.49110000  0.25060000  0.25445000  1.0 -0.2778382534
N  N5  1  0.18850000  0.96940000  0.47983000  1.0 0.0075021573
N  N6  1  0.09040000  0.92070000  0.42610000  1.0 -0.289743104
N  N7  1  0.46420000  0.03390000  0.89553000  1.0 -0.289743104
N  N8  1  0.39140000  0.93390000  0.99641000  1.0 0.0029584063
N  N9  1  0.20700000  0.75990000  0.22820000  1.0 0.0075021573
N  N10  1  0.10240000  0.81010000  0.30390000  1.0 -0.3025087946
N  N11  1  0.52620000  0.45160000  0.13710000  1.0 -0.273099252
N  N12  1  0.47940000  0.59660000  0.13140000  1.0 0.0029584063
N  N13  1  0.53480000  0.98290000  0.25932000  1.0 -0.2778382534
N  N14  1  0.60520000  0.99340000  0.35203000  1.0 -0.0086708795
N  N15  1  0.55840000  0.82910000  0.62695000  1.0 -0.0010531153
N  N16  1  0.50890000  0.74940000  0.74555000  1.0 -0.2778382534
N  N17  1  0.81150000  0.03060000  0.52017000  1.0 0.0075021573
N  N18  1  0.90960000  0.07930000  0.57390000  1.0 -0.289743104
N  N19  1  0.53580000  0.96610000  0.10447000  1.0 -0.289743104
N  N20  1  0.60860000  0.06610000  0.00359000  1.0 0.0029584063
N  N21  1  0.79300000  0.24010000  0.77180000  1.0 0.0075021573
N  N22  1  0.89760000  0.18990000  0.69610000  1.0 -0.3025087946
N  N23  1  0.47380000  0.54840000  0.86290000  1.0 -0.273099252
N  N24  1  0.52060000  0.40340000  0.86860000  1.0 0.0029584063
O  O1  1  0.04110000  0.34590000  0.92458000  1.0 -0.2267143363
O  O2  1  0.55170000  0.62740000  0.51410000  1.0 -0.2217510366
O  O3  1  0.62070000  0.29680000  0.06950000  1.0 -0.5408686582
O  O4  1  0.69040000  0.27970000  0.17183000  1.0 -0.5408686582
O  O5  1  0.42120000  0.22680000  0.09412000  1.0 -0.5408686582
O  O6  1  0.38420000  0.36890000  0.09640000  1.0 -0.5300593608
O  O7  1  0.46660000  0.23150000  0.76990000  1.0 -0.5676909768
O  O8  1  0.59460000  0.18320000  0.71200000  1.0 -0.5300593608
O  O9  1  0.94450000  0.79060000  0.44840000  1.0 -0.4190029287
O  O10  1  0.87510000  0.86430000  0.31900000  1.0 -0.1203330503
O  O11  1  0.69760000  0.93960000  0.73869000  1.0 -0.4888407075
O  O12  1  0.66370000  0.98980000  0.83647000  1.0 -0.5147211933
O  O13  1  0.04860000  0.01740000  0.25392000  1.0 -0.4755018437
O  O14  1  0.93710000  0.10960000  0.28980000  1.0 -0.4652900481
O  O15  1  0.89250000  0.87810000  0.36040000  1.0 0.0324413973
O  O16  1  0.95890000  0.65410000  0.07542000  1.0 -0.2267143363
O  O17  1  0.44830000  0.37260000  0.48590000  1.0 -0.2217510366
O  O18  1  0.37930000  0.70320000  0.93050000  1.0 -0.5408686582
O  O19  1  0.30960000  0.72030000  0.82817000  1.0 -0.5408686582
O  O20  1  0.57880000  0.77320000  0.90588000  1.0 -0.5408686582
O  O21  1  0.61580000  0.63110000  0.90360000  1.0 -0.5300593608
O  O22  1  0.53340000  0.76850000  0.23010000  1.0 -0.5676909768
O  O23  1  0.40540000  0.81680000  0.28800000  1.0 -0.5300593608
O  O24  1  0.05550000  0.20940000  0.55160000  1.0 -0.4190029287
O  O25  1  0.12490000  0.13570000  0.68100000  1.0 -0.1203330503
O  O26  1  0.30240000  0.06040000  0.26131000  1.0 -0.4888407075
O  O27  1  0.33630000  0.01020000  0.16353000  1.0 -0.5147211933
O  O28  1  0.95140000  0.98260000  0.74608000  1.0 -0.4755018437
O  O29  1  0.06290000  0.89040000  0.71020000  1.0 -0.4641630733
O  O30  1  0.10750000  0.12190000  0.63960000  1.0 0.0324413973
