# DDEC6 charges by PACMAN v1.1 (https://github.com/mtap-research/PACMAN-charge/)
data_LAGWIB_FSR_pacman
_symmetry_space_group_name_H-M   'P 1'
_cell_length_a   17.31080000
_cell_length_b   17.31080000
_cell_length_c   18.29130000
_cell_angle_alpha   86.47220000
_cell_angle_beta   93.52780000
_cell_angle_gamma   147.37200000
_symmetry_Int_Tables_number   1
_chemical_formula_structural   Co(C2O)4
_chemical_formula_sum   'Co8 C64 O32'
_cell_volume   2949.30794246
_cell_formula_units_Z   8
loop_
 _symmetry_equiv_pos_site_id
 _symmetry_equiv_pos_as_xyz
  1  'x, y, z'
loop_
 _atom_site_type_symbol
 _atom_site_label
 _atom_site_symmetry_multiplicity
 _atom_site_fract_x
 _atom_site_fract_y
 _atom_site_fract_z
 _atom_site_occupancy
 _atom_site_charge
Co  Co1  1  0.45319000  0.14879000  0.48314000  1.0 0.9135222492
Co  Co2  1  0.14879000  0.45319000  0.01686000  1.0 0.9135222492
Co  Co3  1  0.54681000  0.85121000  0.51686000  1.0 0.9135222492
Co  Co4  1  0.85121000  0.54681000  0.98314000  1.0 0.9135222492
Co  Co5  1  0.49380000  0.99820000  0.49470000  1.0 1.1258742867
Co  Co6  1  0.99820000  0.49380000  0.00530000  1.0 1.1258742867
Co  Co7  1  0.50620000  0.00180000  0.50530000  1.0 1.1258742867
Co  Co8  1  0.00180000  0.50620000  0.99470000  1.0 1.1258742867
C  C1  1  0.86304000  0.40956000  0.48070000  1.0 -0.018358087
C  C2  1  0.40956000  0.86304000  0.01930000  1.0 -0.018358087
C  C3  1  0.13696000  0.59044000  0.51930000  1.0 -0.018358087
C  C4  1  0.59044000  0.13696000  0.98070000  1.0 -0.018358087
C  C5  1  0.05841000  0.68759000  0.09370000  1.0 0.6469493715
C  C6  1  0.68759000  0.05841000  0.40630000  1.0 0.6469493715
C  C7  1  0.94159000  0.31241000  0.90630000  1.0 0.6469493715
C  C8  1  0.31241000  0.94159000  0.59370000  1.0 0.6469493715
C  C9  1  0.34573000  0.95987000  0.37280000  1.0 0.6469493715
C  C10  1  0.95987000  0.34573000  0.12720000  1.0 0.6469493715
C  C11  1  0.65427000  0.04013000  0.62720000  1.0 0.6469493715
C  C12  1  0.04013000  0.65427000  0.87280000  1.0 0.6469493715
C  C13  1  0.71477000  0.31383000  0.46020000  1.0 0.6043670235
C  C14  1  0.31383000  0.71477000  0.03980000  1.0 0.6043670235
C  C15  1  0.28523000  0.68617000  0.53980000  1.0 0.6043670235
C  C16  1  0.68617000  0.28523000  0.96020000  1.0 0.6043670235
C  C17  1  0.88876000  0.39164000  0.54780000  1.0 -0.0074446545
C  C18  1  0.39164000  0.88876000  0.95220000  1.0 -0.0074446545
C  C19  1  0.11124000  0.60836000  0.45220000  1.0 -0.0074446545
C  C20  1  0.60836000  0.11124000  0.04780000  1.0 -0.0074446545
C  C21  1  0.22436000  0.77744000  0.19430000  1.0 0.0095348614
C  C22  1  0.77744000  0.22436000  0.30570000  1.0 0.0095348614
C  C23  1  0.77564000  0.22256000  0.80570000  1.0 0.0095348614
C  C24  1  0.22256000  0.77564000  0.69430000  1.0 0.0095348614
C  C25  1  0.17677000  0.86703000  0.27310000  1.0 0.0095348614
C  C26  1  0.86703000  0.17677000  0.22690000  1.0 0.0095348614
C  C27  1  0.82323000  0.13297000  0.72690000  1.0 0.0095348614
C  C28  1  0.13297000  0.82323000  0.77310000  1.0 0.0095348614
C  C29  1  0.13116000  0.75684000  0.16610000  1.0 -0.0560982934
C  C30  1  0.75684000  0.13116000  0.33390000  1.0 -0.0560982934
C  C31  1  0.86884000  0.24316000  0.83390000  1.0 -0.0560982934
C  C32  1  0.24316000  0.86884000  0.66610000  1.0 -0.0560982934
C  C33  1  0.10685000  0.80055000  0.20550000  1.0 0.0270136615
C  C34  1  0.80055000  0.10685000  0.29450000  1.0 0.0270136615
C  C35  1  0.89315000  0.19945000  0.79450000  1.0 0.0245676731
C  C36  1  0.19945000  0.89315000  0.70550000  1.0 0.0270136615
C  C37  1  0.26893000  0.88727000  0.30080000  1.0 -0.0458521264
C  C38  1  0.88727000  0.26893000  0.19920000  1.0 -0.0448288525
C  C39  1  0.73107000  0.11273000  0.69920000  1.0 -0.0458521264
C  C40  1  0.11273000  0.73107000  0.80080000  1.0 -0.0458521264
C  C41  1  0.29238000  0.84182000  0.26180000  1.0 -0.0074446545
C  C42  1  0.84182000  0.29238000  0.23820000  1.0 -0.0074446545
C  C43  1  0.70762000  0.15818000  0.73820000  1.0 -0.0074446545
C  C44  1  0.15818000  0.70762000  0.76180000  1.0 -0.0074446545
C  C45  1  0.97522000  0.51858000  0.43310000  1.0 -0.0018014924
C  C46  1  0.51858000  0.97522000  0.06690000  1.0 -0.0018014924
C  C47  1  0.02478000  0.48142000  0.56690000  1.0 -0.0018014924
C  C48  1  0.48142000  0.02478000  0.93310000  1.0 -0.0018014924
C  C49  1  0.50160000  0.42180000  0.50150000  1.0 -0.0273702255
C  C50  1  0.42180000  0.50160000  0.99850000  1.0 -0.0273702255
C  C51  1  0.49840000  0.57820000  0.49850000  1.0 -0.0273702255
C  C52  1  0.57820000  0.49840000  0.00150000  1.0 -0.0273702255
C  C53  1  0.50580000  0.33600000  0.50260000  1.0 0.5610143599
C  C54  1  0.33600000  0.50580000  0.99740000  1.0 0.5610143599
C  C55  1  0.49420000  0.66400000  0.49740000  1.0 0.5610143599
C  C56  1  0.66400000  0.49420000  0.00260000  1.0 0.5610143599
C  C57  1  0.40830000  0.38350000  0.45590000  1.0 -0.0074446545
C  C58  1  0.38350000  0.40830000  0.04410000  1.0 -0.0074446545
C  C59  1  0.59170000  0.61650000  0.54410000  1.0 -0.0074446545
C  C60  1  0.61650000  0.59170000  0.95590000  1.0 -0.0074446545
C  C61  1  0.58950000  0.53350000  0.54870000  1.0 0.0095348614
C  C62  1  0.53350000  0.58950000  0.95130000  1.0 0.0095348614
C  C63  1  0.41050000  0.46650000  0.45130000  1.0 0.0095348614
C  C64  1  0.46650000  0.41050000  0.04870000  1.0 0.0095348614
O  O1  1  0.33808000  0.01912000  0.39971000  1.0 -0.4916463511
O  O2  1  0.01912000  0.33808000  0.10029000  1.0 -0.4916463511
O  O3  1  0.66192000  0.98088000  0.60029000  1.0 -0.4916463511
O  O4  1  0.98088000  0.66192000  0.89971000  1.0 -0.4916463511
O  O5  1  0.96303000  0.65617000  0.07440000  1.0 -0.4671651962
O  O6  1  0.65617000  0.96303000  0.42560000  1.0 -0.4671651962
O  O7  1  0.03697000  0.34383000  0.92560000  1.0 -0.4671651962
O  O8  1  0.34383000  0.03697000  0.57440000  1.0 -0.4671651962
O  O9  1  0.41150000  0.95790000  0.39996000  1.0 -0.6371757182
O  O10  1  0.95790000  0.41150000  0.10004000  1.0 -0.6371757182
O  O11  1  0.58850000  0.04210000  0.60004000  1.0 -0.6371757182
O  O12  1  0.04210000  0.58850000  0.89996000  1.0 -0.6371757182
O  O13  1  0.61147000  0.20613000  0.50530000  1.0 -0.7167022618
O  O14  1  0.20613000  0.61147000  0.99470000  1.0 -0.7167022618
O  O15  1  0.38853000  0.79387000  0.49470000  1.0 -0.7167022618
O  O16  1  0.79387000  0.38853000  0.00530000  1.0 -0.7167022618
O  O17  1  0.09754000  0.66666667  0.05614000  1.0 -0.6738360616
O  O18  1  0.66666667  0.09754000  0.44386000  1.0 -0.6738360616
O  O19  1  0.90246000  0.33333333  0.94386000  1.0 -0.6738360616
O  O20  1  0.33333333  0.90246000  0.55614000  1.0 -0.6738360616
O  O21  1  0.69235000  0.33725000  0.40530000  1.0 -0.4458984377
O  O22  1  0.33725000  0.69235000  0.09470000  1.0 -0.4458984377
O  O23  1  0.30765000  0.66275000  0.59470000  1.0 -0.4458984377
O  O24  1  0.66275000  0.30765000  0.90530000  1.0 -0.4458984377
O  O25  1  0.43920000  0.24880000  0.46080000  1.0 -0.4394171329
O  O26  1  0.24880000  0.43920000  0.03920000  1.0 -0.4394171329
O  O27  1  0.56080000  0.75120000  0.53920000  1.0 -0.4394171329
O  O28  1  0.75120000  0.56080000  0.96080000  1.0 -0.4394171329
O  O29  1  0.58000000  0.36200000  0.55290000  1.0 -0.5102838817
O  O30  1  0.36200000  0.58000000  0.94710000  1.0 -0.5102838817
O  O31  1  0.42000000  0.63800000  0.44710000  1.0 -0.5102838817
O  O32  1  0.63800000  0.42000000  0.05290000  1.0 -0.5102838817
