# DDEC6 charges by PACMAN v1.1 (https://github.com/mtap-research/PACMAN-charge/)
data_LAGWEX_FSR_pacman
_symmetry_space_group_name_H-M   'P 1'
_cell_length_a   13.81570000
_cell_length_b   13.81570000
_cell_length_c   16.51930000
_cell_angle_alpha   56.60800000
_cell_angle_beta   123.39200000
_cell_angle_gamma   126.44000000
_symmetry_Int_Tables_number   1
_chemical_formula_structural   Cd3(C12O7)2
_chemical_formula_sum   'Cd6 C48 O28'
_cell_volume   1997.23260633
_cell_formula_units_Z   2
loop_
 _symmetry_equiv_pos_site_id
 _symmetry_equiv_pos_as_xyz
  1  'x, y, z'
loop_
 _atom_site_type_symbol
 _atom_site_label
 _atom_site_symmetry_multiplicity
 _atom_site_fract_x
 _atom_site_fract_y
 _atom_site_fract_z
 _atom_site_occupancy
 _atom_site_charge
Cd  Cd1  1  0.28265000  0.28265000  0.75000000  1.0 1.1477501968
Cd  Cd2  1  0.71735000  0.71735000  0.25000000  1.0 1.1477501968
Cd  Cd3  1  0.01386000  0.35758000  0.61003000  1.0 1.0232771018
Cd  Cd4  1  0.35758000  0.01386000  0.88997000  1.0 1.0232771018
Cd  Cd5  1  0.98614000  0.64242000  0.38997000  1.0 1.0232771018
Cd  Cd6  1  0.64242000  0.98614000  0.11003000  1.0 1.0232771018
C  C1  1  0.16360000  0.46500000  0.49500000  1.0 0.6315110007
C  C2  1  0.46500000  0.16360000  0.00500000  1.0 0.6315110007
C  C3  1  0.83640000  0.53500000  0.50500000  1.0 0.6315110007
C  C4  1  0.53500000  0.83640000  0.99500000  1.0 0.6315110007
C  C5  1  0.24500000  0.52780000  0.43130000  1.0 -0.0599458748
C  C6  1  0.52780000  0.24500000  0.06870000  1.0 -0.0599458748
C  C7  1  0.75500000  0.47220000  0.56870000  1.0 -0.0599458748
C  C8  1  0.47220000  0.75500000  0.93130000  1.0 -0.0599458748
C  C9  1  0.33550000  0.70710000  0.30050000  1.0 0.0161990658
C  C10  1  0.70710000  0.33550000  0.19950000  1.0 0.0161990658
C  C11  1  0.66450000  0.29290000  0.69950000  1.0 0.0161990658
C  C12  1  0.29290000  0.66450000  0.80050000  1.0 0.0100840932
C  C13  1  0.00810000  0.17010000  0.79510000  1.0 0.6220473328
C  C14  1  0.17010000  0.00810000  0.70490000  1.0 0.6220473328
C  C15  1  0.99190000  0.82990000  0.20490000  1.0 0.6220473328
C  C16  1  0.82990000  0.99190000  0.29510000  1.0 0.6220473328
C  C17  1  0.00340000  0.08040000  0.90120000  1.0 -0.0668975583
C  C18  1  0.08040000  0.00340000  0.59880000  1.0 -0.0668975583
C  C19  1  0.99660000  0.91960000  0.09880000  1.0 -0.0599458748
C  C20  1  0.91960000  0.99660000  0.40120000  1.0 -0.0599458748
C  C21  1  0.25900000  0.64780000  0.35860000  1.0 0.0100840932
C  C22  1  0.64780000  0.25900000  0.14140000  1.0 0.0100840932
C  C23  1  0.74100000  0.35220000  0.64140000  1.0 0.0100840932
C  C24  1  0.35220000  0.74100000  0.85860000  1.0 0.0100840932
C  C25  1  0.48950000  0.71450000  0.25770000  1.0 0.6391302922
C  C26  1  0.71450000  0.48950000  0.24230000  1.0 0.6391302922
C  C27  1  0.51050000  0.28550000  0.74230000  1.0 0.6391302922
C  C28  1  0.28550000  0.51050000  0.75770000  1.0 0.6391302922
C  C29  1  0.39850000  0.64610000  0.31630000  1.0 -0.0473974964
C  C30  1  0.64610000  0.39850000  0.18370000  1.0 -0.0473974964
C  C31  1  0.60150000  0.35390000  0.68370000  1.0 -0.0473974964
C  C32  1  0.35390000  0.60150000  0.81630000  1.0 -0.0473974964
C  C33  1  0.09570000  0.03330000  0.97040000  1.0 0.0012896944
C  C34  1  0.03330000  0.09570000  0.52960000  1.0 0.0012896944
C  C35  1  0.90430000  0.96670000  0.02960000  1.0 0.0012896944
C  C36  1  0.96670000  0.90430000  0.47040000  1.0 0.0012896944
C  C37  1  0.30760000  0.46600000  0.44660000  1.0 -0.0077088076
C  C38  1  0.46600000  0.30760000  0.05340000  1.0 -0.0077088076
C  C39  1  0.69240000  0.53400000  0.55340000  1.0 -0.0077088076
C  C40  1  0.53400000  0.69240000  0.94660000  1.0 -0.0077088076
C  C41  1  0.38340000  0.52460000  0.38870000  1.0 -0.0077088076
C  C42  1  0.52460000  0.38340000  0.11130000  1.0 -0.0077088076
C  C43  1  0.61660000  0.47540000  0.61130000  1.0 -0.0077088076
C  C44  1  0.47540000  0.61660000  0.88870000  1.0 -0.0077088076
C  C45  1  0.90770000  0.04730000  0.93040000  1.0 0.0100840932
C  C46  1  0.04730000  0.90770000  0.56960000  1.0 0.0100840932
C  C47  1  0.09230000  0.95270000  0.06960000  1.0 0.0100840932
C  C48  1  0.95270000  0.09230000  0.43040000  1.0 0.0100840932
O  O1  1  0.08681000  0.50779000  0.46630000  1.0 -0.5282640776
O  O2  1  0.50779000  0.08681000  0.03370000  1.0 -0.5282640776
O  O3  1  0.91319000  0.49221000  0.53370000  1.0 -0.5282640776
O  O4  1  0.49221000  0.91319000  0.96630000  1.0 -0.5282640776
O  O5  1  0.17118000  0.36942000  0.57490000  1.0 -0.5788440725
O  O6  1  0.36942000  0.17118000  0.92510000  1.0 -0.5788440725
O  O7  1  0.82882000  0.63058000  0.42510000  1.0 -0.5788440725
O  O8  1  0.63058000  0.82882000  0.07490000  1.0 -0.5788440725
O  O9  1  0.49210000  0.81870000  0.18810000  1.0 -0.5149785897
O  O10  1  0.81870000  0.49210000  0.31190000  1.0 -0.5155861995
O  O11  1  0.50790000  0.18130000  0.81190000  1.0 -0.5155861995
O  O12  1  0.18130000  0.50790000  0.68810000  1.0 -0.5149785897
O  O13  1  0.09150000  0.19710000  0.76740000  1.0 -0.5711376837
O  O14  1  0.19710000  0.09150000  0.73260000  1.0 -0.5711376837
O  O15  1  0.90850000  0.80290000  0.23260000  1.0 -0.5711376837
O  O16  1  0.80290000  0.90850000  0.26740000  1.0 -0.5711376837
O  O17  1  0.55500000  0.65920000  0.28490000  1.0 -0.5579159281
O  O18  1  0.65920000  0.55500000  0.21510000  1.0 -0.5579159281
O  O19  1  0.44500000  0.34080000  0.71510000  1.0 -0.5579159281
O  O20  1  0.34080000  0.44500000  0.78490000  1.0 -0.5579159281
O  O21  1  0.93000000  0.21860000  0.73720000  1.0 -0.5026755354
O  O22  1  0.21860000  0.93000000  0.76280000  1.0 -0.5026755354
O  O23  1  0.07000000  0.78140000  0.26280000  1.0 -0.5026755354
O  O24  1  0.78140000  0.07000000  0.23720000  1.0 -0.5026755354
O  O25  1  0.84640000  0.26800000  0.48670000  1.0 -0.0872799551
O  O26  1  0.26800000  0.84640000  0.01330000  1.0 -0.0872799551
O  O27  1  0.15360000  0.73200000  0.51330000  1.0 -0.080826672
O  O28  1  0.73200000  0.15360000  0.98670000  1.0 -0.0872799551
