# DDEC6 charges by PACMAN v1.1 (https://github.com/mtap-research/PACMAN-charge/)
data_LAMFEK_FSR_pacman
_symmetry_space_group_name_H-M   'P 1'
_cell_length_a   13.97260000
_cell_length_b   13.97260000
_cell_length_c   13.89700000
_cell_angle_alpha   88.92230000
_cell_angle_beta   91.07770000
_cell_angle_gamma   148.40800000
_symmetry_Int_Tables_number   1
_chemical_formula_structural   CdNiC7N6
_chemical_formula_sum   'Cd4 Ni4 C28 N24'
_cell_volume   1421.06372548
_cell_formula_units_Z   4
loop_
 _symmetry_equiv_pos_site_id
 _symmetry_equiv_pos_as_xyz
  1  'x, y, z'
loop_
 _atom_site_type_symbol
 _atom_site_label
 _atom_site_symmetry_multiplicity
 _atom_site_fract_x
 _atom_site_fract_y
 _atom_site_fract_z
 _atom_site_occupancy
 _atom_site_charge
Cd  Cd1  1  0.01372000  0.74420000  0.71220000  1.0 1.017310165
Cd  Cd2  1  0.74420000  0.01372000  0.78780000  1.0 1.017310165
Cd  Cd3  1  0.98628000  0.25580000  0.28780000  1.0 1.017310165
Cd  Cd4  1  0.25580000  0.98628000  0.21220000  1.0 1.017310165
Ni  Ni1  1  0.37260000  0.37260000  0.75000000  1.0 0.0839920716
Ni  Ni2  1  0.62740000  0.62740000  0.25000000  1.0 0.087504998
Ni  Ni3  1  0.50000000  0.00000000  0.50000000  1.0 0.087504998
Ni  Ni4  1  0.00000000  0.50000000  0.00000000  1.0 0.087504998
C  C1  1  0.24690000  0.15050000  0.74140000  1.0 0.1839839942
C  C2  1  0.15050000  0.24690000  0.75860000  1.0 0.1853466408
C  C3  1  0.75310000  0.84950000  0.25860000  1.0 0.1839839942
C  C4  1  0.84950000  0.75310000  0.24140000  1.0 0.1839839942
C  C5  1  0.59570000  0.49910000  0.74460000  1.0 0.1518232376
C  C6  1  0.49910000  0.59570000  0.75540000  1.0 0.1518232376
C  C7  1  0.40430000  0.50090000  0.25540000  1.0 0.1518232376
C  C8  1  0.50090000  0.40430000  0.24460000  1.0 0.1518232376
C  C9  1  0.37040000  0.93420000  0.60520000  1.0 0.1282096078
C  C10  1  0.93420000  0.37040000  0.89480000  1.0 0.1282096078
C  C11  1  0.62960000  0.06580000  0.39480000  1.0 0.1282096078
C  C12  1  0.06580000  0.62960000  0.10520000  1.0 0.1282096078
C  C13  1  0.02480000  0.62780000  0.91870000  1.0 0.170778446
C  C14  1  0.62780000  0.02480000  0.58130000  1.0 0.170778446
C  C15  1  0.97520000  0.37220000  0.08130000  1.0 0.170778446
C  C16  1  0.37220000  0.97520000  0.41870000  1.0 0.170778446
C  C17  1  0.81550000  0.43650000  0.57200000  1.0 0.1518232376
C  C18  1  0.43650000  0.81550000  0.92800000  1.0 0.1518232376
C  C19  1  0.18450000  0.56350000  0.42800000  1.0 0.1518232376
C  C20  1  0.56350000  0.18450000  0.07200000  1.0 0.1518232376
C  C21  1  0.84750000  0.53650000  0.51510000  1.0 0.1853466408
C  C22  1  0.53650000  0.84750000  0.98490000  1.0 0.1853466408
C  C23  1  0.15250000  0.46350000  0.48490000  1.0 0.1853466408
C  C24  1  0.46350000  0.15250000  0.01510000  1.0 0.1853466408
C  C25  1  0.80820000  0.49780000  0.40790000  1.0 0.1023901944
C  C26  1  0.49780000  0.80820000  0.09210000  1.0 0.1023901944
C  C27  1  0.19180000  0.50220000  0.59210000  1.0 0.1023901944
C  C28  1  0.50220000  0.19180000  0.90790000  1.0 0.1023901944
N  N1  1  0.17140000  0.01400000  0.73350000  1.0 -0.4002102091
N  N2  1  0.01400000  0.17140000  0.76650000  1.0 -0.4002102091
N  N3  1  0.82860000  0.98600000  0.26650000  1.0 -0.4002102091
N  N4  1  0.98600000  0.82860000  0.23350000  1.0 -0.4002102091
N  N5  1  0.73380000  0.57980000  0.74320000  1.0 -0.3808343111
N  N6  1  0.57980000  0.73380000  0.75680000  1.0 -0.3808343111
N  N7  1  0.26620000  0.42020000  0.25680000  1.0 -0.3808343111
N  N8  1  0.42020000  0.26620000  0.24320000  1.0 -0.3808343111
N  N9  1  0.28760000  0.89000000  0.66910000  1.0 -0.3671083598
N  N10  1  0.89000000  0.28760000  0.83090000  1.0 -0.3671083598
N  N11  1  0.71240000  0.11000000  0.33090000  1.0 -0.3671083598
N  N12  1  0.11000000  0.71240000  0.16910000  1.0 -0.3671083598
N  N13  1  0.03940000  0.70420000  0.86840000  1.0 -0.4002102091
N  N14  1  0.70420000  0.03940000  0.63160000  1.0 -0.4002102091
N  N15  1  0.96060000  0.29580000  0.13160000  1.0 -0.4002102091
N  N16  1  0.29580000  0.96060000  0.36840000  1.0 -0.4002102091
N  N17  1  0.84340000  0.45980000  0.67470000  1.0 -0.2494355513
N  N18  1  0.45980000  0.84340000  0.82530000  1.0 -0.2494355513
N  N19  1  0.15660000  0.54020000  0.32530000  1.0 -0.2494355513
N  N20  1  0.54020000  0.15660000  0.17470000  1.0 -0.2494355513
N  N21  1  0.95270000  0.70890000  0.54550000  1.0 -0.3808343111
N  N22  1  0.70890000  0.95270000  0.95450000  1.0 -0.3808343111
N  N23  1  0.04730000  0.29110000  0.45450000  1.0 -0.3808343111
N  N24  1  0.29110000  0.04730000  0.04550000  1.0 -0.3808343111
