# DDEC6 charges by PACMAN v1.1 (https://github.com/mtap-research/PACMAN-charge/)
data_LAPLOG_FSR_pacman
_symmetry_space_group_name_H-M   'P 1'
_cell_length_a   20.55790000
_cell_length_b   18.62530000
_cell_length_c   13.78680000
_cell_angle_alpha   77.13450000
_cell_angle_beta   62.03700000
_cell_angle_gamma   40.82850000
_symmetry_Int_Tables_number   1
_chemical_formula_structural   InH20C28(NO2)4
_chemical_formula_sum   'In4 H80 C112 N16 O32'
_cell_volume   2967.51967008
_cell_formula_units_Z   4
loop_
 _symmetry_equiv_pos_site_id
 _symmetry_equiv_pos_as_xyz
  1  'x, y, z'
loop_
 _atom_site_type_symbol
 _atom_site_label
 _atom_site_symmetry_multiplicity
 _atom_site_fract_x
 _atom_site_fract_y
 _atom_site_fract_z
 _atom_site_occupancy
 _atom_site_charge
In  In1  1  0.30156000  0.30156000  0.69844000  1.0 1.2736541588
In  In2  1  0.55156000  0.55156000  0.94844000  1.0 1.2736541588
In  In3  1  0.69844000  0.69844000  0.30156000  1.0 1.2736541588
In  In4  1  0.94844000  0.94844000  0.55156000  1.0 1.2736541588
H  H1  1  0.23770000  0.52750000  0.92330000  1.0 0.1183377276
H  H2  1  0.52750000  0.23770000  0.31150000  1.0 0.1183377276
H  H3  1  0.93850000  0.32670000  0.72250000  1.0 0.1183377276
H  H4  1  0.32670000  0.93850000  0.01230000  1.0 0.1183377276
H  H5  1  0.58480000  0.19900000  0.64380000  1.0 0.1103786464
H  H6  1  0.19900000  0.58480000  0.57240000  1.0 0.1103786464
H  H7  1  0.67760000  0.60620000  0.05100000  1.0 0.1103786464
H  H8  1  0.60620000  0.67760000  0.66520000  1.0 0.1103786464
H  H9  1  0.66220000  0.20120000  0.62580000  1.0 0.1563216667
H  H10  1  0.20120000  0.66220000  0.51080000  1.0 0.1563216667
H  H11  1  0.73920000  0.62420000  0.04880000  1.0 0.1563216667
H  H12  1  0.62420000  0.73920000  0.58780000  1.0 0.1563216667
H  H13  1  0.61000000  0.33120000  0.72240000  1.0 0.1007103655
H  H14  1  0.33120000  0.61000000  0.33640000  1.0 0.1007103655
H  H15  1  0.91360000  0.52760000  0.91880000  1.0 0.1007103655
H  H16  1  0.52760000  0.91360000  0.64000000  1.0 0.1007103655
H  H17  1  0.28770000  0.59050000  0.96570000  1.0 0.1103786464
H  H18  1  0.59050000  0.28770000  0.15610000  1.0 0.1103786464
H  H19  1  0.09390000  0.28430000  0.65950000  1.0 0.1103786464
H  H20  1  0.28430000  0.09390000  0.96230000  1.0 0.1103786464
H  H21  1  0.79180000  0.52980000  0.09240000  1.0 0.1656902018
H  H22  1  0.52980000  0.79180000  0.58600000  1.0 0.1656902018
H  H23  1  0.66400000  0.15760000  0.72020000  1.0 0.1656902018
H  H24  1  0.15760000  0.66400000  0.45820000  1.0 0.1656902018
H  H25  1  0.71630000  0.53690000  0.08270000  1.0 0.1103786464
H  H26  1  0.53690000  0.71630000  0.66410000  1.0 0.1103786464
H  H27  1  0.58590000  0.16730000  0.71310000  1.0 0.1103786464
H  H28  1  0.16730000  0.58590000  0.53370000  1.0 0.1103786464
H  H29  1  0.94250000  0.47850000  0.94150000  1.0 0.1007103655
H  H30  1  0.47850000  0.94250000  0.63750000  1.0 0.1007103655
H  H31  1  0.61250000  0.30850000  0.77150000  1.0 0.1007103655
H  H32  1  0.30850000  0.61250000  0.30750000  1.0 0.1007103655
H  H33  1  0.91710000  0.36470000  0.70350000  1.0 0.1183377276
H  H34  1  0.36470000  0.91710000  0.01470000  1.0 0.1183377276
H  H35  1  0.23530000  0.54650000  0.88530000  1.0 0.1183377276
H  H36  1  0.54650000  0.23530000  0.33290000  1.0 0.1183377276
H  H37  1  0.07140000  0.32560000  0.63500000  1.0 0.1007103655
H  H38  1  0.32560000  0.07140000  0.96800000  1.0 0.1007103655
H  H39  1  0.28200000  0.61500000  0.92440000  1.0 0.1007103655
H  H40  1  0.61500000  0.28200000  0.17860000  1.0 0.1007103655
H  H41  1  0.31150000  0.92330000  0.52750000  1.0 0.1183377276
H  H42  1  0.92330000  0.31150000  0.23770000  1.0 0.1183377276
H  H43  1  0.01230000  0.72250000  0.32670000  1.0 0.1183377276
H  H44  1  0.72250000  0.01230000  0.93850000  1.0 0.1183377276
H  H45  1  0.57240000  0.64380000  0.19900000  1.0 0.1103786464
H  H46  1  0.64380000  0.57240000  0.58480000  1.0 0.1103786464
H  H47  1  0.66520000  0.05100000  0.60620000  1.0 0.1103786464
H  H48  1  0.05100000  0.66520000  0.67760000  1.0 0.1183377276
H  H49  1  0.51080000  0.62580000  0.20120000  1.0 0.1563216667
H  H50  1  0.62580000  0.51080000  0.66220000  1.0 0.1563216667
H  H51  1  0.58780000  0.04880000  0.62420000  1.0 0.1563216667
H  H52  1  0.04880000  0.58780000  0.73920000  1.0 0.1563216667
H  H53  1  0.33640000  0.72240000  0.33120000  1.0 0.1007103655
H  H54  1  0.72240000  0.33640000  0.61000000  1.0 0.1007103655
H  H55  1  0.64000000  0.91880000  0.52760000  1.0 0.1007103655
H  H56  1  0.91880000  0.64000000  0.91360000  1.0 0.1007103655
H  H57  1  0.15610000  0.96570000  0.59050000  1.0 0.1103786464
H  H58  1  0.96570000  0.15610000  0.28770000  1.0 0.1103786464
H  H59  1  0.96230000  0.65950000  0.28430000  1.0 0.1103786464
H  H60  1  0.65950000  0.96230000  0.09390000  1.0 0.1103786464
H  H61  1  0.58600000  0.09240000  0.52980000  1.0 0.1656902018
H  H62  1  0.09240000  0.58600000  0.79180000  1.0 0.1656902018
H  H63  1  0.45820000  0.72020000  0.15760000  1.0 0.1656902018
H  H64  1  0.72020000  0.45820000  0.66400000  1.0 0.1656902018
H  H65  1  0.66410000  0.08270000  0.53690000  1.0 0.1103786464
H  H66  1  0.08270000  0.66410000  0.71630000  1.0 0.1103786464
H  H67  1  0.53370000  0.71310000  0.16730000  1.0 0.1103786464
H  H68  1  0.71310000  0.53370000  0.58590000  1.0 0.1103786464
H  H69  1  0.63750000  0.94150000  0.47850000  1.0 0.1007103655
H  H70  1  0.94150000  0.63750000  0.94250000  1.0 0.1007103655
H  H71  1  0.30750000  0.77150000  0.30850000  1.0 0.1007103655
H  H72  1  0.77150000  0.30750000  0.61250000  1.0 0.1007103655
H  H73  1  0.01470000  0.70350000  0.36470000  1.0 0.1183377276
H  H74  1  0.70350000  0.01470000  0.91710000  1.0 0.1183377276
H  H75  1  0.33290000  0.88530000  0.54650000  1.0 0.1183377276
H  H76  1  0.88530000  0.33290000  0.23530000  1.0 0.1183377276
H  H77  1  0.96800000  0.63500000  0.32560000  1.0 0.1007103655
H  H78  1  0.63500000  0.96800000  0.07140000  1.0 0.1007103655
H  H79  1  0.17860000  0.92440000  0.61500000  1.0 0.1007103655
H  H80  1  0.92440000  0.17860000  0.28200000  1.0 0.1007103655
C  C1  1  0.36047000  0.35307000  0.77533000  1.0 0.4119299907
C  C2  1  0.35307000  0.36047000  0.51113000  1.0 0.4119299907
C  C3  1  0.73887000  0.47467000  0.89693000  1.0 0.4119299907
C  C4  1  0.47467000  0.73887000  0.88953000  1.0 0.4119299907
C  C5  1  0.39410000  0.39190000  0.79770000  1.0 -0.0572600764
C  C6  1  0.39190000  0.39410000  0.41630000  1.0 -0.0572600764
C  C7  1  0.83370000  0.45230000  0.85810000  1.0 -0.0572600764
C  C8  1  0.45230000  0.83370000  0.85590000  1.0 -0.0572600764
C  C9  1  0.50470000  0.33350000  0.73810000  1.0 0.1183377276
C  C10  1  0.33350000  0.50470000  0.42370000  1.0 0.1183377276
C  C11  1  0.82630000  0.51190000  0.91650000  1.0 0.1183377276
C  C12  1  0.51190000  0.82630000  0.74530000  1.0 0.1183377276
C  C13  1  0.31320000  0.48760000  0.88260000  1.0 -0.0901837908
C  C14  1  0.48760000  0.31320000  0.31660000  1.0 -0.0901837908
C  C15  1  0.93340000  0.36740000  0.76240000  1.0 -0.0901837908
C  C16  1  0.36740000  0.93340000  0.93680000  1.0 -0.0901837908
C  C17  1  0.53440000  0.37100000  0.76320000  1.0 -0.0901837908
C  C18  1  0.37100000  0.53440000  0.33140000  1.0 -0.099323463
C  C19  1  0.91860000  0.48680000  0.87900000  1.0 -0.0901837908
C  C20  1  0.48680000  0.91860000  0.71560000  1.0 -0.0901837908
C  C21  1  0.34290000  0.52510000  0.90770000  1.0 -0.0709261349
C  C22  1  0.52510000  0.34290000  0.22430000  1.0 -0.0709261349
C  C23  1  0.02570000  0.34230000  0.72490000  1.0 -0.0709261349
C  C24  1  0.34230000  0.02570000  0.90710000  1.0 -0.0709261349
C  C25  1  0.45360000  0.46680000  0.84800000  1.0 0.01137288
C  C26  1  0.46680000  0.45360000  0.23160000  1.0 0.01137288
C  C27  1  0.01840000  0.40200000  0.78320000  1.0 0.01137288
C  C28  1  0.40200000  0.01840000  0.79640000  1.0 0.01137288
C  C29  1  0.48704000  0.50564000  0.87536000  1.0 0.4119299907
C  C30  1  0.50564000  0.48704000  0.13196000  1.0 0.4119299907
C  C31  1  0.11804000  0.37464000  0.74436000  1.0 0.4119299907
C  C32  1  0.37464000  0.11804000  0.76296000  1.0 0.4119299907
C  C33  1  0.02140000  0.39840000  0.78180000  1.0 0.0165020795
C  C34  1  0.39840000  0.02140000  0.79840000  1.0 0.0165020795
C  C35  1  0.45160000  0.46820000  0.85160000  1.0 0.0165020795
C  C36  1  0.46820000  0.45160000  0.22860000  1.0 0.0165020795
C  C37  1  0.93740000  0.45540000  0.89320000  1.0 -0.099323463
C  C38  1  0.45540000  0.93740000  0.71400000  1.0 -0.099323463
C  C39  1  0.53600000  0.35680000  0.79460000  1.0 -0.099323463
C  C40  1  0.35680000  0.53600000  0.31260000  1.0 -0.099323463
C  C41  1  0.84580000  0.47860000  0.93380000  1.0 0.1183377276
C  C42  1  0.47860000  0.84580000  0.74180000  1.0 0.1183377276
C  C43  1  0.50820000  0.31620000  0.77140000  1.0 0.1183377276
C  C44  1  0.31620000  0.50820000  0.40420000  1.0 0.1183377276
C  C45  1  0.83820000  0.44480000  0.86320000  1.0 -0.0572600764
C  C46  1  0.44480000  0.83820000  0.85380000  1.0 -0.0572600764
C  C47  1  0.39620000  0.38680000  0.80520000  1.0 -0.0572600764
C  C48  1  0.38680000  0.39620000  0.41180000  1.0 -0.0572600764
C  C49  1  0.92230000  0.38770000  0.75190000  1.0 -0.0901837908
C  C50  1  0.38770000  0.92230000  0.93810000  1.0 -0.0901837908
C  C51  1  0.31190000  0.49810000  0.86230000  1.0 -0.0901837908
C  C52  1  0.49810000  0.31190000  0.32770000  1.0 -0.0901837908
C  C53  1  0.01380000  0.36460000  0.71120000  1.0 -0.0709261349
C  C54  1  0.36460000  0.01380000  0.91040000  1.0 -0.0709261349
C  C55  1  0.33960000  0.53880000  0.88540000  1.0 -0.0709261349
C  C56  1  0.53880000  0.33960000  0.23620000  1.0 -0.0709261349
C  C57  1  0.51113000  0.77533000  0.35307000  1.0 0.4119299907
C  C58  1  0.77533000  0.51113000  0.36047000  1.0 0.4119299907
C  C59  1  0.88953000  0.89693000  0.47467000  1.0 0.4119299907
C  C60  1  0.89693000  0.88953000  0.73887000  1.0 0.4119299907
C  C61  1  0.41630000  0.79770000  0.39190000  1.0 -0.0572600764
C  C62  1  0.79770000  0.41630000  0.39410000  1.0 -0.0572600764
C  C63  1  0.85590000  0.85810000  0.45230000  1.0 -0.0572600764
C  C64  1  0.85810000  0.85590000  0.83370000  1.0 -0.0572600764
C  C65  1  0.42370000  0.73810000  0.33350000  1.0 0.1183377276
C  C66  1  0.73810000  0.42370000  0.50470000  1.0 0.1183377276
C  C67  1  0.74530000  0.91650000  0.51190000  1.0 0.1183377276
C  C68  1  0.91650000  0.74530000  0.82630000  1.0 0.1183377276
C  C69  1  0.31660000  0.88260000  0.48760000  1.0 -0.0901837908
C  C70  1  0.88260000  0.31660000  0.31320000  1.0 -0.0901837908
C  C71  1  0.93680000  0.76240000  0.36740000  1.0 -0.0901837908
C  C72  1  0.76240000  0.93680000  0.93340000  1.0 -0.0901837908
C  C73  1  0.33140000  0.76320000  0.37100000  1.0 -0.0901837908
C  C74  1  0.76320000  0.33140000  0.53440000  1.0 -0.0901837908
C  C75  1  0.71560000  0.87900000  0.48680000  1.0 -0.0901837908
C  C76  1  0.87900000  0.71560000  0.91860000  1.0 -0.0901837908
C  C77  1  0.22430000  0.90770000  0.52510000  1.0 -0.0709261349
C  C78  1  0.90770000  0.22430000  0.34290000  1.0 -0.0709261349
C  C79  1  0.90710000  0.72490000  0.34230000  1.0 -0.0709261349
C  C80  1  0.72490000  0.90710000  0.02570000  1.0 -0.0709261349
C  C81  1  0.23160000  0.84800000  0.46680000  1.0 0.01137288
C  C82  1  0.84800000  0.23160000  0.45360000  1.0 0.01137288
C  C83  1  0.79640000  0.78320000  0.40200000  1.0 0.01137288
C  C84  1  0.78320000  0.79640000  0.01840000  1.0 0.01137288
C  C85  1  0.13196000  0.87536000  0.50564000  1.0 0.4119299907
C  C86  1  0.87536000  0.13196000  0.48704000  1.0 0.4119299907
C  C87  1  0.76296000  0.74436000  0.37464000  1.0 0.4119299907
C  C88  1  0.74436000  0.76296000  0.11804000  1.0 0.4119299907
C  C89  1  0.79840000  0.78180000  0.39840000  1.0 0.0165020795
C  C90  1  0.78180000  0.79840000  0.02140000  1.0 0.0165020795
C  C91  1  0.22860000  0.85160000  0.46820000  1.0 0.0165020795
C  C92  1  0.85160000  0.22860000  0.45160000  1.0 0.0165020795
C  C93  1  0.71400000  0.89320000  0.45540000  1.0 -0.099323463
C  C94  1  0.89320000  0.71400000  0.93740000  1.0 -0.099323463
C  C95  1  0.31260000  0.79460000  0.35680000  1.0 -0.099323463
C  C96  1  0.79460000  0.31260000  0.53600000  1.0 -0.099323463
C  C97  1  0.74180000  0.93380000  0.47860000  1.0 0.1183377276
C  C98  1  0.93380000  0.74180000  0.84580000  1.0 0.1183377276
C  C99  1  0.40420000  0.77140000  0.31620000  1.0 0.1183377276
C  C100  1  0.77140000  0.40420000  0.50820000  1.0 0.1183377276
C  C101  1  0.85380000  0.86320000  0.44480000  1.0 -0.0572600764
C  C102  1  0.86320000  0.85380000  0.83820000  1.0 -0.0572600764
C  C103  1  0.41180000  0.80520000  0.38680000  1.0 -0.0572600764
C  C104  1  0.80520000  0.41180000  0.39620000  1.0 -0.0572600764
C  C105  1  0.93810000  0.75190000  0.38770000  1.0 -0.0901837908
C  C106  1  0.75190000  0.93810000  0.92230000  1.0 -0.0901837908
C  C107  1  0.32770000  0.86230000  0.49810000  1.0 -0.0901837908
C  C108  1  0.86230000  0.32770000  0.31190000  1.0 -0.0901837908
C  C109  1  0.91040000  0.71120000  0.36460000  1.0 -0.0709261349
C  C110  1  0.71120000  0.91040000  0.01380000  1.0 -0.0709261349
C  C111  1  0.23620000  0.88540000  0.53880000  1.0 -0.0709261349
C  C112  1  0.88540000  0.23620000  0.33960000  1.0 -0.0709261349
N  N1  1  0.59480000  0.23240000  0.65980000  1.0 -0.1797352437
N  N2  1  0.23240000  0.59480000  0.51300000  1.0 -0.1797352437
N  N3  1  0.73700000  0.59020000  0.01760000  1.0 -0.1797352437
N  N4  1  0.59020000  0.73700000  0.65520000  1.0 -0.1797352437
N  N5  1  0.77600000  0.52020000  0.05080000  1.0 -0.1441867858
N  N6  1  0.52020000  0.77600000  0.65300000  1.0 -0.1441867858
N  N7  1  0.59700000  0.19920000  0.72980000  1.0 -0.1441867858
N  N8  1  0.19920000  0.59700000  0.47400000  1.0 -0.1441867858
N  N9  1  0.51300000  0.65980000  0.23240000  1.0 -0.1797352437
N  N10  1  0.65980000  0.51300000  0.59480000  1.0 -0.1797352437
N  N11  1  0.65520000  0.01760000  0.59020000  1.0 -0.1797352437
N  N12  1  0.01760000  0.65520000  0.73700000  1.0 -0.1797352437
N  N13  1  0.65300000  0.05080000  0.52020000  1.0 -0.1441867858
N  N14  1  0.05080000  0.65300000  0.77600000  1.0 -0.1441867858
N  N15  1  0.47400000  0.72980000  0.19920000  1.0 -0.1441867858
N  N16  1  0.72980000  0.47400000  0.59700000  1.0 -0.1441867858
O  O1  1  0.41438000  0.59138000  0.95402000  1.0 -0.47243714
O  O2  1  0.59138000  0.41438000  0.04022000  1.0 -0.47243714
O  O3  1  0.20978000  0.29598000  0.65862000  1.0 -0.47243714
O  O4  1  0.29598000  0.20978000  0.83562000  1.0 -0.47243714
O  O5  1  0.58838000  0.44912000  0.82408000  1.0 -0.5115968105
O  O6  1  0.44912000  0.58838000  0.13842000  1.0 -0.5115968105
O  O7  1  0.11158000  0.42592000  0.80088000  1.0 -0.5115968105
O  O8  1  0.42592000  0.11158000  0.66162000  1.0 -0.5115968105
O  O9  1  0.43384000  0.26244000  0.70076000  1.0 -0.5288629871
O  O10  1  0.26244000  0.43384000  0.60296000  1.0 -0.5288629871
O  O11  1  0.64704000  0.54924000  0.98756000  1.0 -0.5288629871
O  O12  1  0.54924000  0.64704000  0.81616000  1.0 -0.5288629871
O  O13  1  0.25909000  0.41029000  0.82211000  1.0 -0.453978036
O  O14  1  0.41029000  0.25909000  0.50851000  1.0 -0.453978036
O  O15  1  0.74149000  0.42789000  0.83971000  1.0 -0.453978036
O  O16  1  0.42789000  0.74149000  0.99091000  1.0 -0.453978036
O  O17  1  0.04022000  0.95402000  0.59138000  1.0 -0.47243714
O  O18  1  0.95402000  0.04022000  0.41438000  1.0 -0.47243714
O  O19  1  0.83562000  0.65862000  0.29598000  1.0 -0.47243714
O  O20  1  0.65862000  0.83562000  0.20978000  1.0 -0.47243714
O  O21  1  0.13842000  0.82408000  0.44912000  1.0 -0.5115968105
O  O22  1  0.82408000  0.13842000  0.58838000  1.0 -0.5115968105
O  O23  1  0.66162000  0.80088000  0.42592000  1.0 -0.5115968105
O  O24  1  0.80088000  0.66162000  0.11158000  1.0 -0.5115968105
O  O25  1  0.60296000  0.70076000  0.26244000  1.0 -0.5288629871
O  O26  1  0.70076000  0.60296000  0.43384000  1.0 -0.5288629871
O  O27  1  0.81616000  0.98756000  0.54924000  1.0 -0.5288629871
O  O28  1  0.98756000  0.81616000  0.64704000  1.0 -0.5288629871
O  O29  1  0.50851000  0.82211000  0.41029000  1.0 -0.453978036
O  O30  1  0.82211000  0.50851000  0.25909000  1.0 -0.453978036
O  O31  1  0.99091000  0.83971000  0.42789000  1.0 -0.453978036
O  O32  1  0.83971000  0.99091000  0.74149000  1.0 -0.453978036
