# DDEC6 charges by PACMAN v1.1 (https://github.com/mtap-research/PACMAN-charge/)
data_LAPLEW01_ion_pacman
_symmetry_space_group_name_H-M   'P 1'
_cell_length_a   20.62380000
_cell_length_b   17.66210000
_cell_length_c   15.10730000
_cell_angle_alpha   77.57330000
_cell_angle_beta   56.75440000
_cell_angle_gamma   45.67230000
_symmetry_Int_Tables_number   1
_chemical_formula_structural   InH24C18N5O8
_chemical_formula_sum   'In4 H96 C72 N20 O32'
_cell_volume   3159.98308904
_cell_formula_units_Z   4
loop_
 _symmetry_equiv_pos_site_id
 _symmetry_equiv_pos_as_xyz
  1  'x, y, z'
loop_
 _atom_site_type_symbol
 _atom_site_label
 _atom_site_symmetry_multiplicity
 _atom_site_fract_x
 _atom_site_fract_y
 _atom_site_fract_z
 _atom_site_occupancy
 _atom_site_charge
In  In1  1  0.80940000  0.80940000  0.19060000  1.0 1.2746787998
In  In2  1  0.05940000  0.05940000  0.44060000  1.0 1.2746787998
In  In3  1  0.19060000  0.19060000  0.80940000  1.0 1.2746787998
In  In4  1  0.44060000  0.44060000  0.05940000  1.0 1.2746787998
H  H1  1  0.74810000  0.05070000  0.38630000  1.0 0.1288161025
H  H2  1  0.05070000  0.74810000  0.81490000  1.0 0.1288161025
H  H3  1  0.43510000  0.86370000  0.19930000  1.0 0.1288161025
H  H4  1  0.86370000  0.43510000  0.50190000  1.0 0.1288161025
H  H5  1  0.11800000  0.81660000  0.25040000  1.0 0.1288161025
H  H6  1  0.81660000  0.11800000  0.81500000  1.0 0.1288161025
H  H7  1  0.43500000  0.99960000  0.43340000  1.0 0.1288161025
H  H8  1  0.99960000  0.43500000  0.13200000  1.0 0.1288161025
H  H9  1  0.16370000  0.67910000  0.16090000  1.0 0.1976546249
H  H10  1  0.67910000  0.16370000  0.99630000  1.0 0.1976546249
H  H11  1  0.25370000  0.08910000  0.57090000  1.0 0.1976546249
H  H12  1  0.08910000  0.25370000  0.08630000  1.0 0.1976546249
H  H13  1  0.07950000  0.69570000  0.16350000  1.0 0.1913830298
H  H14  1  0.69570000  0.07950000  0.06130000  1.0 0.1913830298
H  H15  1  0.18870000  0.08650000  0.55430000  1.0 0.1913830298
H  H16  1  0.08650000  0.18870000  0.17050000  1.0 0.1913830298
H  H17  1  0.79890000  0.11110000  0.43430000  1.0 0.0719688265
H  H18  1  0.11110000  0.79890000  0.65570000  1.0 0.0719688265
H  H19  1  0.59430000  0.81570000  0.13890000  1.0 0.0719688265
H  H20  1  0.81570000  0.59430000  0.45110000  1.0 0.0719688265
H  H21  1  0.27600000  0.04760000  0.49380000  1.0 0.0719688265
H  H22  1  0.04760000  0.27600000  0.18260000  1.0 0.0719688265
H  H23  1  0.06740000  0.75620000  0.20240000  1.0 0.0719688265
H  H24  1  0.75620000  0.06740000  0.97400000  1.0 0.0719688265
H  H25  1  0.61320000  0.77900000  0.06060000  1.0 0.1828076499
H  H26  1  0.77900000  0.61320000  0.54720000  1.0 0.1828076499
H  H27  1  0.70280000  0.18940000  0.47100000  1.0 0.1828076499
H  H28  1  0.18940000  0.70280000  0.63680000  1.0 0.1828076499
H  H29  1  0.68000000  0.77920000  0.07660000  1.0 0.2071050401
H  H30  1  0.77920000  0.68000000  0.46420000  1.0 0.2071050401
H  H31  1  0.78580000  0.17340000  0.47080000  1.0 0.2071050401
H  H32  1  0.17340000  0.78580000  0.57000000  1.0 0.2071050401
H  H33  1  0.81490000  0.38630000  0.05070000  1.0 0.1288161025
H  H34  1  0.38630000  0.81490000  0.74810000  1.0 0.1288161025
H  H35  1  0.50190000  0.19930000  0.86370000  1.0 0.1288161025
H  H36  1  0.19930000  0.50190000  0.43510000  1.0 0.1288161025
H  H37  1  0.81500000  0.25040000  0.81660000  1.0 0.1288161025
H  H38  1  0.25040000  0.81500000  0.11800000  1.0 0.1288161025
H  H39  1  0.13200000  0.43340000  0.99960000  1.0 0.1288161025
H  H40  1  0.43340000  0.13200000  0.43500000  1.0 0.1288161025
H  H41  1  0.99630000  0.16090000  0.67910000  1.0 0.1976546249
H  H42  1  0.16090000  0.99630000  0.16370000  1.0 0.1976546249
H  H43  1  0.08630000  0.57090000  0.08910000  1.0 0.1976546249
H  H44  1  0.57090000  0.08630000  0.25370000  1.0 0.1976546249
H  H45  1  0.06130000  0.16350000  0.69570000  1.0 0.1913830298
H  H46  1  0.16350000  0.06130000  0.07950000  1.0 0.1913830298
H  H47  1  0.17050000  0.55430000  0.08650000  1.0 0.1913830298
H  H48  1  0.55430000  0.17050000  0.18870000  1.0 0.1913830298
H  H49  1  0.65570000  0.43430000  0.11110000  1.0 0.0719688265
H  H50  1  0.43430000  0.65570000  0.79890000  1.0 0.0719688265
H  H51  1  0.45110000  0.13890000  0.81570000  1.0 0.0719688265
H  H52  1  0.13890000  0.45110000  0.59430000  1.0 0.0719688265
H  H53  1  0.18260000  0.49380000  0.04760000  1.0 0.0719688265
H  H54  1  0.49380000  0.18260000  0.27600000  1.0 0.0719688265
H  H55  1  0.97400000  0.20240000  0.75620000  1.0 0.0719688265
H  H56  1  0.20240000  0.97400000  0.06740000  1.0 0.0719688265
H  H57  1  0.54720000  0.06060000  0.77900000  1.0 0.1828076499
H  H58  1  0.06060000  0.54720000  0.61320000  1.0 0.1828076499
H  H59  1  0.63680000  0.47100000  0.18940000  1.0 0.1828076499
H  H60  1  0.47100000  0.63680000  0.70280000  1.0 0.1828076499
H  H61  1  0.46420000  0.07660000  0.77920000  1.0 0.2071050401
H  H62  1  0.07660000  0.46420000  0.68000000  1.0 0.2071050401
H  H63  1  0.57000000  0.47080000  0.17340000  1.0 0.2071050401
H  H64  1  0.47080000  0.57000000  0.78580000  1.0 0.2071050401
H  H65  1  0.67760000  0.44120000  0.65280000  1.0 0.1150614149
H  H66  1  0.65280000  0.22840000  0.67760000  1.0 0.1150614149
H  H67  1  0.77800000  0.31880000  0.64500000  1.0 0.1615670058
H  H68  1  0.64500000  0.25820000  0.77800000  1.0 0.1615670058
H  H69  1  0.66150000  0.39990000  0.76150000  1.0 0.147330578
H  H70  1  0.76150000  0.17710000  0.66150000  1.0 0.147330578
H  H71  1  0.58840000  0.39540000  0.69480000  1.0 0.2499108459
H  H72  1  0.69480000  0.32140000  0.58840000  1.0 0.2499108459
H  H73  1  0.44120000  0.67760000  0.22840000  1.0 0.1150614149
H  H74  1  0.22840000  0.65280000  0.44120000  1.0 0.1150614149
H  H75  1  0.31880000  0.77800000  0.25820000  1.0 0.1615670058
H  H76  1  0.25820000  0.64500000  0.31880000  1.0 0.1615670058
H  H77  1  0.39990000  0.66150000  0.17710000  1.0 0.147330578
H  H78  1  0.17710000  0.76150000  0.39990000  1.0 0.147330578
H  H79  1  0.39540000  0.58840000  0.32140000  1.0 0.2499108459
H  H80  1  0.32140000  0.69480000  0.39540000  1.0 0.2499108459
H  H81  1  0.57240000  0.80880000  0.59720000  1.0 0.1150614149
H  H82  1  0.59720000  0.02160000  0.57240000  1.0 0.1150614149
H  H83  1  0.47200000  0.93120000  0.60500000  1.0 0.1615670058
H  H84  1  0.60500000  0.99180000  0.47200000  1.0 0.1615670058
H  H85  1  0.58850000  0.85010000  0.48850000  1.0 0.147330578
H  H86  1  0.48850000  0.07290000  0.58850000  1.0 0.147330578
H  H87  1  0.66160000  0.85460000  0.55520000  1.0 0.2499108459
H  H88  1  0.55520000  0.92860000  0.66160000  1.0 0.2499108459
H  H89  1  0.80880000  0.57240000  0.02160000  1.0 0.1150614149
H  H90  1  0.02160000  0.59720000  0.80880000  1.0 0.1150614149
H  H91  1  0.93120000  0.47200000  0.99180000  1.0 0.1615670058
H  H92  1  0.99180000  0.60500000  0.93120000  1.0 0.1615670058
H  H93  1  0.85010000  0.58850000  0.07290000  1.0 0.147330578
H  H94  1  0.07290000  0.48850000  0.85010000  1.0 0.147330578
H  H95  1  0.85460000  0.66160000  0.92860000  1.0 0.2499108459
H  H96  1  0.92860000  0.55520000  0.85460000  1.0 0.2499108459
C  C1  1  0.86820000  0.86280000  0.26060000  1.0 0.5221375781
C  C2  1  0.86280000  0.86820000  0.00840000  1.0 0.5221375781
C  C3  1  0.24160000  0.98940000  0.38720000  1.0 0.5221375781
C  C4  1  0.98940000  0.24160000  0.38180000  1.0 0.5221375781
C  C5  1  0.90300000  0.89780000  0.28980000  1.0 -0.0786863645
C  C6  1  0.89780000  0.90300000  0.90940000  1.0 -0.0786863645
C  C7  1  0.34060000  0.96020000  0.35220000  1.0 -0.0786863645
C  C8  1  0.96020000  0.34060000  0.34700000  1.0 -0.0786863645
C  C9  1  0.01300000  0.82820000  0.24940000  1.0 0.1411711476
C  C10  1  0.82820000  0.01300000  0.90940000  1.0 0.1411711476
C  C11  1  0.34060000  0.00060000  0.42180000  1.0 0.1411711476
C  C12  1  0.00060000  0.34060000  0.23700000  1.0 0.1411711476
C  C13  1  0.82330000  0.00310000  0.35870000  1.0 -0.1741505679
C  C14  1  0.00310000  0.82330000  0.81490000  1.0 -0.1819009382
C  C15  1  0.43510000  0.89130000  0.24690000  1.0 -0.1741505679
C  C16  1  0.89130000  0.43510000  0.42670000  1.0 -0.1819009382
C  C17  1  0.04300000  0.86400000  0.27800000  1.0 -0.1819009382
C  C18  1  0.86400000  0.04300000  0.81500000  1.0 -0.1819009382
C  C19  1  0.43500000  0.97200000  0.38600000  1.0 -0.1819009382
C  C20  1  0.97200000  0.43500000  0.20700000  1.0 -0.1819009382
C  C21  1  0.85340000  0.03900000  0.38720000  1.0 0.1288161025
C  C22  1  0.03900000  0.85340000  0.72040000  1.0 0.1288161025
C  C23  1  0.52960000  0.86280000  0.21100000  1.0 0.1288161025
C  C24  1  0.86280000  0.52960000  0.39660000  1.0 0.1288161025
C  C25  1  0.96315000  0.96955000  0.34685000  1.0 -0.0620116391
C  C26  1  0.96955000  0.96315000  0.72045000  1.0 -0.0620116391
C  C27  1  0.52955000  0.90315000  0.28045000  1.0 -0.0620116391
C  C28  1  0.90315000  0.52955000  0.28685000  1.0 -0.0620116391
C  C29  1  0.99980000  0.00360000  0.37620000  1.0 0.5221375781
C  C30  1  0.00360000  0.99980000  0.62040000  1.0 0.5221375781
C  C31  1  0.62960000  0.87380000  0.24640000  1.0 0.5221375781
C  C32  1  0.87380000  0.62960000  0.25020000  1.0 0.5221375781
C  C33  1  0.00840000  0.26060000  0.86280000  1.0 0.5221375781
C  C34  1  0.26060000  0.00840000  0.86820000  1.0 0.5221375781
C  C35  1  0.38180000  0.38720000  0.98940000  1.0 0.5221375781
C  C36  1  0.38720000  0.38180000  0.24160000  1.0 0.5221375781
C  C37  1  0.90940000  0.28980000  0.89780000  1.0 -0.0786863645
C  C38  1  0.28980000  0.90940000  0.90300000  1.0 -0.0786863645
C  C39  1  0.34700000  0.35220000  0.96020000  1.0 -0.0786863645
C  C40  1  0.35220000  0.34700000  0.34060000  1.0 -0.0786863645
C  C41  1  0.90940000  0.24940000  0.82820000  1.0 0.1411711476
C  C42  1  0.24940000  0.90940000  0.01300000  1.0 0.1411711476
C  C43  1  0.23700000  0.42180000  0.00060000  1.0 0.1411711476
C  C44  1  0.42180000  0.23700000  0.34060000  1.0 0.1411711476
C  C45  1  0.81490000  0.35870000  0.00310000  1.0 -0.1741505679
C  C46  1  0.35870000  0.81490000  0.82330000  1.0 -0.1741505679
C  C47  1  0.42670000  0.24690000  0.89130000  1.0 -0.1741505679
C  C48  1  0.24690000  0.42670000  0.43510000  1.0 -0.1819009382
C  C49  1  0.81500000  0.27800000  0.86400000  1.0 -0.1819009382
C  C50  1  0.27800000  0.81500000  0.04300000  1.0 -0.1819009382
C  C51  1  0.20700000  0.38600000  0.97200000  1.0 -0.1819009382
C  C52  1  0.38600000  0.20700000  0.43500000  1.0 -0.1819009382
C  C53  1  0.72040000  0.38720000  0.03900000  1.0 0.1288161025
C  C54  1  0.38720000  0.72040000  0.85340000  1.0 0.1288161025
C  C55  1  0.39660000  0.21100000  0.86280000  1.0 0.1288161025
C  C56  1  0.21100000  0.39660000  0.52960000  1.0 0.1288161025
C  C57  1  0.72045000  0.34685000  0.96955000  1.0 -0.0620116391
C  C58  1  0.34685000  0.72045000  0.96315000  1.0 -0.0620116391
C  C59  1  0.28685000  0.28045000  0.90315000  1.0 -0.0620116391
C  C60  1  0.28045000  0.28685000  0.52955000  1.0 -0.0620116391
C  C61  1  0.62040000  0.37620000  0.00360000  1.0 0.5221375781
C  C62  1  0.37620000  0.62040000  0.99980000  1.0 0.5221375781
C  C63  1  0.25020000  0.24640000  0.87380000  1.0 0.5221375781
C  C64  1  0.24640000  0.25020000  0.62960000  1.0 0.5221375781
C  C65  1  0.69780000  0.37780000  0.68220000  1.0 -0.3269423959
C  C66  1  0.68220000  0.24220000  0.69780000  1.0 -0.3269423959
C  C67  1  0.37780000  0.69780000  0.24220000  1.0 -0.3269423959
C  C68  1  0.24220000  0.68220000  0.37780000  1.0 -0.3269423959
C  C69  1  0.55220000  0.87220000  0.56780000  1.0 -0.3269423959
C  C70  1  0.56780000  0.00780000  0.55220000  1.0 -0.3269423959
C  C71  1  0.87220000  0.55220000  0.00780000  1.0 -0.3269423959
C  C72  1  0.00780000  0.56780000  0.87220000  1.0 -0.3269423959
N  N1  1  0.09540000  0.72140000  0.18320000  1.0 -0.4592775595
N  N2  1  0.72140000  0.09540000  0.00000000  1.0 -0.4592775595
N  N3  1  0.25000000  0.06680000  0.52860000  1.0 -0.4592775595
N  N4  1  0.06680000  0.25000000  0.15460000  1.0 -0.4592775595
N  N5  1  0.61890000  0.79890000  0.10310000  1.0 -0.4821020146
N  N6  1  0.79890000  0.61890000  0.47910000  1.0 -0.4821020146
N  N7  1  0.77090000  0.14690000  0.45110000  1.0 -0.4821020146
N  N8  1  0.14690000  0.77090000  0.63110000  1.0 -0.4821020146
N  N9  1  0.00000000  0.18320000  0.72140000  1.0 -0.4592775595
N  N10  1  0.18320000  0.00000000  0.09540000  1.0 -0.4592775595
N  N11  1  0.15460000  0.52860000  0.06680000  1.0 -0.4592775595
N  N12  1  0.52860000  0.15460000  0.25000000  1.0 -0.4592775595
N  N13  1  0.47910000  0.10310000  0.79890000  1.0 -0.4821020146
N  N14  1  0.10310000  0.47910000  0.61890000  1.0 -0.4821020146
N  N15  1  0.63110000  0.45110000  0.14690000  1.0 -0.4821020146
N  N16  1  0.45110000  0.63110000  0.77090000  1.0 -0.4821020146
N  N17  1  0.66200000  0.33800000  0.66200000  1.0 -0.0927016069
N  N18  1  0.33800000  0.66200000  0.33800000  1.0 -0.0927016069
N  N19  1  0.58800000  0.91200000  0.58800000  1.0 -0.0927016069
N  N20  1  0.91200000  0.58800000  0.91200000  1.0 -0.0927016069
O  O1  1  0.62265000  0.92385000  0.30355000  1.0 -0.4925345075
O  O2  1  0.92385000  0.62265000  0.14995000  1.0 -0.4925345075
O  O3  1  0.10005000  0.94645000  0.32615000  1.0 -0.4925345075
O  O4  1  0.94645000  0.10005000  0.62735000  1.0 -0.4925345075
O  O5  1  0.72110000  0.79750000  0.16090000  1.0 -0.4925345075
O  O6  1  0.79750000  0.72110000  0.32050000  1.0 -0.4925345075
O  O7  1  0.92950000  0.08910000  0.45250000  1.0 -0.4925345075
O  O8  1  0.08910000  0.92950000  0.52890000  1.0 -0.4925345075
O  O9  1  0.76700000  0.92340000  0.30480000  1.0 -0.5140596595
O  O10  1  0.92340000  0.76700000  0.00480000  1.0 -0.5140596595
O  O11  1  0.24520000  0.94520000  0.32660000  1.0 -0.5140596595
O  O12  1  0.94520000  0.24520000  0.48300000  1.0 -0.5140596595
O  O13  1  0.93890000  0.77450000  0.18590000  1.0 -0.4925345075
O  O14  1  0.77450000  0.93890000  0.10070000  1.0 -0.4925345075
O  O15  1  0.14930000  0.06410000  0.47550000  1.0 -0.4925345075
O  O16  1  0.06410000  0.14930000  0.31110000  1.0 -0.4925345075
O  O17  1  0.14995000  0.30355000  0.92385000  1.0 -0.4925345075
O  O18  1  0.30355000  0.14995000  0.62265000  1.0 -0.4925345075
O  O19  1  0.62735000  0.32615000  0.94645000  1.0 -0.4925345075
O  O20  1  0.32615000  0.62735000  0.10005000  1.0 -0.4925345075
O  O21  1  0.32050000  0.16090000  0.79750000  1.0 -0.4925345075
O  O22  1  0.16090000  0.32050000  0.72110000  1.0 -0.4925345075
O  O23  1  0.52890000  0.45250000  0.08910000  1.0 -0.4925345075
O  O24  1  0.45250000  0.52890000  0.92950000  1.0 -0.4925345075
O  O25  1  0.00480000  0.30480000  0.92340000  1.0 -0.5140596595
O  O26  1  0.30480000  0.00480000  0.76700000  1.0 -0.5140596595
O  O27  1  0.48300000  0.32660000  0.94520000  1.0 -0.5140596595
O  O28  1  0.32660000  0.48300000  0.24520000  1.0 -0.5140596595
O  O29  1  0.10070000  0.18590000  0.77450000  1.0 -0.4925345075
O  O30  1  0.18590000  0.10070000  0.93890000  1.0 -0.4925345075
O  O31  1  0.31110000  0.47550000  0.06410000  1.0 -0.4925345075
O  O32  1  0.47550000  0.31110000  0.14930000  1.0 -0.4925345075
