# DDEC6 charges by PACMAN v1.1 (https://github.com/mtap-research/PACMAN-charge/)
data_LAPLUM_ion_pacman
_symmetry_space_group_name_H-M   'P 1'
_cell_length_a   20.62150000
_cell_length_b   18.21630000
_cell_length_c   14.40450000
_cell_angle_alpha   77.44540000
_cell_angle_beta   59.56900000
_cell_angle_gamma   42.98570000
_symmetry_Int_Tables_number   1
_chemical_formula_structural   InH32C26N9O8
_chemical_formula_sum   'In4 H128 C104 N36 O32'
_cell_volume   3071.24010645
_cell_formula_units_Z   4
loop_
 _symmetry_equiv_pos_site_id
 _symmetry_equiv_pos_as_xyz
  1  'x, y, z'
loop_
 _atom_site_type_symbol
 _atom_site_label
 _atom_site_symmetry_multiplicity
 _atom_site_fract_x
 _atom_site_fract_y
 _atom_site_fract_z
 _atom_site_occupancy
 _atom_site_charge
In  In1  1  0.30640000  0.30640000  0.69360000  1.0 1.1609325302
In  In2  1  0.55640000  0.55640000  0.94360000  1.0 1.1609325302
In  In3  1  0.69360000  0.69360000  0.30640000  1.0 1.1609325302
In  In4  1  0.94360000  0.94360000  0.55640000  1.0 1.1609325302
H  H1  1  0.66580000  0.15720000  0.70400000  1.0 0.1098100477
H  H2  1  0.15720000  0.66580000  0.47300000  1.0 0.1098100477
H  H3  1  0.77700000  0.54600000  0.09280000  1.0 0.1098100477
H  H4  1  0.54600000  0.77700000  0.58420000  1.0 0.1098100477
H  H5  1  0.58130000  0.17110000  0.70990000  1.0 0.1212085553
H  H6  1  0.17110000  0.58130000  0.53770000  1.0 0.1212085553
H  H7  1  0.71230000  0.54010000  0.07890000  1.0 0.1212085553
H  H8  1  0.54010000  0.71230000  0.66870000  1.0 0.1212085553
H  H9  1  0.61750000  0.30830000  0.77110000  1.0 0.1014131759
H  H10  1  0.30830000  0.61750000  0.30310000  1.0 0.1014131759
H  H11  1  0.94690000  0.47890000  0.94170000  1.0 0.1014131759
H  H12  1  0.47890000  0.94690000  0.63250000  1.0 0.1014131759
H  H13  1  0.29080000  0.62200000  0.91760000  1.0 0.1014131759
H  H14  1  0.62200000  0.29080000  0.16960000  1.0 0.1014131759
H  H15  1  0.08040000  0.33240000  0.62800000  1.0 0.1014131759
H  H16  1  0.33240000  0.08040000  0.95920000  1.0 0.1014131759
H  H17  1  0.61270000  0.33550000  0.72110000  1.0 0.1098100477
H  H18  1  0.33550000  0.61270000  0.33070000  1.0 0.1098100477
H  H19  1  0.91930000  0.52890000  0.91450000  1.0 0.1098100477
H  H20  1  0.52890000  0.91930000  0.63730000  1.0 0.1098100477
H  H21  1  0.29460000  0.59620000  0.96120000  1.0 0.1098100477
H  H22  1  0.59620000  0.29460000  0.14800000  1.0 0.1098100477
H  H23  1  0.10200000  0.28880000  0.65380000  1.0 0.1098100477
H  H24  1  0.28880000  0.10200000  0.95540000  1.0 0.1098100477
H  H25  1  0.17780000  0.54440000  0.93120000  1.0 0.1615818656
H  H26  1  0.54440000  0.17780000  0.34660000  1.0 0.1615818656
H  H27  1  0.90340000  0.31880000  0.70560000  1.0 0.1615818656
H  H28  1  0.31880000  0.90340000  0.07220000  1.0 0.1615818656
H  H29  1  0.15850000  0.62130000  0.99450000  1.0 0.1417979342
H  H30  1  0.62130000  0.15850000  0.22570000  1.0 0.1417979342
H  H31  1  0.02430000  0.25550000  0.62870000  1.0 0.1417979342
H  H32  1  0.25550000  0.02430000  0.09150000  1.0 0.1417979342
H  H33  1  0.18840000  0.55160000  0.88320000  1.0 0.1615818656
H  H34  1  0.55160000  0.18840000  0.37680000  1.0 0.1615818656
H  H35  1  0.87320000  0.36680000  0.69840000  1.0 0.1615818656
H  H36  1  0.36680000  0.87320000  0.06160000  1.0 0.1615818656
H  H37  1  0.16010000  0.64390000  0.93230000  1.0 0.1615818656
H  H38  1  0.64390000  0.16010000  0.26370000  1.0 0.1615818656
H  H39  1  0.98630000  0.31770000  0.60610000  1.0 0.1615818656
H  H40  1  0.31770000  0.98630000  0.08990000  1.0 0.1615818656
H  H41  1  0.58400000  0.20020000  0.64860000  1.0 0.1309820306
H  H42  1  0.20020000  0.58400000  0.56720000  1.0 0.1309820306
H  H43  1  0.68280000  0.60140000  0.04980000  1.0 0.1309820306
H  H44  1  0.60140000  0.68280000  0.66600000  1.0 0.1309820306
H  H45  1  0.66490000  0.19790000  0.63110000  1.0 0.1098100477
H  H46  1  0.19790000  0.66490000  0.50610000  1.0 0.1098100477
H  H47  1  0.74390000  0.61890000  0.05210000  1.0 0.1098100477
H  H48  1  0.61890000  0.74390000  0.58510000  1.0 0.1098100477
H  H49  1  0.47300000  0.70400000  0.15720000  1.0 0.1098100477
H  H50  1  0.70400000  0.47300000  0.66580000  1.0 0.1098100477
H  H51  1  0.58420000  0.09280000  0.54600000  1.0 0.1098100477
H  H52  1  0.09280000  0.58420000  0.77700000  1.0 0.1098100477
H  H53  1  0.53770000  0.70990000  0.17110000  1.0 0.1212085553
H  H54  1  0.70990000  0.53770000  0.58130000  1.0 0.1212085553
H  H55  1  0.66870000  0.07890000  0.54010000  1.0 0.1212085553
H  H56  1  0.07890000  0.66870000  0.71230000  1.0 0.1212085553
H  H57  1  0.30310000  0.77110000  0.30830000  1.0 0.1014131759
H  H58  1  0.77110000  0.30310000  0.61750000  1.0 0.1014131759
H  H59  1  0.63250000  0.94170000  0.47890000  1.0 0.1014131759
H  H60  1  0.94170000  0.63250000  0.94690000  1.0 0.1014131759
H  H61  1  0.16960000  0.91760000  0.62200000  1.0 0.1014131759
H  H62  1  0.91760000  0.16960000  0.29080000  1.0 0.1014131759
H  H63  1  0.95920000  0.62800000  0.33240000  1.0 0.1014131759
H  H64  1  0.62800000  0.95920000  0.08040000  1.0 0.1014131759
H  H65  1  0.33070000  0.72110000  0.33550000  1.0 0.1098100477
H  H66  1  0.72110000  0.33070000  0.61270000  1.0 0.1098100477
H  H67  1  0.63730000  0.91450000  0.52890000  1.0 0.1098100477
H  H68  1  0.91450000  0.63730000  0.91930000  1.0 0.1098100477
H  H69  1  0.14800000  0.96120000  0.59620000  1.0 0.1098100477
H  H70  1  0.96120000  0.14800000  0.29460000  1.0 0.1098100477
H  H71  1  0.95540000  0.65380000  0.28880000  1.0 0.1098100477
H  H72  1  0.65380000  0.95540000  0.10200000  1.0 0.1098100477
H  H73  1  0.34660000  0.93120000  0.54440000  1.0 0.1615818656
H  H74  1  0.93120000  0.34660000  0.17780000  1.0 0.1615818656
H  H75  1  0.07220000  0.70560000  0.31880000  1.0 0.1615818656
H  H76  1  0.70560000  0.07220000  0.90340000  1.0 0.1615818656
H  H77  1  0.22570000  0.99450000  0.62130000  1.0 0.1417979342
H  H78  1  0.99450000  0.22570000  0.15850000  1.0 0.1417979342
H  H79  1  0.09150000  0.62870000  0.25550000  1.0 0.1417979342
H  H80  1  0.62870000  0.09150000  0.02430000  1.0 0.1417979342
H  H81  1  0.37680000  0.88320000  0.55160000  1.0 0.1615818656
H  H82  1  0.88320000  0.37680000  0.18840000  1.0 0.1615818656
H  H83  1  0.06160000  0.69840000  0.36680000  1.0 0.1615818656
H  H84  1  0.69840000  0.06160000  0.87320000  1.0 0.1615818656
H  H85  1  0.26370000  0.93230000  0.64390000  1.0 0.1615818656
H  H86  1  0.93230000  0.26370000  0.16010000  1.0 0.1615818656
H  H87  1  0.08990000  0.60610000  0.31770000  1.0 0.1615818656
H  H88  1  0.60610000  0.08990000  0.98630000  1.0 0.1615818656
H  H89  1  0.56720000  0.64860000  0.20020000  1.0 0.1309820306
H  H90  1  0.64860000  0.56720000  0.58400000  1.0 0.1309820306
H  H91  1  0.66600000  0.04980000  0.60140000  1.0 0.1309820306
H  H92  1  0.04980000  0.66600000  0.68280000  1.0 0.1309820306
H  H93  1  0.50610000  0.63110000  0.19790000  1.0 0.1098100477
H  H94  1  0.63110000  0.50610000  0.66490000  1.0 0.1098100477
H  H95  1  0.58510000  0.05210000  0.61890000  1.0 0.1098100477
H  H96  1  0.05210000  0.58510000  0.74390000  1.0 0.1098100477
H  H97  1  0.90310000  0.08170000  0.82810000  1.0 0.2457845774
H  H98  1  0.82810000  0.18710000  0.90310000  1.0 0.2457845774
H  H99  1  0.95500000  0.15600000  0.73160000  1.0 0.0695276153
H  H100  1  0.73160000  0.15740000  0.95500000  1.0 0.0695276153
H  H101  1  0.89430000  0.16670000  0.68310000  1.0 0.1212085553
H  H102  1  0.68310000  0.25590000  0.89430000  1.0 0.1212085553
H  H103  1  0.82900000  0.27200000  0.76800000  1.0 0.1098100477
H  H104  1  0.76800000  0.13100000  0.82900000  1.0 0.1098100477
H  H105  1  0.08170000  0.90310000  0.18710000  1.0 0.2457845774
H  H106  1  0.18710000  0.82810000  0.08170000  1.0 0.2457845774
H  H107  1  0.15600000  0.95500000  0.15740000  1.0 0.0695276153
H  H108  1  0.15740000  0.73160000  0.15600000  1.0 0.0695276153
H  H109  1  0.16670000  0.89430000  0.25590000  1.0 0.1212085553
H  H110  1  0.25590000  0.68310000  0.16670000  1.0 0.1212085553
H  H111  1  0.27200000  0.82900000  0.13100000  1.0 0.1098100477
H  H112  1  0.13100000  0.76800000  0.27200000  1.0 0.1098100477
H  H113  1  0.34690000  0.16830000  0.42190000  1.0 0.2457845774
H  H114  1  0.42190000  0.06290000  0.34690000  1.0 0.2457845774
H  H115  1  0.29500000  0.09400000  0.51840000  1.0 0.0695276153
H  H116  1  0.51840000  0.09260000  0.29500000  1.0 0.0695276153
H  H117  1  0.35570000  0.08330000  0.56690000  1.0 0.1212085553
H  H118  1  0.56690000  0.99410000  0.35570000  1.0 0.1212085553
H  H119  1  0.42100000  0.97800000  0.48200000  1.0 0.1098100477
H  H120  1  0.48200000  0.11900000  0.42100000  1.0 0.1098100477
H  H121  1  0.16830000  0.34690000  0.06290000  1.0 0.2457845774
H  H122  1  0.06290000  0.42190000  0.16830000  1.0 0.2457845774
H  H123  1  0.09400000  0.29500000  0.09260000  1.0 0.0695276153
H  H124  1  0.09260000  0.51840000  0.09400000  1.0 0.0695276153
H  H125  1  0.08330000  0.35570000  0.99410000  1.0 0.1212085553
H  H126  1  0.99410000  0.56690000  0.08330000  1.0 0.1212085553
H  H127  1  0.97800000  0.42100000  0.11900000  1.0 0.1098100477
H  H128  1  0.11900000  0.48200000  0.97800000  1.0 0.1098100477
C  C1  1  0.36430000  0.35970000  0.76750000  1.0 0.3482499314
C  C2  1  0.35970000  0.36430000  0.50850000  1.0 0.3482499314
C  C3  1  0.74150000  0.48250000  0.89030000  1.0 0.3482499314
C  C4  1  0.48250000  0.74150000  0.88570000  1.0 0.3482499314
C  C5  1  0.39880000  0.39480000  0.79680000  1.0 -0.1633469644
C  C6  1  0.39480000  0.39880000  0.40960000  1.0 -0.1633469644
C  C7  1  0.84040000  0.45320000  0.85520000  1.0 -0.1633469644
C  C8  1  0.45320000  0.84040000  0.85120000  1.0 -0.1633469644
C  C9  1  0.45950000  0.46890000  0.84650000  1.0 0.0695276153
C  C10  1  0.46890000  0.45950000  0.22510000  1.0 0.0695276153
C  C11  1  0.02490000  0.40350000  0.78110000  1.0 0.0695276153
C  C12  1  0.40350000  0.02490000  0.79050000  1.0 0.0695276153
C  C13  1  0.49440000  0.50600000  0.87480000  1.0 0.3879536767
C  C14  1  0.50600000  0.49440000  0.12480000  1.0 0.3879536767
C  C15  1  0.12520000  0.37520000  0.74400000  1.0 0.3879536767
C  C16  1  0.37520000  0.12520000  0.75560000  1.0 0.3879536767
C  C17  1  0.51290000  0.31390000  0.77430000  1.0 0.1212085553
C  C18  1  0.31390000  0.51290000  0.39890000  1.0 0.1212085553
C  C19  1  0.85110000  0.47570000  0.93610000  1.0 0.1212085553
C  C20  1  0.47570000  0.85110000  0.73710000  1.0 0.1212085553
C  C21  1  0.54240000  0.35600000  0.79360000  1.0 -0.1190926076
C  C22  1  0.35600000  0.54240000  0.30800000  1.0 -0.1190926076
C  C23  1  0.94200000  0.45640000  0.89400000  1.0 -0.1190926076
C  C24  1  0.45640000  0.94200000  0.70760000  1.0 -0.1190926076
C  C25  1  0.34550000  0.54590000  0.88030000  1.0 -0.1796834278
C  C26  1  0.54590000  0.34550000  0.22830000  1.0 -0.1796834278
C  C27  1  0.02170000  0.36970000  0.70410000  1.0 -0.1796834278
C  C28  1  0.36970000  0.02170000  0.90450000  1.0 -0.1796834278
C  C29  1  0.31760000  0.50460000  0.85600000  1.0 0.1212085553
C  C30  1  0.50460000  0.31760000  0.32180000  1.0 0.1212085553
C  C31  1  0.92820000  0.39400000  0.74540000  1.0 0.1212085553
C  C32  1  0.39400000  0.92820000  0.93240000  1.0 0.1212085553
C  C33  1  0.50870000  0.33390000  0.73990000  1.0 0.1212085553
C  C34  1  0.33390000  0.50870000  0.41750000  1.0 0.1212085553
C  C35  1  0.83250000  0.51010000  0.91610000  1.0 0.1212085553
C  C36  1  0.51010000  0.83250000  0.74130000  1.0 0.1212085553
C  C37  1  0.53740000  0.37440000  0.76360000  1.0 -0.1148205283
C  C38  1  0.37440000  0.53740000  0.32460000  1.0 -0.1148205283
C  C39  1  0.92540000  0.48640000  0.87560000  1.0 -0.1148205283
C  C40  1  0.48640000  0.92540000  0.71260000  1.0 -0.1148205283
C  C41  1  0.34950000  0.52950000  0.90470000  1.0 -0.1633469644
C  C42  1  0.52950000  0.34950000  0.21630000  1.0 -0.1633469644
C  C43  1  0.03370000  0.34530000  0.72050000  1.0 -0.1633469644
C  C44  1  0.34530000  0.03370000  0.90050000  1.0 -0.1633469644
C  C45  1  0.32000000  0.49080000  0.87920000  1.0 0.0911381957
C  C46  1  0.49080000  0.32000000  0.31000000  1.0 0.0911381957
C  C47  1  0.94000000  0.37080000  0.75920000  1.0 0.0911381957
C  C48  1  0.37080000  0.94000000  0.93000000  1.0 0.0911381957
C  C49  1  0.50850000  0.76750000  0.35970000  1.0 0.3482499314
C  C50  1  0.76750000  0.50850000  0.36430000  1.0 0.3482499314
C  C51  1  0.88570000  0.89030000  0.48250000  1.0 0.3482499314
C  C52  1  0.89030000  0.88570000  0.74150000  1.0 0.3482499314
C  C53  1  0.40960000  0.79680000  0.39480000  1.0 -0.1633469644
C  C54  1  0.79680000  0.40960000  0.39880000  1.0 -0.1633469644
C  C55  1  0.85120000  0.85520000  0.45320000  1.0 -0.1633469644
C  C56  1  0.85520000  0.85120000  0.84040000  1.0 -0.1633469644
C  C57  1  0.22510000  0.84650000  0.46890000  1.0 0.0695276153
C  C58  1  0.84650000  0.22510000  0.45950000  1.0 0.0695276153
C  C59  1  0.79050000  0.78110000  0.40350000  1.0 0.0695276153
C  C60  1  0.78110000  0.79050000  0.02490000  1.0 0.0695276153
C  C61  1  0.12480000  0.87480000  0.50600000  1.0 0.3879536767
C  C62  1  0.87480000  0.12480000  0.49440000  1.0 0.3879536767
C  C63  1  0.75560000  0.74400000  0.37520000  1.0 0.3879536767
C  C64  1  0.74400000  0.75560000  0.12520000  1.0 0.3879536767
C  C65  1  0.39890000  0.77430000  0.31390000  1.0 0.1212085553
C  C66  1  0.77430000  0.39890000  0.51290000  1.0 0.1212085553
C  C67  1  0.73710000  0.93610000  0.47570000  1.0 0.1212085553
C  C68  1  0.93610000  0.73710000  0.85110000  1.0 0.1212085553
C  C69  1  0.30800000  0.79360000  0.35600000  1.0 -0.1190926076
C  C70  1  0.79360000  0.30800000  0.54240000  1.0 -0.1190926076
C  C71  1  0.70760000  0.89400000  0.45640000  1.0 -0.1190926076
C  C72  1  0.89400000  0.70760000  0.94200000  1.0 -0.1190926076
C  C73  1  0.22830000  0.88030000  0.54590000  1.0 -0.1796834278
C  C74  1  0.88030000  0.22830000  0.34550000  1.0 -0.1796834278
C  C75  1  0.90450000  0.70410000  0.36970000  1.0 -0.1796834278
C  C76  1  0.70410000  0.90450000  0.02170000  1.0 -0.1796834278
C  C77  1  0.32180000  0.85600000  0.50460000  1.0 0.1212085553
C  C78  1  0.85600000  0.32180000  0.31760000  1.0 0.1212085553
C  C79  1  0.93240000  0.74540000  0.39400000  1.0 0.1212085553
C  C80  1  0.74540000  0.93240000  0.92820000  1.0 0.1212085553
C  C81  1  0.41750000  0.73990000  0.33390000  1.0 0.1212085553
C  C82  1  0.73990000  0.41750000  0.50870000  1.0 0.1212085553
C  C83  1  0.74130000  0.91610000  0.51010000  1.0 0.1212085553
C  C84  1  0.91610000  0.74130000  0.83250000  1.0 0.1212085553
C  C85  1  0.32460000  0.76360000  0.37440000  1.0 -0.1148205283
C  C86  1  0.76360000  0.32460000  0.53740000  1.0 -0.1148205283
C  C87  1  0.71260000  0.87560000  0.48640000  1.0 -0.1148205283
C  C88  1  0.87560000  0.71260000  0.92540000  1.0 -0.1148205283
C  C89  1  0.21630000  0.90470000  0.52950000  1.0 -0.1633469644
C  C90  1  0.90470000  0.21630000  0.34950000  1.0 -0.1633469644
C  C91  1  0.90050000  0.72050000  0.34530000  1.0 -0.1633469644
C  C92  1  0.72050000  0.90050000  0.03370000  1.0 -0.1633469644
C  C93  1  0.31000000  0.87920000  0.49080000  1.0 0.0911381957
C  C94  1  0.87920000  0.31000000  0.32000000  1.0 0.0911381957
C  C95  1  0.93000000  0.75920000  0.37080000  1.0 0.0911381957
C  C96  1  0.75920000  0.93000000  0.94000000  1.0 0.0911381957
C  C97  1  0.88340000  0.19100000  0.74900000  1.0 -0.4303187239
C  C98  1  0.74900000  0.17660000  0.88340000  1.0 -0.4303187239
C  C99  1  0.19100000  0.88340000  0.17660000  1.0 -0.4303187239
C  C100  1  0.17660000  0.74900000  0.19100000  1.0 -0.4303187239
C  C101  1  0.36660000  0.05900000  0.50100000  1.0 -0.4303187239
C  C102  1  0.50100000  0.07340000  0.36660000  1.0 -0.4303187239
C  C103  1  0.05900000  0.36660000  0.07340000  1.0 -0.4303187239
C  C104  1  0.07340000  0.50100000  0.05900000  1.0 -0.4303187239
N  N1  1  0.59710000  0.19990000  0.72310000  1.0 -0.2110880496
N  N2  1  0.19990000  0.59710000  0.47990000  1.0 -0.2110880496
N  N3  1  0.77010000  0.52690000  0.05010000  1.0 -0.2110880496
N  N4  1  0.52690000  0.77010000  0.65290000  1.0 -0.2110880496
N  N5  1  0.20460000  0.56060000  0.94340000  1.0 -0.1883707098
N  N6  1  0.56060000  0.20460000  0.29140000  1.0 -0.1883707098
N  N7  1  0.95860000  0.30660000  0.68940000  1.0 -0.1883707098
N  N8  1  0.30660000  0.95860000  0.04540000  1.0 -0.1883707098
N  N9  1  0.20920000  0.57520000  0.89480000  1.0 -0.1972967418
N  N10  1  0.57520000  0.20920000  0.32080000  1.0 -0.1972967418
N  N11  1  0.92920000  0.35520000  0.67480000  1.0 -0.1972967418
N  N12  1  0.35520000  0.92920000  0.04080000  1.0 -0.1972967418
N  N13  1  0.59630000  0.23170000  0.66410000  1.0 -0.2269665427
N  N14  1  0.23170000  0.59630000  0.50790000  1.0 -0.2269665427
N  N15  1  0.74210000  0.58590000  0.01830000  1.0 -0.2269665427
N  N16  1  0.58590000  0.74210000  0.65370000  1.0 -0.2269665427
N  N17  1  0.47990000  0.72310000  0.19990000  1.0 -0.2110880496
N  N18  1  0.72310000  0.47990000  0.59710000  1.0 -0.2110880496
N  N19  1  0.65290000  0.05010000  0.52690000  1.0 -0.2110880496
N  N20  1  0.05010000  0.65290000  0.77010000  1.0 -0.2110880496
N  N21  1  0.29140000  0.94340000  0.56060000  1.0 -0.1883707098
N  N22  1  0.94340000  0.29140000  0.20460000  1.0 -0.1883707098
N  N23  1  0.04540000  0.68940000  0.30660000  1.0 -0.1883707098
N  N24  1  0.68940000  0.04540000  0.95860000  1.0 -0.1883707098
N  N25  1  0.32080000  0.89480000  0.57520000  1.0 -0.1972967418
N  N26  1  0.89480000  0.32080000  0.20920000  1.0 -0.1972967418
N  N27  1  0.04080000  0.67480000  0.35520000  1.0 -0.1972967418
N  N28  1  0.67480000  0.04080000  0.92920000  1.0 -0.1972967418
N  N29  1  0.50790000  0.66410000  0.23170000  1.0 -0.2269665427
N  N30  1  0.66410000  0.50790000  0.59630000  1.0 -0.2269665427
N  N31  1  0.65370000  0.01830000  0.58590000  1.0 -0.2269665427
N  N32  1  0.01830000  0.65370000  0.74210000  1.0 -0.2269665427
N  N33  1  0.84300000  0.15700000  0.84300000  1.0 -0.1190926076
N  N34  1  0.15700000  0.84300000  0.15700000  1.0 -0.1148205283
N  N35  1  0.40700000  0.09300000  0.40700000  1.0 -0.1148205283
N  N36  1  0.09300000  0.40700000  0.09300000  1.0 -0.1148205283
O  O1  1  0.43758000  0.26878000  0.69282000  1.0 -0.494632795
O  O2  1  0.26878000  0.43758000  0.60082000  1.0 -0.494632795
O  O3  1  0.64918000  0.55718000  0.98122000  1.0 -0.494632795
O  O4  1  0.55718000  0.64918000  0.81242000  1.0 -0.494632795
O  O5  1  0.26283000  0.41963000  0.81217000  1.0 -0.4415767002
O  O6  1  0.41963000  0.26283000  0.50537000  1.0 -0.4415767002
O  O7  1  0.74463000  0.43783000  0.83037000  1.0 -0.4415767002
O  O8  1  0.43783000  0.74463000  0.98717000  1.0 -0.4415767002
O  O9  1  0.42214000  0.59254000  0.95066000  1.0 -0.4415767002
O  O10  1  0.59254000  0.42214000  0.03466000  1.0 -0.4415767002
O  O11  1  0.21534000  0.29934000  0.65746000  1.0 -0.4415767002
O  O12  1  0.29934000  0.21534000  0.82786000  1.0 -0.4415767002
O  O13  1  0.59616000  0.44756000  0.82544000  1.0 -0.478031076
O  O14  1  0.44756000  0.59616000  0.13084000  1.0 -0.478031076
O  O15  1  0.11916000  0.42456000  0.80244000  1.0 -0.478031076
O  O16  1  0.42456000  0.11916000  0.65384000  1.0 -0.478031076
O  O17  1  0.60082000  0.69282000  0.26878000  1.0 -0.494632795
O  O18  1  0.69282000  0.60082000  0.43758000  1.0 -0.494632795
O  O19  1  0.81242000  0.98122000  0.55718000  1.0 -0.494632795
O  O20  1  0.98122000  0.81242000  0.64918000  1.0 -0.494632795
O  O21  1  0.50537000  0.81217000  0.41963000  1.0 -0.4415767002
O  O22  1  0.81217000  0.50537000  0.26283000  1.0 -0.4415767002
O  O23  1  0.98717000  0.83037000  0.43783000  1.0 -0.4415767002
O  O24  1  0.83037000  0.98717000  0.74463000  1.0 -0.4415767002
O  O25  1  0.03466000  0.95066000  0.59254000  1.0 -0.4415767002
O  O26  1  0.95066000  0.03466000  0.42214000  1.0 -0.4415767002
O  O27  1  0.82786000  0.65746000  0.29934000  1.0 -0.4415767002
O  O28  1  0.65746000  0.82786000  0.21534000  1.0 -0.4415767002
O  O29  1  0.13084000  0.82544000  0.44756000  1.0 -0.478031076
O  O30  1  0.82544000  0.13084000  0.59616000  1.0 -0.478031076
O  O31  1  0.65384000  0.80244000  0.42456000  1.0 -0.478031076
O  O32  1  0.80244000  0.65384000  0.11916000  1.0 -0.478031076
