# DDEC6 charges by PACMAN v1.1 (https://github.com/mtap-research/PACMAN-charge/)
data_LAPMIB_ASR_pacman
_symmetry_space_group_name_H-M   'P 1'
_cell_length_a   20.53470000
_cell_length_b   18.92600000
_cell_length_c   13.20940000
_cell_angle_alpha   77.17290000
_cell_angle_beta   63.98210000
_cell_angle_gamma   38.84500000
_symmetry_Int_Tables_number   1
_chemical_formula_structural   InH20C24(NO2)4
_chemical_formula_sum   'In4 H80 C96 N16 O32'
_cell_volume   2827.69109474
_cell_formula_units_Z   4
loop_
 _symmetry_equiv_pos_site_id
 _symmetry_equiv_pos_as_xyz
  1  'x, y, z'
loop_
 _atom_site_type_symbol
 _atom_site_label
 _atom_site_symmetry_multiplicity
 _atom_site_fract_x
 _atom_site_fract_y
 _atom_site_fract_z
 _atom_site_occupancy
 _atom_site_charge
In  In1  1  0.29494000  0.29494000  0.70506000  1.0 1.2680150349
In  In2  1  0.54494000  0.54494000  0.95506000  1.0 1.2680150349
In  In3  1  0.70506000  0.70506000  0.29494000  1.0 1.2680150349
In  In4  1  0.95506000  0.95506000  0.54494000  1.0 1.2680150349
H  H1  1  0.54090000  0.22310000  0.33130000  1.0 0.1302236807
H  H2  1  0.22310000  0.54090000  0.90470000  1.0 0.1302236807
H  H3  1  0.34530000  0.91870000  0.02690000  1.0 0.1302236807
H  H4  1  0.91870000  0.34530000  0.70910000  1.0 0.1302236807
H  H5  1  0.60730000  0.27370000  0.18370000  1.0 0.1402812781
H  H6  1  0.27370000  0.60730000  0.93530000  1.0 0.1402812781
H  H7  1  0.31470000  0.06630000  0.97630000  1.0 0.1402812781
H  H8  1  0.06630000  0.31470000  0.64270000  1.0 0.1402812781
H  H9  1  0.14510000  0.66770000  0.46370000  1.0 0.1496046041
H  H10  1  0.66770000  0.14510000  0.72350000  1.0 0.1496046041
H  H11  1  0.52650000  0.78630000  0.58230000  1.0 0.1496046041
H  H12  1  0.78630000  0.52650000  0.10490000  1.0 0.1496046041
H  H13  1  0.15590000  0.58750000  0.53770000  1.0 0.1402812781
H  H14  1  0.58750000  0.15590000  0.71890000  1.0 0.1402812781
H  H15  1  0.53110000  0.71230000  0.66250000  1.0 0.1402812781
H  H16  1  0.71230000  0.53110000  0.09410000  1.0 0.1402812781
H  H17  1  0.29730000  0.60570000  0.30810000  1.0 0.1100376476
H  H18  1  0.60570000  0.29730000  0.78890000  1.0 0.1100376476
H  H19  1  0.46110000  0.94190000  0.64430000  1.0 0.1100376476
H  H20  1  0.94190000  0.46110000  0.95270000  1.0 0.1100376476
H  H21  1  0.60150000  0.75310000  0.59650000  1.0 0.1402812781
H  H22  1  0.75310000  0.60150000  0.04890000  1.0 0.1402812781
H  H23  1  0.20110000  0.65350000  0.49690000  1.0 0.1402812781
H  H24  1  0.65350000  0.20110000  0.64850000  1.0 0.1402812781
H  H25  1  0.59850000  0.67850000  0.66430000  1.0 0.1302236807
H  H26  1  0.67850000  0.59850000  0.05870000  1.0 0.1302236807
H  H27  1  0.19130000  0.58570000  0.57150000  1.0 0.1302236807
H  H28  1  0.58570000  0.19130000  0.65150000  1.0 0.1302236807
H  H29  1  0.52490000  0.89830000  0.64230000  1.0 0.0975933992
H  H30  1  0.89830000  0.52490000  0.93450000  1.0 0.0975933992
H  H31  1  0.31550000  0.60770000  0.35170000  1.0 0.0975933992
H  H32  1  0.60770000  0.31550000  0.72510000  1.0 0.0975933992
H  H33  1  0.33230000  0.92770000  0.02630000  1.0 0.1302236807
H  H34  1  0.92770000  0.33230000  0.71370000  1.0 0.1302236807
H  H35  1  0.53630000  0.22370000  0.32230000  1.0 0.1302236807
H  H36  1  0.22370000  0.53630000  0.91770000  1.0 0.1302236807
H  H37  1  0.29950000  0.07670000  0.97370000  1.0 0.1402812781
H  H38  1  0.07670000  0.29950000  0.65010000  1.0 0.1402812781
H  H39  1  0.59990000  0.27630000  0.17330000  1.0 0.1402812781
H  H40  1  0.27630000  0.59990000  0.95050000  1.0 0.1402812781
H  H41  1  0.90470000  0.33130000  0.22310000  1.0 0.1302236807
H  H42  1  0.33130000  0.90470000  0.54090000  1.0 0.1302236807
H  H43  1  0.70910000  0.02690000  0.91870000  1.0 0.1302236807
H  H44  1  0.02690000  0.70910000  0.34530000  1.0 0.1302236807
H  H45  1  0.93530000  0.18370000  0.27370000  1.0 0.1402812781
H  H46  1  0.18370000  0.93530000  0.60730000  1.0 0.1402812781
H  H47  1  0.64270000  0.97630000  0.06630000  1.0 0.1402812781
H  H48  1  0.97630000  0.64270000  0.31470000  1.0 0.1402812781
H  H49  1  0.72350000  0.46370000  0.66770000  1.0 0.1496046041
H  H50  1  0.46370000  0.72350000  0.14510000  1.0 0.1496046041
H  H51  1  0.10490000  0.58230000  0.78630000  1.0 0.1496046041
H  H52  1  0.58230000  0.10490000  0.52650000  1.0 0.1496046041
H  H53  1  0.71890000  0.53770000  0.58750000  1.0 0.1402812781
H  H54  1  0.53770000  0.71890000  0.15590000  1.0 0.1402812781
H  H55  1  0.09410000  0.66250000  0.71230000  1.0 0.1402812781
H  H56  1  0.66250000  0.09410000  0.53110000  1.0 0.1402812781
H  H57  1  0.78890000  0.30810000  0.60570000  1.0 0.1100376476
H  H58  1  0.30810000  0.78890000  0.29730000  1.0 0.1100376476
H  H59  1  0.95270000  0.64430000  0.94190000  1.0 0.1100376476
H  H60  1  0.64430000  0.95270000  0.46110000  1.0 0.1100376476
H  H61  1  0.04890000  0.59650000  0.75310000  1.0 0.1402812781
H  H62  1  0.59650000  0.04890000  0.60150000  1.0 0.1402812781
H  H63  1  0.64850000  0.49690000  0.65350000  1.0 0.1402812781
H  H64  1  0.49690000  0.64850000  0.20110000  1.0 0.1402812781
H  H65  1  0.05870000  0.66430000  0.67850000  1.0 0.1302236807
H  H66  1  0.66430000  0.05870000  0.59850000  1.0 0.1302236807
H  H67  1  0.65150000  0.57150000  0.58570000  1.0 0.1302236807
H  H68  1  0.57150000  0.65150000  0.19130000  1.0 0.1302236807
H  H69  1  0.93450000  0.64230000  0.89830000  1.0 0.0975933992
H  H70  1  0.64230000  0.93450000  0.52490000  1.0 0.0975933992
H  H71  1  0.72510000  0.35170000  0.60770000  1.0 0.0975933992
H  H72  1  0.35170000  0.72510000  0.31550000  1.0 0.0975933992
H  H73  1  0.71370000  0.02630000  0.92770000  1.0 0.1302236807
H  H74  1  0.02630000  0.71370000  0.33230000  1.0 0.1302236807
H  H75  1  0.91770000  0.32230000  0.22370000  1.0 0.1302236807
H  H76  1  0.32230000  0.91770000  0.53630000  1.0 0.1302236807
H  H77  1  0.65010000  0.97370000  0.07670000  1.0 0.1402812781
H  H78  1  0.97370000  0.65010000  0.29950000  1.0 0.1402812781
H  H79  1  0.95050000  0.17330000  0.27630000  1.0 0.1402812781
H  H80  1  0.17330000  0.95050000  0.59990000  1.0 0.1402812781
C  C1  1  0.34190000  0.35670000  0.51790000  1.0 0.4186468203
C  C2  1  0.35670000  0.34190000  0.78350000  1.0 0.4186468203
C  C3  1  0.46650000  0.73210000  0.89330000  1.0 0.4186468203
C  C4  1  0.73210000  0.46650000  0.90810000  1.0 0.4186468203
C  C5  1  0.37780000  0.39020000  0.41240000  1.0 -0.1765159392
C  C6  1  0.39020000  0.37780000  0.81960000  1.0 -0.1765159392
C  C7  1  0.43040000  0.83760000  0.85980000  1.0 -0.1765159392
C  C8  1  0.83760000  0.43040000  0.87220000  1.0 -0.1765159392
C  C9  1  0.49130000  0.30170000  0.32830000  1.0 -0.1236288767
C  C10  1  0.30170000  0.49130000  0.87870000  1.0 -0.1236288767
C  C11  1  0.37130000  0.92170000  0.94830000  1.0 -0.1236288767
C  C12  1  0.92170000  0.37130000  0.75870000  1.0 -0.1236288767
C  C13  1  0.30790000  0.50230000  0.40270000  1.0 0.1302236807
C  C14  1  0.50230000  0.30790000  0.78710000  1.0 0.1302236807
C  C15  1  0.46290000  0.84730000  0.74770000  1.0 0.1302236807
C  C16  1  0.84730000  0.46290000  0.94210000  1.0 0.1302236807
C  C17  1  0.52920000  0.33300000  0.23980000  1.0 -0.1765159392
C  C18  1  0.33300000  0.52920000  0.89800000  1.0 -0.1765159392
C  C19  1  0.35200000  0.01020000  0.91700000  1.0 -0.1765159392
C  C20  1  0.01020000  0.35200000  0.72080000  1.0 -0.1765159392
C  C21  1  0.34870000  0.52710000  0.31290000  1.0 -0.0601522681
C  C22  1  0.52710000  0.34870000  0.81130000  1.0 -0.0601522681
C  C23  1  0.43870000  0.93710000  0.72290000  1.0 -0.0601522681
C  C24  1  0.93710000  0.43870000  0.90130000  1.0 -0.0601522681
C  C25  1  0.45870000  0.44630000  0.22910000  1.0 -0.000992608
C  C26  1  0.44630000  0.45870000  0.86590000  1.0 -0.000992608
C  C27  1  0.38410000  0.02090000  0.80370000  1.0 -0.000992608
C  C28  1  0.02090000  0.38410000  0.79130000  1.0 -0.000992608
C  C29  1  0.50210000  0.47830000  0.14230000  1.0 0.4053299841
C  C30  1  0.47830000  0.50210000  0.87730000  1.0 0.4053299841
C  C31  1  0.37270000  0.10770000  0.77170000  1.0 0.4053299841
C  C32  1  0.10770000  0.37270000  0.74790000  1.0 0.4053299841
C  C33  1  0.40910000  0.00150000  0.80310000  1.0 0.0021119362
C  C34  1  0.00150000  0.40910000  0.78630000  1.0 0.0021119362
C  C35  1  0.46370000  0.44690000  0.24850000  1.0 0.0021119362
C  C36  1  0.44690000  0.46370000  0.84090000  1.0 0.0021119362
C  C37  1  0.48580000  0.90420000  0.72020000  1.0 -0.0408381895
C  C38  1  0.90420000  0.48580000  0.88980000  1.0 -0.0408381895
C  C39  1  0.36020000  0.52980000  0.34580000  1.0 -0.0408381895
C  C40  1  0.52980000  0.36020000  0.76420000  1.0 -0.0408381895
C  C41  1  0.50520000  0.81580000  0.75140000  1.0 0.1496046041
C  C42  1  0.81580000  0.50520000  0.92760000  1.0 0.1496046041
C  C43  1  0.32240000  0.49860000  0.43420000  1.0 0.1496046041
C  C44  1  0.49860000  0.32240000  0.74480000  1.0 0.1496046041
C  C45  1  0.44790000  0.82450000  0.86550000  1.0 -0.1936820369
C  C46  1  0.82450000  0.44790000  0.86210000  1.0 -0.1936820369
C  C47  1  0.38790000  0.38450000  0.42550000  1.0 -0.1936820369
C  C48  1  0.38450000  0.38790000  0.80210000  1.0 -0.1936820369
C  C49  1  0.78350000  0.51790000  0.35670000  1.0 0.4186468203
C  C50  1  0.51790000  0.78350000  0.34190000  1.0 0.4186468203
C  C51  1  0.90810000  0.89330000  0.73210000  1.0 0.4186468203
C  C52  1  0.89330000  0.90810000  0.46650000  1.0 0.4186468203
C  C53  1  0.81960000  0.41240000  0.39020000  1.0 -0.1765159392
C  C54  1  0.41240000  0.81960000  0.37780000  1.0 -0.1765159392
C  C55  1  0.87220000  0.85980000  0.83760000  1.0 -0.1765159392
C  C56  1  0.85980000  0.87220000  0.43040000  1.0 -0.1765159392
C  C57  1  0.87870000  0.32830000  0.30170000  1.0 -0.1236288767
C  C58  1  0.32830000  0.87870000  0.49130000  1.0 -0.1236288767
C  C59  1  0.75870000  0.94830000  0.92170000  1.0 -0.1236288767
C  C60  1  0.94830000  0.75870000  0.37130000  1.0 -0.1236288767
C  C61  1  0.78710000  0.40270000  0.50230000  1.0 0.1302236807
C  C62  1  0.40270000  0.78710000  0.30790000  1.0 0.1302236807
C  C63  1  0.94210000  0.74770000  0.84730000  1.0 0.1302236807
C  C64  1  0.74770000  0.94210000  0.46290000  1.0 0.1302236807
C  C65  1  0.89800000  0.23980000  0.33300000  1.0 -0.1765159392
C  C66  1  0.23980000  0.89800000  0.52920000  1.0 -0.1765159392
C  C67  1  0.72080000  0.91700000  0.01020000  1.0 -0.1765159392
C  C68  1  0.91700000  0.72080000  0.35200000  1.0 -0.1765159392
C  C69  1  0.81130000  0.31290000  0.52710000  1.0 -0.0601522681
C  C70  1  0.31290000  0.81130000  0.34870000  1.0 -0.0601522681
C  C71  1  0.90130000  0.72290000  0.93710000  1.0 -0.0601522681
C  C72  1  0.72290000  0.90130000  0.43870000  1.0 -0.0601522681
C  C73  1  0.86590000  0.22910000  0.44630000  1.0 -0.000992608
C  C74  1  0.22910000  0.86590000  0.45870000  1.0 -0.000992608
C  C75  1  0.79130000  0.80370000  0.02090000  1.0 -0.000992608
C  C76  1  0.80370000  0.79130000  0.38410000  1.0 -0.000992608
C  C77  1  0.87730000  0.14230000  0.47830000  1.0 0.4053299841
C  C78  1  0.14230000  0.87730000  0.50210000  1.0 0.4053299841
C  C79  1  0.74790000  0.77170000  0.10770000  1.0 0.4053299841
C  C80  1  0.77170000  0.74790000  0.37270000  1.0 0.4053299841
C  C81  1  0.78630000  0.80310000  0.00150000  1.0 0.0021119362
C  C82  1  0.80310000  0.78630000  0.40910000  1.0 0.0021119362
C  C83  1  0.84090000  0.24850000  0.44690000  1.0 0.0021119362
C  C84  1  0.24850000  0.84090000  0.46370000  1.0 0.0021119362
C  C85  1  0.88980000  0.72020000  0.90420000  1.0 -0.0408381895
C  C86  1  0.72020000  0.88980000  0.48580000  1.0 -0.0408381895
C  C87  1  0.76420000  0.34580000  0.52980000  1.0 -0.0408381895
C  C88  1  0.34580000  0.76420000  0.36020000  1.0 -0.0408381895
C  C89  1  0.92760000  0.75140000  0.81580000  1.0 0.1496046041
C  C90  1  0.75140000  0.92760000  0.50520000  1.0 0.1496046041
C  C91  1  0.74480000  0.43420000  0.49860000  1.0 0.1496046041
C  C92  1  0.43420000  0.74480000  0.32240000  1.0 0.1496046041
C  C93  1  0.86210000  0.86550000  0.82450000  1.0 -0.1936820369
C  C94  1  0.86550000  0.86210000  0.44790000  1.0 -0.1936820369
C  C95  1  0.80210000  0.42550000  0.38450000  1.0 -0.1936820369
C  C96  1  0.42550000  0.80210000  0.38790000  1.0 -0.1936820369
N  N1  1  0.18740000  0.59820000  0.47780000  1.0 -0.1575987391
N  N2  1  0.59820000  0.18740000  0.73660000  1.0 -0.1575987391
N  N3  1  0.51340000  0.77220000  0.65180000  1.0 -0.1575987391
N  N4  1  0.77220000  0.51340000  0.06260000  1.0 -0.1575987391
N  N5  1  0.57560000  0.74160000  0.66240000  1.0 -0.1536785919
N  N6  1  0.74160000  0.57560000  0.02040000  1.0 -0.1536785919
N  N7  1  0.22960000  0.58760000  0.50840000  1.0 -0.1536785919
N  N8  1  0.58760000  0.22960000  0.67440000  1.0 -0.1536785919
N  N9  1  0.73660000  0.47780000  0.59820000  1.0 -0.1575987391
N  N10  1  0.47780000  0.73660000  0.18740000  1.0 -0.1575987391
N  N11  1  0.06260000  0.65180000  0.77220000  1.0 -0.1575987391
N  N12  1  0.65180000  0.06260000  0.51340000  1.0 -0.1575987391
N  N13  1  0.02040000  0.66240000  0.74160000  1.0 -0.1536785919
N  N14  1  0.66240000  0.02040000  0.57560000  1.0 -0.1536785919
N  N15  1  0.67440000  0.50840000  0.58760000  1.0 -0.1536785919
N  N16  1  0.50840000  0.67440000  0.22960000  1.0 -0.1536785919
O  O1  1  0.29770000  0.19850000  0.84430000  1.0 -0.457927737
O  O2  1  0.19850000  0.29770000  0.65950000  1.0 -0.457927737
O  O3  1  0.59050000  0.40570000  0.05150000  1.0 -0.457927737
O  O4  1  0.40570000  0.59050000  0.95230000  1.0 -0.457927737
O  O5  1  0.42080000  0.10300000  0.66780000  1.0 -0.5242626886
O  O6  1  0.10300000  0.42080000  0.80840000  1.0 -0.5242626886
O  O7  1  0.44160000  0.58220000  0.14700000  1.0 -0.5242626886
O  O8  1  0.58220000  0.44160000  0.82920000  1.0 -0.5242626886
O  O9  1  0.25170000  0.42770000  0.60610000  1.0 -0.4848159771
O  O10  1  0.42770000  0.25170000  0.71450000  1.0 -0.4848159771
O  O11  1  0.53550000  0.64390000  0.82230000  1.0 -0.4848159771
O  O12  1  0.64390000  0.53550000  0.99830000  1.0 -0.4848159771
O  O13  1  0.40620000  0.24900000  0.51340000  1.0 -0.4983467568
O  O14  1  0.24900000  0.40620000  0.83140000  1.0 -0.4983467568
O  O15  1  0.41860000  0.73660000  0.00100000  1.0 -0.4983467568
O  O16  1  0.73660000  0.41860000  0.84380000  1.0 -0.4983467568
O  O17  1  0.65950000  0.84430000  0.19850000  1.0 -0.457927737
O  O18  1  0.84430000  0.65950000  0.29770000  1.0 -0.457927737
O  O19  1  0.95230000  0.05150000  0.40570000  1.0 -0.457927737
O  O20  1  0.05150000  0.95230000  0.59050000  1.0 -0.457927737
O  O21  1  0.80840000  0.66780000  0.10300000  1.0 -0.5242626886
O  O22  1  0.66780000  0.80840000  0.42080000  1.0 -0.5242626886
O  O23  1  0.82920000  0.14700000  0.58220000  1.0 -0.5242626886
O  O24  1  0.14700000  0.82920000  0.44160000  1.0 -0.5242626886
O  O25  1  0.71450000  0.60610000  0.42770000  1.0 -0.4848159771
O  O26  1  0.60610000  0.71450000  0.25170000  1.0 -0.4848159771
O  O27  1  0.99830000  0.82230000  0.64390000  1.0 -0.4848159771
O  O28  1  0.82230000  0.99830000  0.53550000  1.0 -0.4848159771
O  O29  1  0.83140000  0.51340000  0.24900000  1.0 -0.4983467568
O  O30  1  0.51340000  0.83140000  0.40620000  1.0 -0.4983467568
O  O31  1  0.84380000  0.00100000  0.73660000  1.0 -0.4983467568
O  O32  1  0.00100000  0.84380000  0.41860000  1.0 -0.4983467568
