# DDEC6 charges by PACMAN v1.1 (https://github.com/mtap-research/PACMAN-charge/)
data_LAPMEX_ASR_pacman
_symmetry_space_group_name_H-M   'P 1'
_cell_length_a   20.53250000
_cell_length_b   18.92910000
_cell_length_c   13.23560000
_cell_angle_alpha   77.09530000
_cell_angle_beta   63.97730000
_cell_angle_gamma   38.92740000
_symmetry_Int_Tables_number   1
_chemical_formula_structural   InH24C28(NO)8
_chemical_formula_sum   'In4 H96 C112 N32 O32'
_cell_volume   2840.46953540
_cell_formula_units_Z   4
loop_
 _symmetry_equiv_pos_site_id
 _symmetry_equiv_pos_as_xyz
  1  'x, y, z'
loop_
 _atom_site_type_symbol
 _atom_site_label
 _atom_site_symmetry_multiplicity
 _atom_site_fract_x
 _atom_site_fract_y
 _atom_site_fract_z
 _atom_site_occupancy
 _atom_site_charge
In  In1  1  0.79655000  0.79655000  0.20345000  1.0 1.2338339704
In  In2  1  0.04655000  0.04655000  0.45345000  1.0 1.2338339704
In  In3  1  0.20345000  0.20345000  0.79655000  1.0 1.2338339704
In  In4  1  0.45345000  0.45345000  0.04655000  1.0 1.2375970898
H  H1  1  0.07860000  0.67200000  0.21240000  1.0 0.1232700623
H  H2  1  0.67200000  0.07860000  0.03700000  1.0 0.1232700623
H  H3  1  0.21300000  0.03760000  0.57800000  1.0 0.1232700623
H  H4  1  0.03760000  0.21300000  0.17140000  1.0 0.1232700623
H  H5  1  0.15980000  0.66180000  0.21300000  1.0 0.1059740457
H  H6  1  0.66180000  0.15980000  0.96540000  1.0 0.1059740457
H  H7  1  0.28460000  0.03700000  0.58820000  1.0 0.1059740457
H  H8  1  0.03700000  0.28460000  0.09020000  1.0 0.1059740457
H  H9  1  0.10850000  0.80150000  0.28050000  1.0 0.1059740457
H  H10  1  0.80150000  0.10850000  0.80950000  1.0 0.1059740457
H  H11  1  0.44050000  0.96950000  0.44850000  1.0 0.1059740457
H  H12  1  0.96950000  0.44050000  0.14150000  1.0 0.1059740457
H  H13  1  0.77150000  0.11830000  0.42030000  1.0 0.0899555577
H  H14  1  0.11830000  0.77150000  0.68990000  1.0 0.0899555577
H  H15  1  0.56010000  0.82970000  0.13170000  1.0 0.0899555577
H  H16  1  0.82970000  0.56010000  0.47850000  1.0 0.0899555577
H  H17  1  0.16230000  0.68870000  0.13310000  1.0 0.1263894407
H  H18  1  0.68870000  0.16230000  0.01590000  1.0 0.1263894407
H  H19  1  0.23410000  0.11690000  0.56130000  1.0 0.1263894407
H  H20  1  0.11690000  0.23410000  0.08770000  1.0 0.1263894407
H  H21  1  0.08210000  0.69350000  0.14230000  1.0 0.1232700623
H  H22  1  0.69350000  0.08210000  0.08210000  1.0 0.1232700623
H  H23  1  0.16790000  0.10770000  0.55650000  1.0 0.1232700623
H  H24  1  0.10770000  0.16790000  0.16790000  1.0 0.1232700623
H  H25  1  0.10890000  0.82010000  0.22690000  1.0 0.0994992011
H  H26  1  0.82010000  0.10890000  0.84410000  1.0 0.0994992011
H  H27  1  0.40590000  0.02310000  0.42990000  1.0 0.0994992011
H  H28  1  0.02310000  0.40590000  0.14110000  1.0 0.0994992011
H  H29  1  0.78330000  0.08510000  0.47150000  1.0 0.0994992011
H  H30  1  0.08510000  0.78330000  0.66010000  1.0 0.0994992011
H  H31  1  0.58990000  0.77850000  0.16490000  1.0 0.0994992011
H  H32  1  0.77850000  0.58990000  0.46670000  1.0 0.0994992011
H  H33  1  0.65280000  0.11980000  0.50000000  1.0 0.1507370238
H  H34  1  0.11980000  0.65280000  0.72740000  1.0 0.1507370238
H  H35  1  0.52260000  0.75000000  0.13020000  1.0 0.1507370238
H  H36  1  0.75000000  0.52260000  0.59720000  1.0 0.1507370238
H  H37  1  0.66140000  0.04780000  0.44700000  1.0 0.1595215058
H  H38  1  0.04780000  0.66140000  0.84380000  1.0 0.1595215058
H  H39  1  0.40620000  0.80300000  0.20220000  1.0 0.1595215058
H  H40  1  0.80300000  0.40620000  0.58860000  1.0 0.1595215058
H  H41  1  0.63730000  0.14950000  0.44590000  1.0 0.1595215058
H  H42  1  0.14950000  0.63730000  0.76730000  1.0 0.1595215058
H  H43  1  0.48270000  0.80410000  0.10050000  1.0 0.1595215058
H  H44  1  0.80410000  0.48270000  0.61270000  1.0 0.1595215058
H  H45  1  0.65760000  0.06240000  0.40460000  1.0 0.1595215058
H  H46  1  0.06240000  0.65760000  0.87540000  1.0 0.1595215058
H  H47  1  0.37460000  0.84540000  0.18760000  1.0 0.1595215058
H  H48  1  0.84540000  0.37460000  0.59240000  1.0 0.1595215058
H  H49  1  0.03700000  0.21240000  0.67200000  1.0 0.1232700623
H  H50  1  0.21240000  0.03700000  0.07860000  1.0 0.1232700623
H  H51  1  0.17140000  0.57800000  0.03760000  1.0 0.1232700623
H  H52  1  0.57800000  0.17140000  0.21300000  1.0 0.1232700623
H  H53  1  0.96540000  0.21300000  0.66180000  1.0 0.1059740457
H  H54  1  0.21300000  0.96540000  0.15980000  1.0 0.1059740457
H  H55  1  0.09020000  0.58820000  0.03700000  1.0 0.1059740457
H  H56  1  0.58820000  0.09020000  0.28460000  1.0 0.1059740457
H  H57  1  0.80950000  0.28050000  0.80150000  1.0 0.1059740457
H  H58  1  0.28050000  0.80950000  0.10850000  1.0 0.1059740457
H  H59  1  0.14150000  0.44850000  0.96950000  1.0 0.1059740457
H  H60  1  0.44850000  0.14150000  0.44050000  1.0 0.1059740457
H  H61  1  0.68990000  0.42030000  0.11830000  1.0 0.0899555577
H  H62  1  0.42030000  0.68990000  0.77150000  1.0 0.0899555577
H  H63  1  0.47850000  0.13170000  0.82970000  1.0 0.0899555577
H  H64  1  0.13170000  0.47850000  0.56010000  1.0 0.0899555577
H  H65  1  0.01590000  0.13310000  0.68870000  1.0 0.1263894407
H  H66  1  0.13310000  0.01590000  0.16230000  1.0 0.1263894407
H  H67  1  0.08770000  0.56130000  0.11690000  1.0 0.1263894407
H  H68  1  0.56130000  0.08770000  0.23410000  1.0 0.1263894407
H  H69  1  0.08210000  0.14230000  0.69350000  1.0 0.1232700623
H  H70  1  0.14230000  0.08210000  0.08210000  1.0 0.1232700623
H  H71  1  0.16790000  0.55650000  0.10770000  1.0 0.1232700623
H  H72  1  0.55650000  0.16790000  0.16790000  1.0 0.1232700623
H  H73  1  0.84410000  0.22690000  0.82010000  1.0 0.0994992011
H  H74  1  0.22690000  0.84410000  0.10890000  1.0 0.0994992011
H  H75  1  0.14110000  0.42990000  0.02310000  1.0 0.0994992011
H  H76  1  0.42990000  0.14110000  0.40590000  1.0 0.0994992011
H  H77  1  0.66010000  0.47150000  0.08510000  1.0 0.0994992011
H  H78  1  0.47150000  0.66010000  0.78330000  1.0 0.0994992011
H  H79  1  0.46670000  0.16490000  0.77850000  1.0 0.0994992011
H  H80  1  0.16490000  0.46670000  0.58990000  1.0 0.0994992011
H  H81  1  0.72740000  0.50000000  0.11980000  1.0 0.1507370238
H  H82  1  0.50000000  0.72740000  0.65280000  1.0 0.1507370238
H  H83  1  0.59720000  0.13020000  0.75000000  1.0 0.1507370238
H  H84  1  0.13020000  0.59720000  0.52260000  1.0 0.1507370238
H  H85  1  0.84380000  0.44700000  0.04780000  1.0 0.1595215058
H  H86  1  0.44700000  0.84380000  0.66140000  1.0 0.1595215058
H  H87  1  0.58860000  0.20220000  0.80300000  1.0 0.1595215058
H  H88  1  0.20220000  0.58860000  0.40620000  1.0 0.1595215058
H  H89  1  0.76730000  0.44590000  0.14950000  1.0 0.1595215058
H  H90  1  0.44590000  0.76730000  0.63730000  1.0 0.1595215058
H  H91  1  0.61270000  0.10050000  0.80410000  1.0 0.1595215058
H  H92  1  0.10050000  0.61270000  0.48270000  1.0 0.1595215058
H  H93  1  0.87540000  0.40460000  0.06240000  1.0 0.1595215058
H  H94  1  0.40460000  0.87540000  0.65760000  1.0 0.1595215058
H  H95  1  0.59240000  0.18760000  0.84540000  1.0 0.1595215058
H  H96  1  0.18760000  0.59240000  0.37460000  1.0 0.1595215058
C  C1  1  0.85570000  0.84630000  0.28390000  1.0 0.4131887591
C  C2  1  0.84630000  0.85570000  0.01410000  1.0 0.4131887591
C  C3  1  0.23590000  0.96610000  0.40370000  1.0 0.4131887591
C  C4  1  0.96610000  0.23590000  0.39430000  1.0 0.4131887591
C  C5  1  0.98040000  0.00320000  0.37680000  1.0 0.4131887591
C  C6  1  0.00320000  0.98040000  0.63960000  1.0 0.4159302829
C  C7  1  0.61040000  0.87320000  0.24680000  1.0 0.4131887591
C  C8  1  0.87320000  0.61040000  0.26960000  1.0 0.4159302829
C  C9  1  0.88740000  0.88360000  0.31760000  1.0 -0.1930904581
C  C10  1  0.88360000  0.88740000  0.91140000  1.0 -0.1930904581
C  C11  1  0.33860000  0.93240000  0.36640000  1.0 -0.1930904581
C  C12  1  0.93240000  0.33860000  0.36260000  1.0 -0.1930904581
C  C13  1  0.00180000  0.81020000  0.28500000  1.0 0.1446119118
C  C14  1  0.81020000  0.00180000  0.90300000  1.0 0.1446119118
C  C15  1  0.34700000  0.96500000  0.43980000  1.0 0.1446119118
C  C16  1  0.96500000  0.34700000  0.24820000  1.0 0.1446119118
C  C17  1  0.03040000  0.85160000  0.30280000  1.0 -0.1100435438
C  C18  1  0.85160000  0.03040000  0.81520000  1.0 -0.1100435438
C  C19  1  0.43480000  0.94720000  0.39840000  1.0 -0.1100435438
C  C20  1  0.94720000  0.43480000  0.21960000  1.0 -0.1100435438
C  C21  1  0.94460000  0.96640000  0.35320000  1.0 -0.005144978
C  C22  1  0.96640000  0.94460000  0.73580000  1.0 -0.005144978
C  C23  1  0.51420000  0.89680000  0.28360000  1.0 -0.005144978
C  C24  1  0.89680000  0.51420000  0.30540000  1.0 -0.005144978
C  C25  1  0.83020000  0.03980000  0.38580000  1.0 -0.1044201398
C  C26  1  0.03980000  0.83020000  0.74420000  1.0 -0.1044201398
C  C27  1  0.50580000  0.86420000  0.21020000  1.0 -0.1044201398
C  C28  1  0.86420000  0.50580000  0.41980000  1.0 -0.1044201398
C  C29  1  0.80160000  0.99840000  0.36800000  1.0 0.1507370238
C  C30  1  0.99840000  0.80160000  0.83200000  1.0 0.1507370238
C  C31  1  0.41800000  0.88200000  0.25160000  1.0 0.1507370238
C  C32  1  0.88200000  0.41800000  0.44840000  1.0 0.1507370238
C  C33  1  0.89060000  0.88460000  0.30340000  1.0 -0.2155317354
C  C34  1  0.88460000  0.89060000  0.92140000  1.0 -0.2155317354
C  C35  1  0.32860000  0.94660000  0.36540000  1.0 -0.2155317354
C  C36  1  0.94660000  0.32860000  0.35940000  1.0 -0.2155317354
C  C37  1  0.00240000  0.82440000  0.24320000  1.0 0.1507370238
C  C38  1  0.82440000  0.00240000  0.93000000  1.0 0.1507370238
C  C39  1  0.32000000  0.00680000  0.42560000  1.0 0.1507370238
C  C40  1  0.00680000  0.32000000  0.24760000  1.0 0.1507370238
C  C41  1  0.03250000  0.86130000  0.26810000  1.0 -0.1100435438
C  C42  1  0.86130000  0.03250000  0.83810000  1.0 -0.1100435438
C  C43  1  0.41190000  0.98190000  0.38870000  1.0 -0.1100435438
C  C44  1  0.98190000  0.41190000  0.21750000  1.0 -0.1100435438
C  C45  1  0.95090000  0.95850000  0.35310000  1.0 -0.005144978
C  C46  1  0.95850000  0.95090000  0.73750000  1.0 -0.005144978
C  C47  1  0.51250000  0.89690000  0.29150000  1.0 -0.005144978
C  C48  1  0.89690000  0.51250000  0.29910000  1.0 -0.005144978
C  C49  1  0.83910000  0.01870000  0.41330000  1.0 -0.1100435438
C  C50  1  0.01870000  0.83910000  0.72890000  1.0 -0.1100435438
C  C51  1  0.52110000  0.83670000  0.23130000  1.0 -0.1100435438
C  C52  1  0.83670000  0.52110000  0.41090000  1.0 -0.1100435438
C  C53  1  0.80900000  0.98180000  0.38840000  1.0 0.1507370238
C  C54  1  0.98180000  0.80900000  0.82080000  1.0 0.1446119118
C  C55  1  0.42920000  0.86160000  0.26820000  1.0 0.1446119118
C  C56  1  0.86160000  0.42920000  0.44100000  1.0 0.1446119118
C  C57  1  0.01410000  0.28390000  0.84630000  1.0 0.4131887591
C  C58  1  0.28390000  0.01410000  0.85570000  1.0 0.4131887591
C  C59  1  0.39430000  0.40370000  0.96610000  1.0 0.4131887591
C  C60  1  0.40370000  0.39430000  0.23590000  1.0 0.4131887591
C  C61  1  0.63960000  0.37680000  0.00320000  1.0 0.4159302829
C  C62  1  0.37680000  0.63960000  0.98040000  1.0 0.4159302829
C  C63  1  0.26960000  0.24680000  0.87320000  1.0 0.4159302829
C  C64  1  0.24680000  0.26960000  0.61040000  1.0 0.4131887591
C  C65  1  0.91140000  0.31760000  0.88360000  1.0 -0.1930904581
C  C66  1  0.31760000  0.91140000  0.88740000  1.0 -0.1930904581
C  C67  1  0.36260000  0.36640000  0.93240000  1.0 -0.1930904581
C  C68  1  0.36640000  0.36260000  0.33860000  1.0 -0.1930904581
C  C69  1  0.90300000  0.28500000  0.81020000  1.0 0.1446119118
C  C70  1  0.28500000  0.90300000  0.00180000  1.0 0.1446119118
C  C71  1  0.24820000  0.43980000  0.96500000  1.0 0.1446119118
C  C72  1  0.43980000  0.24820000  0.34700000  1.0 0.1446119118
C  C73  1  0.81520000  0.30280000  0.85160000  1.0 -0.1100435438
C  C74  1  0.30280000  0.81520000  0.03040000  1.0 -0.1100435438
C  C75  1  0.21960000  0.39840000  0.94720000  1.0 -0.1100435438
C  C76  1  0.39840000  0.21960000  0.43480000  1.0 -0.1100435438
C  C77  1  0.73580000  0.35320000  0.96640000  1.0 -0.005144978
C  C78  1  0.35320000  0.73580000  0.94460000  1.0 -0.005144978
C  C79  1  0.30540000  0.28360000  0.89680000  1.0 -0.004144437
C  C80  1  0.28360000  0.30540000  0.51420000  1.0 -0.005144978
C  C81  1  0.74420000  0.38580000  0.03980000  1.0 -0.1044201398
C  C82  1  0.38580000  0.74420000  0.83020000  1.0 -0.1044201398
C  C83  1  0.41980000  0.21020000  0.86420000  1.0 -0.1044201398
C  C84  1  0.21020000  0.41980000  0.50580000  1.0 -0.1044201398
C  C85  1  0.83200000  0.36800000  0.99840000  1.0 0.1507370238
C  C86  1  0.36800000  0.83200000  0.80160000  1.0 0.1507370238
C  C87  1  0.44840000  0.25160000  0.88200000  1.0 0.1507370238
C  C88  1  0.25160000  0.44840000  0.41800000  1.0 0.1507370238
C  C89  1  0.92140000  0.30340000  0.88460000  1.0 -0.2155317354
C  C90  1  0.30340000  0.92140000  0.89060000  1.0 -0.2155317354
C  C91  1  0.35940000  0.36540000  0.94660000  1.0 -0.2155317354
C  C92  1  0.36540000  0.35940000  0.32860000  1.0 -0.2155317354
C  C93  1  0.93000000  0.24320000  0.82440000  1.0 0.1507370238
C  C94  1  0.24320000  0.93000000  0.00240000  1.0 0.1507370238
C  C95  1  0.24760000  0.42560000  0.00680000  1.0 0.1507370238
C  C96  1  0.42560000  0.24760000  0.32000000  1.0 0.1507370238
C  C97  1  0.83810000  0.26810000  0.86130000  1.0 -0.1100435438
C  C98  1  0.26810000  0.83810000  0.03250000  1.0 -0.1100435438
C  C99  1  0.21750000  0.38870000  0.98190000  1.0 -0.1100435438
C  C100  1  0.38870000  0.21750000  0.41190000  1.0 -0.1100435438
C  C101  1  0.73750000  0.35310000  0.95850000  1.0 -0.005144978
C  C102  1  0.35310000  0.73750000  0.95090000  1.0 -0.004144437
C  C103  1  0.29910000  0.29150000  0.89690000  1.0 -0.004144437
C  C104  1  0.29150000  0.29910000  0.51250000  1.0 -0.004144437
C  C105  1  0.72890000  0.41330000  0.01870000  1.0 -0.1100435438
C  C106  1  0.41330000  0.72890000  0.83910000  1.0 -0.1100435438
C  C107  1  0.41090000  0.23130000  0.83670000  1.0 -0.1100435438
C  C108  1  0.23130000  0.41090000  0.52110000  1.0 -0.1100435438
C  C109  1  0.82080000  0.38840000  0.98180000  1.0 0.1446119118
C  C110  1  0.38840000  0.82080000  0.80900000  1.0 0.1446119118
C  C111  1  0.44100000  0.26820000  0.86160000  1.0 0.1446119118
C  C112  1  0.26820000  0.44100000  0.42920000  1.0 0.1446119118
N  N1  1  0.08960000  0.70300000  0.23100000  1.0 -0.2155317354
N  N2  1  0.70300000  0.08960000  0.97640000  1.0 -0.2155317354
N  N3  1  0.27360000  0.01900000  0.54700000  1.0 -0.2155317354
N  N4  1  0.01900000  0.27360000  0.16040000  1.0 -0.2133280666
N  N5  1  0.09300000  0.72360000  0.16340000  1.0 -0.2133280666
N  N6  1  0.72360000  0.09300000  0.02000000  1.0 -0.2133280666
N  N7  1  0.23000000  0.08660000  0.52640000  1.0 -0.2155317354
N  N8  1  0.08660000  0.23000000  0.15700000  1.0 -0.2133280666
N  N9  1  0.69360000  0.05960000  0.45240000  1.0 -0.179473366
N  N10  1  0.05960000  0.69360000  0.79440000  1.0 -0.179473366
N  N11  1  0.45560000  0.79760000  0.19040000  1.0 -0.179473366
N  N12  1  0.79760000  0.45560000  0.55640000  1.0 -0.179473366
N  N13  1  0.68410000  0.07990000  0.41210000  1.0 -0.1965668457
N  N14  1  0.07990000  0.68410000  0.82390000  1.0 -0.1965668457
N  N15  1  0.42610000  0.83790000  0.17010000  1.0 -0.1930904581
N  N16  1  0.83790000  0.42610000  0.56590000  1.0 -0.1965668457
N  N17  1  0.97640000  0.23100000  0.70300000  1.0 -0.2133280666
N  N18  1  0.23100000  0.97640000  0.08960000  1.0 -0.2155317354
N  N19  1  0.16040000  0.54700000  0.01900000  1.0 -0.2133280666
N  N20  1  0.54700000  0.16040000  0.27360000  1.0 -0.2133280666
N  N21  1  0.02000000  0.16340000  0.72360000  1.0 -0.2155317354
N  N22  1  0.16340000  0.02000000  0.09300000  1.0 -0.2155317354
N  N23  1  0.15700000  0.52640000  0.08660000  1.0 -0.2155317354
N  N24  1  0.52640000  0.15700000  0.23000000  1.0 -0.2155317354
N  N25  1  0.79440000  0.45240000  0.05960000  1.0 -0.179473366
N  N26  1  0.45240000  0.79440000  0.69360000  1.0 -0.179473366
N  N27  1  0.55640000  0.19040000  0.79760000  1.0 -0.179473366
N  N28  1  0.19040000  0.55640000  0.45560000  1.0 -0.179473366
N  N29  1  0.82390000  0.41210000  0.07990000  1.0 -0.1930904581
N  N30  1  0.41210000  0.82390000  0.68410000  1.0 -0.1930904581
N  N31  1  0.56590000  0.17010000  0.83790000  1.0 -0.1965668457
N  N32  1  0.17010000  0.56590000  0.42610000  1.0 -0.1930904581
O  O1  1  0.92930000  0.75410000  0.21530000  1.0 -0.459694087
O  O2  1  0.75410000  0.92930000  0.10130000  1.0 -0.459694087
O  O3  1  0.14870000  0.03470000  0.49590000  1.0 -0.459694087
O  O4  1  0.03470000  0.14870000  0.32070000  1.0 -0.459694087
O  O5  1  0.75110000  0.90850000  0.32890000  1.0 -0.459694087
O  O6  1  0.90850000  0.75110000  0.01150000  1.0 -0.459694087
O  O7  1  0.23850000  0.92110000  0.34150000  1.0 -0.459694087
O  O8  1  0.92110000  0.23850000  0.49890000  1.0 -0.459694087
O  O9  1  0.08370000  0.94330000  0.32770000  1.0 -0.5050592603
O  O10  1  0.94330000  0.08370000  0.64530000  1.0 -0.504126388
O  O11  1  0.60470000  0.92230000  0.30670000  1.0 -0.504126388
O  O12  1  0.92230000  0.60470000  0.16630000  1.0 -0.5050592603
O  O13  1  0.90680000  0.09180000  0.45260000  1.0 -0.459694087
O  O14  1  0.09180000  0.90680000  0.54880000  1.0 -0.459694087
O  O15  1  0.70120000  0.79740000  0.15820000  1.0 -0.459694087
O  O16  1  0.79740000  0.70120000  0.34320000  1.0 -0.459694087
O  O17  1  0.10130000  0.21530000  0.75410000  1.0 -0.459694087
O  O18  1  0.21530000  0.10130000  0.92930000  1.0 -0.459694087
O  O19  1  0.32070000  0.49590000  0.03470000  1.0 -0.459694087
O  O20  1  0.49590000  0.32070000  0.14870000  1.0 -0.459694087
O  O21  1  0.01150000  0.32890000  0.90850000  1.0 -0.459694087
O  O22  1  0.32890000  0.01150000  0.75110000  1.0 -0.459694087
O  O23  1  0.49890000  0.34150000  0.92110000  1.0 -0.459694087
O  O24  1  0.34150000  0.49890000  0.23850000  1.0 -0.459694087
O  O25  1  0.64530000  0.32770000  0.94330000  1.0 -0.5050592603
O  O26  1  0.32770000  0.64530000  0.08370000  1.0 -0.504126388
O  O27  1  0.16630000  0.30670000  0.92230000  1.0 -0.5050592603
O  O28  1  0.30670000  0.16630000  0.60470000  1.0 -0.504126388
O  O29  1  0.54880000  0.45260000  0.09180000  1.0 -0.459694087
O  O30  1  0.45260000  0.54880000  0.90680000  1.0 -0.459694087
O  O31  1  0.34320000  0.15820000  0.79740000  1.0 -0.459694087
O  O32  1  0.15820000  0.34320000  0.70120000  1.0 -0.459694087
