# DDEC6 charges by PACMAN v1.1 (https://github.com/mtap-research/PACMAN-charge/)
data_LAPNEY_ASR_pacman
_symmetry_space_group_name_H-M   'P 1'
_cell_length_a   20.57480000
_cell_length_b   18.80080000
_cell_length_c   13.59180000
_cell_angle_alpha   77.00960000
_cell_angle_beta   62.92250000
_cell_angle_gamma   40.06790000
_symmetry_Int_Tables_number   1
_chemical_formula_structural   InH20C24(NO2)4
_chemical_formula_sum   'In4 H80 C96 N16 O32'
_cell_volume   2942.48973017
_cell_formula_units_Z   4
loop_
 _symmetry_equiv_pos_site_id
 _symmetry_equiv_pos_as_xyz
  1  'x, y, z'
loop_
 _atom_site_type_symbol
 _atom_site_label
 _atom_site_symmetry_multiplicity
 _atom_site_fract_x
 _atom_site_fract_y
 _atom_site_fract_z
 _atom_site_occupancy
 _atom_site_charge
In  In1  1  0.79724000  0.79724000  0.20276000  1.0 1.2716130472
In  In2  1  0.04724000  0.04724000  0.45276000  1.0 1.2716130472
In  In3  1  0.20276000  0.20276000  0.79724000  1.0 1.2716130472
In  In4  1  0.45276000  0.45276000  0.04724000  1.0 1.2716130472
H  H1  1  0.97790000  0.43350000  0.13910000  1.0 0.1017056524
H  H2  1  0.43350000  0.97790000  0.44950000  1.0 0.1017056524
H  H3  1  0.80050000  0.11090000  0.81650000  1.0 0.1017056524
H  H4  1  0.11090000  0.80050000  0.27210000  1.0 0.1017056524
H  H5  1  0.80870000  0.57350000  0.46970000  1.0 0.1388114808
H  H6  1  0.57350000  0.80870000  0.14810000  1.0 0.1388114808
H  H7  1  0.10190000  0.78030000  0.67650000  1.0 0.1388114808
H  H8  1  0.78030000  0.10190000  0.44130000  1.0 0.1388114808
H  H9  1  0.84980000  0.41980000  0.51740000  1.0 0.1388114808
H  H10  1  0.41980000  0.84980000  0.21300000  1.0 0.1388114808
H  H11  1  0.03700000  0.73260000  0.83020000  1.0 0.1388114808
H  H12  1  0.73260000  0.03700000  0.40020000  1.0 0.1388114808
H  H13  1  0.03590000  0.21210000  0.16790000  1.0 0.1108170205
H  H14  1  0.21210000  0.03590000  0.58410000  1.0 0.1108170205
H  H15  1  0.66590000  0.08210000  0.03790000  1.0 0.1108170205
H  H16  1  0.08210000  0.66590000  0.21410000  1.0 0.1108170205
H  H17  1  0.03790000  0.27970000  0.08790000  1.0 0.1203517628
H  H18  1  0.27970000  0.03790000  0.59450000  1.0 0.1203517628
H  H19  1  0.65550000  0.16210000  0.97030000  1.0 0.1203517628
H  H20  1  0.16210000  0.65550000  0.21210000  1.0 0.1203517628
H  H21  1  0.09510000  0.77930000  0.67090000  1.0 0.1388114808
H  H22  1  0.77930000  0.09510000  0.45470000  1.0 0.1388114808
H  H23  1  0.79530000  0.57910000  0.47070000  1.0 0.1388114808
H  H24  1  0.57910000  0.79530000  0.15490000  1.0 0.1388114808
H  H25  1  0.02860000  0.73420000  0.81960000  1.0 0.1388114808
H  H26  1  0.73420000  0.02860000  0.41760000  1.0 0.1388114808
H  H27  1  0.83240000  0.43040000  0.51580000  1.0 0.1388114808
H  H28  1  0.43040000  0.83240000  0.22140000  1.0 0.1388114808
H  H29  1  0.69580000  0.15920000  0.01160000  1.0 0.1203517628
H  H30  1  0.15920000  0.69580000  0.13340000  1.0 0.1203517628
H  H31  1  0.11660000  0.23840000  0.09080000  1.0 0.1203517628
H  H32  1  0.23840000  0.11660000  0.55420000  1.0 0.1203517628
H  H33  1  0.69690000  0.08330000  0.07630000  1.0 0.1108170205
H  H34  1  0.08330000  0.69690000  0.14350000  1.0 0.1108170205
H  H35  1  0.10650000  0.17370000  0.16670000  1.0 0.1108170205
H  H36  1  0.17370000  0.10650000  0.55310000  1.0 0.1108170205
H  H37  1  0.83050000  0.09970000  0.83370000  1.0 0.1108170205
H  H38  1  0.09970000  0.83050000  0.23610000  1.0 0.1108170205
H  H39  1  0.01390000  0.41630000  0.15030000  1.0 0.1108170205
H  H40  1  0.41630000  0.01390000  0.41950000  1.0 0.1108170205
H  H41  1  0.44950000  0.13910000  0.43350000  1.0 0.1017056524
H  H42  1  0.13910000  0.44950000  0.97790000  1.0 0.1017056524
H  H43  1  0.27210000  0.81650000  0.11090000  1.0 0.1017056524
H  H44  1  0.81650000  0.27210000  0.80050000  1.0 0.1017056524
H  H45  1  0.14810000  0.46970000  0.57350000  1.0 0.1388114808
H  H46  1  0.46970000  0.14810000  0.80870000  1.0 0.1388114808
H  H47  1  0.44130000  0.67650000  0.78030000  1.0 0.1388114808
H  H48  1  0.67650000  0.44130000  0.10190000  1.0 0.1388114808
H  H49  1  0.21300000  0.51740000  0.41980000  1.0 0.1388114808
H  H50  1  0.51740000  0.21300000  0.84980000  1.0 0.1388114808
H  H51  1  0.40020000  0.83020000  0.73260000  1.0 0.1388114808
H  H52  1  0.83020000  0.40020000  0.03700000  1.0 0.1388114808
H  H53  1  0.58410000  0.16790000  0.21210000  1.0 0.1108170205
H  H54  1  0.16790000  0.58410000  0.03590000  1.0 0.1108170205
H  H55  1  0.21410000  0.03790000  0.08210000  1.0 0.1108170205
H  H56  1  0.03790000  0.21410000  0.66590000  1.0 0.1108170205
H  H57  1  0.59450000  0.08790000  0.27970000  1.0 0.1203517628
H  H58  1  0.08790000  0.59450000  0.03790000  1.0 0.1203517628
H  H59  1  0.21210000  0.97030000  0.16210000  1.0 0.1203517628
H  H60  1  0.97030000  0.21210000  0.65550000  1.0 0.1203517628
H  H61  1  0.45470000  0.67090000  0.77930000  1.0 0.1388114808
H  H62  1  0.67090000  0.45470000  0.09510000  1.0 0.1388114808
H  H63  1  0.15490000  0.47070000  0.57910000  1.0 0.1388114808
H  H64  1  0.47070000  0.15490000  0.79530000  1.0 0.1388114808
H  H65  1  0.41760000  0.81960000  0.73420000  1.0 0.1388114808
H  H66  1  0.81960000  0.41760000  0.02860000  1.0 0.1388114808
H  H67  1  0.22140000  0.51580000  0.43040000  1.0 0.1388114808
H  H68  1  0.51580000  0.22140000  0.83240000  1.0 0.1388114808
H  H69  1  0.13340000  0.01160000  0.15920000  1.0 0.1203517628
H  H70  1  0.01160000  0.13340000  0.69580000  1.0 0.1203517628
H  H71  1  0.55420000  0.09080000  0.23840000  1.0 0.1203517628
H  H72  1  0.09080000  0.55420000  0.11660000  1.0 0.1203517628
H  H73  1  0.14350000  0.07630000  0.08330000  1.0 0.1108170205
H  H74  1  0.07630000  0.14350000  0.69690000  1.0 0.1108170205
H  H75  1  0.55310000  0.16670000  0.17370000  1.0 0.1108170205
H  H76  1  0.16670000  0.55310000  0.10650000  1.0 0.1108170205
H  H77  1  0.23610000  0.83370000  0.09970000  1.0 0.1108170205
H  H78  1  0.83370000  0.23610000  0.83050000  1.0 0.1108170205
H  H79  1  0.41950000  0.15030000  0.41630000  1.0 0.1108170205
H  H80  1  0.15030000  0.41950000  0.01390000  1.0 0.1108170205
C  C1  1  0.86900000  0.61460000  0.26980000  1.0 0.4108830895
C  C2  1  0.61460000  0.86900000  0.24660000  1.0 0.4108830895
C  C3  1  0.00340000  0.98020000  0.63540000  1.0 0.4108830895
C  C4  1  0.98020000  0.00340000  0.38100000  1.0 0.4108830895
C  C5  1  0.89170000  0.51570000  0.29290000  1.0 -0.0233411652
C  C6  1  0.51570000  0.89170000  0.29970000  1.0 -0.0254652075
C  C7  1  0.95030000  0.95710000  0.73430000  1.0 -0.0254652075
C  C8  1  0.95710000  0.95030000  0.35830000  1.0 -0.0233411652
C  C9  1  0.94860000  0.43340000  0.21500000  1.0 -0.0855402652
C  C10  1  0.43340000  0.94860000  0.40300000  1.0 -0.0855402652
C  C11  1  0.84700000  0.03500000  0.81660000  1.0 -0.0855402652
C  C12  1  0.03500000  0.84700000  0.30140000  1.0 -0.0855402652
C  C13  1  0.84960000  0.51500000  0.41420000  1.0 -0.1662752668
C  C14  1  0.51500000  0.84960000  0.22120000  1.0 -0.1662752668
C  C15  1  0.02880000  0.83580000  0.73500000  1.0 -0.1662752668
C  C16  1  0.83580000  0.02880000  0.40040000  1.0 -0.1662752668
C  C17  1  0.96540000  0.34640000  0.24420000  1.0 0.125351817
C  C18  1  0.34640000  0.96540000  0.44400000  1.0 0.1203517628
C  C19  1  0.80600000  0.00580000  0.90360000  1.0 0.1203517628
C  C20  1  0.00580000  0.80600000  0.28460000  1.0 0.1203517628
C  C21  1  0.87310000  0.42450000  0.44190000  1.0 -0.1600043876
C  C22  1  0.42450000  0.87310000  0.26050000  1.0 -0.1600043876
C  C23  1  0.98950000  0.80810000  0.82550000  1.0 -0.1600043876
C  C24  1  0.80810000  0.98950000  0.37690000  1.0 -0.1600043876
C  C25  1  0.93220000  0.33940000  0.35660000  1.0 -0.0618523446
C  C26  1  0.33940000  0.93220000  0.37180000  1.0 -0.0618523446
C  C27  1  0.87820000  0.89340000  0.91060000  1.0 -0.0618523446
C  C28  1  0.89340000  0.87820000  0.31780000  1.0 -0.0618523446
C  C29  1  0.96730000  0.23590000  0.39330000  1.0 0.4163954115
C  C30  1  0.23590000  0.96730000  0.40350000  1.0 0.4108830895
C  C31  1  0.84650000  0.85670000  0.01410000  1.0 0.4108830895
C  C32  1  0.85670000  0.84650000  0.28270000  1.0 0.4163954115
C  C33  1  0.97640000  0.93880000  0.73560000  1.0 0.0246932047
C  C34  1  0.93880000  0.97640000  0.34920000  1.0 0.0262953268
C  C35  1  0.90080000  0.51440000  0.31120000  1.0 0.0246932047
C  C36  1  0.51440000  0.90080000  0.27360000  1.0 0.0246932047
C  C37  1  0.82890000  0.00110000  0.92550000  1.0 0.1017056524
C  C38  1  0.00110000  0.82890000  0.24450000  1.0 0.1017056524
C  C39  1  0.00550000  0.32450000  0.24890000  1.0 0.1017056524
C  C40  1  0.32450000  0.00550000  0.42110000  1.0 0.1017056524
C  C41  1  0.87130000  0.02530000  0.83290000  1.0 -0.0855402652
C  C42  1  0.02530000  0.87130000  0.27050000  1.0 -0.0855402652
C  C43  1  0.97950000  0.41710000  0.22470000  1.0 -0.0855402652
C  C44  1  0.41710000  0.97950000  0.37870000  1.0 -0.0855402652
C  C45  1  0.89280000  0.88720000  0.92620000  1.0 -0.0543696343
C  C46  1  0.88720000  0.89280000  0.29380000  1.0 -0.0543696343
C  C47  1  0.95620000  0.32380000  0.36280000  1.0 -0.0543696343
C  C48  1  0.32380000  0.95620000  0.35720000  1.0 -0.0543696343
C  C49  1  0.24660000  0.26980000  0.61460000  1.0 0.4108830895
C  C50  1  0.26980000  0.24660000  0.86900000  1.0 0.4108830895
C  C51  1  0.38100000  0.63540000  0.98020000  1.0 0.4108830895
C  C52  1  0.63540000  0.38100000  0.00340000  1.0 0.4108830895
C  C53  1  0.29970000  0.29290000  0.51570000  1.0 -0.0233411652
C  C54  1  0.29290000  0.29970000  0.89170000  1.0 -0.0233411652
C  C55  1  0.35830000  0.73430000  0.95710000  1.0 -0.0233411652
C  C56  1  0.73430000  0.35830000  0.95030000  1.0 -0.0233411652
C  C57  1  0.40300000  0.21500000  0.43340000  1.0 -0.0855402652
C  C58  1  0.21500000  0.40300000  0.94860000  1.0 -0.0855402652
C  C59  1  0.30140000  0.81660000  0.03500000  1.0 -0.0855402652
C  C60  1  0.81660000  0.30140000  0.84700000  1.0 -0.0855402652
C  C61  1  0.22120000  0.41420000  0.51500000  1.0 -0.1662752668
C  C62  1  0.41420000  0.22120000  0.84960000  1.0 -0.1662752668
C  C63  1  0.40040000  0.73500000  0.83580000  1.0 -0.1662752668
C  C64  1  0.73500000  0.40040000  0.02880000  1.0 -0.1662752668
C  C65  1  0.44400000  0.24420000  0.34640000  1.0 0.1203517628
C  C66  1  0.24420000  0.44400000  0.96540000  1.0 0.1203517628
C  C67  1  0.28460000  0.90360000  0.00580000  1.0 0.1203517628
C  C68  1  0.90360000  0.28460000  0.80600000  1.0 0.1203517628
C  C69  1  0.26050000  0.44190000  0.42450000  1.0 -0.1600043876
C  C70  1  0.44190000  0.26050000  0.87310000  1.0 -0.1600043876
C  C71  1  0.37690000  0.82550000  0.80810000  1.0 -0.1600043876
C  C72  1  0.82550000  0.37690000  0.98950000  1.0 -0.1600043876
C  C73  1  0.37180000  0.35660000  0.33940000  1.0 -0.0618523446
C  C74  1  0.35660000  0.37180000  0.93220000  1.0 -0.0618523446
C  C75  1  0.31780000  0.91060000  0.89340000  1.0 -0.0618523446
C  C76  1  0.91060000  0.31780000  0.87820000  1.0 -0.0618523446
C  C77  1  0.40350000  0.39330000  0.23590000  1.0 0.4163954115
C  C78  1  0.39330000  0.40350000  0.96730000  1.0 0.4108830895
C  C79  1  0.28270000  0.01410000  0.85670000  1.0 0.4108830895
C  C80  1  0.01410000  0.28270000  0.84650000  1.0 0.4163954115
C  C81  1  0.34920000  0.73560000  0.93880000  1.0 0.0262953268
C  C82  1  0.73560000  0.34920000  0.97640000  1.0 0.0262953268
C  C83  1  0.27360000  0.31120000  0.51440000  1.0 0.0262953268
C  C84  1  0.31120000  0.27360000  0.90080000  1.0 0.0262953268
C  C85  1  0.24450000  0.92550000  0.00110000  1.0 0.1017056524
C  C86  1  0.92550000  0.24450000  0.82890000  1.0 0.1017056524
C  C87  1  0.42110000  0.24890000  0.32450000  1.0 0.1017056524
C  C88  1  0.24890000  0.42110000  0.00550000  1.0 0.1017056524
C  C89  1  0.27050000  0.83290000  0.02530000  1.0 -0.0855402652
C  C90  1  0.83290000  0.27050000  0.87130000  1.0 -0.0855402652
C  C91  1  0.37870000  0.22470000  0.41710000  1.0 -0.0855402652
C  C92  1  0.22470000  0.37870000  0.97950000  1.0 -0.0855402652
C  C93  1  0.29380000  0.92620000  0.88720000  1.0 -0.0543696343
C  C94  1  0.92620000  0.29380000  0.89280000  1.0 -0.0543696343
C  C95  1  0.35720000  0.36280000  0.32380000  1.0 -0.0543696343
C  C96  1  0.36280000  0.35720000  0.95620000  1.0 -0.0543696343
N  N1  1  0.01980000  0.27000000  0.15580000  1.0 -0.1600043876
N  N2  1  0.27000000  0.01980000  0.55440000  1.0 -0.1662752668
N  N3  1  0.69560000  0.09420000  0.98000000  1.0 -0.1662752668
N  N4  1  0.09420000  0.69560000  0.23020000  1.0 -0.1600043876
N  N5  1  0.72760000  0.09300000  0.01600000  1.0 -0.1820606136
N  N6  1  0.09300000  0.72760000  0.16340000  1.0 -0.1858211111
N  N7  1  0.08660000  0.23400000  0.15700000  1.0 -0.1858211111
N  N8  1  0.23400000  0.08660000  0.52240000  1.0 -0.1858211111
N  N9  1  0.55440000  0.15580000  0.27000000  1.0 -0.1662752668
N  N10  1  0.15580000  0.55440000  0.01980000  1.0 -0.1600043876
N  N11  1  0.23020000  0.98000000  0.09420000  1.0 -0.1662752668
N  N12  1  0.98000000  0.23020000  0.69560000  1.0 -0.1662752668
N  N13  1  0.16340000  0.01600000  0.09300000  1.0 -0.1858211111
N  N14  1  0.01600000  0.16340000  0.72760000  1.0 -0.1858211111
N  N15  1  0.52240000  0.15700000  0.23400000  1.0 -0.1858211111
N  N16  1  0.15700000  0.52240000  0.08660000  1.0 -0.1858211111
O  O1  1  0.75766000  0.92826000  0.10314000  1.0 -0.500220395
O  O2  1  0.92826000  0.75766000  0.21094000  1.0 -0.500220395
O  O3  1  0.03906000  0.14686000  0.32174000  1.0 -0.500220395
O  O4  1  0.14686000  0.03906000  0.49234000  1.0 -0.500220395
O  O5  1  0.90761000  0.75381000  0.01139000  1.0 -0.4683232786
O  O6  1  0.75381000  0.90761000  0.32719000  1.0 -0.4683232786
O  O7  1  0.92281000  0.23861000  0.49619000  1.0 -0.4683232786
O  O8  1  0.23861000  0.92281000  0.34239000  1.0 -0.4683232786
O  O9  1  0.79600000  0.70260000  0.34200000  1.0 -0.4475399026
O  O10  1  0.70260000  0.79600000  0.15940000  1.0 -0.4475399026
O  O11  1  0.09060000  0.90800000  0.54740000  1.0 -0.4475399026
O  O12  1  0.90800000  0.09060000  0.45400000  1.0 -0.4475399026
O  O13  1  0.91913000  0.60893000  0.16667000  1.0 -0.5359993273
O  O14  1  0.60893000  0.91913000  0.30527000  1.0 -0.5359993273
O  O15  1  0.94473000  0.08333000  0.64107000  1.0 -0.5359993273
O  O16  1  0.08333000  0.94473000  0.33087000  1.0 -0.5359993273
O  O17  1  0.21094000  0.10314000  0.92826000  1.0 -0.500220395
O  O18  1  0.10314000  0.21094000  0.75766000  1.0 -0.500220395
O  O19  1  0.49234000  0.32174000  0.14686000  1.0 -0.500220395
O  O20  1  0.32174000  0.49234000  0.03906000  1.0 -0.500220395
O  O21  1  0.32719000  0.01139000  0.75381000  1.0 -0.4683232786
O  O22  1  0.01139000  0.32719000  0.90761000  1.0 -0.4683232786
O  O23  1  0.34239000  0.49619000  0.23861000  1.0 -0.4683232786
O  O24  1  0.49619000  0.34239000  0.92281000  1.0 -0.4683232786
O  O25  1  0.15940000  0.34200000  0.70260000  1.0 -0.4475399026
O  O26  1  0.34200000  0.15940000  0.79600000  1.0 -0.4475399026
O  O27  1  0.45400000  0.54740000  0.90800000  1.0 -0.4475399026
O  O28  1  0.54740000  0.45400000  0.09060000  1.0 -0.4475399026
O  O29  1  0.30527000  0.16667000  0.60893000  1.0 -0.5359993273
O  O30  1  0.16667000  0.30527000  0.91913000  1.0 -0.5359993273
O  O31  1  0.33087000  0.64107000  0.08333000  1.0 -0.5359993273
O  O32  1  0.64107000  0.33087000  0.94473000  1.0 -0.5359993273
