# DDEC6 charges by PACMAN v1.1 (https://github.com/mtap-research/PACMAN-charge/)
data_LAPNIC_ion_pacman
_symmetry_space_group_name_H-M   'P 1'
_cell_length_a   20.63620000
_cell_length_b   17.16890000
_cell_length_c   15.81700000
_cell_angle_alpha   77.33300000
_cell_angle_beta   54.26550000
_cell_angle_gamma   48.40140000
_symmetry_Int_Tables_number   1
_chemical_formula_structural   InH28C26N5O8
_chemical_formula_sum   'In4 H112 C104 N20 O32'
_cell_volume   3268.13737233
_cell_formula_units_Z   4
loop_
 _symmetry_equiv_pos_site_id
 _symmetry_equiv_pos_as_xyz
  1  'x, y, z'
loop_
 _atom_site_type_symbol
 _atom_site_label
 _atom_site_symmetry_multiplicity
 _atom_site_fract_x
 _atom_site_fract_y
 _atom_site_fract_z
 _atom_site_occupancy
 _atom_site_charge
In  In1  1  0.80082000  0.80082000  0.19918000  1.0 1.2015121447
In  In2  1  0.05082000  0.05082000  0.44918000  1.0 1.2015121447
In  In3  1  0.19918000  0.19918000  0.80082000  1.0 1.2015121447
In  In4  1  0.44918000  0.44918000  0.05082000  1.0 1.2015121447
H  H1  1  0.42370000  0.98470000  0.45090000  1.0 0.0922824432
H  H2  1  0.98470000  0.42370000  0.14070000  1.0 0.0922824432
H  H3  1  0.10930000  0.79910000  0.26530000  1.0 0.0922824432
H  H4  1  0.79910000  0.10930000  0.82630000  1.0 0.0922824432
H  H5  1  0.42020000  0.86860000  0.21600000  1.0 0.1023197806
H  H6  1  0.86860000  0.42020000  0.49520000  1.0 0.1023197806
H  H7  1  0.75480000  0.03400000  0.38140000  1.0 0.1023197806
H  H8  1  0.03400000  0.75480000  0.82980000  1.0 0.1023197806
H  H9  1  0.57920000  0.81620000  0.15960000  1.0 0.1089789966
H  H10  1  0.81620000  0.57920000  0.44500000  1.0 0.1089789966
H  H11  1  0.80500000  0.09040000  0.43380000  1.0 0.1089789966
H  H12  1  0.09040000  0.80500000  0.67080000  1.0 0.1089789966
H  H13  1  0.23370000  0.08410000  0.58770000  1.0 0.1165429878
H  H14  1  0.08410000  0.23370000  0.09450000  1.0 0.1165429878
H  H15  1  0.15550000  0.66230000  0.16590000  1.0 0.1165429878
H  H16  1  0.66230000  0.15550000  0.01630000  1.0 0.1165429878
H  H17  1  0.17130000  0.08330000  0.56890000  1.0 0.1414347681
H  H18  1  0.08330000  0.17130000  0.17650000  1.0 0.1414347681
H  H19  1  0.07350000  0.68110000  0.16670000  1.0 0.1414347681
H  H20  1  0.68110000  0.07350000  0.07870000  1.0 0.1414347681
H  H21  1  0.22680000  0.14140000  0.54200000  1.0 0.1023197806
H  H22  1  0.14140000  0.22680000  0.08980000  1.0 0.1023197806
H  H23  1  0.16020000  0.70800000  0.10860000  1.0 0.1023197806
H  H24  1  0.70800000  0.16020000  0.02320000  1.0 0.1023197806
H  H25  1  0.16530000  0.12690000  0.53710000  1.0 0.1470852697
H  H26  1  0.12690000  0.16530000  0.17070000  1.0 0.1470852697
H  H27  1  0.07930000  0.71290000  0.12310000  1.0 0.1470852697
H  H28  1  0.71290000  0.07930000  0.08470000  1.0 0.1470852697
H  H29  1  0.41610000  0.03010000  0.41130000  1.0 0.0922824432
H  H30  1  0.03010000  0.41610000  0.14250000  1.0 0.0922824432
H  H31  1  0.10750000  0.83870000  0.21990000  1.0 0.0922824432
H  H32  1  0.83870000  0.10750000  0.83390000  1.0 0.0922824432
H  H33  1  0.43020000  0.82640000  0.24700000  1.0 0.1089789966
H  H34  1  0.82640000  0.43020000  0.49640000  1.0 0.1089789966
H  H35  1  0.75360000  0.00300000  0.42360000  1.0 0.1089789966
H  H36  1  0.00300000  0.75360000  0.81980000  1.0 0.1089789966
H  H37  1  0.59060000  0.77260000  0.18500000  1.0 0.1023197806
H  H38  1  0.77260000  0.59060000  0.45180000  1.0 0.1023197806
H  H39  1  0.79820000  0.06500000  0.47740000  1.0 0.1023197806
H  H40  1  0.06500000  0.79820000  0.65940000  1.0 0.1023197806
H  H41  1  0.14070000  0.45090000  0.98470000  1.0 0.0922824432
H  H42  1  0.45090000  0.14070000  0.42370000  1.0 0.0922824432
H  H43  1  0.82630000  0.26530000  0.79910000  1.0 0.0922824432
H  H44  1  0.26530000  0.82630000  0.10930000  1.0 0.0922824432
H  H45  1  0.49520000  0.21600000  0.86860000  1.0 0.1023197806
H  H46  1  0.21600000  0.49520000  0.42020000  1.0 0.1023197806
H  H47  1  0.82980000  0.38140000  0.03400000  1.0 0.1023197806
H  H48  1  0.38140000  0.82980000  0.75480000  1.0 0.1023197806
H  H49  1  0.44500000  0.15960000  0.81620000  1.0 0.1089789966
H  H50  1  0.15960000  0.44500000  0.57920000  1.0 0.1089789966
H  H51  1  0.67080000  0.43380000  0.09040000  1.0 0.1089789966
H  H52  1  0.43380000  0.67080000  0.80500000  1.0 0.1089789966
H  H53  1  0.09450000  0.58770000  0.08410000  1.0 0.1165429878
H  H54  1  0.58770000  0.09450000  0.23370000  1.0 0.1165429878
H  H55  1  0.01630000  0.16590000  0.66230000  1.0 0.1165429878
H  H56  1  0.16590000  0.01630000  0.15550000  1.0 0.1165429878
H  H57  1  0.17650000  0.56890000  0.08330000  1.0 0.1414347681
H  H58  1  0.56890000  0.17650000  0.17130000  1.0 0.1414347681
H  H59  1  0.07870000  0.16670000  0.68110000  1.0 0.1414347681
H  H60  1  0.16670000  0.07870000  0.07350000  1.0 0.1414347681
H  H61  1  0.08980000  0.54200000  0.14140000  1.0 0.1023197806
H  H62  1  0.54200000  0.08980000  0.22680000  1.0 0.1023197806
H  H63  1  0.02320000  0.10860000  0.70800000  1.0 0.1023197806
H  H64  1  0.10860000  0.02320000  0.16020000  1.0 0.1023197806
H  H65  1  0.17070000  0.53710000  0.12690000  1.0 0.1470852697
H  H66  1  0.53710000  0.17070000  0.16530000  1.0 0.1470852697
H  H67  1  0.08470000  0.12310000  0.71290000  1.0 0.1470852697
H  H68  1  0.12310000  0.08470000  0.07930000  1.0 0.1470852697
H  H69  1  0.14250000  0.41130000  0.03010000  1.0 0.0922824432
H  H70  1  0.41130000  0.14250000  0.41610000  1.0 0.0922824432
H  H71  1  0.83390000  0.21990000  0.83870000  1.0 0.0922824432
H  H72  1  0.21990000  0.83390000  0.10750000  1.0 0.0922824432
H  H73  1  0.49640000  0.24700000  0.82640000  1.0 0.1089789966
H  H74  1  0.24700000  0.49640000  0.43020000  1.0 0.1089789966
H  H75  1  0.81980000  0.42360000  0.00300000  1.0 0.1089789966
H  H76  1  0.42360000  0.81980000  0.75360000  1.0 0.1089789966
H  H77  1  0.45180000  0.18500000  0.77260000  1.0 0.1023197806
H  H78  1  0.18500000  0.45180000  0.59060000  1.0 0.1023197806
H  H79  1  0.65940000  0.47740000  0.06500000  1.0 0.1023197806
H  H80  1  0.47740000  0.65940000  0.79820000  1.0 0.1023197806
H  H81  1  0.24440000  0.77560000  0.30660000  1.0 0.2228053546
H  H82  1  0.30660000  0.67340000  0.24440000  1.0 0.2228053546
H  H83  1  0.40190000  0.71530000  0.17190000  1.0 0.1023197806
H  H84  1  0.17190000  0.71090000  0.40190000  1.0 0.1023197806
H  H85  1  0.45560000  0.61180000  0.21040000  1.0 0.1089789966
H  H86  1  0.21040000  0.72220000  0.45560000  1.0 0.1089789966
H  H87  1  0.38650000  0.72550000  0.27950000  1.0 0.1023197806
H  H88  1  0.27950000  0.60850000  0.38650000  1.0 0.1023197806
H  H89  1  0.77560000  0.24440000  0.67340000  1.0 0.2228053546
H  H90  1  0.67340000  0.30660000  0.77560000  1.0 0.2228053546
H  H91  1  0.71530000  0.40190000  0.71090000  1.0 0.1023197806
H  H92  1  0.71090000  0.17190000  0.71530000  1.0 0.1023197806
H  H93  1  0.61180000  0.45560000  0.72220000  1.0 0.1089789966
H  H94  1  0.72220000  0.21040000  0.61180000  1.0 0.1089789966
H  H95  1  0.72550000  0.38650000  0.60850000  1.0 0.1023197806
H  H96  1  0.60850000  0.27950000  0.72550000  1.0 0.1023197806
H  H97  1  0.00560000  0.47440000  0.94340000  1.0 0.2228053546
H  H98  1  0.94340000  0.57660000  0.00560000  1.0 0.2228053546
H  H99  1  0.84810000  0.53470000  0.07810000  1.0 0.1023197806
H  H100  1  0.07810000  0.53910000  0.84810000  1.0 0.1023197806
H  H101  1  0.79440000  0.63820000  0.03960000  1.0 0.1089789966
H  H102  1  0.03960000  0.52780000  0.79440000  1.0 0.1089789966
H  H103  1  0.86350000  0.52450000  0.97050000  1.0 0.1023197806
H  H104  1  0.97050000  0.64150000  0.86350000  1.0 0.1023197806
H  H105  1  0.47440000  0.00560000  0.57660000  1.0 0.2228053546
H  H106  1  0.57660000  0.94340000  0.47440000  1.0 0.2228053546
H  H107  1  0.53470000  0.84810000  0.53910000  1.0 0.1023197806
H  H108  1  0.53910000  0.07810000  0.53470000  1.0 0.1023197806
H  H109  1  0.63820000  0.79440000  0.52780000  1.0 0.1089789966
H  H110  1  0.52780000  0.03960000  0.63820000  1.0 0.1089789966
H  H111  1  0.52450000  0.86350000  0.64150000  1.0 0.1023197806
H  H112  1  0.64150000  0.97050000  0.52450000  1.0 0.1023197806
C  C1  1  0.61810000  0.86510000  0.26270000  1.0 0.4327965061
C  C2  1  0.86510000  0.61810000  0.25410000  1.0 0.4327965061
C  C3  1  0.99590000  0.98730000  0.38490000  1.0 0.4327965061
C  C4  1  0.98730000  0.99590000  0.63190000  1.0 0.4327965061
C  C5  1  0.51710000  0.89530000  0.29970000  1.0 0.0290287256
C  C6  1  0.89530000  0.51710000  0.28790000  1.0 0.0290287256
C  C7  1  0.96210000  0.95030000  0.35470000  1.0 0.0290287256
C  C8  1  0.95030000  0.96210000  0.73290000  1.0 0.0290287256
C  C9  1  0.42300000  0.96140000  0.40380000  1.0 -0.1008534433
C  C10  1  0.96140000  0.42300000  0.21180000  1.0 -0.1008534433
C  C11  1  0.03820000  0.84620000  0.28860000  1.0 -0.1008534433
C  C12  1  0.84620000  0.03820000  0.82700000  1.0 -0.1008534433
C  C13  1  0.32770000  0.99270000  0.43770000  1.0 0.1089789966
C  C14  1  0.99270000  0.32770000  0.24190000  1.0 0.1089789966
C  C15  1  0.00810000  0.81230000  0.25730000  1.0 0.1089789966
C  C16  1  0.81230000  0.00810000  0.92230000  1.0 0.1089789966
C  C17  1  0.32660000  0.95800000  0.36740000  1.0 -0.0740643331
C  C18  1  0.95800000  0.32660000  0.34800000  1.0 -0.0740643331
C  C19  1  0.90200000  0.88260000  0.29200000  1.0 -0.0740643331
C  C20  1  0.88260000  0.90200000  0.92340000  1.0 -0.0740643331
C  C21  1  0.42080000  0.89180000  0.26320000  1.0 -0.0790299705
C  C22  1  0.89180000  0.42080000  0.42420000  1.0 -0.0790299705
C  C23  1  0.82580000  0.98680000  0.35820000  1.0 -0.0790299705
C  C24  1  0.98680000  0.82580000  0.82920000  1.0 -0.0790299705
C  C25  1  0.51610000  0.86050000  0.22930000  1.0 -0.0895139926
C  C26  1  0.86050000  0.51610000  0.39410000  1.0 -0.0895139926
C  C27  1  0.85590000  0.02070000  0.38950000  1.0 -0.0895139926
C  C28  1  0.02070000  0.85590000  0.73390000  1.0 -0.0895139926
C  C29  1  0.22740000  0.98760000  0.39940000  1.0 0.4027196931
C  C30  1  0.98760000  0.22740000  0.38560000  1.0 0.4027196931
C  C31  1  0.86440000  0.85060000  0.26240000  1.0 0.4027196931
C  C32  1  0.85060000  0.86440000  0.02260000  1.0 0.4027196931
C  C33  1  0.41810000  0.98690000  0.38150000  1.0 -0.1110141633
C  C34  1  0.98690000  0.41810000  0.21350000  1.0 -0.1110141633
C  C35  1  0.03650000  0.86850000  0.26310000  1.0 -0.1110141633
C  C36  1  0.86850000  0.03650000  0.83190000  1.0 -0.1110141633
C  C37  1  0.31980000  0.02000000  0.42320000  1.0 0.1165429878
C  C38  1  0.02000000  0.31980000  0.23700000  1.0 0.1165429878
C  C39  1  0.01300000  0.82680000  0.23000000  1.0 0.1165429878
C  C40  1  0.82680000  0.01300000  0.93020000  1.0 0.1165429878
C  C41  1  0.42770000  0.86690000  0.28130000  1.0 -0.0790299705
C  C42  1  0.86690000  0.42770000  0.42410000  1.0 -0.0790299705
C  C43  1  0.82590000  0.96870000  0.38310000  1.0 -0.0790299705
C  C44  1  0.96870000  0.82590000  0.82230000  1.0 -0.0790299705
C  C45  1  0.52440000  0.83300000  0.24380000  1.0 -0.0895139926
C  C46  1  0.83300000  0.52440000  0.39880000  1.0 -0.0895139926
C  C47  1  0.85120000  0.00620000  0.41700000  1.0 -0.0895139926
C  C48  1  0.00620000  0.85120000  0.72560000  1.0 -0.0895139926
C  C49  1  0.25410000  0.26270000  0.86510000  1.0 0.4327965061
C  C50  1  0.26270000  0.25410000  0.61810000  1.0 0.4327965061
C  C51  1  0.63190000  0.38490000  0.98730000  1.0 0.4327965061
C  C52  1  0.38490000  0.63190000  0.99590000  1.0 0.4327965061
C  C53  1  0.28790000  0.29970000  0.89530000  1.0 0.0290287256
C  C54  1  0.29970000  0.28790000  0.51710000  1.0 0.0290287256
C  C55  1  0.73290000  0.35470000  0.95030000  1.0 0.0290287256
C  C56  1  0.35470000  0.73290000  0.96210000  1.0 0.0290287256
C  C57  1  0.21180000  0.40380000  0.96140000  1.0 -0.1008534433
C  C58  1  0.40380000  0.21180000  0.42300000  1.0 -0.1008534433
C  C59  1  0.82700000  0.28860000  0.84620000  1.0 -0.1008534433
C  C60  1  0.28860000  0.82700000  0.03820000  1.0 -0.1008534433
C  C61  1  0.24190000  0.43770000  0.99270000  1.0 0.1089789966
C  C62  1  0.43770000  0.24190000  0.32770000  1.0 0.1089789966
C  C63  1  0.92230000  0.25730000  0.81230000  1.0 0.1089789966
C  C64  1  0.25730000  0.92230000  0.00810000  1.0 0.1089789966
C  C65  1  0.34800000  0.36740000  0.95800000  1.0 -0.0740643331
C  C66  1  0.36740000  0.34800000  0.32660000  1.0 -0.0740643331
C  C67  1  0.92340000  0.29200000  0.88260000  1.0 -0.0740643331
C  C68  1  0.29200000  0.92340000  0.90200000  1.0 -0.0740643331
C  C69  1  0.42420000  0.26320000  0.89180000  1.0 -0.0790299705
C  C70  1  0.26320000  0.42420000  0.42080000  1.0 -0.0790299705
C  C71  1  0.82920000  0.35820000  0.98680000  1.0 -0.0790299705
C  C72  1  0.35820000  0.82920000  0.82580000  1.0 -0.0790299705
C  C73  1  0.39410000  0.22930000  0.86050000  1.0 -0.0895139926
C  C74  1  0.22930000  0.39410000  0.51610000  1.0 -0.0895139926
C  C75  1  0.73390000  0.38950000  0.02070000  1.0 -0.0895139926
C  C76  1  0.38950000  0.73390000  0.85590000  1.0 -0.0895139926
C  C77  1  0.38560000  0.39940000  0.98760000  1.0 0.4027196931
C  C78  1  0.39940000  0.38560000  0.22740000  1.0 0.4027196931
C  C79  1  0.02260000  0.26240000  0.85060000  1.0 0.4027196931
C  C80  1  0.26240000  0.02260000  0.86440000  1.0 0.4027196931
C  C81  1  0.21350000  0.38150000  0.98690000  1.0 -0.1110141633
C  C82  1  0.38150000  0.21350000  0.41810000  1.0 -0.1110141633
C  C83  1  0.83190000  0.26310000  0.86850000  1.0 -0.1110141633
C  C84  1  0.26310000  0.83190000  0.03650000  1.0 -0.1110141633
C  C85  1  0.23700000  0.42320000  0.02000000  1.0 0.1165429878
C  C86  1  0.42320000  0.23700000  0.31980000  1.0 0.1165429878
C  C87  1  0.93020000  0.23000000  0.82680000  1.0 0.1165429878
C  C88  1  0.23000000  0.93020000  0.01300000  1.0 0.1165429878
C  C89  1  0.42410000  0.28130000  0.86690000  1.0 -0.0790299705
C  C90  1  0.28130000  0.42410000  0.42770000  1.0 -0.0790299705
C  C91  1  0.82230000  0.38310000  0.96870000  1.0 -0.0790299705
C  C92  1  0.38310000  0.82230000  0.82590000  1.0 -0.0790299705
C  C93  1  0.39880000  0.24380000  0.83300000  1.0 -0.0895139926
C  C94  1  0.24380000  0.39880000  0.52440000  1.0 -0.0895139926
C  C95  1  0.72560000  0.41700000  0.00620000  1.0 -0.0895139926
C  C96  1  0.41700000  0.72560000  0.85120000  1.0 -0.0895139926
C  C97  1  0.39330000  0.68790000  0.23410000  1.0 -0.3531147373
C  C98  1  0.23410000  0.68470000  0.39330000  1.0 -0.3531147373
C  C99  1  0.68790000  0.39330000  0.68470000  1.0 -0.3531147373
C  C100  1  0.68470000  0.23410000  0.68790000  1.0 -0.3531147373
C  C101  1  0.85670000  0.56210000  0.01590000  1.0 -0.3531147373
C  C102  1  0.01590000  0.56530000  0.85670000  1.0 -0.3531147373
C  C103  1  0.56210000  0.85670000  0.56530000  1.0 -0.3531147373
C  C104  1  0.56530000  0.01590000  0.56210000  1.0 -0.3531147373
N  N1  1  0.23160000  0.06240000  0.54560000  1.0 -0.2008156387
N  N2  1  0.06240000  0.23160000  0.16040000  1.0 -0.2008156387
N  N3  1  0.08960000  0.70440000  0.18760000  1.0 -0.2008156387
N  N4  1  0.70440000  0.08960000  0.01840000  1.0 -0.2008156387
N  N5  1  0.22580000  0.10680000  0.51160000  1.0 -0.2169961689
N  N6  1  0.10680000  0.22580000  0.15580000  1.0 -0.2169961689
N  N7  1  0.09420000  0.73840000  0.14320000  1.0 -0.2169961689
N  N8  1  0.73840000  0.09420000  0.02420000  1.0 -0.2169961689
N  N9  1  0.16040000  0.54560000  0.06240000  1.0 -0.2008156387
N  N10  1  0.54560000  0.16040000  0.23160000  1.0 -0.2008156387
N  N11  1  0.01840000  0.18760000  0.70440000  1.0 -0.2008156387
N  N12  1  0.18760000  0.01840000  0.08960000  1.0 -0.2008156387
N  N13  1  0.15580000  0.51160000  0.10680000  1.0 -0.2169961689
N  N14  1  0.51160000  0.15580000  0.22580000  1.0 -0.2169961689
N  N15  1  0.02420000  0.14320000  0.73840000  1.0 -0.2169961689
N  N16  1  0.14320000  0.02420000  0.09420000  1.0 -0.2169961689
N  N17  1  0.29520000  0.70480000  0.29520000  1.0 -0.1234536526
N  N18  1  0.70480000  0.29520000  0.70480000  1.0 -0.1234536526
N  N19  1  0.95480000  0.54520000  0.95480000  1.0 -0.1234536526
N  N20  1  0.54520000  0.95480000  0.54520000  1.0 -0.1234536526
O  O1  1  0.70790000  0.78890000  0.17950000  1.0 -0.4543241543
O  O2  1  0.78890000  0.70790000  0.32370000  1.0 -0.4543241543
O  O3  1  0.92630000  0.07050000  0.46110000  1.0 -0.4543241543
O  O4  1  0.07050000  0.92630000  0.54210000  1.0 -0.4543241543
O  O5  1  0.61260000  0.91640000  0.31700000  1.0 -0.5100402666
O  O6  1  0.91640000  0.61260000  0.15400000  1.0 -0.5100402666
O  O7  1  0.09600000  0.93300000  0.33360000  1.0 -0.5100402666
O  O8  1  0.93300000  0.09600000  0.63740000  1.0 -0.5100402666
O  O9  1  0.23460000  0.93520000  0.34460000  1.0 -0.4430478533
O  O10  1  0.93520000  0.23460000  0.48560000  1.0 -0.4430478533
O  O11  1  0.76440000  0.90540000  0.31480000  1.0 -0.4430478533
O  O12  1  0.90540000  0.76440000  0.01540000  1.0 -0.4430478533
O  O13  1  0.13470000  0.06730000  0.47990000  1.0 -0.4787066301
O  O14  1  0.06730000  0.13470000  0.31810000  1.0 -0.4787066301
O  O15  1  0.93190000  0.77010000  0.18270000  1.0 -0.4787066301
O  O16  1  0.77010000  0.93190000  0.11530000  1.0 -0.4787066301
O  O17  1  0.32370000  0.17950000  0.78890000  1.0 -0.4543241543
O  O18  1  0.17950000  0.32370000  0.70790000  1.0 -0.4543241543
O  O19  1  0.54210000  0.46110000  0.07050000  1.0 -0.4543241543
O  O20  1  0.46110000  0.54210000  0.92630000  1.0 -0.4543241543
O  O21  1  0.15400000  0.31700000  0.91640000  1.0 -0.5100402666
O  O22  1  0.31700000  0.15400000  0.61260000  1.0 -0.5100402666
O  O23  1  0.63740000  0.33360000  0.93300000  1.0 -0.5100402666
O  O24  1  0.33360000  0.63740000  0.09600000  1.0 -0.5100402666
O  O25  1  0.48560000  0.34460000  0.93520000  1.0 -0.4430478533
O  O26  1  0.34460000  0.48560000  0.23460000  1.0 -0.4430478533
O  O27  1  0.01540000  0.31480000  0.90540000  1.0 -0.4430478533
O  O28  1  0.31480000  0.01540000  0.76440000  1.0 -0.4430478533
O  O29  1  0.31810000  0.47990000  0.06730000  1.0 -0.4787066301
O  O30  1  0.47990000  0.31810000  0.13470000  1.0 -0.4787066301
O  O31  1  0.11530000  0.18270000  0.77010000  1.0 -0.4787066301
O  O32  1  0.18270000  0.11530000  0.93190000  1.0 -0.4787066301
