# DDEC6 charges by PACMAN v1.1 (https://github.com/mtap-research/PACMAN-charge/)
data_LAPNAU_FSR_pacman
_symmetry_space_group_name_H-M   'P 1'
_cell_length_a   20.53480000
_cell_length_b   18.85210000
_cell_length_c   13.45060000
_cell_angle_alpha   76.93530000
_cell_angle_beta   63.41740000
_cell_angle_gamma   39.64730000
_symmetry_Int_Tables_number   1
_chemical_formula_structural   InH20C24(NO2)4
_chemical_formula_sum   'In4 H80 C96 N16 O32'
_cell_volume   2906.41325459
_cell_formula_units_Z   4
loop_
 _symmetry_equiv_pos_site_id
 _symmetry_equiv_pos_as_xyz
  1  'x, y, z'
loop_
 _atom_site_type_symbol
 _atom_site_label
 _atom_site_symmetry_multiplicity
 _atom_site_fract_x
 _atom_site_fract_y
 _atom_site_fract_z
 _atom_site_occupancy
 _atom_site_charge
In  In1  1  0.29594000  0.29594000  0.70406000  1.0 1.2632010148
In  In2  1  0.54594000  0.54594000  0.95406000  1.0 1.2632010148
In  In3  1  0.70406000  0.70406000  0.29594000  1.0 1.2632010148
In  In4  1  0.95406000  0.95406000  0.54594000  1.0 1.2632010148
H  H1  1  0.29750000  0.07650000  0.97190000  1.0 0.1383192938
H  H2  1  0.07650000  0.29750000  0.65410000  1.0 0.1383192938
H  H3  1  0.59590000  0.27810000  0.17350000  1.0 0.1383192938
H  H4  1  0.27810000  0.59590000  0.95250000  1.0 0.1383192938
H  H5  1  0.50640000  0.91860000  0.64940000  1.0 0.1103660646
H  H6  1  0.91860000  0.50640000  0.92560000  1.0 0.1103660646
H  H7  1  0.32440000  0.60060000  0.33140000  1.0 0.1103660646
H  H8  1  0.60060000  0.32440000  0.74360000  1.0 0.1103660646
H  H9  1  0.33280000  0.92760000  0.01740000  1.0 0.1383192938
H  H10  1  0.92760000  0.33280000  0.72220000  1.0 0.1383192938
H  H11  1  0.52780000  0.23260000  0.32240000  1.0 0.1383192938
H  H12  1  0.23260000  0.52780000  0.91720000  1.0 0.1383192938
H  H13  1  0.60710000  0.74370000  0.59190000  1.0 0.1103660646
H  H14  1  0.74370000  0.60710000  0.05730000  1.0 0.1103660646
H  H15  1  0.19270000  0.65810000  0.50630000  1.0 0.1103660646
H  H16  1  0.65810000  0.19270000  0.64290000  1.0 0.1103660646
H  H17  1  0.60190000  0.67550000  0.66710000  1.0 0.1103660646
H  H18  1  0.67550000  0.60190000  0.05550000  1.0 0.1103660646
H  H19  1  0.19450000  0.58290000  0.57450000  1.0 0.1103660646
H  H20  1  0.58290000  0.19450000  0.64810000  1.0 0.1103660646
H  H21  1  0.60400000  0.27780000  0.18280000  1.0 0.1383192938
H  H22  1  0.27780000  0.60400000  0.93540000  1.0 0.1383192938
H  H23  1  0.31460000  0.06720000  0.97220000  1.0 0.1383192938
H  H24  1  0.06720000  0.31460000  0.64600000  1.0 0.1383192938
H  H25  1  0.29340000  0.61120000  0.31200000  1.0 0.0943400317
H  H26  1  0.61120000  0.29340000  0.78340000  1.0 0.0943400317
H  H27  1  0.46660000  0.93800000  0.63880000  1.0 0.0943400317
H  H28  1  0.93800000  0.46660000  0.95660000  1.0 0.0943400317
H  H29  1  0.53690000  0.23090000  0.33370000  1.0 0.1383192938
H  H30  1  0.23090000  0.53690000  0.89850000  1.0 0.1383192938
H  H31  1  0.35150000  0.91630000  0.01910000  1.0 0.1383192938
H  H32  1  0.91630000  0.35150000  0.71310000  1.0 0.1383192938
H  H33  1  0.15240000  0.66060000  0.46360000  1.0 0.1103660646
H  H34  1  0.66060000  0.15240000  0.72340000  1.0 0.1103660646
H  H35  1  0.52660000  0.78640000  0.58940000  1.0 0.1103660646
H  H36  1  0.78640000  0.52660000  0.09760000  1.0 0.1103660646
H  H37  1  0.16410000  0.58170000  0.53590000  1.0 0.1103660646
H  H38  1  0.58170000  0.16410000  0.71830000  1.0 0.1103660646
H  H39  1  0.53170000  0.71410000  0.66830000  1.0 0.1103660646
H  H40  1  0.71410000  0.53170000  0.08590000  1.0 0.1103660646
H  H41  1  0.65410000  0.97190000  0.07650000  1.0 0.1383192938
H  H42  1  0.97190000  0.65410000  0.29750000  1.0 0.1383192938
H  H43  1  0.95250000  0.17350000  0.27810000  1.0 0.1383192938
H  H44  1  0.17350000  0.95250000  0.59590000  1.0 0.1383192938
H  H45  1  0.92560000  0.64940000  0.91860000  1.0 0.1103660646
H  H46  1  0.64940000  0.92560000  0.50640000  1.0 0.1103660646
H  H47  1  0.74360000  0.33140000  0.60060000  1.0 0.1103660646
H  H48  1  0.33140000  0.74360000  0.32440000  1.0 0.1103660646
H  H49  1  0.72220000  0.01740000  0.92760000  1.0 0.1383192938
H  H50  1  0.01740000  0.72220000  0.33280000  1.0 0.1383192938
H  H51  1  0.91720000  0.32240000  0.23260000  1.0 0.1383192938
H  H52  1  0.32240000  0.91720000  0.52780000  1.0 0.1383192938
H  H53  1  0.05730000  0.59190000  0.74370000  1.0 0.1103660646
H  H54  1  0.59190000  0.05730000  0.60710000  1.0 0.1103660646
H  H55  1  0.64290000  0.50630000  0.65810000  1.0 0.1103660646
H  H56  1  0.50630000  0.64290000  0.19270000  1.0 0.1103660646
H  H57  1  0.05550000  0.66710000  0.67550000  1.0 0.1103660646
H  H58  1  0.66710000  0.05550000  0.60190000  1.0 0.1103660646
H  H59  1  0.64810000  0.57450000  0.58290000  1.0 0.1103660646
H  H60  1  0.57450000  0.64810000  0.19450000  1.0 0.1103660646
H  H61  1  0.93540000  0.18280000  0.27780000  1.0 0.1383192938
H  H62  1  0.18280000  0.93540000  0.60400000  1.0 0.1383192938
H  H63  1  0.64600000  0.97220000  0.06720000  1.0 0.1383192938
H  H64  1  0.97220000  0.64600000  0.31460000  1.0 0.1383192938
H  H65  1  0.78340000  0.31200000  0.61120000  1.0 0.0943400317
H  H66  1  0.31200000  0.78340000  0.29340000  1.0 0.0943400317
H  H67  1  0.95660000  0.63880000  0.93800000  1.0 0.0943400317
H  H68  1  0.63880000  0.95660000  0.46660000  1.0 0.0943400317
H  H69  1  0.89850000  0.33370000  0.23090000  1.0 0.1383192938
H  H70  1  0.33370000  0.89850000  0.53690000  1.0 0.1383192938
H  H71  1  0.71310000  0.01910000  0.91630000  1.0 0.1383192938
H  H72  1  0.01910000  0.71310000  0.35150000  1.0 0.1383192938
H  H73  1  0.72340000  0.46360000  0.66060000  1.0 0.1103660646
H  H74  1  0.46360000  0.72340000  0.15240000  1.0 0.1103660646
H  H75  1  0.09760000  0.58940000  0.78640000  1.0 0.1103660646
H  H76  1  0.58940000  0.09760000  0.52660000  1.0 0.1103660646
H  H77  1  0.71830000  0.53590000  0.58170000  1.0 0.1103660646
H  H78  1  0.53590000  0.71830000  0.16410000  1.0 0.1103660646
H  H79  1  0.08590000  0.66830000  0.71410000  1.0 0.1103660646
H  H80  1  0.66830000  0.08590000  0.53170000  1.0 0.1103660646
C  C1  1  0.36980000  0.11160000  0.77020000  1.0 0.4067034701
C  C2  1  0.11160000  0.36980000  0.74840000  1.0 0.4067034701
C  C3  1  0.50160000  0.47980000  0.13840000  1.0 0.4067034701
C  C4  1  0.47980000  0.50160000  0.88020000  1.0 0.4067034701
C  C5  1  0.40530000  0.00730000  0.80910000  1.0 0.0309539156
C  C6  1  0.00730000  0.40530000  0.77830000  1.0 0.0309539156
C  C7  1  0.47170000  0.44090000  0.24270000  1.0 0.0309539156
C  C8  1  0.44090000  0.47170000  0.84470000  1.0 0.0309539156
C  C9  1  0.35080000  0.01220000  0.91600000  1.0 -0.1770599834
C  C10  1  0.01220000  0.35080000  0.72100000  1.0 -0.1770599834
C  C11  1  0.52900000  0.33400000  0.23780000  1.0 -0.1770599834
C  C12  1  0.33400000  0.52900000  0.89920000  1.0 -0.1770599834
C  C13  1  0.47660000  0.91680000  0.72500000  1.0 -0.0899714923
C  C14  1  0.91680000  0.47660000  0.88160000  1.0 -0.0899714923
C  C15  1  0.36840000  0.52500000  0.33320000  1.0 -0.0899714923
C  C16  1  0.52500000  0.36840000  0.77340000  1.0 -0.0899714923
C  C17  1  0.37360000  0.92180000  0.94340000  1.0 -0.1638953315
C  C18  1  0.92180000  0.37360000  0.76120000  1.0 -0.1638953315
C  C19  1  0.48880000  0.30660000  0.32820000  1.0 -0.1638953315
C  C20  1  0.30660000  0.48880000  0.87640000  1.0 -0.1638953315
C  C21  1  0.50490000  0.82230000  0.75150000  1.0 0.0994061276
C  C22  1  0.82230000  0.50490000  0.92130000  1.0 0.0994061276
C  C23  1  0.32870000  0.49850000  0.42770000  1.0 0.0994061276
C  C24  1  0.49850000  0.32870000  0.74510000  1.0 0.0994061276
C  C25  1  0.45580000  0.82220000  0.86340000  1.0 -0.0588848523
C  C26  1  0.82220000  0.45580000  0.85860000  1.0 -0.0588848523
C  C27  1  0.39140000  0.38660000  0.42780000  1.0 -0.0588848523
C  C28  1  0.38660000  0.39140000  0.79420000  1.0 -0.0588848523
C  C29  1  0.46670000  0.73490000  0.89450000  1.0 0.4067034701
C  C30  1  0.73490000  0.46670000  0.90390000  1.0 0.4067034701
C  C31  1  0.34610000  0.35550000  0.51510000  1.0 0.4067034701
C  C32  1  0.35550000  0.34610000  0.78330000  1.0 0.4067034701
C  C33  1  0.37830000  0.39010000  0.40990000  1.0 -0.0466255147
C  C34  1  0.39010000  0.37830000  0.82170000  1.0 -0.0466255147
C  C35  1  0.42830000  0.84010000  0.85990000  1.0 -0.0466255147
C  C36  1  0.84010000  0.42830000  0.87170000  1.0 -0.0466255147
C  C37  1  0.44990000  0.45450000  0.23090000  1.0 0.0008197839
C  C38  1  0.45450000  0.44990000  0.86470000  1.0 0.0008197839
C  C39  1  0.38530000  0.01910000  0.79550000  1.0 0.0008197839
C  C40  1  0.01910000  0.38530000  0.80010000  1.0 0.0008197839
C  C41  1  0.30550000  0.50570000  0.40590000  1.0 0.1158356292
C  C42  1  0.50570000  0.30550000  0.78290000  1.0 0.1158356292
C  C43  1  0.46710000  0.84410000  0.74430000  1.0 0.1158356292
C  C44  1  0.84410000  0.46710000  0.94450000  1.0 0.1158356292
C  C45  1  0.34250000  0.53490000  0.31550000  1.0 -0.0792294035
C  C46  1  0.53490000  0.34250000  0.80710000  1.0 -0.0792294035
C  C47  1  0.44290000  0.93450000  0.71510000  1.0 -0.0792294035
C  C48  1  0.93450000  0.44290000  0.90750000  1.0 -0.0792294035
C  C49  1  0.74840000  0.77020000  0.11160000  1.0 0.4067034701
C  C50  1  0.77020000  0.74840000  0.36980000  1.0 0.4067034701
C  C51  1  0.88020000  0.13840000  0.47980000  1.0 0.4067034701
C  C52  1  0.13840000  0.88020000  0.50160000  1.0 0.4067034701
C  C53  1  0.77830000  0.80910000  0.00730000  1.0 0.0309539156
C  C54  1  0.80910000  0.77830000  0.40530000  1.0 0.0309539156
C  C55  1  0.84470000  0.24270000  0.44090000  1.0 0.0309539156
C  C56  1  0.24270000  0.84470000  0.47170000  1.0 0.0309539156
C  C57  1  0.72100000  0.91600000  0.01220000  1.0 -0.1770599834
C  C58  1  0.91600000  0.72100000  0.35080000  1.0 -0.1770599834
C  C59  1  0.89920000  0.23780000  0.33400000  1.0 -0.1770599834
C  C60  1  0.23780000  0.89920000  0.52900000  1.0 -0.1770599834
C  C61  1  0.88160000  0.72500000  0.91680000  1.0 -0.0899714923
C  C62  1  0.72500000  0.88160000  0.47660000  1.0 -0.0899714923
C  C63  1  0.77340000  0.33320000  0.52500000  1.0 -0.0899714923
C  C64  1  0.33320000  0.77340000  0.36840000  1.0 -0.0899714923
C  C65  1  0.76120000  0.94340000  0.92180000  1.0 -0.1638953315
C  C66  1  0.94340000  0.76120000  0.37360000  1.0 -0.1638953315
C  C67  1  0.87640000  0.32820000  0.30660000  1.0 -0.1638953315
C  C68  1  0.32820000  0.87640000  0.48880000  1.0 -0.1638953315
C  C69  1  0.92130000  0.75150000  0.82230000  1.0 0.0994061276
C  C70  1  0.75150000  0.92130000  0.50490000  1.0 0.0994061276
C  C71  1  0.74510000  0.42770000  0.49850000  1.0 0.0994061276
C  C72  1  0.42770000  0.74510000  0.32870000  1.0 0.0994061276
C  C73  1  0.85860000  0.86340000  0.82220000  1.0 -0.0588848523
C  C74  1  0.86340000  0.85860000  0.45580000  1.0 -0.0588848523
C  C75  1  0.79420000  0.42780000  0.38660000  1.0 -0.0588848523
C  C76  1  0.42780000  0.79420000  0.39140000  1.0 -0.0588848523
C  C77  1  0.90390000  0.89450000  0.73490000  1.0 0.4067034701
C  C78  1  0.89450000  0.90390000  0.46670000  1.0 0.4067034701
C  C79  1  0.78330000  0.51510000  0.35550000  1.0 0.4067034701
C  C80  1  0.51510000  0.78330000  0.34610000  1.0 0.4067034701
C  C81  1  0.82170000  0.40990000  0.39010000  1.0 -0.0466255147
C  C82  1  0.40990000  0.82170000  0.37830000  1.0 -0.0466255147
C  C83  1  0.87170000  0.85990000  0.84010000  1.0 -0.0466255147
C  C84  1  0.85990000  0.87170000  0.42830000  1.0 -0.0466255147
C  C85  1  0.86470000  0.23090000  0.45450000  1.0 0.0008197839
C  C86  1  0.23090000  0.86470000  0.44990000  1.0 0.0008197839
C  C87  1  0.80010000  0.79550000  0.01910000  1.0 -0.0006789854
C  C88  1  0.79550000  0.80010000  0.38530000  1.0 0.0008197839
C  C89  1  0.78290000  0.40590000  0.50570000  1.0 0.1158356292
C  C90  1  0.40590000  0.78290000  0.30550000  1.0 0.1158356292
C  C91  1  0.94450000  0.74430000  0.84410000  1.0 0.1158356292
C  C92  1  0.74430000  0.94450000  0.46710000  1.0 0.1158356292
C  C93  1  0.80710000  0.31550000  0.53490000  1.0 -0.0792294035
C  C94  1  0.31550000  0.80710000  0.34250000  1.0 -0.0792294035
C  C95  1  0.90750000  0.71510000  0.93450000  1.0 -0.0792294035
C  C96  1  0.71510000  0.90750000  0.44290000  1.0 -0.0792294035
N  N1  1  0.58080000  0.73640000  0.65860000  1.0 -0.1929410754
N  N2  1  0.73640000  0.58080000  0.02420000  1.0 -0.1929410754
N  N3  1  0.22580000  0.59140000  0.51360000  1.0 -0.1929410754
N  N4  1  0.59140000  0.22580000  0.66920000  1.0 -0.1929410754
N  N5  1  0.19390000  0.59310000  0.47710000  1.0 -0.1770599834
N  N6  1  0.59310000  0.19390000  0.73590000  1.0 -0.174406655
N  N7  1  0.51410000  0.77290000  0.65690000  1.0 -0.174406655
N  N8  1  0.77290000  0.51410000  0.05610000  1.0 -0.174406655
N  N9  1  0.02420000  0.65860000  0.73640000  1.0 -0.1929410754
N  N10  1  0.65860000  0.02420000  0.58080000  1.0 -0.1929410754
N  N11  1  0.66920000  0.51360000  0.59140000  1.0 -0.1929410754
N  N12  1  0.51360000  0.66920000  0.22580000  1.0 -0.1929410754
N  N13  1  0.73590000  0.47710000  0.59310000  1.0 -0.1770599834
N  N14  1  0.47710000  0.73590000  0.19390000  1.0 -0.174406655
N  N15  1  0.05610000  0.65690000  0.77290000  1.0 -0.174406655
N  N16  1  0.65690000  0.05610000  0.51410000  1.0 -0.1770599834
O  O1  1  0.42157000  0.73697000  0.99803000  1.0 -0.4631789236
O  O2  1  0.73697000  0.42157000  0.84343000  1.0 -0.4631789236
O  O3  1  0.40657000  0.25197000  0.51303000  1.0 -0.4631789236
O  O4  1  0.25197000  0.40657000  0.82843000  1.0 -0.4631789236
O  O5  1  0.53660000  0.64640000  0.82240000  1.0 -0.4994850291
O  O6  1  0.64640000  0.53660000  0.99460000  1.0 -0.4994850291
O  O7  1  0.25540000  0.42760000  0.60360000  1.0 -0.4994850291
O  O8  1  0.42760000  0.25540000  0.71340000  1.0 -0.4994850291
O  O9  1  0.29710000  0.19950000  0.84390000  1.0 -0.444873977
O  O10  1  0.19950000  0.29710000  0.65950000  1.0 -0.4458772673
O  O11  1  0.59050000  0.40610000  0.05050000  1.0 -0.444873977
O  O12  1  0.40610000  0.59050000  0.95290000  1.0 -0.444873977
O  O13  1  0.41680000  0.10780000  0.66800000  1.0 -0.4994850291
O  O14  1  0.10780000  0.41680000  0.80740000  1.0 -0.4994850291
O  O15  1  0.44260000  0.58200000  0.14220000  1.0 -0.4994850291
O  O16  1  0.58200000  0.44260000  0.83320000  1.0 -0.4994850291
O  O17  1  0.84343000  0.99803000  0.73697000  1.0 -0.4631789236
O  O18  1  0.99803000  0.84343000  0.42157000  1.0 -0.4631789236
O  O19  1  0.82843000  0.51303000  0.25197000  1.0 -0.4631789236
O  O20  1  0.51303000  0.82843000  0.40657000  1.0 -0.4631789236
O  O21  1  0.99460000  0.82240000  0.64640000  1.0 -0.4994850291
O  O22  1  0.82240000  0.99460000  0.53660000  1.0 -0.4994850291
O  O23  1  0.71340000  0.60360000  0.42760000  1.0 -0.4994850291
O  O24  1  0.60360000  0.71340000  0.25540000  1.0 -0.4994850291
O  O25  1  0.65950000  0.84390000  0.19950000  1.0 -0.4458772673
O  O26  1  0.84390000  0.65950000  0.29710000  1.0 -0.444873977
O  O27  1  0.95290000  0.05050000  0.40610000  1.0 -0.444873977
O  O28  1  0.05050000  0.95290000  0.59050000  1.0 -0.444873977
O  O29  1  0.80740000  0.66800000  0.10780000  1.0 -0.4994850291
O  O30  1  0.66800000  0.80740000  0.41680000  1.0 -0.4994850291
O  O31  1  0.83320000  0.14220000  0.58200000  1.0 -0.4994850291
O  O32  1  0.14220000  0.83320000  0.44260000  1.0 -0.4994850291
