# DDEC6 charges by PACMAN v1.1 (https://github.com/mtap-research/PACMAN-charge/)
data_LAPNOI_ASR_pacman
_symmetry_space_group_name_H-M   'P 1'
_cell_length_a   20.65220000
_cell_length_b   17.41420000
_cell_length_c   15.37600000
_cell_angle_alpha   77.80070000
_cell_angle_beta   55.50450000
_cell_angle_gamma   46.69480000
_symmetry_Int_Tables_number   1
_chemical_formula_structural   InH20C24(NO2)4
_chemical_formula_sum   'In4 H80 C96 N16 O32'
_cell_volume   3168.62492767
_cell_formula_units_Z   4
loop_
 _symmetry_equiv_pos_site_id
 _symmetry_equiv_pos_as_xyz
  1  'x, y, z'
loop_
 _atom_site_type_symbol
 _atom_site_label
 _atom_site_symmetry_multiplicity
 _atom_site_fract_x
 _atom_site_fract_y
 _atom_site_fract_z
 _atom_site_occupancy
 _atom_site_charge
In  In1  1  0.55432000  0.55432000  0.94568000  1.0 1.250287163
In  In2  1  0.30432000  0.30432000  0.69568000  1.0 1.250287163
In  In3  1  0.94568000  0.94568000  0.55432000  1.0 1.250287163
In  In4  1  0.69568000  0.69568000  0.30432000  1.0 1.250287163
H  H1  1  0.17700000  0.57560000  0.56580000  1.0 0.0927188632
H  H2  1  0.57560000  0.17700000  0.68160000  1.0 0.0927188632
H  H3  1  0.56840000  0.68420000  0.67440000  1.0 0.0927188632
H  H4  1  0.68420000  0.56840000  0.07300000  1.0 0.0927188632
H  H5  1  0.15970000  0.65530000  0.49970000  1.0 0.1801678939
H  H6  1  0.65530000  0.15970000  0.68530000  1.0 0.1801678939
H  H7  1  0.56470000  0.75030000  0.59470000  1.0 0.1801678939
H  H8  1  0.75030000  0.56470000  0.09030000  1.0 0.1801678939
H  H9  1  0.30340000  0.60740000  0.31580000  1.0 0.0783562315
H  H10  1  0.60740000  0.30340000  0.77340000  1.0 0.0783562315
H  H11  1  0.47660000  0.93420000  0.64260000  1.0 0.0783562315
H  H12  1  0.93420000  0.47660000  0.94660000  1.0 0.0783562315
H  H13  1  0.54930000  0.25170000  0.32610000  1.0 0.0986733818
H  H14  1  0.25170000  0.54930000  0.87290000  1.0 0.0986733818
H  H15  1  0.37710000  0.92390000  0.99830000  1.0 0.0986733818
H  H16  1  0.92390000  0.37710000  0.70070000  1.0 0.0986733818
H  H17  1  0.60940000  0.30140000  0.16780000  1.0 0.0986733818
H  H18  1  0.30140000  0.60940000  0.92140000  1.0 0.0986733818
H  H19  1  0.32860000  0.08220000  0.94860000  1.0 0.0986733818
H  H20  1  0.08220000  0.32860000  0.64060000  1.0 0.0986733818
H  H21  1  0.21960000  0.57780000  0.58740000  1.0 0.0927188632
H  H22  1  0.57780000  0.21960000  0.61520000  1.0 0.0927188632
H  H23  1  0.63480000  0.66260000  0.67220000  1.0 0.0927188632
H  H24  1  0.66260000  0.63480000  0.03040000  1.0 0.0927188632
H  H25  1  0.21920000  0.65760000  0.52820000  1.0 0.160365249
H  H26  1  0.65760000  0.21920000  0.59500000  1.0 0.160365249
H  H27  1  0.65500000  0.72180000  0.59240000  1.0 0.160365249
H  H28  1  0.72180000  0.65500000  0.03080000  1.0 0.160365249
H  H29  1  0.34770000  0.60690000  0.33350000  1.0 0.0745551912
H  H30  1  0.60690000  0.34770000  0.71190000  1.0 0.0745551912
H  H31  1  0.53810000  0.91650000  0.64310000  1.0 0.0745551912
H  H32  1  0.91650000  0.53810000  0.90230000  1.0 0.0783562315
H  H33  1  0.51990000  0.24870000  0.30590000  1.0 0.0986733818
H  H34  1  0.24870000  0.51990000  0.92550000  1.0 0.0986733818
H  H35  1  0.32450000  0.94410000  0.00130000  1.0 0.0986733818
H  H36  1  0.94410000  0.32450000  0.73010000  1.0 0.0986733818
H  H37  1  0.58450000  0.29510000  0.14890000  1.0 0.0986733818
H  H38  1  0.29510000  0.58450000  0.97150000  1.0 0.0986733818
H  H39  1  0.27850000  0.10110000  0.95490000  1.0 0.0986733818
H  H40  1  0.10110000  0.27850000  0.66550000  1.0 0.0986733818
H  H41  1  0.68160000  0.56580000  0.57560000  1.0 0.0927188632
H  H42  1  0.56580000  0.68160000  0.17700000  1.0 0.0927188632
H  H43  1  0.07300000  0.67440000  0.68420000  1.0 0.0927188632
H  H44  1  0.67440000  0.07300000  0.56840000  1.0 0.0927188632
H  H45  1  0.68530000  0.49970000  0.65530000  1.0 0.1801678939
H  H46  1  0.49970000  0.68530000  0.15970000  1.0 0.1801678939
H  H47  1  0.09030000  0.59470000  0.75030000  1.0 0.1801678939
H  H48  1  0.59470000  0.09030000  0.56470000  1.0 0.1801678939
H  H49  1  0.77340000  0.31580000  0.60740000  1.0 0.0783562315
H  H50  1  0.31580000  0.77340000  0.30340000  1.0 0.0783562315
H  H51  1  0.94660000  0.64260000  0.93420000  1.0 0.0783562315
H  H52  1  0.64260000  0.94660000  0.47660000  1.0 0.0783562315
H  H53  1  0.87290000  0.32610000  0.25170000  1.0 0.0986733818
H  H54  1  0.32610000  0.87290000  0.54930000  1.0 0.0986733818
H  H55  1  0.70070000  0.99830000  0.92390000  1.0 0.0986733818
H  H56  1  0.99830000  0.70070000  0.37710000  1.0 0.0986733818
H  H57  1  0.92140000  0.16780000  0.30140000  1.0 0.0986733818
H  H58  1  0.16780000  0.92140000  0.60940000  1.0 0.0986733818
H  H59  1  0.64060000  0.94860000  0.08220000  1.0 0.0986733818
H  H60  1  0.94860000  0.64060000  0.32860000  1.0 0.0986733818
H  H61  1  0.61520000  0.58740000  0.57780000  1.0 0.0927188632
H  H62  1  0.58740000  0.61520000  0.21960000  1.0 0.0927188632
H  H63  1  0.03040000  0.67220000  0.66260000  1.0 0.0927188632
H  H64  1  0.67220000  0.03040000  0.63480000  1.0 0.0927188632
H  H65  1  0.59500000  0.52820000  0.65760000  1.0 0.160365249
H  H66  1  0.52820000  0.59500000  0.21920000  1.0 0.160365249
H  H67  1  0.03080000  0.59240000  0.72180000  1.0 0.160365249
H  H68  1  0.59240000  0.03080000  0.65500000  1.0 0.160365249
H  H69  1  0.71190000  0.33350000  0.60690000  1.0 0.0745551912
H  H70  1  0.33350000  0.71190000  0.34770000  1.0 0.0745551912
H  H71  1  0.90230000  0.64310000  0.91650000  1.0 0.0745551912
H  H72  1  0.64310000  0.90230000  0.53810000  1.0 0.0745551912
H  H73  1  0.92550000  0.30590000  0.24870000  1.0 0.0986733818
H  H74  1  0.30590000  0.92550000  0.51990000  1.0 0.0986733818
H  H75  1  0.73010000  0.00130000  0.94410000  1.0 0.0986733818
H  H76  1  0.00130000  0.73010000  0.32450000  1.0 0.0986733818
H  H77  1  0.97150000  0.14890000  0.29510000  1.0 0.0986733818
H  H78  1  0.14890000  0.97150000  0.58450000  1.0 0.0986733818
H  H79  1  0.66550000  0.95490000  0.10110000  1.0 0.0986733818
H  H80  1  0.95490000  0.66550000  0.27850000  1.0 0.0986733818
C  C1  1  0.49710000  0.49610000  0.12630000  1.0 0.4499943433
C  C2  1  0.49610000  0.49710000  0.88050000  1.0 0.4499943433
C  C3  1  0.36950000  0.12370000  0.75390000  1.0 0.4499943433
C  C4  1  0.12370000  0.36950000  0.75290000  1.0 0.4499943433
C  C5  1  0.35700000  0.36440000  0.51560000  1.0 0.4437504178
C  C6  1  0.36440000  0.35700000  0.76300000  1.0 0.4437504178
C  C7  1  0.48700000  0.73440000  0.88560000  1.0 0.4437504178
C  C8  1  0.73440000  0.48700000  0.89300000  1.0 0.4437504178
C  C9  1  0.35270000  0.53610000  0.31790000  1.0 -0.0715701441
C  C10  1  0.53610000  0.35270000  0.79330000  1.0 -0.0715701441
C  C11  1  0.45670000  0.93210000  0.71390000  1.0 -0.0715701441
C  C12  1  0.93210000  0.45670000  0.89730000  1.0 -0.0715701441
C  C13  1  0.31670000  0.50630000  0.41290000  1.0 0.0927188632
C  C14  1  0.50630000  0.31670000  0.76410000  1.0 0.0927188632
C  C15  1  0.48590000  0.83710000  0.74370000  1.0 0.0927188632
C  C16  1  0.83710000  0.48590000  0.93330000  1.0 0.0927188632
C  C17  1  0.39030000  0.39970000  0.41590000  1.0 -0.0782399483
C  C18  1  0.39970000  0.39030000  0.79410000  1.0 -0.0782399483
C  C19  1  0.45590000  0.83410000  0.85030000  1.0 -0.0782399483
C  C20  1  0.83410000  0.45590000  0.85970000  1.0 -0.0782399483
C  C21  1  0.50010000  0.32290000  0.32410000  1.0 -0.0591335134
C  C22  1  0.32290000  0.50010000  0.85290000  1.0 -0.0591335134
C  C23  1  0.39710000  0.92590000  0.92710000  1.0 -0.0591335134
C  C24  1  0.92590000  0.39710000  0.74990000  1.0 -0.0591335134
C  C25  1  0.53600000  0.35280000  0.22920000  1.0 -0.0715701441
C  C26  1  0.35280000  0.53600000  0.88200000  1.0 -0.0715701441
C  C27  1  0.36800000  0.02080000  0.89720000  1.0 -0.0715701441
C  C28  1  0.02080000  0.36800000  0.71400000  1.0 -0.0715701441
C  C29  1  0.46240000  0.45940000  0.22620000  1.0 -0.0166878377
C  C30  1  0.45940000  0.46240000  0.85200000  1.0 -0.0166878377
C  C31  1  0.39800000  0.02380000  0.79060000  1.0 -0.0166878377
C  C32  1  0.02380000  0.39800000  0.78760000  1.0 -0.0166878377
C  C33  1  0.37980000  0.53480000  0.32720000  1.0 -0.0782399483
C  C34  1  0.53480000  0.37980000  0.75820000  1.0 -0.0782399483
C  C35  1  0.49180000  0.92280000  0.71520000  1.0 -0.0782399483
C  C36  1  0.92280000  0.49180000  0.87020000  1.0 -0.0782399483
C  C37  1  0.34200000  0.50380000  0.42420000  1.0 0.0783562315
C  C38  1  0.50380000  0.34200000  0.73000000  1.0 0.0783562315
C  C39  1  0.52000000  0.82580000  0.74620000  1.0 0.0783562315
C  C40  1  0.82580000  0.52000000  0.90800000  1.0 0.0783562315
C  C41  1  0.48250000  0.32250000  0.31150000  1.0 -0.0782399483
C  C42  1  0.32250000  0.48250000  0.88350000  1.0 -0.0782399483
C  C43  1  0.36650000  0.93850000  0.92750000  1.0 -0.0782399483
C  C44  1  0.93850000  0.36650000  0.76750000  1.0 -0.0782399483
C  C45  1  0.52120000  0.34920000  0.21660000  1.0 -0.0782399483
C  C46  1  0.34920000  0.52120000  0.91300000  1.0 -0.0782399483
C  C47  1  0.33700000  0.03340000  0.90080000  1.0 -0.0782399483
C  C48  1  0.03340000  0.33700000  0.72880000  1.0 -0.0782399483
C  C49  1  0.88050000  0.12630000  0.49610000  1.0 0.4499943433
C  C50  1  0.12630000  0.88050000  0.49710000  1.0 0.4499943433
C  C51  1  0.75290000  0.75390000  0.12370000  1.0 0.4499943433
C  C52  1  0.75390000  0.75290000  0.36950000  1.0 0.4499943433
C  C53  1  0.76300000  0.51560000  0.36440000  1.0 0.4437504178
C  C54  1  0.51560000  0.76300000  0.35700000  1.0 0.4437504178
C  C55  1  0.89300000  0.88560000  0.73440000  1.0 0.4437504178
C  C56  1  0.88560000  0.89300000  0.48700000  1.0 0.4437504178
C  C57  1  0.79330000  0.31790000  0.53610000  1.0 -0.0715701441
C  C58  1  0.31790000  0.79330000  0.35270000  1.0 -0.0715701441
C  C59  1  0.89730000  0.71390000  0.93210000  1.0 -0.0715701441
C  C60  1  0.71390000  0.89730000  0.45670000  1.0 -0.0715701441
C  C61  1  0.76410000  0.41290000  0.50630000  1.0 0.0927188632
C  C62  1  0.41290000  0.76410000  0.31670000  1.0 0.0927188632
C  C63  1  0.93330000  0.74370000  0.83710000  1.0 0.0927188632
C  C64  1  0.74370000  0.93330000  0.48590000  1.0 0.0927188632
C  C65  1  0.79410000  0.41590000  0.39970000  1.0 -0.0782399483
C  C66  1  0.41590000  0.79410000  0.39030000  1.0 -0.0782399483
C  C67  1  0.85970000  0.85030000  0.83410000  1.0 -0.0782399483
C  C68  1  0.85030000  0.85970000  0.45590000  1.0 -0.0782399483
C  C69  1  0.85290000  0.32410000  0.32290000  1.0 -0.0591335134
C  C70  1  0.32410000  0.85290000  0.50010000  1.0 -0.0591335134
C  C71  1  0.74990000  0.92710000  0.92590000  1.0 -0.0591335134
C  C72  1  0.92710000  0.74990000  0.39710000  1.0 -0.0591335134
C  C73  1  0.88200000  0.22920000  0.35280000  1.0 -0.0715701441
C  C74  1  0.22920000  0.88200000  0.53600000  1.0 -0.0715701441
C  C75  1  0.71400000  0.89720000  0.02080000  1.0 -0.0715701441
C  C76  1  0.89720000  0.71400000  0.36800000  1.0 -0.0715701441
C  C77  1  0.85200000  0.22620000  0.45940000  1.0 -0.0166878377
C  C78  1  0.22620000  0.85200000  0.46240000  1.0 -0.0166878377
C  C79  1  0.78760000  0.79060000  0.02380000  1.0 -0.0166878377
C  C80  1  0.79060000  0.78760000  0.39800000  1.0 -0.0166878377
C  C81  1  0.75820000  0.32720000  0.53480000  1.0 -0.0782399483
C  C82  1  0.32720000  0.75820000  0.37980000  1.0 -0.0782399483
C  C83  1  0.87020000  0.71520000  0.92280000  1.0 -0.0715701441
C  C84  1  0.71520000  0.87020000  0.49180000  1.0 -0.0782399483
C  C85  1  0.73000000  0.42420000  0.50380000  1.0 0.0783562315
C  C86  1  0.42420000  0.73000000  0.34200000  1.0 0.0783562315
C  C87  1  0.90800000  0.74620000  0.82580000  1.0 0.0783562315
C  C88  1  0.74620000  0.90800000  0.52000000  1.0 0.0783562315
C  C89  1  0.88350000  0.31150000  0.32250000  1.0 -0.0782399483
C  C90  1  0.31150000  0.88350000  0.48250000  1.0 -0.0782399483
C  C91  1  0.76750000  0.92750000  0.93850000  1.0 -0.0782399483
C  C92  1  0.92750000  0.76750000  0.36650000  1.0 -0.0782399483
C  C93  1  0.91300000  0.21660000  0.34920000  1.0 -0.0715701441
C  C94  1  0.21660000  0.91300000  0.52120000  1.0 -0.0782399483
C  C95  1  0.72880000  0.90080000  0.03340000  1.0 -0.0782399483
C  C96  1  0.90080000  0.72880000  0.33700000  1.0 -0.0782399483
N  N1  1  0.20220000  0.59060000  0.50540000  1.0 -0.1680374108
N  N2  1  0.59060000  0.20220000  0.70180000  1.0 -0.1680374108
N  N3  1  0.54820000  0.74460000  0.65940000  1.0 -0.1680374108
N  N4  1  0.74460000  0.54820000  0.04780000  1.0 -0.1680374108
N  N5  1  0.24780000  0.59120000  0.52680000  1.0 -0.1680374108
N  N6  1  0.59120000  0.24780000  0.63420000  1.0 -0.1680374108
N  N7  1  0.61580000  0.72320000  0.65880000  1.0 -0.1680374108
N  N8  1  0.72320000  0.61580000  0.00220000  1.0 -0.1680374108
N  N9  1  0.70180000  0.50540000  0.59060000  1.0 -0.1680374108
N  N10  1  0.50540000  0.70180000  0.20220000  1.0 -0.1680374108
N  N11  1  0.04780000  0.65940000  0.74460000  1.0 -0.1680374108
N  N12  1  0.65940000  0.04780000  0.54820000  1.0 -0.1680374108
N  N13  1  0.63420000  0.52680000  0.59120000  1.0 -0.1680374108
N  N14  1  0.52680000  0.63420000  0.24780000  1.0 -0.1680374108
N  N15  1  0.00220000  0.65880000  0.72320000  1.0 -0.1680374108
N  N16  1  0.65880000  0.00220000  0.61580000  1.0 -0.1680374108
O  O1  1  0.58330000  0.42390000  0.03550000  1.0 -0.4408301497
O  O2  1  0.42390000  0.58330000  0.95730000  1.0 -0.4408301497
O  O3  1  0.29270000  0.21450000  0.82610000  1.0 -0.4408301497
O  O4  1  0.21450000  0.29270000  0.66666667  1.0 -0.4408301497
O  O5  1  0.43810000  0.59690000  0.13310000  1.0 -0.5120301368
O  O6  1  0.59690000  0.43810000  0.83190000  1.0 -0.5120301368
O  O7  1  0.41810000  0.11690000  0.65310000  1.0 -0.5120301368
O  O8  1  0.11690000  0.41810000  0.81190000  1.0 -0.5120301368
O  O9  1  0.27100000  0.43360000  0.60840000  1.0 -0.5039951476
O  O10  1  0.43360000  0.27100000  0.68700000  1.0 -0.5039951476
O  O11  1  0.56300000  0.64160000  0.81640000  1.0 -0.5039951476
O  O12  1  0.64160000  0.56300000  0.97900000  1.0 -0.5039951476
O  O13  1  0.41660000  0.26260000  0.50800000  1.0 -0.4408301497
O  O14  1  0.26260000  0.41660000  0.81280000  1.0 -0.4408301497
O  O15  1  0.43720000  0.74200000  0.98740000  1.0 -0.4408301497
O  O16  1  0.74200000  0.43720000  0.83340000  1.0 -0.4408301497
O  O17  1  0.95730000  0.03550000  0.42390000  1.0 -0.4408301497
O  O18  1  0.03550000  0.95730000  0.58330000  1.0 -0.4408301497
O  O19  1  0.66666667  0.82610000  0.21450000  1.0 -0.4408301497
O  O20  1  0.82610000  0.66666667  0.29270000  1.0 -0.4408301497
O  O21  1  0.83190000  0.13310000  0.59690000  1.0 -0.5120301368
O  O22  1  0.13310000  0.83190000  0.43810000  1.0 -0.5120301368
O  O23  1  0.81190000  0.65310000  0.11690000  1.0 -0.5120301368
O  O24  1  0.65310000  0.81190000  0.41810000  1.0 -0.5120301368
O  O25  1  0.68700000  0.60840000  0.43360000  1.0 -0.5039951476
O  O26  1  0.60840000  0.68700000  0.27100000  1.0 -0.5039951476
O  O27  1  0.97900000  0.81640000  0.64160000  1.0 -0.5039951476
O  O28  1  0.81640000  0.97900000  0.56300000  1.0 -0.5039951476
O  O29  1  0.81280000  0.50800000  0.26260000  1.0 -0.4408301497
O  O30  1  0.50800000  0.81280000  0.41660000  1.0 -0.4408301497
O  O31  1  0.83340000  0.98740000  0.74200000  1.0 -0.4408301497
O  O32  1  0.98740000  0.83340000  0.43720000  1.0 -0.4408301497
