# DDEC6 charges by PACMAN v1.1 (https://github.com/mtap-research/PACMAN-charge/)
data_LAPNUO_FSR_pacman
_symmetry_space_group_name_H-M   'P 1'
_cell_length_a   20.63430000
_cell_length_b   17.33750000
_cell_length_c   15.44620000
_cell_angle_alpha   77.77670000
_cell_angle_beta   55.20270000
_cell_angle_gamma   47.02060000
_symmetry_Int_Tables_number   1
_chemical_formula_structural   InH20C24(NO2)4
_chemical_formula_sum   'In4 H80 C96 N16 O32'
_cell_volume   3171.85560399
_cell_formula_units_Z   4
loop_
 _symmetry_equiv_pos_site_id
 _symmetry_equiv_pos_as_xyz
  1  'x, y, z'
loop_
 _atom_site_type_symbol
 _atom_site_label
 _atom_site_symmetry_multiplicity
 _atom_site_fract_x
 _atom_site_fract_y
 _atom_site_fract_z
 _atom_site_occupancy
 _atom_site_charge
In  In1  1  0.80450000  0.80450000  0.19550000  1.0 1.2595489247
In  In2  1  0.05450000  0.05450000  0.44550000  1.0 1.2595489247
In  In3  1  0.19550000  0.19550000  0.80450000  1.0 1.2595489247
In  In4  1  0.44550000  0.44550000  0.05450000  1.0 1.2595489247
H  H1  1  0.24190000  0.07710000  0.58850000  1.0 0.2042274436
H  H2  1  0.07710000  0.24190000  0.09250000  1.0 0.2042274436
H  H3  1  0.15750000  0.66150000  0.17290000  1.0 0.2042274436
H  H4  1  0.66150000  0.15750000  0.00810000  1.0 0.2042274436
H  H5  1  0.18010000  0.07650000  0.56770000  1.0 0.1438108457
H  H6  1  0.07650000  0.18010000  0.17570000  1.0 0.1438108457
H  H7  1  0.07430000  0.68230000  0.17350000  1.0 0.1438108457
H  H8  1  0.68230000  0.07430000  0.06990000  1.0 0.1438108457
H  H9  1  0.58890000  0.81590000  0.14050000  1.0 0.0812651278
H  H10  1  0.81590000  0.58890000  0.45470000  1.0 0.0812651278
H  H11  1  0.79530000  0.10950000  0.43410000  1.0 0.0812651278
H  H12  1  0.10950000  0.79530000  0.66110000  1.0 0.0812651278
H  H13  1  0.42830000  0.86990000  0.20310000  1.0 0.0812651278
H  H14  1  0.86990000  0.42830000  0.49870000  1.0 0.0812651278
H  H15  1  0.75130000  0.04690000  0.38010000  1.0 0.0812651278
H  H16  1  0.04690000  0.75130000  0.82170000  1.0 0.0812651278
H  H17  1  0.43330000  0.97870000  0.44510000  1.0 0.0861754686
H  H18  1  0.97870000  0.43330000  0.14290000  1.0 0.0861754686
H  H19  1  0.10710000  0.80490000  0.27130000  1.0 0.0861754686
H  H20  1  0.80490000  0.10710000  0.81670000  1.0 0.0861754686
H  H21  1  0.16760000  0.14620000  0.50400000  1.0 0.1512330191
H  H22  1  0.14620000  0.16760000  0.18220000  1.0 0.1512330191
H  H23  1  0.06780000  0.74600000  0.10380000  1.0 0.1512330191
H  H24  1  0.74600000  0.06780000  0.08240000  1.0 0.1512330191
H  H25  1  0.22640000  0.16700000  0.50460000  1.0 0.1846190615
H  H26  1  0.16700000  0.22640000  0.10200000  1.0 0.1851545645
H  H27  1  0.14800000  0.74540000  0.08300000  1.0 0.1846190615
H  H28  1  0.74540000  0.14800000  0.02360000  1.0 0.1846190615
H  H29  1  0.44520000  0.80800000  0.24880000  1.0 0.0812651278
H  H30  1  0.80800000  0.44520000  0.49800000  1.0 0.0812651278
H  H31  1  0.75200000  0.00120000  0.44200000  1.0 0.0812651278
H  H32  1  0.00120000  0.75200000  0.80480000  1.0 0.0812651278
H  H33  1  0.60250000  0.76170000  0.18970000  1.0 0.0812651278
H  H34  1  0.76170000  0.60250000  0.44610000  1.0 0.0812651278
H  H35  1  0.80390000  0.06030000  0.48830000  1.0 0.0812651278
H  H36  1  0.06030000  0.80390000  0.64750000  1.0 0.0812651278
H  H37  1  0.41340000  0.04780000  0.39680000  1.0 0.0706212817
H  H38  1  0.04780000  0.41340000  0.14200000  1.0 0.0706212817
H  H39  1  0.10800000  0.85320000  0.20220000  1.0 0.0706212817
H  H40  1  0.85320000  0.10800000  0.83660000  1.0 0.0706212817
H  H41  1  0.09250000  0.58850000  0.07710000  1.0 0.2042274436
H  H42  1  0.58850000  0.09250000  0.24190000  1.0 0.2042274436
H  H43  1  0.00810000  0.17290000  0.66150000  1.0 0.2042274436
H  H44  1  0.17290000  0.00810000  0.15750000  1.0 0.2042274436
H  H45  1  0.17570000  0.56770000  0.07650000  1.0 0.1438108457
H  H46  1  0.56770000  0.17570000  0.18010000  1.0 0.1438108457
H  H47  1  0.06990000  0.17350000  0.68230000  1.0 0.1438108457
H  H48  1  0.17350000  0.06990000  0.07430000  1.0 0.1438108457
H  H49  1  0.45470000  0.14050000  0.81590000  1.0 0.0812651278
H  H50  1  0.14050000  0.45470000  0.58890000  1.0 0.0812651278
H  H51  1  0.66110000  0.43410000  0.10950000  1.0 0.0812651278
H  H52  1  0.43410000  0.66110000  0.79530000  1.0 0.0812651278
H  H53  1  0.49870000  0.20310000  0.86990000  1.0 0.0812651278
H  H54  1  0.20310000  0.49870000  0.42830000  1.0 0.0812651278
H  H55  1  0.82170000  0.38010000  0.04690000  1.0 0.0812651278
H  H56  1  0.38010000  0.82170000  0.75130000  1.0 0.0812651278
H  H57  1  0.14290000  0.44510000  0.97870000  1.0 0.0861754686
H  H58  1  0.44510000  0.14290000  0.43330000  1.0 0.0861754686
H  H59  1  0.81670000  0.27130000  0.80490000  1.0 0.0861754686
H  H60  1  0.27130000  0.81670000  0.10710000  1.0 0.0861754686
H  H61  1  0.18220000  0.50400000  0.14620000  1.0 0.1512330191
H  H62  1  0.50400000  0.18220000  0.16760000  1.0 0.1512330191
H  H63  1  0.08240000  0.10380000  0.74600000  1.0 0.1512330191
H  H64  1  0.10380000  0.08240000  0.06780000  1.0 0.1512330191
H  H65  1  0.10200000  0.50460000  0.16700000  1.0 0.1851545645
H  H66  1  0.50460000  0.10200000  0.22640000  1.0 0.1846190615
H  H67  1  0.02360000  0.08300000  0.74540000  1.0 0.1851545645
H  H68  1  0.08300000  0.02360000  0.14800000  1.0 0.1846190615
H  H69  1  0.49800000  0.24880000  0.80800000  1.0 0.0812651278
H  H70  1  0.24880000  0.49800000  0.44520000  1.0 0.0812651278
H  H71  1  0.80480000  0.44200000  0.00120000  1.0 0.0812651278
H  H72  1  0.44200000  0.80480000  0.75200000  1.0 0.0812651278
H  H73  1  0.44610000  0.18970000  0.76170000  1.0 0.0812651278
H  H74  1  0.18970000  0.44610000  0.60250000  1.0 0.0812651278
H  H75  1  0.64750000  0.48830000  0.06030000  1.0 0.0812651278
H  H76  1  0.48830000  0.64750000  0.80390000  1.0 0.0812651278
H  H77  1  0.14200000  0.39680000  0.04780000  1.0 0.0706212817
H  H78  1  0.39680000  0.14200000  0.41340000  1.0 0.0706212817
H  H79  1  0.83660000  0.20220000  0.85320000  1.0 0.0706212817
H  H80  1  0.20220000  0.83660000  0.10800000  1.0 0.0706212817
C  C1  1  0.62330000  0.87050000  0.25310000  1.0 0.4526844544
C  C2  1  0.87050000  0.62330000  0.25310000  1.0 0.4526844544
C  C3  1  0.99690000  0.99690000  0.37950000  1.0 0.4526844544
C  C4  1  0.99690000  0.99690000  0.62670000  1.0 0.4526844544
C  C5  1  0.23420000  0.98740000  0.39320000  1.0 0.4588835648
C  C6  1  0.98740000  0.23420000  0.38520000  1.0 0.4588835648
C  C7  1  0.86480000  0.85680000  0.26260000  1.0 0.4588835648
C  C8  1  0.85680000  0.86480000  0.01580000  1.0 0.4588835648
C  C9  1  0.33510000  0.95570000  0.35810000  1.0 -0.0915197746
C  C10  1  0.95570000  0.33510000  0.35110000  1.0 -0.0915197746
C  C11  1  0.89890000  0.89190000  0.29430000  1.0 -0.0915197746
C  C12  1  0.89190000  0.89890000  0.91490000  1.0 -0.0915197746
C  C13  1  0.52350000  0.90010000  0.28750000  1.0 -0.0139732579
C  C14  1  0.90010000  0.52350000  0.28890000  1.0 -0.0139732579
C  C15  1  0.96110000  0.96250000  0.34990000  1.0 -0.0139732579
C  C16  1  0.96250000  0.96110000  0.72650000  1.0 -0.0139732579
C  C17  1  0.52560000  0.86060000  0.21220000  1.0 -0.0403355066
C  C18  1  0.86060000  0.52560000  0.40160000  1.0 -0.0403355066
C  C19  1  0.84840000  0.03780000  0.38940000  1.0 -0.0403355066
C  C20  1  0.03780000  0.84840000  0.72440000  1.0 -0.0403355066
C  C21  1  0.42980000  0.89220000  0.25120000  1.0 -0.057091294
C  C22  1  0.89220000  0.42980000  0.42680000  1.0 -0.057091294
C  C23  1  0.82320000  0.99880000  0.35780000  1.0 -0.057091294
C  C24  1  0.99880000  0.82320000  0.82020000  1.0 -0.057091294
C  C25  1  0.33620000  0.99020000  0.43240000  1.0 0.10857015
C  C26  1  0.99020000  0.33620000  0.24120000  1.0 0.10857015
C  C27  1  0.00880000  0.81760000  0.25980000  1.0 0.10857015
C  C28  1  0.81760000  0.00880000  0.91380000  1.0 0.10857015
C  C29  1  0.43100000  0.95940000  0.39580000  1.0 -0.0841013738
C  C30  1  0.95940000  0.43100000  0.21380000  1.0 -0.0841013738
C  C31  1  0.03620000  0.85420000  0.29060000  1.0 -0.0841013738
C  C32  1  0.85420000  0.03620000  0.81900000  1.0 -0.0841013738
C  C33  1  0.32550000  0.02750000  0.40250000  1.0 0.0981642658
C  C34  1  0.02750000  0.32550000  0.24450000  1.0 0.0981642658
C  C35  1  0.00550000  0.84750000  0.22250000  1.0 0.0981642658
C  C36  1  0.84750000  0.00550000  0.92450000  1.0 0.0981642658
C  C37  1  0.43890000  0.85610000  0.27830000  1.0 -0.0403355066
C  C38  1  0.85610000  0.43890000  0.42670000  1.0 -0.0403355066
C  C39  1  0.82330000  0.97170000  0.39390000  1.0 -0.0403355066
C  C40  1  0.97170000  0.82330000  0.81110000  1.0 -0.0403355066
C  C41  1  0.53310000  0.82830000  0.24310000  1.0 -0.0520097932
C  C42  1  0.82830000  0.53310000  0.39550000  1.0 -0.0520097932
C  C43  1  0.85450000  0.00690000  0.42170000  1.0 -0.0520097932
C  C44  1  0.00690000  0.85450000  0.71690000  1.0 -0.0520097932
C  C45  1  0.41990000  0.99970000  0.36710000  1.0 -0.0841013738
C  C46  1  0.99970000  0.41990000  0.21330000  1.0 -0.0841013738
C  C47  1  0.03670000  0.88290000  0.25030000  1.0 -0.0841013738
C  C48  1  0.88290000  0.03670000  0.83010000  1.0 -0.0841013738
C  C49  1  0.25310000  0.25310000  0.87050000  1.0 0.4526844544
C  C50  1  0.25310000  0.25310000  0.62330000  1.0 0.4526844544
C  C51  1  0.62670000  0.37950000  0.99690000  1.0 0.4526844544
C  C52  1  0.37950000  0.62670000  0.99690000  1.0 0.4526844544
C  C53  1  0.38520000  0.39320000  0.98740000  1.0 0.4588835648
C  C54  1  0.39320000  0.38520000  0.23420000  1.0 0.4588835648
C  C55  1  0.01580000  0.26260000  0.85680000  1.0 0.4588835648
C  C56  1  0.26260000  0.01580000  0.86480000  1.0 0.4588835648
C  C57  1  0.35110000  0.35810000  0.95570000  1.0 -0.0915197746
C  C58  1  0.35810000  0.35110000  0.33510000  1.0 -0.0915197746
C  C59  1  0.91490000  0.29430000  0.89190000  1.0 -0.0915197746
C  C60  1  0.29430000  0.91490000  0.89890000  1.0 -0.0915197746
C  C61  1  0.28890000  0.28750000  0.90010000  1.0 -0.0139732579
C  C62  1  0.28750000  0.28890000  0.52350000  1.0 -0.0139732579
C  C63  1  0.72650000  0.34990000  0.96250000  1.0 -0.0139732579
C  C64  1  0.34990000  0.72650000  0.96110000  1.0 -0.0139732579
C  C65  1  0.40160000  0.21220000  0.86060000  1.0 -0.0403355066
C  C66  1  0.21220000  0.40160000  0.52560000  1.0 -0.0403355066
C  C67  1  0.72440000  0.38940000  0.03780000  1.0 -0.0403355066
C  C68  1  0.38940000  0.72440000  0.84840000  1.0 -0.0403355066
C  C69  1  0.42680000  0.25120000  0.89220000  1.0 -0.057091294
C  C70  1  0.25120000  0.42680000  0.42980000  1.0 -0.057091294
C  C71  1  0.82020000  0.35780000  0.99880000  1.0 -0.057091294
C  C72  1  0.35780000  0.82020000  0.82320000  1.0 -0.057091294
C  C73  1  0.24120000  0.43240000  0.99020000  1.0 0.10857015
C  C74  1  0.43240000  0.24120000  0.33620000  1.0 0.10857015
C  C75  1  0.91380000  0.25980000  0.81760000  1.0 0.10857015
C  C76  1  0.25980000  0.91380000  0.00880000  1.0 0.10857015
C  C77  1  0.21380000  0.39580000  0.95940000  1.0 -0.0915197746
C  C78  1  0.39580000  0.21380000  0.43100000  1.0 -0.0841013738
C  C79  1  0.81900000  0.29060000  0.85420000  1.0 -0.0841013738
C  C80  1  0.29060000  0.81900000  0.03620000  1.0 -0.0841013738
C  C81  1  0.24450000  0.40250000  0.02750000  1.0 0.0981642658
C  C82  1  0.40250000  0.24450000  0.32550000  1.0 0.0981642658
C  C83  1  0.92450000  0.22250000  0.84750000  1.0 0.0981642658
C  C84  1  0.22250000  0.92450000  0.00550000  1.0 0.0981642658
C  C85  1  0.42670000  0.27830000  0.85610000  1.0 -0.0403355066
C  C86  1  0.27830000  0.42670000  0.43890000  1.0 -0.0403355066
C  C87  1  0.81110000  0.39390000  0.97170000  1.0 -0.0403355066
C  C88  1  0.39390000  0.81110000  0.82330000  1.0 -0.0403355066
C  C89  1  0.39550000  0.24310000  0.82830000  1.0 -0.0520097932
C  C90  1  0.24310000  0.39550000  0.53310000  1.0 -0.0520097932
C  C91  1  0.71690000  0.42170000  0.00690000  1.0 -0.0520097932
C  C92  1  0.42170000  0.71690000  0.85450000  1.0 -0.0520097932
C  C93  1  0.21330000  0.36710000  0.99970000  1.0 -0.0915197746
C  C94  1  0.36710000  0.21330000  0.41990000  1.0 -0.0841013738
C  C95  1  0.83010000  0.25030000  0.88290000  1.0 -0.0841013738
C  C96  1  0.25030000  0.83010000  0.03670000  1.0 -0.0841013738
N  N1  1  0.23950000  0.05710000  0.54490000  1.0 -0.2662302481
N  N2  1  0.05710000  0.23950000  0.15850000  1.0 -0.2662302481
N  N3  1  0.09150000  0.70510000  0.19290000  1.0 -0.2662302481
N  N4  1  0.70510000  0.09150000  0.01050000  1.0 -0.2662302481
N  N5  1  0.22800000  0.12600000  0.48000000  1.0 -0.2535238342
N  N6  1  0.12600000  0.22800000  0.16600000  1.0 -0.2535238342
N  N7  1  0.08400000  0.77000000  0.12400000  1.0 -0.2535238342
N  N8  1  0.77000000  0.08400000  0.02200000  1.0 -0.2535238342
N  N9  1  0.15850000  0.54490000  0.05710000  1.0 -0.2662302481
N  N10  1  0.54490000  0.15850000  0.23950000  1.0 -0.2662302481
N  N11  1  0.01050000  0.19290000  0.70510000  1.0 -0.2662302481
N  N12  1  0.19290000  0.01050000  0.09150000  1.0 -0.2662302481
N  N13  1  0.16600000  0.48000000  0.12600000  1.0 -0.2535238342
N  N14  1  0.48000000  0.16600000  0.22800000  1.0 -0.2535238342
N  N15  1  0.02200000  0.12400000  0.77000000  1.0 -0.2535238342
N  N16  1  0.12400000  0.02200000  0.08400000  1.0 -0.2535238342
O  O1  1  0.71570000  0.79190000  0.16610000  1.0 -0.4626615496
O  O2  1  0.79190000  0.71570000  0.32630000  1.0 -0.4626615496
O  O3  1  0.92370000  0.08390000  0.45810000  1.0 -0.4626615496
O  O4  1  0.08390000  0.92370000  0.53430000  1.0 -0.4626615496
O  O5  1  0.61720000  0.91760000  0.31140000  1.0 -0.479689479
O  O6  1  0.91760000  0.61720000  0.15380000  1.0 -0.479689479
O  O7  1  0.09620000  0.93860000  0.33240000  1.0 -0.479689479
O  O8  1  0.93860000  0.09620000  0.63280000  1.0 -0.479689479
O  O9  1  0.24110000  0.93870000  0.33350000  1.0 -0.4508818055
O  O10  1  0.93870000  0.24110000  0.48670000  1.0 -0.4508818055
O  O11  1  0.76330000  0.91650000  0.31130000  1.0 -0.4508818055
O  O12  1  0.91650000  0.76330000  0.00890000  1.0 -0.4508818055
O  O13  1  0.14040000  0.06540000  0.47960000  1.0 -0.5357159452
O  O14  1  0.06540000  0.14040000  0.31460000  1.0 -0.5357159452
O  O15  1  0.93540000  0.77040000  0.18460000  1.0 -0.5357159452
O  O16  1  0.77040000  0.93540000  0.10960000  1.0 -0.5357159452
O  O17  1  0.32630000  0.16610000  0.79190000  1.0 -0.4626615496
O  O18  1  0.16610000  0.32630000  0.71570000  1.0 -0.4626615496
O  O19  1  0.53430000  0.45810000  0.08390000  1.0 -0.4626615496
O  O20  1  0.45810000  0.53430000  0.92370000  1.0 -0.4626615496
O  O21  1  0.15380000  0.31140000  0.91760000  1.0 -0.479689479
O  O22  1  0.31140000  0.15380000  0.61720000  1.0 -0.479689479
O  O23  1  0.63280000  0.33240000  0.93860000  1.0 -0.479689479
O  O24  1  0.33240000  0.63280000  0.09620000  1.0 -0.479689479
O  O25  1  0.48670000  0.33350000  0.93870000  1.0 -0.4508818055
O  O26  1  0.33350000  0.48670000  0.24110000  1.0 -0.4508818055
O  O27  1  0.00890000  0.31130000  0.91650000  1.0 -0.4508818055
O  O28  1  0.31130000  0.00890000  0.76330000  1.0 -0.4508818055
O  O29  1  0.31460000  0.47960000  0.06540000  1.0 -0.5357159452
O  O30  1  0.47960000  0.31460000  0.14040000  1.0 -0.5357159452
O  O31  1  0.10960000  0.18460000  0.77040000  1.0 -0.5357159452
O  O32  1  0.18460000  0.10960000  0.93540000  1.0 -0.5357159452
