# DDEC6 charges by PACMAN v1.1 (https://github.com/mtap-research/PACMAN-charge/)
data_LAPZIO_ASR_pacman
_symmetry_space_group_name_H-M   'P 1'
_cell_length_a   32.72080000
_cell_length_b   32.72080000
_cell_length_c   32.72080000
_cell_angle_alpha   147.20200000
_cell_angle_beta   147.20200000
_cell_angle_gamma   47.06540000
_symmetry_Int_Tables_number   1
_chemical_formula_structural   Cu2H24C44N2O9
_chemical_formula_sum   'Cu8 H96 C176 N8 O36'
_cell_volume   10240.45969018
_cell_formula_units_Z   4
loop_
 _symmetry_equiv_pos_site_id
 _symmetry_equiv_pos_as_xyz
  1  'x, y, z'
loop_
 _atom_site_type_symbol
 _atom_site_label
 _atom_site_symmetry_multiplicity
 _atom_site_fract_x
 _atom_site_fract_y
 _atom_site_fract_z
 _atom_site_occupancy
 _atom_site_charge
Cu  Cu1  1  0.51992000  0.51992000  0.57166000  1.0 0.8885060554
Cu  Cu2  1  0.51992000  0.94826000  0.00000000  1.0 0.8885060554
Cu  Cu3  1  0.94826000  0.94826000  0.42834000  1.0 0.8885060554
Cu  Cu4  1  0.94826000  0.51992000  0.00000000  1.0 0.8885060554
Cu  Cu5  1  0.48008000  0.05174000  0.00000000  1.0 0.8885060554
Cu  Cu6  1  0.05174000  0.48008000  0.00000000  1.0 0.8885060554
Cu  Cu7  1  0.05174000  0.05174000  0.57166000  1.0 0.8885060554
Cu  Cu8  1  0.48008000  0.48008000  0.42834000  1.0 0.8885060554
H  H1  1  0.03960000  0.41610000  0.37650000  1.0 0.1597199912
H  H2  1  0.41610000  0.03960000  0.37650000  1.0 0.1597199912
H  H3  1  0.03960000  0.66310000  0.62350000  1.0 0.1597199912
H  H4  1  0.66310000  0.03960000  0.62350000  1.0 0.1597199912
H  H5  1  0.96040000  0.33690000  0.37650000  1.0 0.1597199912
H  H6  1  0.96040000  0.58390000  0.62350000  1.0 0.1597199912
H  H7  1  0.33690000  0.96040000  0.37650000  1.0 0.1597199912
H  H8  1  0.58390000  0.96040000  0.62350000  1.0 0.1597199912
H  H9  1  0.02900000  0.46620000  0.26980000  1.0 0.110477315
H  H10  1  0.46620000  0.19640000  0.43720000  1.0 0.110477315
H  H11  1  0.19640000  0.75920000  0.73020000  1.0 0.110477315
H  H12  1  0.75920000  0.02900000  0.56280000  1.0 0.110477315
H  H13  1  0.97100000  0.24080000  0.43720000  1.0 0.110477315
H  H14  1  0.80360000  0.53380000  0.56280000  1.0 0.110477315
H  H15  1  0.24080000  0.80360000  0.26980000  1.0 0.110477315
H  H16  1  0.53380000  0.97100000  0.73020000  1.0 0.110477315
H  H17  1  0.97100000  0.53380000  0.73020000  1.0 0.110477315
H  H18  1  0.53380000  0.80360000  0.56280000  1.0 0.110477315
H  H19  1  0.80360000  0.24080000  0.26980000  1.0 0.110477315
H  H20  1  0.24080000  0.97100000  0.43720000  1.0 0.110477315
H  H21  1  0.02900000  0.75920000  0.56280000  1.0 0.110477315
H  H22  1  0.19640000  0.46620000  0.43720000  1.0 0.110477315
H  H23  1  0.75920000  0.19640000  0.73020000  1.0 0.110477315
H  H24  1  0.46620000  0.02900000  0.26980000  1.0 0.110477315
H  H25  1  0.06390000  0.45560000  0.22090000  1.0 0.110477315
H  H26  1  0.45560000  0.23470000  0.39170000  1.0 0.110477315
H  H27  1  0.23470000  0.84300000  0.77910000  1.0 0.110477315
H  H28  1  0.84300000  0.06390000  0.60830000  1.0 0.110477315
H  H29  1  0.93610000  0.15700000  0.39170000  1.0 0.110477315
H  H30  1  0.76530000  0.54440000  0.60830000  1.0 0.110477315
H  H31  1  0.15700000  0.76530000  0.22090000  1.0 0.110477315
H  H32  1  0.54440000  0.93610000  0.77910000  1.0 0.110477315
H  H33  1  0.93610000  0.54440000  0.77910000  1.0 0.110477315
H  H34  1  0.54440000  0.76530000  0.60830000  1.0 0.110477315
H  H35  1  0.76530000  0.15700000  0.22090000  1.0 0.110477315
H  H36  1  0.15700000  0.93610000  0.39170000  1.0 0.110477315
H  H37  1  0.06390000  0.84300000  0.60830000  1.0 0.110477315
H  H38  1  0.23470000  0.45560000  0.39170000  1.0 0.110477315
H  H39  1  0.84300000  0.23470000  0.77910000  1.0 0.110477315
H  H40  1  0.45560000  0.06390000  0.22090000  1.0 0.110477315
H  H41  1  0.29560000  0.50290000  0.42450000  1.0 0.1190491622
H  H42  1  0.50290000  0.07840000  0.20730000  1.0 0.1190491622
H  H43  1  0.07840000  0.87110000  0.57550000  1.0 0.1190491622
H  H44  1  0.87110000  0.29560000  0.79270000  1.0 0.1190491622
H  H45  1  0.70440000  0.12890000  0.20730000  1.0 0.1190491622
H  H46  1  0.92160000  0.49710000  0.79270000  1.0 0.1190491622
H  H47  1  0.12890000  0.92160000  0.42450000  1.0 0.1190491622
H  H48  1  0.49710000  0.70440000  0.57550000  1.0 0.1190491622
H  H49  1  0.70440000  0.49710000  0.57550000  1.0 0.1190491622
H  H50  1  0.49710000  0.92160000  0.79270000  1.0 0.1190491622
H  H51  1  0.92160000  0.12890000  0.42450000  1.0 0.1190491622
H  H52  1  0.12890000  0.70440000  0.20730000  1.0 0.1190491622
H  H53  1  0.29560000  0.87110000  0.79270000  1.0 0.1190491622
H  H54  1  0.07840000  0.50290000  0.20730000  1.0 0.1190491622
H  H55  1  0.87110000  0.07840000  0.57550000  1.0 0.1190491622
H  H56  1  0.50290000  0.29560000  0.42450000  1.0 0.1190491622
H  H57  1  0.24160000  0.49280000  0.25120000  1.0 0.140836828
H  H58  1  0.49280000  0.24160000  0.25120000  1.0 0.140836828
H  H59  1  0.24160000  0.99040000  0.74880000  1.0 0.140836828
H  H60  1  0.99040000  0.24160000  0.74880000  1.0 0.140836828
H  H61  1  0.75840000  0.00960000  0.25120000  1.0 0.140836828
H  H62  1  0.75840000  0.50720000  0.74880000  1.0 0.140836828
H  H63  1  0.00960000  0.75840000  0.25120000  1.0 0.140836828
H  H64  1  0.50720000  0.75840000  0.74880000  1.0 0.140836828
H  H65  1  0.03070000  0.58740000  0.36270000  1.0 0.097950982
H  H66  1  0.58740000  0.22470000  0.55670000  1.0 0.097950982
H  H67  1  0.22470000  0.66800000  0.63730000  1.0 0.097950982
H  H68  1  0.66800000  0.03070000  0.44330000  1.0 0.097950982
H  H69  1  0.96930000  0.33200000  0.55670000  1.0 0.097950982
H  H70  1  0.77530000  0.41260000  0.44330000  1.0 0.097950982
H  H71  1  0.33200000  0.77530000  0.36270000  1.0 0.097950982
H  H72  1  0.41260000  0.96930000  0.63730000  1.0 0.097950982
H  H73  1  0.96930000  0.41260000  0.63730000  1.0 0.097950982
H  H74  1  0.41260000  0.77530000  0.44330000  1.0 0.097950982
H  H75  1  0.77530000  0.33200000  0.36270000  1.0 0.097950982
H  H76  1  0.33200000  0.96930000  0.55670000  1.0 0.097950982
H  H77  1  0.03070000  0.66800000  0.44330000  1.0 0.097950982
H  H78  1  0.22470000  0.58740000  0.55670000  1.0 0.097950982
H  H79  1  0.66800000  0.22470000  0.63730000  1.0 0.097950982
H  H80  1  0.58740000  0.03070000  0.36270000  1.0 0.097950982
H  H81  1  0.05950000  0.57510000  0.30840000  1.0 0.110477315
H  H82  1  0.57510000  0.26670000  0.51560000  1.0 0.110477315
H  H83  1  0.26670000  0.75110000  0.69160000  1.0 0.110477315
H  H84  1  0.75110000  0.05950000  0.48440000  1.0 0.110477315
H  H85  1  0.94050000  0.24890000  0.51560000  1.0 0.110477315
H  H86  1  0.73330000  0.42490000  0.48440000  1.0 0.110477315
H  H87  1  0.24890000  0.73330000  0.30840000  1.0 0.110477315
H  H88  1  0.42490000  0.94050000  0.69160000  1.0 0.110477315
H  H89  1  0.94050000  0.42490000  0.69160000  1.0 0.110477315
H  H90  1  0.42490000  0.73330000  0.48440000  1.0 0.110477315
H  H91  1  0.73330000  0.24890000  0.30840000  1.0 0.110477315
H  H92  1  0.24890000  0.94050000  0.51560000  1.0 0.110477315
H  H93  1  0.05950000  0.75110000  0.48440000  1.0 0.110477315
H  H94  1  0.26670000  0.57510000  0.51560000  1.0 0.110477315
H  H95  1  0.75110000  0.26670000  0.69160000  1.0 0.110477315
H  H96  1  0.57510000  0.05950000  0.30840000  1.0 0.110477315
C  C1  1  0.02029000  0.48209000  0.46180000  1.0 0.1481975676
C  C2  1  0.48209000  0.02029000  0.46180000  1.0 0.1481975676
C  C3  1  0.02029000  0.55849000  0.53820000  1.0 0.1481975676
C  C4  1  0.55849000  0.02029000  0.53820000  1.0 0.1481975676
C  C5  1  0.97971000  0.44151000  0.46180000  1.0 0.1481975676
C  C6  1  0.97971000  0.51791000  0.53820000  1.0 0.1481975676
C  C7  1  0.44151000  0.97971000  0.46180000  1.0 0.1481975676
C  C8  1  0.51791000  0.97971000  0.53820000  1.0 0.1481975676
C  C9  1  0.03955000  0.46635000  0.42680000  1.0 -0.2271936493
C  C10  1  0.46635000  0.03955000  0.42680000  1.0 -0.2271936493
C  C11  1  0.03955000  0.61275000  0.57320000  1.0 -0.2271936493
C  C12  1  0.61275000  0.03955000  0.57320000  1.0 -0.2271936493
C  C13  1  0.96045000  0.38725000  0.42680000  1.0 -0.2271936493
C  C14  1  0.96045000  0.53365000  0.57320000  1.0 -0.2271936493
C  C15  1  0.38725000  0.96045000  0.42680000  1.0 -0.2271936493
C  C16  1  0.53365000  0.96045000  0.57320000  1.0 -0.2271936493
C  C17  1  0.05926000  0.52286000  0.46360000  1.0 0.0923227981
C  C18  1  0.52286000  0.05926000  0.46360000  1.0 0.0923227981
C  C19  1  0.05926000  0.59566000  0.53640000  1.0 0.0923227981
C  C20  1  0.59566000  0.05926000  0.53640000  1.0 0.0923227981
C  C21  1  0.94074000  0.40434000  0.46360000  1.0 0.0923227981
C  C22  1  0.94074000  0.47714000  0.53640000  1.0 0.0923227981
C  C23  1  0.40434000  0.94074000  0.46360000  1.0 0.0923227981
C  C24  1  0.47714000  0.94074000  0.53640000  1.0 0.0923227981
C  C25  1  0.09717000  0.55917000  0.46200000  1.0 0.097950982
C  C26  1  0.55917000  0.09717000  0.46200000  1.0 0.097950982
C  C27  1  0.09717000  0.63517000  0.53800000  1.0 0.097950982
C  C28  1  0.63517000  0.09717000  0.53800000  1.0 0.110477315
C  C29  1  0.90283000  0.36483000  0.46200000  1.0 0.110477315
C  C30  1  0.90283000  0.44083000  0.53800000  1.0 0.097950982
C  C31  1  0.36483000  0.90283000  0.46200000  1.0 0.097950982
C  C32  1  0.44083000  0.90283000  0.53800000  1.0 0.097950982
C  C33  1  0.11890000  0.53780000  0.41890000  1.0 0.027664337
C  C34  1  0.53780000  0.11890000  0.41890000  1.0 0.027664337
C  C35  1  0.11890000  0.70000000  0.58110000  1.0 0.027664337
C  C36  1  0.70000000  0.11890000  0.58110000  1.0 0.027664337
C  C37  1  0.88110000  0.30000000  0.41890000  1.0 0.027664337
C  C38  1  0.88110000  0.46220000  0.58110000  1.0 0.027664337
C  C39  1  0.30000000  0.88110000  0.41890000  1.0 0.027664337
C  C40  1  0.46220000  0.88110000  0.58110000  1.0 0.027664337
C  C41  1  0.07300000  0.49170000  0.31810000  1.0 -0.0710797337
C  C42  1  0.49170000  0.17360000  0.41870000  1.0 -0.0710797337
C  C43  1  0.17360000  0.75490000  0.68190000  1.0 -0.0710797337
C  C44  1  0.75490000  0.07300000  0.58130000  1.0 -0.0710797337
C  C45  1  0.92700000  0.24510000  0.41870000  1.0 -0.0710797337
C  C46  1  0.82640000  0.50830000  0.58130000  1.0 -0.0710797337
C  C47  1  0.24510000  0.82640000  0.31810000  1.0 -0.0710797337
C  C48  1  0.50830000  0.92700000  0.68190000  1.0 -0.0710797337
C  C49  1  0.92700000  0.50830000  0.68190000  1.0 -0.0710797337
C  C50  1  0.50830000  0.82640000  0.58130000  1.0 -0.0710797337
C  C51  1  0.82640000  0.24510000  0.31810000  1.0 -0.0710797337
C  C52  1  0.24510000  0.92700000  0.41870000  1.0 -0.0710797337
C  C53  1  0.07300000  0.75490000  0.58130000  1.0 -0.0710797337
C  C54  1  0.17360000  0.49170000  0.41870000  1.0 -0.0710797337
C  C55  1  0.75490000  0.17360000  0.68190000  1.0 -0.0710797337
C  C56  1  0.49170000  0.07300000  0.31810000  1.0 -0.0710797337
C  C57  1  0.09600000  0.48420000  0.28960000  1.0 -0.062407572
C  C58  1  0.48420000  0.19460000  0.38820000  1.0 -0.062407572
C  C59  1  0.19460000  0.80640000  0.71040000  1.0 -0.062407572
C  C60  1  0.80640000  0.09600000  0.61180000  1.0 -0.062407572
C  C61  1  0.90400000  0.19360000  0.38820000  1.0 -0.062407572
C  C62  1  0.80540000  0.51580000  0.61180000  1.0 -0.062407572
C  C63  1  0.19360000  0.80540000  0.28960000  1.0 -0.062407572
C  C64  1  0.51580000  0.90400000  0.71040000  1.0 -0.062407572
C  C65  1  0.90400000  0.51580000  0.71040000  1.0 -0.062407572
C  C66  1  0.51580000  0.80540000  0.61180000  1.0 -0.062407572
C  C67  1  0.80540000  0.19360000  0.28960000  1.0 -0.062407572
C  C68  1  0.19360000  0.90400000  0.38820000  1.0 -0.062407572
C  C69  1  0.09600000  0.80640000  0.61180000  1.0 -0.062407572
C  C70  1  0.19460000  0.48420000  0.38820000  1.0 -0.062407572
C  C71  1  0.80640000  0.19460000  0.71040000  1.0 -0.062407572
C  C72  1  0.48420000  0.09600000  0.28960000  1.0 -0.062407572
C  C73  1  0.16005000  0.51595000  0.35590000  1.0 0.0588976346
C  C74  1  0.51595000  0.16005000  0.35590000  1.0 0.0588976346
C  C75  1  0.16005000  0.80415000  0.64410000  1.0 0.0588976346
C  C76  1  0.80415000  0.16005000  0.64410000  1.0 0.0588976346
C  C77  1  0.83995000  0.19585000  0.35590000  1.0 0.0588976346
C  C78  1  0.83995000  0.48405000  0.64410000  1.0 0.0588976346
C  C79  1  0.19585000  0.83995000  0.35590000  1.0 0.0588976346
C  C80  1  0.48405000  0.83995000  0.64410000  1.0 0.0588976346
C  C81  1  0.18396000  0.50626000  0.32230000  1.0 0.0470465134
C  C82  1  0.50626000  0.18396000  0.32230000  1.0 0.0470465134
C  C83  1  0.18396000  0.86166000  0.67770000  1.0 0.0470465134
C  C84  1  0.86166000  0.18396000  0.67770000  1.0 0.0470465134
C  C85  1  0.81604000  0.13834000  0.32230000  1.0 0.0470465134
C  C86  1  0.81604000  0.49374000  0.67770000  1.0 0.0470465134
C  C87  1  0.13834000  0.81604000  0.32230000  1.0 0.0470465134
C  C88  1  0.49374000  0.81604000  0.67770000  1.0 0.0470465134
C  C89  1  0.25995000  0.50315000  0.37400000  1.0 -0.1641656463
C  C90  1  0.50315000  0.12915000  0.24320000  1.0 -0.1641656463
C  C91  1  0.12915000  0.88595000  0.62600000  1.0 -0.1641656463
C  C92  1  0.88595000  0.25995000  0.75680000  1.0 -0.1641656463
C  C93  1  0.74005000  0.11405000  0.24320000  1.0 -0.1641656463
C  C94  1  0.87085000  0.49685000  0.75680000  1.0 -0.1641656463
C  C95  1  0.11405000  0.87085000  0.37400000  1.0 -0.1641656463
C  C96  1  0.49685000  0.74005000  0.62600000  1.0 -0.1641656463
C  C97  1  0.74005000  0.49685000  0.62600000  1.0 -0.1641656463
C  C98  1  0.49685000  0.87085000  0.75680000  1.0 -0.1641656463
C  C99  1  0.87085000  0.11405000  0.37400000  1.0 -0.1641656463
C  C100  1  0.11405000  0.74005000  0.24320000  1.0 -0.1641656463
C  C101  1  0.25995000  0.88595000  0.75680000  1.0 -0.1641656463
C  C102  1  0.12915000  0.50315000  0.24320000  1.0 -0.1641656463
C  C103  1  0.88595000  0.12915000  0.62600000  1.0 -0.1641656463
C  C104  1  0.50315000  0.25995000  0.37400000  1.0 -0.1641656463
C  C105  1  0.28316000  0.50036000  0.35040000  1.0 -0.0121228161
C  C106  1  0.50036000  0.14996000  0.21720000  1.0 -0.0121228161
C  C107  1  0.14996000  0.93276000  0.64960000  1.0 -0.0121228161
C  C108  1  0.93276000  0.28316000  0.78280000  1.0 -0.0121228161
C  C109  1  0.71684000  0.06724000  0.21720000  1.0 -0.0121228161
C  C110  1  0.85004000  0.49964000  0.78280000  1.0 -0.0121228161
C  C111  1  0.06724000  0.85004000  0.35040000  1.0 -0.0121228161
C  C112  1  0.49964000  0.71684000  0.64960000  1.0 -0.0121228161
C  C113  1  0.71684000  0.49964000  0.64960000  1.0 -0.0121228161
C  C114  1  0.49964000  0.85004000  0.78280000  1.0 -0.0121228161
C  C115  1  0.85004000  0.06724000  0.35040000  1.0 -0.0121228161
C  C116  1  0.06724000  0.71684000  0.21720000  1.0 -0.0121228161
C  C117  1  0.28316000  0.93276000  0.78280000  1.0 -0.0121228161
C  C118  1  0.14996000  0.50036000  0.21720000  1.0 -0.0121228161
C  C119  1  0.93276000  0.14996000  0.64960000  1.0 -0.0121228161
C  C120  1  0.50036000  0.28316000  0.35040000  1.0 -0.0121228161
C  C121  1  0.22720000  0.49710000  0.26990000  1.0 -0.1121875005
C  C122  1  0.49710000  0.22720000  0.26990000  1.0 -0.1121875005
C  C123  1  0.22720000  0.95730000  0.73010000  1.0 -0.1121875005
C  C124  1  0.95730000  0.22720000  0.73010000  1.0 -0.1121875005
C  C125  1  0.77280000  0.04270000  0.26990000  1.0 -0.1121875005
C  C126  1  0.77280000  0.50290000  0.73010000  1.0 -0.1121875005
C  C127  1  0.04270000  0.77280000  0.26990000  1.0 -0.1121875005
C  C128  1  0.50290000  0.77280000  0.73010000  1.0 -0.1121875005
C  C129  1  0.36425000  0.50055000  0.40650000  1.0 0.5799235446
C  C130  1  0.50055000  0.09405000  0.13630000  1.0 0.5799235446
C  C131  1  0.09405000  0.95775000  0.59350000  1.0 0.5799235446
C  C132  1  0.95775000  0.36425000  0.86370000  1.0 0.5799235446
C  C133  1  0.63575000  0.04225000  0.13630000  1.0 0.5799235446
C  C134  1  0.90595000  0.49945000  0.86370000  1.0 0.5799235446
C  C135  1  0.04225000  0.90595000  0.40650000  1.0 0.5799235446
C  C136  1  0.49945000  0.63575000  0.59350000  1.0 0.5799235446
C  C137  1  0.63575000  0.49945000  0.59350000  1.0 0.5799235446
C  C138  1  0.49945000  0.90595000  0.86370000  1.0 0.5799235446
C  C139  1  0.90595000  0.04225000  0.40650000  1.0 0.5799235446
C  C140  1  0.04225000  0.63575000  0.13630000  1.0 0.5799235446
C  C141  1  0.36425000  0.95775000  0.86370000  1.0 0.5799235446
C  C142  1  0.09405000  0.50055000  0.13630000  1.0 0.5799235446
C  C143  1  0.95775000  0.09405000  0.59350000  1.0 0.5799235446
C  C144  1  0.50055000  0.36425000  0.40650000  1.0 0.5799235446
C  C145  1  0.07360000  0.56390000  0.37170000  1.0 -0.1158734406
C  C146  1  0.56390000  0.19220000  0.49030000  1.0 -0.1158734406
C  C147  1  0.19220000  0.70190000  0.62830000  1.0 -0.1158734406
C  C148  1  0.70190000  0.07360000  0.50970000  1.0 -0.1158734406
C  C149  1  0.92640000  0.29810000  0.49030000  1.0 -0.1158734406
C  C150  1  0.80780000  0.43610000  0.50970000  1.0 -0.1121875005
C  C151  1  0.29810000  0.80780000  0.37170000  1.0 -0.1158734406
C  C152  1  0.43610000  0.92640000  0.62830000  1.0 -0.1158734406
C  C153  1  0.92640000  0.43610000  0.62830000  1.0 -0.1158734406
C  C154  1  0.43610000  0.80780000  0.50970000  1.0 -0.1158734406
C  C155  1  0.80780000  0.29810000  0.37170000  1.0 -0.1158734406
C  C156  1  0.29810000  0.92640000  0.49030000  1.0 -0.1121875005
C  C157  1  0.07360000  0.70190000  0.50970000  1.0 -0.1158734406
C  C158  1  0.19220000  0.56390000  0.49030000  1.0 -0.1158734406
C  C159  1  0.70190000  0.19220000  0.62830000  1.0 -0.1158734406
C  C160  1  0.56390000  0.07360000  0.37170000  1.0 -0.1158734406
C  C161  1  0.08900000  0.55690000  0.33850000  1.0 -0.1121875005
C  C162  1  0.55690000  0.21840000  0.46790000  1.0 -0.1121875005
C  C163  1  0.21840000  0.75050000  0.66150000  1.0 -0.1121875005
C  C164  1  0.75050000  0.08900000  0.53210000  1.0 -0.1121875005
C  C165  1  0.91100000  0.24950000  0.46790000  1.0 -0.1121875005
C  C166  1  0.78160000  0.44310000  0.53210000  1.0 -0.1121875005
C  C167  1  0.24950000  0.78160000  0.33850000  1.0 -0.1121875005
C  C168  1  0.44310000  0.91100000  0.66150000  1.0 -0.1121875005
C  C169  1  0.91100000  0.44310000  0.66150000  1.0 -0.1121875005
C  C170  1  0.44310000  0.78160000  0.53210000  1.0 -0.1121875005
C  C171  1  0.78160000  0.24950000  0.33850000  1.0 -0.1121875005
C  C172  1  0.24950000  0.91100000  0.46790000  1.0 -0.1121875005
C  C173  1  0.08900000  0.75050000  0.53210000  1.0 -0.1121875005
C  C174  1  0.21840000  0.55690000  0.46790000  1.0 -0.1121875005
C  C175  1  0.75050000  0.21840000  0.66150000  1.0 -0.1121875005
C  C176  1  0.55690000  0.08900000  0.33850000  1.0 -0.1121875005
N  N1  1  0.07823000  0.50213000  0.42390000  1.0 -0.309013381
N  N2  1  0.50213000  0.07823000  0.42390000  1.0 -0.309013381
N  N3  1  0.07823000  0.65433000  0.57610000  1.0 -0.309013381
N  N4  1  0.65433000  0.07823000  0.57610000  1.0 -0.309013381
N  N5  1  0.92177000  0.34567000  0.42390000  1.0 -0.309013381
N  N6  1  0.92177000  0.49787000  0.57610000  1.0 -0.309013381
N  N7  1  0.34567000  0.92177000  0.42390000  1.0 -0.309013381
N  N8  1  0.49787000  0.92177000  0.57610000  1.0 -0.309013381
O  O1  1  0.00000000  0.42710000  0.42710000  1.0 -0.1675997371
O  O2  1  0.42710000  0.00000000  0.42710000  1.0 -0.1675997371
O  O3  1  0.00000000  0.57290000  0.57290000  1.0 -0.1675997371
O  O4  1  0.57290000  0.00000000  0.57290000  1.0 -0.1675997371
O  O5  1  0.41398000  0.51518000  0.48960000  1.0 -0.5382588835
O  O6  1  0.51518000  0.02558000  0.10120000  1.0 -0.5382588835
O  O7  1  0.02558000  0.92438000  0.51040000  1.0 -0.5382588835
O  O8  1  0.92438000  0.41398000  0.89880000  1.0 -0.5382588835
O  O9  1  0.58602000  0.07562000  0.10120000  1.0 -0.5382588835
O  O10  1  0.97442000  0.48482000  0.89880000  1.0 -0.5382588835
O  O11  1  0.07562000  0.97442000  0.48960000  1.0 -0.5382588835
O  O12  1  0.48482000  0.58602000  0.51040000  1.0 -0.5382588835
O  O13  1  0.58602000  0.48482000  0.51040000  1.0 -0.5382588835
O  O14  1  0.48482000  0.97442000  0.89880000  1.0 -0.5382588835
O  O15  1  0.97442000  0.07562000  0.48960000  1.0 -0.5382588835
O  O16  1  0.07562000  0.58602000  0.10120000  1.0 -0.5382588835
O  O17  1  0.41398000  0.92438000  0.89880000  1.0 -0.5382588835
O  O18  1  0.02558000  0.51518000  0.10120000  1.0 -0.5382588835
O  O19  1  0.92438000  0.02558000  0.51040000  1.0 -0.5382588835
O  O20  1  0.51518000  0.41398000  0.48960000  1.0 -0.5382588835
O  O21  1  0.37796000  0.48416000  0.36740000  1.0 -0.518760729
O  O22  1  0.48416000  0.11676000  0.10620000  1.0 -0.518760729
O  O23  1  0.11676000  0.01056000  0.63260000  1.0 -0.518760729
O  O24  1  0.01056000  0.37796000  0.89380000  1.0 -0.518760729
O  O25  1  0.62204000  0.98944000  0.10620000  1.0 -0.518760729
O  O26  1  0.88324000  0.51584000  0.89380000  1.0 -0.518760729
O  O27  1  0.98944000  0.88324000  0.36740000  1.0 -0.518760729
O  O28  1  0.51584000  0.62204000  0.63260000  1.0 -0.518760729
O  O29  1  0.62204000  0.51584000  0.63260000  1.0 -0.518760729
O  O30  1  0.51584000  0.88324000  0.89380000  1.0 -0.518760729
O  O31  1  0.88324000  0.98944000  0.36740000  1.0 -0.518760729
O  O32  1  0.98944000  0.62204000  0.10620000  1.0 -0.518760729
O  O33  1  0.37796000  0.01056000  0.89380000  1.0 -0.518760729
O  O34  1  0.11676000  0.48416000  0.10620000  1.0 -0.518760729
O  O35  1  0.01056000  0.11676000  0.63260000  1.0 -0.518760729
O  O36  1  0.48416000  0.37796000  0.36740000  1.0 -0.518760729
