# DDEC6 charges by PACMAN v1.1 (https://github.com/mtap-research/PACMAN-charge/)
data_LAPZEK_ASR_pacman
_symmetry_space_group_name_H-M   'P 1'
_cell_length_a   28.56250000
_cell_length_b   28.56250000
_cell_length_c   28.56250000
_cell_angle_alpha   141.80900000
_cell_angle_beta   141.80900000
_cell_angle_gamma   55.11660000
_symmetry_Int_Tables_number   1
_chemical_formula_structural   Cu2H23C41(NO4)2
_chemical_formula_sum   'Cu8 H92 C164 N8 O32'
_cell_volume   8843.50272791
_cell_formula_units_Z   4
loop_
 _symmetry_equiv_pos_site_id
 _symmetry_equiv_pos_as_xyz
  1  'x, y, z'
loop_
 _atom_site_type_symbol
 _atom_site_label
 _atom_site_symmetry_multiplicity
 _atom_site_fract_x
 _atom_site_fract_y
 _atom_site_fract_z
 _atom_site_occupancy
 _atom_site_charge
Cu  Cu1  1  0.01569000  0.44597000  0.00000000  1.0 0.8701267185
Cu  Cu2  1  0.44597000  0.44597000  0.43028000  1.0 0.8701267185
Cu  Cu3  1  0.44597000  0.01569000  0.00000000  1.0 0.8701267185
Cu  Cu4  1  0.01569000  0.01569000  0.56972000  1.0 0.8701267185
Cu  Cu5  1  0.98431000  0.98431000  0.43028000  1.0 0.8701267185
Cu  Cu6  1  0.55403000  0.55403000  0.56972000  1.0 0.8701267185
Cu  Cu7  1  0.98431000  0.55403000  0.00000000  1.0 0.8701267185
Cu  Cu8  1  0.55403000  0.98431000  0.00000000  1.0 0.8701267185
H  H1  1  0.50000000  0.12570000  0.62570000  1.0 0.1540914306
H  H2  1  0.12570000  0.50000000  0.62570000  1.0 0.1540914306
H  H3  1  0.50000000  0.87430000  0.37430000  1.0 0.1540914306
H  H4  1  0.87430000  0.50000000  0.37430000  1.0 0.1540914306
H  H5  1  0.67090000  0.23090000  0.72440000  1.0 0.1086121933
H  H6  1  0.23090000  0.50650000  0.56000000  1.0 0.1086121933
H  H7  1  0.50650000  0.94650000  0.27560000  1.0 0.1086121933
H  H8  1  0.94650000  0.67090000  0.44000000  1.0 0.1086121933
H  H9  1  0.32910000  0.05350000  0.56000000  1.0 0.1086121933
H  H10  1  0.49350000  0.76910000  0.44000000  1.0 0.1086121933
H  H11  1  0.05350000  0.49350000  0.72440000  1.0 0.1086121933
H  H12  1  0.76910000  0.32910000  0.27560000  1.0 0.1086121933
H  H13  1  0.32910000  0.76910000  0.27560000  1.0 0.1086121933
H  H14  1  0.76910000  0.49350000  0.44000000  1.0 0.1086121933
H  H15  1  0.49350000  0.05350000  0.72440000  1.0 0.1086121933
H  H16  1  0.05350000  0.32910000  0.56000000  1.0 0.1086121933
H  H17  1  0.67090000  0.94650000  0.44000000  1.0 0.1086121933
H  H18  1  0.50650000  0.23090000  0.56000000  1.0 0.1086121933
H  H19  1  0.94650000  0.50650000  0.27560000  1.0 0.1086121933
H  H20  1  0.23090000  0.67090000  0.72440000  1.0 0.1086121933
H  H21  1  0.70930000  0.33080000  0.78150000  1.0 0.1086121933
H  H22  1  0.33080000  0.54930000  0.62150000  1.0 0.1086121933
H  H23  1  0.54930000  0.92780000  0.21850000  1.0 0.1086121933
H  H24  1  0.92780000  0.70930000  0.37850000  1.0 0.1086121933
H  H25  1  0.29070000  0.07220000  0.62150000  1.0 0.1086121933
H  H26  1  0.45070000  0.66920000  0.37850000  1.0 0.1086121933
H  H27  1  0.07220000  0.45070000  0.78150000  1.0 0.1086121933
H  H28  1  0.66920000  0.29070000  0.21850000  1.0 0.1086121933
H  H29  1  0.29070000  0.66920000  0.21850000  1.0 0.1086121933
H  H30  1  0.66920000  0.45070000  0.37850000  1.0 0.1086121933
H  H31  1  0.45070000  0.07220000  0.78150000  1.0 0.1086121933
H  H32  1  0.07220000  0.29070000  0.62150000  1.0 0.1086121933
H  H33  1  0.70930000  0.92780000  0.37850000  1.0 0.1086121933
H  H34  1  0.54930000  0.33080000  0.62150000  1.0 0.1086121933
H  H35  1  0.92780000  0.54930000  0.21850000  1.0 0.1086121933
H  H36  1  0.33080000  0.70930000  0.78150000  1.0 0.1086121933
H  H37  1  0.78510000  0.35830000  0.78940000  1.0 0.1219344115
H  H38  1  0.35830000  0.56890000  0.57320000  1.0 0.1219344115
H  H39  1  0.56890000  0.99570000  0.21060000  1.0 0.1219344115
H  H40  1  0.99570000  0.78510000  0.42680000  1.0 0.1219344115
H  H41  1  0.21490000  0.00430000  0.57320000  1.0 0.1219344115
H  H42  1  0.43110000  0.64170000  0.42680000  1.0 0.1219344115
H  H43  1  0.00430000  0.43110000  0.78940000  1.0 0.1251218484
H  H44  1  0.64170000  0.21490000  0.21060000  1.0 0.1219344115
H  H45  1  0.21490000  0.64170000  0.21060000  1.0 0.1219344115
H  H46  1  0.64170000  0.43110000  0.42680000  1.0 0.1219344115
H  H47  1  0.43110000  0.00430000  0.78940000  1.0 0.1219344115
H  H48  1  0.00430000  0.21490000  0.57320000  1.0 0.1251218484
H  H49  1  0.78510000  0.99570000  0.42680000  1.0 0.1219344115
H  H50  1  0.56890000  0.35830000  0.57320000  1.0 0.1219344115
H  H51  1  0.99570000  0.56890000  0.21060000  1.0 0.1219344115
H  H52  1  0.35830000  0.78510000  0.78940000  1.0 0.1219344115
H  H53  1  0.74060000  0.49300000  0.75240000  1.0 0.142143944
H  H54  1  0.49300000  0.74060000  0.75240000  1.0 0.142143944
H  H55  1  0.74060000  0.98820000  0.24760000  1.0 0.142143944
H  H56  1  0.98820000  0.74060000  0.24760000  1.0 0.142143944
H  H57  1  0.25940000  0.01180000  0.75240000  1.0 0.142143944
H  H58  1  0.25940000  0.50700000  0.24760000  1.0 0.142143944
H  H59  1  0.01180000  0.25940000  0.75240000  1.0 0.142143944
H  H60  1  0.50700000  0.25940000  0.24760000  1.0 0.142143944
H  H61  1  0.70450000  0.14230000  0.63100000  1.0 0.0771132911
H  H62  1  0.14230000  0.51130000  0.43780000  1.0 0.0771132911
H  H63  1  0.51130000  0.07350000  0.36900000  1.0 0.0771132911
H  H64  1  0.07350000  0.70450000  0.56220000  1.0 0.0771132911
H  H65  1  0.29550000  0.92650000  0.43780000  1.0 0.0771132911
H  H66  1  0.48870000  0.85770000  0.56220000  1.0 0.0771132911
H  H67  1  0.92650000  0.48870000  0.63100000  1.0 0.0771132911
H  H68  1  0.85770000  0.29550000  0.36900000  1.0 0.0771132911
H  H69  1  0.29550000  0.85770000  0.36900000  1.0 0.0771132911
H  H70  1  0.85770000  0.48870000  0.56220000  1.0 0.0771132911
H  H71  1  0.48870000  0.92650000  0.63100000  1.0 0.0771132911
H  H72  1  0.92650000  0.29550000  0.43780000  1.0 0.0771132911
H  H73  1  0.70450000  0.07350000  0.56220000  1.0 0.0771132911
H  H74  1  0.51130000  0.14230000  0.43780000  1.0 0.0771132911
H  H75  1  0.07350000  0.51130000  0.36900000  1.0 0.0771132911
H  H76  1  0.14230000  0.70450000  0.63100000  1.0 0.0771132911
H  H77  1  0.74320000  0.23600000  0.67900000  1.0 0.1086121933
H  H78  1  0.23600000  0.55700000  0.49280000  1.0 0.1086121933
H  H79  1  0.55700000  0.06420000  0.32100000  1.0 0.1086121933
H  H80  1  0.06420000  0.74320000  0.50720000  1.0 0.1086121933
H  H81  1  0.25680000  0.93580000  0.49280000  1.0 0.1086121933
H  H82  1  0.44300000  0.76400000  0.50720000  1.0 0.1086121933
H  H83  1  0.93580000  0.44300000  0.67900000  1.0 0.1086121933
H  H84  1  0.76400000  0.25680000  0.32100000  1.0 0.1086121933
H  H85  1  0.25680000  0.76400000  0.32100000  1.0 0.1086121933
H  H86  1  0.76400000  0.44300000  0.50720000  1.0 0.1086121933
H  H87  1  0.44300000  0.93580000  0.67900000  1.0 0.1086121933
H  H88  1  0.93580000  0.25680000  0.49280000  1.0 0.1086121933
H  H89  1  0.74320000  0.06420000  0.50720000  1.0 0.1086121933
H  H90  1  0.55700000  0.23600000  0.49280000  1.0 0.1086121933
H  H91  1  0.06420000  0.55700000  0.32100000  1.0 0.1086121933
H  H92  1  0.23600000  0.74320000  0.67900000  1.0 0.1086121933
C  C1  1  0.50000000  0.07600000  0.57600000  1.0 -0.230781438
C  C2  1  0.07600000  0.50000000  0.57600000  1.0 -0.230781438
C  C3  1  0.50000000  0.92400000  0.42400000  1.0 -0.230781438
C  C4  1  0.92400000  0.50000000  0.42400000  1.0 -0.230781438
C  C5  1  0.52409000  0.06199000  0.53790000  1.0 0.142143944
C  C6  1  0.06199000  0.52409000  0.53790000  1.0 0.142143944
C  C7  1  0.52409000  0.98619000  0.46210000  1.0 0.142143944
C  C8  1  0.98619000  0.52409000  0.46210000  1.0 0.142143944
C  C9  1  0.47591000  0.01381000  0.53790000  1.0 0.142143944
C  C10  1  0.47591000  0.93801000  0.46210000  1.0 0.142143944
C  C11  1  0.01381000  0.47591000  0.53790000  1.0 0.142143944
C  C12  1  0.93801000  0.47591000  0.46210000  1.0 0.142143944
C  C13  1  0.56953000  0.10763000  0.53810000  1.0 0.1219344115
C  C14  1  0.10763000  0.56953000  0.53810000  1.0 0.1219344115
C  C15  1  0.56953000  0.03143000  0.46190000  1.0 0.1219344115
C  C16  1  0.03143000  0.56953000  0.46190000  1.0 0.1219344115
C  C17  1  0.43047000  0.96857000  0.53810000  1.0 0.1219344115
C  C18  1  0.43047000  0.89237000  0.46190000  1.0 0.1219344115
C  C19  1  0.96857000  0.43047000  0.53810000  1.0 0.1219344115
C  C20  1  0.89237000  0.43047000  0.46190000  1.0 0.1219344115
C  C21  1  0.59505000  0.17525000  0.58020000  1.0 0.0365966053
C  C22  1  0.17525000  0.59505000  0.58020000  1.0 0.0365966053
C  C23  1  0.59505000  0.01485000  0.41980000  1.0 0.0365966053
C  C24  1  0.01485000  0.59505000  0.41980000  1.0 0.0365966053
C  C25  1  0.40495000  0.98515000  0.58020000  1.0 0.0365966053
C  C26  1  0.40495000  0.82475000  0.41980000  1.0 0.0365966053
C  C27  1  0.98515000  0.40495000  0.58020000  1.0 0.0365966053
C  C28  1  0.82475000  0.40495000  0.41980000  1.0 0.0365966053
C  C29  1  0.64856000  0.23096000  0.67740000  1.0 -0.0498784489
C  C30  1  0.23096000  0.55356000  0.58240000  1.0 -0.0498784489
C  C31  1  0.55356000  0.97116000  0.32260000  1.0 -0.0498784489
C  C32  1  0.97116000  0.64856000  0.41760000  1.0 -0.0498784489
C  C33  1  0.35144000  0.02884000  0.58240000  1.0 -0.0498784489
C  C34  1  0.44644000  0.76904000  0.41760000  1.0 -0.0498784489
C  C35  1  0.02884000  0.44644000  0.67740000  1.0 -0.0498784489
C  C36  1  0.76904000  0.35144000  0.32260000  1.0 -0.0498784489
C  C37  1  0.35144000  0.76904000  0.32260000  1.0 -0.0498784489
C  C38  1  0.76904000  0.44644000  0.41760000  1.0 -0.0498784489
C  C39  1  0.44644000  0.02884000  0.67740000  1.0 -0.0498784489
C  C40  1  0.02884000  0.35144000  0.58240000  1.0 -0.0498784489
C  C41  1  0.64856000  0.97116000  0.41760000  1.0 -0.0498784489
C  C42  1  0.55356000  0.23096000  0.58240000  1.0 -0.0498784489
C  C43  1  0.97116000  0.55356000  0.32260000  1.0 -0.0498784489
C  C44  1  0.23096000  0.64856000  0.67740000  1.0 -0.0498784489
C  C45  1  0.67320000  0.29110000  0.71230000  1.0 -0.0676967001
C  C46  1  0.29110000  0.57880000  0.61790000  1.0 -0.0676967001
C  C47  1  0.57880000  0.96090000  0.28770000  1.0 -0.0676967001
C  C48  1  0.96090000  0.67320000  0.38210000  1.0 -0.0676967001
C  C49  1  0.32680000  0.03910000  0.61790000  1.0 -0.0676967001
C  C50  1  0.42120000  0.70890000  0.38210000  1.0 -0.0676967001
C  C51  1  0.03910000  0.42120000  0.71230000  1.0 -0.0676967001
C  C52  1  0.70890000  0.32680000  0.28770000  1.0 -0.0676967001
C  C53  1  0.32680000  0.70890000  0.28770000  1.0 -0.0676967001
C  C54  1  0.70890000  0.42120000  0.38210000  1.0 -0.0676967001
C  C55  1  0.42120000  0.03910000  0.71230000  1.0 -0.0676967001
C  C56  1  0.03910000  0.32680000  0.61790000  1.0 -0.0676967001
C  C57  1  0.67320000  0.96090000  0.38210000  1.0 -0.0676967001
C  C58  1  0.57880000  0.29110000  0.61790000  1.0 -0.0676967001
C  C59  1  0.96090000  0.57880000  0.28770000  1.0 -0.0676967001
C  C60  1  0.29110000  0.67320000  0.71230000  1.0 -0.0676967001
C  C61  1  0.64487000  0.29127000  0.64640000  1.0 0.0561631832
C  C62  1  0.29127000  0.64487000  0.64640000  1.0 0.0561631832
C  C63  1  0.64487000  0.99847000  0.35360000  1.0 0.0561631832
C  C64  1  0.99847000  0.64487000  0.35360000  1.0 0.0561631832
C  C65  1  0.35513000  0.00153000  0.64640000  1.0 0.0561631832
C  C66  1  0.35513000  0.70873000  0.35360000  1.0 0.0561631832
C  C67  1  0.00153000  0.35513000  0.64640000  1.0 0.0561631832
C  C68  1  0.70873000  0.35513000  0.35360000  1.0 0.0561631832
C  C69  1  0.67225000  0.34805000  0.67580000  1.0 0.0697765851
C  C70  1  0.34805000  0.67225000  0.67580000  1.0 0.0697765851
C  C71  1  0.67225000  0.99645000  0.32420000  1.0 0.0697765851
C  C72  1  0.99645000  0.67225000  0.32420000  1.0 0.0697765851
C  C73  1  0.32775000  0.00355000  0.67580000  1.0 0.0697765851
C  C74  1  0.32775000  0.65195000  0.32420000  1.0 0.0697765851
C  C75  1  0.00355000  0.32775000  0.67580000  1.0 0.0697765851
C  C76  1  0.65195000  0.32775000  0.32420000  1.0 0.0697765851
C  C77  1  0.75021000  0.37572000  0.75509000  1.0 -0.1653185843
C  C78  1  0.37572000  0.62063000  0.62551000  1.0 -0.1653185843
C  C79  1  0.62063000  0.99512000  0.24491000  1.0 -0.1653185843
C  C80  1  0.99512000  0.75021000  0.37449000  1.0 -0.1653185843
C  C81  1  0.24979000  0.00488000  0.62551000  1.0 -0.1653185843
C  C82  1  0.37937000  0.62428000  0.37449000  1.0 -0.1653185843
C  C83  1  0.00488000  0.37937000  0.75509000  1.0 -0.1653185843
C  C84  1  0.62428000  0.24979000  0.24491000  1.0 -0.1653185843
C  C85  1  0.24979000  0.62428000  0.24491000  1.0 -0.1653185843
C  C86  1  0.62428000  0.37937000  0.37449000  1.0 -0.1653185843
C  C87  1  0.37937000  0.00488000  0.75509000  1.0 -0.1653185843
C  C88  1  0.00488000  0.24979000  0.62551000  1.0 -0.1653185843
C  C89  1  0.75021000  0.99512000  0.37449000  1.0 -0.1653185843
C  C90  1  0.62063000  0.37572000  0.62551000  1.0 -0.1653185843
C  C91  1  0.99512000  0.62063000  0.24491000  1.0 -0.1653185843
C  C92  1  0.37572000  0.75021000  0.75509000  1.0 -0.1653185843
C  C93  1  0.77592000  0.42960000  0.78306000  1.0 -0.0123112893
C  C94  1  0.42960000  0.64654000  0.65368000  1.0 -0.0123112893
C  C95  1  0.64654000  0.99286000  0.21694000  1.0 -0.0123112893
C  C96  1  0.99286000  0.77592000  0.34632000  1.0 -0.0123112893
C  C97  1  0.22408000  0.00714000  0.65368000  1.0 -0.0123112893
C  C98  1  0.35346000  0.57040000  0.34632000  1.0 -0.0123112893
C  C99  1  0.00714000  0.35346000  0.78306000  1.0 -0.0123112893
C  C100  1  0.57040000  0.22408000  0.21694000  1.0 -0.0123112893
C  C101  1  0.22408000  0.57040000  0.21694000  1.0 -0.0123112893
C  C102  1  0.57040000  0.35346000  0.34632000  1.0 -0.0123112893
C  C103  1  0.35346000  0.00714000  0.78306000  1.0 -0.0123112893
C  C104  1  0.00714000  0.22408000  0.65368000  1.0 -0.0123112893
C  C105  1  0.77592000  0.99286000  0.34632000  1.0 -0.0123112893
C  C106  1  0.64654000  0.42960000  0.65368000  1.0 -0.0123112893
C  C107  1  0.99286000  0.64654000  0.21694000  1.0 -0.0123112893
C  C108  1  0.42960000  0.77592000  0.78306000  1.0 -0.0123112893
C  C109  1  0.72369000  0.45649000  0.73280000  1.0 -0.0979818835
C  C110  1  0.45649000  0.72369000  0.73280000  1.0 -0.0979818835
C  C111  1  0.72369000  0.99089000  0.26720000  1.0 -0.0979818835
C  C112  1  0.99089000  0.72369000  0.26720000  1.0 -0.0979818835
C  C113  1  0.27631000  0.00911000  0.73280000  1.0 -0.0979818835
C  C114  1  0.27631000  0.54351000  0.26720000  1.0 -0.0979818835
C  C115  1  0.00911000  0.27631000  0.73280000  1.0 -0.0979818835
C  C116  1  0.54351000  0.27631000  0.26720000  1.0 -0.0979818835
C  C117  1  0.85954000  0.45550000  0.86480000  1.0 0.5861707346
C  C118  1  0.45550000  0.59070000  0.59596000  1.0 0.5861707346
C  C119  1  0.59070000  0.99474000  0.13520000  1.0 0.5861707346
C  C120  1  0.99474000  0.85954000  0.40404000  1.0 0.5861707346
C  C121  1  0.14046000  0.00526000  0.59596000  1.0 0.5861707346
C  C122  1  0.40930000  0.54450000  0.40404000  1.0 0.5861707346
C  C123  1  0.00526000  0.40930000  0.86480000  1.0 0.5861707346
C  C124  1  0.54450000  0.14046000  0.13520000  1.0 0.5861707346
C  C125  1  0.14046000  0.54450000  0.13520000  1.0 0.5861707346
C  C126  1  0.54450000  0.40930000  0.40404000  1.0 0.5861707346
C  C127  1  0.40930000  0.00526000  0.86480000  1.0 0.5861707346
C  C128  1  0.00526000  0.14046000  0.59596000  1.0 0.5861707346
C  C129  1  0.85954000  0.99474000  0.40404000  1.0 0.5861707346
C  C130  1  0.59070000  0.45550000  0.59596000  1.0 0.5861707346
C  C131  1  0.99474000  0.59070000  0.13520000  1.0 0.5861707346
C  C132  1  0.45550000  0.85954000  0.86480000  1.0 0.5861707346
C  C133  1  0.67221000  0.17731000  0.62370000  1.0 -0.1302812605
C  C134  1  0.17731000  0.55361000  0.50510000  1.0 -0.1302812605
C  C135  1  0.55361000  0.04851000  0.37630000  1.0 -0.1302812605
C  C136  1  0.04851000  0.67221000  0.49490000  1.0 -0.1302812605
C  C137  1  0.32779000  0.95149000  0.50510000  1.0 -0.1302812605
C  C138  1  0.44639000  0.82269000  0.49490000  1.0 -0.1302812605
C  C139  1  0.95149000  0.44639000  0.62370000  1.0 -0.1302812605
C  C140  1  0.82269000  0.32779000  0.37630000  1.0 -0.1302812605
C  C141  1  0.32779000  0.82269000  0.37630000  1.0 -0.1302812605
C  C142  1  0.82269000  0.44639000  0.49490000  1.0 -0.1302812605
C  C143  1  0.44639000  0.95149000  0.62370000  1.0 -0.1302812605
C  C144  1  0.95149000  0.32779000  0.50510000  1.0 -0.1302812605
C  C145  1  0.67221000  0.04851000  0.49490000  1.0 -0.1302812605
C  C146  1  0.55361000  0.17731000  0.50510000  1.0 -0.1302812605
C  C147  1  0.04851000  0.55361000  0.37630000  1.0 -0.1302812605
C  C148  1  0.17731000  0.67221000  0.62370000  1.0 -0.1302812605
C  C149  1  0.69538000  0.23428000  0.65390000  1.0 -0.1196491627
C  C150  1  0.23428000  0.58038000  0.53890000  1.0 -0.1196491627
C  C151  1  0.58038000  0.04148000  0.34610000  1.0 -0.1196491627
C  C152  1  0.04148000  0.69538000  0.46110000  1.0 -0.1196491627
C  C153  1  0.30462000  0.95852000  0.53890000  1.0 -0.1196491627
C  C154  1  0.41962000  0.76572000  0.46110000  1.0 -0.1196491627
C  C155  1  0.95852000  0.41962000  0.65390000  1.0 -0.1196491627
C  C156  1  0.76572000  0.30462000  0.34610000  1.0 -0.1196491627
C  C157  1  0.30462000  0.76572000  0.34610000  1.0 -0.1196491627
C  C158  1  0.76572000  0.41962000  0.46110000  1.0 -0.1196491627
C  C159  1  0.41962000  0.95852000  0.65390000  1.0 -0.1196491627
C  C160  1  0.95852000  0.30462000  0.53890000  1.0 -0.1196491627
C  C161  1  0.69538000  0.04148000  0.46110000  1.0 -0.1196491627
C  C162  1  0.58038000  0.23428000  0.53890000  1.0 -0.1196491627
C  C163  1  0.04148000  0.58038000  0.34610000  1.0 -0.1196491627
C  C164  1  0.23428000  0.69538000  0.65390000  1.0 -0.1196491627
N  N1  1  0.54741000  0.12321000  0.57580000  1.0 -0.327607101
N  N2  1  0.12321000  0.54741000  0.57580000  1.0 -0.327607101
N  N3  1  0.54741000  0.97161000  0.42420000  1.0 -0.327607101
N  N4  1  0.97161000  0.54741000  0.42420000  1.0 -0.327607101
N  N5  1  0.45259000  0.02839000  0.57580000  1.0 -0.327607101
N  N6  1  0.45259000  0.87679000  0.42420000  1.0 -0.327607101
N  N7  1  0.02839000  0.45259000  0.57580000  1.0 -0.327607101
N  N8  1  0.87679000  0.45259000  0.42420000  1.0 -0.327607101
O  O1  1  0.87841000  0.51086000  0.89513000  1.0 -0.5350930749
O  O2  1  0.51086000  0.61573000  0.63245000  1.0 -0.5347381292
O  O3  1  0.61573000  0.98328000  0.10487000  1.0 -0.5347381292
O  O4  1  0.98328000  0.87841000  0.36755000  1.0 -0.5347381292
O  O5  1  0.12159000  0.01672000  0.63245000  1.0 -0.5347381292
O  O6  1  0.38427000  0.48914000  0.36755000  1.0 -0.5347381292
O  O7  1  0.01672000  0.38427000  0.89513000  1.0 -0.5347381292
O  O8  1  0.48914000  0.12159000  0.10487000  1.0 -0.5347381292
O  O9  1  0.12159000  0.48914000  0.10487000  1.0 -0.5347381292
O  O10  1  0.48914000  0.38427000  0.36755000  1.0 -0.5347381292
O  O11  1  0.38427000  0.01672000  0.89513000  1.0 -0.5350930749
O  O12  1  0.01672000  0.12159000  0.63245000  1.0 -0.5347381292
O  O13  1  0.87841000  0.98328000  0.36755000  1.0 -0.5347381292
O  O14  1  0.61573000  0.51086000  0.63245000  1.0 -0.5347381292
O  O15  1  0.98328000  0.61573000  0.10487000  1.0 -0.5347381292
O  O16  1  0.51086000  0.87841000  0.89513000  1.0 -0.5347381292
O  O17  1  0.90392000  0.42129000  0.89689000  1.0 -0.5190112053
O  O18  1  0.42129000  0.52440000  0.51737000  1.0 -0.5190112053
O  O19  1  0.52440000  0.00703000  0.10311000  1.0 -0.5190112053
O  O20  1  0.00703000  0.90392000  0.48263000  1.0 -0.5190112053
O  O21  1  0.09608000  0.99297000  0.51737000  1.0 -0.5190112053
O  O22  1  0.47560000  0.57871000  0.48263000  1.0 -0.5190112053
O  O23  1  0.99297000  0.47560000  0.89689000  1.0 -0.5190112053
O  O24  1  0.57871000  0.09608000  0.10311000  1.0 -0.5190112053
O  O25  1  0.09608000  0.57871000  0.10311000  1.0 -0.5190112053
O  O26  1  0.57871000  0.47560000  0.48263000  1.0 -0.5190112053
O  O27  1  0.47560000  0.99297000  0.89689000  1.0 -0.5190112053
O  O28  1  0.99297000  0.09608000  0.51737000  1.0 -0.5190112053
O  O29  1  0.90392000  0.00703000  0.48263000  1.0 -0.5190112053
O  O30  1  0.52440000  0.42129000  0.51737000  1.0 -0.5190112053
O  O31  1  0.00703000  0.52440000  0.10311000  1.0 -0.5190112053
O  O32  1  0.42129000  0.90392000  0.89689000  1.0 -0.5190112053
