# DDEC6 charges by PACMAN v1.1 (https://github.com/mtap-research/PACMAN-charge/)
data_LAQNUP_ASR_pacman
_symmetry_space_group_name_H-M   'P 1'
_cell_length_a   26.44590000
_cell_length_b   26.44590000
_cell_length_c   26.44590000
_cell_angle_alpha   138.86800000
_cell_angle_beta   138.86800000
_cell_angle_gamma   59.57650000
_symmetry_Int_Tables_number   1
_chemical_formula_structural   Cu2H24C41O8
_chemical_formula_sum   'Cu8 H96 C164 O32'
_cell_volume   7923.37793234
_cell_formula_units_Z   4
loop_
 _symmetry_equiv_pos_site_id
 _symmetry_equiv_pos_as_xyz
  1  'x, y, z'
loop_
 _atom_site_type_symbol
 _atom_site_label
 _atom_site_symmetry_multiplicity
 _atom_site_fract_x
 _atom_site_fract_y
 _atom_site_fract_z
 _atom_site_occupancy
 _atom_site_charge
Cu  Cu1  1  0.44431000  0.44431000  0.43092000  1.0 0.8610633901
Cu  Cu2  1  0.44431000  0.01339000  0.00000000  1.0 0.8610633901
Cu  Cu3  1  0.01339000  0.01339000  0.56908000  1.0 0.8610633901
Cu  Cu4  1  0.01339000  0.44431000  0.00000000  1.0 0.8610633901
Cu  Cu5  1  0.55569000  0.98661000  0.00000000  1.0 0.8610633901
Cu  Cu6  1  0.98661000  0.55569000  0.00000000  1.0 0.8610633901
Cu  Cu7  1  0.98661000  0.98661000  0.43092000  1.0 0.8610633901
Cu  Cu8  1  0.55569000  0.55569000  0.56908000  1.0 0.8610633901
H  H1  1  0.49480000  0.74020000  0.75460000  1.0 0.1429268933
H  H2  1  0.74020000  0.98560000  0.24540000  1.0 0.1429268933
H  H3  1  0.98560000  0.74020000  0.24540000  1.0 0.1429268933
H  H4  1  0.74020000  0.49480000  0.75460000  1.0 0.1429268933
H  H5  1  0.50520000  0.25980000  0.24540000  1.0 0.1429268933
H  H6  1  0.01440000  0.25980000  0.75460000  1.0 0.1429268933
H  H7  1  0.25980000  0.01440000  0.75460000  1.0 0.1429268933
H  H8  1  0.25980000  0.50520000  0.24540000  1.0 0.1429268933
H  H9  1  0.35270000  0.56250000  0.57360000  1.0 0.125372568
H  H10  1  0.56250000  0.98890000  0.20980000  1.0 0.125372568
H  H11  1  0.98890000  0.77910000  0.42640000  1.0 0.125372568
H  H12  1  0.77910000  0.35270000  0.79020000  1.0 0.125372568
H  H13  1  0.64730000  0.22090000  0.20980000  1.0 0.125372568
H  H14  1  0.01110000  0.43750000  0.79020000  1.0 0.125372568
H  H15  1  0.22090000  0.01110000  0.57360000  1.0 0.125372568
H  H16  1  0.43750000  0.64730000  0.42640000  1.0 0.125372568
H  H17  1  0.64730000  0.43750000  0.42640000  1.0 0.125372568
H  H18  1  0.43750000  0.01110000  0.79020000  1.0 0.125372568
H  H19  1  0.01110000  0.22090000  0.57360000  1.0 0.125372568
H  H20  1  0.22090000  0.64730000  0.20980000  1.0 0.125372568
H  H21  1  0.35270000  0.77910000  0.79020000  1.0 0.125372568
H  H22  1  0.98890000  0.56250000  0.20980000  1.0 0.125372568
H  H23  1  0.77910000  0.98890000  0.42640000  1.0 0.125372568
H  H24  1  0.56250000  0.35270000  0.57360000  1.0 0.125372568
H  H25  1  0.15170000  0.52710000  0.62460000  1.0 0.1241062945
H  H26  1  0.52710000  0.90250000  0.37540000  1.0 0.1241062945
H  H27  1  0.90250000  0.52710000  0.37540000  1.0 0.125372568
H  H28  1  0.52710000  0.15170000  0.62460000  1.0 0.1241062945
H  H29  1  0.84830000  0.47290000  0.37540000  1.0 0.1241062945
H  H30  1  0.09750000  0.47290000  0.62460000  1.0 0.1241062945
H  H31  1  0.47290000  0.09750000  0.62460000  1.0 0.1241062945
H  H32  1  0.47290000  0.84830000  0.37540000  1.0 0.1241062945
H  H33  1  0.12630000  0.68810000  0.62260000  1.0 0.0788463271
H  H34  1  0.68810000  0.06550000  0.56180000  1.0 0.0788463271
H  H35  1  0.06550000  0.50370000  0.37740000  1.0 0.0788463271
H  H36  1  0.50370000  0.12630000  0.43820000  1.0 0.0788463271
H  H37  1  0.87370000  0.49630000  0.56180000  1.0 0.0788463271
H  H38  1  0.93450000  0.31190000  0.43820000  1.0 0.0788463271
H  H39  1  0.49630000  0.93450000  0.62260000  1.0 0.0788463271
H  H40  1  0.31190000  0.87370000  0.37740000  1.0 0.0788463271
H  H41  1  0.87370000  0.31190000  0.37740000  1.0 0.0788463271
H  H42  1  0.31190000  0.93450000  0.43820000  1.0 0.0788463271
H  H43  1  0.93450000  0.49630000  0.62260000  1.0 0.0788463271
H  H44  1  0.49630000  0.87370000  0.56180000  1.0 0.0788463271
H  H45  1  0.12630000  0.50370000  0.43820000  1.0 0.0788463271
H  H46  1  0.06550000  0.68810000  0.56180000  1.0 0.0788463271
H  H47  1  0.50370000  0.06550000  0.37740000  1.0 0.0788463271
H  H48  1  0.68810000  0.12630000  0.62260000  1.0 0.0788463271
H  H49  1  0.21570000  0.49230000  0.55900000  1.0 0.1036074973
H  H50  1  0.49230000  0.93330000  0.27660000  1.0 0.1036074973
H  H51  1  0.93330000  0.65670000  0.44100000  1.0 0.1036074973
H  H52  1  0.65670000  0.21570000  0.72340000  1.0 0.1036074973
H  H53  1  0.78430000  0.34330000  0.27660000  1.0 0.1036074973
H  H54  1  0.06670000  0.50770000  0.72340000  1.0 0.1036074973
H  H55  1  0.34330000  0.06670000  0.55900000  1.0 0.1036074973
H  H56  1  0.50770000  0.78430000  0.44100000  1.0 0.1036074973
H  H57  1  0.78430000  0.50770000  0.44100000  1.0 0.1036074973
H  H58  1  0.50770000  0.06670000  0.72340000  1.0 0.1036074973
H  H59  1  0.06670000  0.34330000  0.55900000  1.0 0.1036074973
H  H60  1  0.34330000  0.78430000  0.27660000  1.0 0.1036074973
H  H61  1  0.21570000  0.65670000  0.72340000  1.0 0.1036074973
H  H62  1  0.93330000  0.49230000  0.27660000  1.0 0.1036074973
H  H63  1  0.65670000  0.93330000  0.44100000  1.0 0.1036074973
H  H64  1  0.49230000  0.21570000  0.55900000  1.0 0.1036074973
H  H65  1  0.31650000  0.53490000  0.61360000  1.0 0.1036074973
H  H66  1  0.53490000  0.92130000  0.21840000  1.0 0.1036074973
H  H67  1  0.92130000  0.70290000  0.38640000  1.0 0.1036074973
H  H68  1  0.70290000  0.31650000  0.78160000  1.0 0.1036074973
H  H69  1  0.68350000  0.29710000  0.21840000  1.0 0.1036074973
H  H70  1  0.07870000  0.46510000  0.78160000  1.0 0.1036074973
H  H71  1  0.29710000  0.07870000  0.61360000  1.0 0.1036074973
H  H72  1  0.46510000  0.68350000  0.38640000  1.0 0.1036074973
H  H73  1  0.68350000  0.46510000  0.38640000  1.0 0.1036074973
H  H74  1  0.46510000  0.07870000  0.78160000  1.0 0.1036074973
H  H75  1  0.07870000  0.29710000  0.61360000  1.0 0.1036074973
H  H76  1  0.29710000  0.68350000  0.21840000  1.0 0.1036074973
H  H77  1  0.31650000  0.70290000  0.78160000  1.0 0.1036074973
H  H78  1  0.92130000  0.53490000  0.21840000  1.0 0.1036074973
H  H79  1  0.70290000  0.92130000  0.38640000  1.0 0.1036074973
H  H80  1  0.53490000  0.31650000  0.61360000  1.0 0.1036074973
H  H81  1  0.22850000  0.73470000  0.68220000  1.0 0.1064633821
H  H82  1  0.73470000  0.05250000  0.50620000  1.0 0.1064633821
H  H83  1  0.05250000  0.54630000  0.31780000  1.0 0.1064633821
H  H84  1  0.54630000  0.22850000  0.49380000  1.0 0.1064633821
H  H85  1  0.77150000  0.45370000  0.50620000  1.0 0.1064633821
H  H86  1  0.94750000  0.26530000  0.49380000  1.0 0.1064633821
H  H87  1  0.45370000  0.94750000  0.68220000  1.0 0.1064633821
H  H88  1  0.26530000  0.77150000  0.31780000  1.0 0.1064633821
H  H89  1  0.77150000  0.26530000  0.31780000  1.0 0.1064633821
H  H90  1  0.26530000  0.94750000  0.49380000  1.0 0.1064633821
H  H91  1  0.94750000  0.45370000  0.68220000  1.0 0.1064633821
H  H92  1  0.45370000  0.77150000  0.50620000  1.0 0.1064633821
H  H93  1  0.22850000  0.54630000  0.49380000  1.0 0.1064633821
H  H94  1  0.05250000  0.73470000  0.50620000  1.0 0.1064633821
H  H95  1  0.54630000  0.05250000  0.31780000  1.0 0.1064633821
H  H96  1  0.73470000  0.22850000  0.68220000  1.0 0.1064633821
C  C1  1  0.45429000  0.58913000  0.59688000  1.0 0.579897902
C  C2  1  0.58913000  0.99225000  0.13484000  1.0 0.579897902
C  C3  1  0.99225000  0.85741000  0.40312000  1.0 0.579897902
C  C4  1  0.85741000  0.45429000  0.86516000  1.0 0.579897902
C  C5  1  0.54571000  0.14259000  0.13484000  1.0 0.579897902
C  C6  1  0.00775000  0.41087000  0.86516000  1.0 0.579897902
C  C7  1  0.14259000  0.00775000  0.59688000  1.0 0.579897902
C  C8  1  0.41087000  0.54571000  0.40312000  1.0 0.579897902
C  C9  1  0.54571000  0.41087000  0.40312000  1.0 0.579897902
C  C10  1  0.41087000  0.00775000  0.86516000  1.0 0.579897902
C  C11  1  0.00775000  0.14259000  0.59688000  1.0 0.579897902
C  C12  1  0.14259000  0.54571000  0.13484000  1.0 0.579897902
C  C13  1  0.45429000  0.85741000  0.86516000  1.0 0.579897902
C  C14  1  0.99225000  0.58913000  0.13484000  1.0 0.579897902
C  C15  1  0.85741000  0.99225000  0.40312000  1.0 0.579897902
C  C16  1  0.58913000  0.45429000  0.59688000  1.0 0.579897902
C  C17  1  0.42703000  0.64319000  0.65476000  1.0 -0.0201079852
C  C18  1  0.64319000  0.98843000  0.21616000  1.0 -0.0201079852
C  C19  1  0.98843000  0.77227000  0.34524000  1.0 -0.0201079852
C  C20  1  0.77227000  0.42703000  0.78384000  1.0 -0.0201079852
C  C21  1  0.57297000  0.22773000  0.21616000  1.0 -0.0201079852
C  C22  1  0.01157000  0.35681000  0.78384000  1.0 -0.0201079852
C  C23  1  0.22773000  0.01157000  0.65476000  1.0 -0.0201079852
C  C24  1  0.35681000  0.57297000  0.34524000  1.0 -0.0201079852
C  C25  1  0.57297000  0.35681000  0.34524000  1.0 -0.0201079852
C  C26  1  0.35681000  0.01157000  0.78384000  1.0 -0.0201079852
C  C27  1  0.01157000  0.22773000  0.65476000  1.0 -0.0201079852
C  C28  1  0.22773000  0.57297000  0.21616000  1.0 -0.0201079852
C  C29  1  0.42703000  0.77227000  0.78384000  1.0 -0.0201079852
C  C30  1  0.98843000  0.64319000  0.21616000  1.0 -0.0201079852
C  C31  1  0.77227000  0.98843000  0.34524000  1.0 -0.0201079852
C  C32  1  0.64319000  0.42703000  0.65476000  1.0 -0.0201079852
C  C33  1  0.34072000  0.66572000  0.67500000  1.0 0.0597576618
C  C34  1  0.66572000  0.99072000  0.32500000  1.0 0.0597576618
C  C35  1  0.99072000  0.66572000  0.32500000  1.0 0.0597576618
C  C36  1  0.66572000  0.34072000  0.67500000  1.0 0.0597576618
C  C37  1  0.65928000  0.33428000  0.32500000  1.0 0.0597576618
C  C38  1  0.00928000  0.33428000  0.67500000  1.0 0.0597576618
C  C39  1  0.33428000  0.00928000  0.67500000  1.0 0.0597576618
C  C40  1  0.33428000  0.65928000  0.32500000  1.0 0.0597576618
C  C41  1  0.27896000  0.63556000  0.64340000  1.0 0.0597576618
C  C42  1  0.63556000  0.99216000  0.35660000  1.0 0.0597576618
C  C43  1  0.99216000  0.63556000  0.35660000  1.0 0.0597576618
C  C44  1  0.63556000  0.27896000  0.64340000  1.0 0.0597576618
C  C45  1  0.72104000  0.36444000  0.35660000  1.0 0.0597576618
C  C46  1  0.00784000  0.36444000  0.64340000  1.0 0.0597576618
C  C47  1  0.36444000  0.00784000  0.64340000  1.0 0.0597576618
C  C48  1  0.36444000  0.72104000  0.35660000  1.0 0.0597576618
C  C49  1  0.45610000  0.72170000  0.73440000  1.0 -0.1000705743
C  C50  1  0.72170000  0.98730000  0.26560000  1.0 -0.1000705743
C  C51  1  0.98730000  0.72170000  0.26560000  1.0 -0.1000705743
C  C52  1  0.72170000  0.45610000  0.73440000  1.0 -0.1000705743
C  C53  1  0.54390000  0.27830000  0.26560000  1.0 -0.1000705743
C  C54  1  0.01270000  0.27830000  0.73440000  1.0 -0.1000705743
C  C55  1  0.27830000  0.01270000  0.73440000  1.0 -0.1000705743
C  C56  1  0.27830000  0.54390000  0.26560000  1.0 -0.1000705743
C  C57  1  0.03780000  0.50000000  0.53780000  1.0 0.068469842
C  C58  1  0.50000000  0.96220000  0.46220000  1.0 0.068469842
C  C59  1  0.96220000  0.50000000  0.46220000  1.0 0.068469842
C  C60  1  0.50000000  0.03780000  0.53780000  1.0 0.068469842
C  C61  1  0.15941000  0.58061000  0.57880000  1.0 0.0386368475
C  C62  1  0.58061000  0.00181000  0.42120000  1.0 0.0386368475
C  C63  1  0.00181000  0.58061000  0.42120000  1.0 0.0386368475
C  C64  1  0.58061000  0.15941000  0.57880000  1.0 0.0386368475
C  C65  1  0.84059000  0.41939000  0.42120000  1.0 0.0386368475
C  C66  1  0.99819000  0.41939000  0.57880000  1.0 0.0386368475
C  C67  1  0.41939000  0.99819000  0.57880000  1.0 0.0386368475
C  C68  1  0.41939000  0.84059000  0.42120000  1.0 0.0386368475
C  C69  1  0.37089000  0.61536000  0.62607000  1.0 -0.152472631
C  C70  1  0.61536000  0.98929000  0.24447000  1.0 -0.152472631
C  C71  1  0.98929000  0.74482000  0.37393000  1.0 -0.152472631
C  C72  1  0.74482000  0.37089000  0.75553000  1.0 -0.152472631
C  C73  1  0.62911000  0.25518000  0.24447000  1.0 -0.152472631
C  C74  1  0.01071000  0.38464000  0.75553000  1.0 -0.152472631
C  C75  1  0.25518000  0.01071000  0.62607000  1.0 -0.152472631
C  C76  1  0.38464000  0.62911000  0.37393000  1.0 -0.152472631
C  C77  1  0.62911000  0.38464000  0.37393000  1.0 -0.152472631
C  C78  1  0.38464000  0.01071000  0.75553000  1.0 -0.152472631
C  C79  1  0.01071000  0.25518000  0.62607000  1.0 -0.152472631
C  C80  1  0.25518000  0.62911000  0.24447000  1.0 -0.152472631
C  C81  1  0.37089000  0.74482000  0.75553000  1.0 -0.152472631
C  C82  1  0.98929000  0.61536000  0.24447000  1.0 -0.152472631
C  C83  1  0.74482000  0.98929000  0.37393000  1.0 -0.152472631
C  C84  1  0.61536000  0.37089000  0.62607000  1.0 -0.152472631
C  C85  1  0.10147000  0.52687000  0.57460000  1.0 -0.2158397967
C  C86  1  0.52687000  0.95227000  0.42540000  1.0 -0.2158397967
C  C87  1  0.95227000  0.52687000  0.42540000  1.0 -0.2158397967
C  C88  1  0.52687000  0.10147000  0.57460000  1.0 -0.2158397967
C  C89  1  0.89853000  0.47313000  0.42540000  1.0 -0.2158397967
C  C90  1  0.04773000  0.47313000  0.57460000  1.0 -0.2158397967
C  C91  1  0.47313000  0.04773000  0.57460000  1.0 -0.2158397967
C  C92  1  0.47313000  0.89853000  0.42540000  1.0 -0.2158397967
C  C93  1  0.09017000  0.55277000  0.53740000  1.0 0.0172055029
C  C94  1  0.55277000  0.01537000  0.46260000  1.0 0.0172055029
C  C95  1  0.01537000  0.55277000  0.46260000  1.0 0.0172055029
C  C96  1  0.55277000  0.09017000  0.53740000  1.0 0.0172055029
C  C97  1  0.90983000  0.44723000  0.46260000  1.0 0.0172055029
C  C98  1  0.98463000  0.44723000  0.53740000  1.0 0.0172055029
C  C99  1  0.44723000  0.98463000  0.53740000  1.0 0.0172055029
C  C100  1  0.44723000  0.90983000  0.46260000  1.0 0.0172055029
C  C101  1  0.16379000  0.65699000  0.61920000  1.0 -0.1388905877
C  C102  1  0.65699000  0.03779000  0.49320000  1.0 -0.1388905877
C  C103  1  0.03779000  0.54459000  0.38080000  1.0 -0.1388905877
C  C104  1  0.54459000  0.16379000  0.50680000  1.0 -0.1388905877
C  C105  1  0.83621000  0.45541000  0.49320000  1.0 -0.1388905877
C  C106  1  0.96221000  0.34301000  0.50680000  1.0 -0.1388905877
C  C107  1  0.45541000  0.96221000  0.61920000  1.0 -0.1388905877
C  C108  1  0.34301000  0.83621000  0.38080000  1.0 -0.1388905877
C  C109  1  0.83621000  0.34301000  0.38080000  1.0 -0.1388905877
C  C110  1  0.34301000  0.96221000  0.50680000  1.0 -0.1388905877
C  C111  1  0.96221000  0.45541000  0.61920000  1.0 -0.1388905877
C  C112  1  0.45541000  0.83621000  0.49320000  1.0 -0.1388905877
C  C113  1  0.16379000  0.54459000  0.50680000  1.0 -0.1388905877
C  C114  1  0.03779000  0.65699000  0.49320000  1.0 -0.1388905877
C  C115  1  0.54459000  0.03779000  0.38080000  1.0 -0.1388905877
C  C116  1  0.65699000  0.16379000  0.61920000  1.0 -0.1388905877
C  C117  1  0.21661000  0.54061000  0.58080000  1.0 -0.0553832994
C  C118  1  0.54061000  0.95981000  0.32400000  1.0 -0.0553832994
C  C119  1  0.95981000  0.63581000  0.41920000  1.0 -0.0553832994
C  C120  1  0.63581000  0.21661000  0.67600000  1.0 -0.0553832994
C  C121  1  0.78339000  0.36419000  0.32400000  1.0 -0.0553832994
C  C122  1  0.04019000  0.45939000  0.67600000  1.0 -0.0553832994
C  C123  1  0.36419000  0.04019000  0.58080000  1.0 -0.0553832994
C  C124  1  0.45939000  0.78339000  0.41920000  1.0 -0.0553832994
C  C125  1  0.78339000  0.45939000  0.41920000  1.0 -0.0553832994
C  C126  1  0.45939000  0.04019000  0.67600000  1.0 -0.0553832994
C  C127  1  0.04019000  0.36419000  0.58080000  1.0 -0.0553832994
C  C128  1  0.36419000  0.78339000  0.32400000  1.0 -0.0553832994
C  C129  1  0.21661000  0.63581000  0.67600000  1.0 -0.0553832994
C  C130  1  0.95981000  0.54061000  0.32400000  1.0 -0.0553832994
C  C131  1  0.63581000  0.95981000  0.41920000  1.0 -0.0553832994
C  C132  1  0.54061000  0.21661000  0.58080000  1.0 -0.0553832994
C  C133  1  0.27749000  0.56539000  0.61290000  1.0 -0.0897654872
C  C134  1  0.56539000  0.95249000  0.28790000  1.0 -0.0897654872
C  C135  1  0.95249000  0.66459000  0.38710000  1.0 -0.0897654872
C  C136  1  0.66459000  0.27749000  0.71210000  1.0 -0.0897654872
C  C137  1  0.72251000  0.33541000  0.28790000  1.0 -0.0897654872
C  C138  1  0.04751000  0.43461000  0.71210000  1.0 -0.0897654872
C  C139  1  0.33541000  0.04751000  0.61290000  1.0 -0.0897654872
C  C140  1  0.43461000  0.72251000  0.38710000  1.0 -0.0897654872
C  C141  1  0.72251000  0.43461000  0.38710000  1.0 -0.0897654872
C  C142  1  0.43461000  0.04751000  0.71210000  1.0 -0.0897654872
C  C143  1  0.04751000  0.33541000  0.61290000  1.0 -0.0897654872
C  C144  1  0.33541000  0.72251000  0.28790000  1.0 -0.0897654872
C  C145  1  0.27749000  0.66459000  0.71210000  1.0 -0.0897654872
C  C146  1  0.95249000  0.56539000  0.28790000  1.0 -0.0897654872
C  C147  1  0.66459000  0.95249000  0.38710000  1.0 -0.0897654872
C  C148  1  0.56539000  0.27749000  0.61290000  1.0 -0.0897654872
C  C149  1  0.22397000  0.68417000  0.65300000  1.0 -0.1133971851
C  C150  1  0.68417000  0.03117000  0.46020000  1.0 -0.1133971851
C  C151  1  0.03117000  0.57097000  0.34700000  1.0 -0.1133971851
C  C152  1  0.57097000  0.22397000  0.53980000  1.0 -0.1133971851
C  C153  1  0.77603000  0.42903000  0.46020000  1.0 -0.1133971851
C  C154  1  0.96883000  0.31583000  0.53980000  1.0 -0.1133971851
C  C155  1  0.42903000  0.96883000  0.65300000  1.0 -0.1133971851
C  C156  1  0.31583000  0.77603000  0.34700000  1.0 -0.1133971851
C  C157  1  0.77603000  0.31583000  0.34700000  1.0 -0.1133971851
C  C158  1  0.31583000  0.96883000  0.53980000  1.0 -0.1133971851
C  C159  1  0.96883000  0.42903000  0.65300000  1.0 -0.1133971851
C  C160  1  0.42903000  0.77603000  0.46020000  1.0 -0.1133971851
C  C161  1  0.22397000  0.57097000  0.53980000  1.0 -0.1133971851
C  C162  1  0.03117000  0.68417000  0.46020000  1.0 -0.1133971851
C  C163  1  0.57097000  0.03117000  0.34700000  1.0 -0.1133971851
C  C164  1  0.68417000  0.22397000  0.65300000  1.0 -0.1133971851
O  O1  1  0.41841000  0.52161000  0.51760000  1.0 -0.5195434686
O  O2  1  0.52161000  0.00401000  0.10320000  1.0 -0.5195434686
O  O3  1  0.00401000  0.90081000  0.48240000  1.0 -0.5195434686
O  O4  1  0.90081000  0.41841000  0.89680000  1.0 -0.5195434686
O  O5  1  0.58159000  0.09919000  0.10320000  1.0 -0.5195434686
O  O6  1  0.99599000  0.47839000  0.89680000  1.0 -0.5195434686
O  O7  1  0.09919000  0.99599000  0.51760000  1.0 -0.5195434686
O  O8  1  0.47839000  0.58159000  0.48240000  1.0 -0.5195434686
O  O9  1  0.58159000  0.47839000  0.48240000  1.0 -0.5195434686
O  O10  1  0.47839000  0.99599000  0.89680000  1.0 -0.5195434686
O  O11  1  0.99599000  0.09919000  0.51760000  1.0 -0.5140971327
O  O12  1  0.09919000  0.58159000  0.10320000  1.0 -0.5195434686
O  O13  1  0.41841000  0.90081000  0.89680000  1.0 -0.5195434686
O  O14  1  0.00401000  0.52161000  0.10320000  1.0 -0.5195434686
O  O15  1  0.90081000  0.00401000  0.48240000  1.0 -0.5195434686
O  O16  1  0.52161000  0.41841000  0.51760000  1.0 -0.5195434686
O  O17  1  0.51134000  0.61631000  0.63297000  1.0 -0.5195434686
O  O18  1  0.61631000  0.98334000  0.10497000  1.0 -0.5195434686
O  O19  1  0.98334000  0.87837000  0.36703000  1.0 -0.5195434686
O  O20  1  0.87837000  0.51134000  0.89503000  1.0 -0.5195434686
O  O21  1  0.48866000  0.12163000  0.10497000  1.0 -0.5195434686
O  O22  1  0.01666000  0.38369000  0.89503000  1.0 -0.5195434686
O  O23  1  0.12163000  0.01666000  0.63297000  1.0 -0.5195434686
O  O24  1  0.38369000  0.48866000  0.36703000  1.0 -0.5195434686
O  O25  1  0.48866000  0.38369000  0.36703000  1.0 -0.5195434686
O  O26  1  0.38369000  0.01666000  0.89503000  1.0 -0.5195434686
O  O27  1  0.01666000  0.12163000  0.63297000  1.0 -0.5195434686
O  O28  1  0.12163000  0.48866000  0.10497000  1.0 -0.5195434686
O  O29  1  0.51134000  0.87837000  0.89503000  1.0 -0.5195434686
O  O30  1  0.98334000  0.61631000  0.10497000  1.0 -0.5195434686
O  O31  1  0.87837000  0.98334000  0.36703000  1.0 -0.5195434686
O  O32  1  0.61631000  0.51134000  0.63297000  1.0 -0.5195434686
