# DDEC6 charges by PACMAN v1.1 (https://github.com/mtap-research/PACMAN-charge/)
data_LARPIF_ASR_pacman
_symmetry_space_group_name_H-M   'P 1'
_cell_length_a   9.81661000
_cell_length_b   9.81661000
_cell_length_c   11.31900000
_cell_angle_alpha   75.48680000
_cell_angle_beta   104.51300000
_cell_angle_gamma   86.04130000
_symmetry_Int_Tables_number   1
_chemical_formula_structural   NaFeH8(C3O2)6
_chemical_formula_sum   'Na2 Fe2 H16 C36 O24'
_cell_volume   1012.09843664
_cell_formula_units_Z   2
loop_
 _symmetry_equiv_pos_site_id
 _symmetry_equiv_pos_as_xyz
  1  'x, y, z'
loop_
 _atom_site_type_symbol
 _atom_site_label
 _atom_site_symmetry_multiplicity
 _atom_site_fract_x
 _atom_site_fract_y
 _atom_site_fract_z
 _atom_site_occupancy
 _atom_site_charge
Na  Na1  1  0.00000000  0.00000000  0.00000000  1.0 0.8096035385
Na  Na2  1  0.00000000  0.00000000  0.50000000  1.0 0.8096035385
Fe  Fe1  1  0.11195000  0.11195000  0.75000000  1.0 0.6798383855
Fe  Fe2  1  0.88805000  0.88805000  0.25000000  1.0 0.6798383855
H  H1  1  0.24370000  0.49490000  0.21130000  1.0 0.1040769072
H  H2  1  0.49490000  0.24370000  0.28870000  1.0 0.1040769072
H  H3  1  0.75630000  0.50510000  0.78870000  1.0 0.1040769072
H  H4  1  0.50510000  0.75630000  0.71130000  1.0 0.1040769072
H  H5  1  0.21020000  0.30640000  0.12440000  1.0 0.0946277419
H  H6  1  0.30640000  0.21020000  0.37560000  1.0 0.0946277419
H  H7  1  0.78980000  0.69360000  0.87560000  1.0 0.0946277419
H  H8  1  0.69360000  0.78980000  0.62440000  1.0 0.0946277419
H  H9  1  0.21130000  0.72430000  0.08030000  1.0 0.1040769072
H  H10  1  0.72430000  0.21130000  0.41970000  1.0 0.1040769072
H  H11  1  0.78870000  0.27570000  0.91970000  1.0 0.1040769072
H  H12  1  0.27570000  0.78870000  0.58030000  1.0 0.1040769072
H  H13  1  0.11970000  0.57270000  0.77700000  1.0 0.1040769072
H  H14  1  0.57270000  0.11970000  0.72300000  1.0 0.1040769072
H  H15  1  0.88030000  0.42730000  0.22300000  1.0 0.1040769072
H  H16  1  0.42730000  0.88030000  0.27700000  1.0 0.1040769072
C  C1  1  0.13290000  0.31130000  0.86170000  1.0 0.2415003219
C  C2  1  0.31130000  0.13290000  0.63830000  1.0 0.2415003219
C  C3  1  0.86710000  0.68870000  0.13830000  1.0 0.2415003219
C  C4  1  0.68870000  0.86710000  0.36170000  1.0 0.2415003219
C  C5  1  0.21790000  0.51110000  0.12360000  1.0 -0.0905484742
C  C6  1  0.51110000  0.21790000  0.37640000  1.0 -0.0905484742
C  C7  1  0.78210000  0.48890000  0.87640000  1.0 -0.0905484742
C  C8  1  0.48890000  0.78210000  0.62360000  1.0 -0.0905484742
C  C9  1  0.19860000  0.39820000  0.07140000  1.0 -0.1868805028
C  C10  1  0.39820000  0.19860000  0.42860000  1.0 -0.1868805028
C  C11  1  0.80140000  0.60180000  0.92860000  1.0 -0.1868805028
C  C12  1  0.60180000  0.80140000  0.57140000  1.0 -0.1868805028
C  C13  1  0.19885000  0.64823000  0.04540000  1.0 -0.1203730664
C  C14  1  0.64823000  0.19885000  0.45460000  1.0 -0.1203730664
C  C15  1  0.80115000  0.35177000  0.95460000  1.0 -0.1203730664
C  C16  1  0.35177000  0.80115000  0.54540000  1.0 -0.1203730664
C  C17  1  0.16209000  0.42077000  0.94200000  1.0 -0.0146380135
C  C18  1  0.42077000  0.16209000  0.55800000  1.0 -0.0146380135
C  C19  1  0.83791000  0.57923000  0.05800000  1.0 -0.0155168668
C  C20  1  0.57923000  0.83791000  0.44200000  1.0 -0.0155168668
C  C21  1  0.13571000  0.81995000  0.82780000  1.0 0.5570359492
C  C22  1  0.81995000  0.13571000  0.67220000  1.0 0.5570359492
C  C23  1  0.86429000  0.18005000  0.17220000  1.0 0.5570359492
C  C24  1  0.18005000  0.86429000  0.32780000  1.0 0.5570359492
C  C25  1  0.14393000  0.55715000  0.86460000  1.0 -0.1814916046
C  C26  1  0.55715000  0.14393000  0.63540000  1.0 -0.1814916046
C  C27  1  0.85607000  0.44285000  0.13540000  1.0 -0.1814916046
C  C28  1  0.44285000  0.85607000  0.36460000  1.0 -0.1814916046
C  C29  1  0.16112000  0.67154000  0.91490000  1.0 -0.0035803382
C  C30  1  0.67154000  0.16112000  0.58510000  1.0 -0.0035803382
C  C31  1  0.83888000  0.32846000  0.08510000  1.0 -0.0035803382
C  C32  1  0.32846000  0.83888000  0.41490000  1.0 -0.0035803382
C  C33  1  0.28060000  0.14980000  0.57900000  1.0 0.2565972694
C  C34  1  0.14980000  0.28060000  0.92100000  1.0 0.2565972694
C  C35  1  0.71940000  0.85020000  0.42100000  1.0 0.2565972694
C  C36  1  0.85020000  0.71940000  0.07900000  1.0 0.2565972694
O  O1  1  0.14345000  0.92043000  0.88106000  1.0 -0.6239367312
O  O2  1  0.92043000  0.14345000  0.61894000  1.0 -0.6239367312
O  O3  1  0.85655000  0.07957000  0.11894000  1.0 -0.6239367312
O  O4  1  0.07957000  0.85655000  0.38106000  1.0 -0.6239367312
O  O5  1  0.10884000  0.84020000  0.71172000  1.0 -0.5983587688
O  O6  1  0.84020000  0.10884000  0.78828000  1.0 -0.5983587688
O  O7  1  0.89116000  0.15980000  0.28828000  1.0 -0.5983587688
O  O8  1  0.15980000  0.89116000  0.21172000  1.0 -0.5983587688
O  O9  1  0.14020000  0.18560000  0.92470000  1.0 -0.0415377359
O  O10  1  0.18560000  0.14020000  0.57530000  1.0 -0.0415377359
O  O11  1  0.85980000  0.81440000  0.07530000  1.0 -0.0415377359
O  O12  1  0.81440000  0.85980000  0.42470000  1.0 -0.0415377359
O  O13  1  0.10720000  0.34200000  0.74240000  1.0 -0.161397714
O  O14  1  0.34200000  0.10720000  0.75760000  1.0 -0.161397714
O  O15  1  0.89280000  0.65800000  0.25760000  1.0 -0.161397714
O  O16  1  0.65800000  0.89280000  0.24240000  1.0 -0.161397714
O  O17  1  0.16598000  0.16738000  0.49980000  1.0 -0.1868805028
O  O18  1  0.16738000  0.16598000  0.00020000  1.0 -0.1814916046
O  O19  1  0.83402000  0.83262000  0.50020000  1.0 -0.1814916046
O  O20  1  0.83262000  0.83402000  0.99980000  1.0 -0.1868805028
O  O21  1  0.29420000  0.12060000  0.69710000  1.0 0.000655464
O  O22  1  0.12060000  0.29420000  0.80290000  1.0 0.000655464
O  O23  1  0.70580000  0.87940000  0.30290000  1.0 0.000655464
O  O24  1  0.87940000  0.70580000  0.19710000  1.0 0.000655464
