# DDEC6 charges by PACMAN v1.1 (https://github.com/mtap-research/PACMAN-charge/)
data_LARPOL_ion_pacman
_symmetry_space_group_name_H-M   'P 1'
_cell_length_a   18.12580000
_cell_length_b   14.37120000
_cell_length_c   26.68970000
_cell_angle_alpha   90.00000000
_cell_angle_beta   131.77600000
_cell_angle_gamma   90.00000000
_symmetry_Int_Tables_number   1
_chemical_formula_structural   Fe3H33C35N2O19
_chemical_formula_sum   'Fe12 H132 C140 N8 O76'
_cell_volume   5184.77792343
_cell_formula_units_Z   4
loop_
 _symmetry_equiv_pos_site_id
 _symmetry_equiv_pos_as_xyz
  1  'x, y, z'
loop_
 _atom_site_type_symbol
 _atom_site_label
 _atom_site_symmetry_multiplicity
 _atom_site_fract_x
 _atom_site_fract_y
 _atom_site_fract_z
 _atom_site_occupancy
 _atom_site_charge
Fe  Fe1  1  0.29179000  0.81523000  0.59072000  1.0 1.0670212395
Fe  Fe2  1  0.70821000  0.31523000  0.90928000  1.0 1.0670212395
Fe  Fe3  1  0.70821000  0.18477000  0.40928000  1.0 1.0670212395
Fe  Fe4  1  0.29179000  0.68477000  0.09072000  1.0 1.0670212395
Fe  Fe5  1  0.32519000  0.05234000  0.57478000  1.0 1.0789226777
Fe  Fe6  1  0.67481000  0.55234000  0.92522000  1.0 1.0789226777
Fe  Fe7  1  0.67481000  0.94766000  0.42522000  1.0 1.0789226777
Fe  Fe8  1  0.32519000  0.44766000  0.07478000  1.0 1.0789226777
Fe  Fe9  1  0.24078000  0.19936000  0.43760000  1.0 1.1235899316
Fe  Fe10  1  0.75922000  0.69936000  0.06240000  1.0 1.1261655278
Fe  Fe11  1  0.75922000  0.80064000  0.56240000  1.0 1.1235899316
Fe  Fe12  1  0.24078000  0.30064000  0.93760000  1.0 1.1235899316
H  H1  1  0.11090000  0.13350000  0.57640000  1.0 0.1300078431
H  H2  1  0.88910000  0.63350000  0.92360000  1.0 0.1300078431
H  H3  1  0.88910000  0.86650000  0.42360000  1.0 0.1300078431
H  H4  1  0.11090000  0.36650000  0.07640000  1.0 0.1300078431
H  H5  1  0.48370000  0.81320000  0.51900000  1.0 0.1399084064
H  H6  1  0.51630000  0.31320000  0.98100000  1.0 0.1399084064
H  H7  1  0.51630000  0.18680000  0.48100000  1.0 0.1399084064
H  H8  1  0.48370000  0.68680000  0.01900000  1.0 0.1399084064
H  H9  1  0.06120000  0.86930000  0.59900000  1.0 0.1399084064
H  H10  1  0.93880000  0.36930000  0.90100000  1.0 0.1399084064
H  H11  1  0.93880000  0.13070000  0.40100000  1.0 0.1399084064
H  H12  1  0.06120000  0.63070000  0.09900000  1.0 0.1399084064
H  H13  1  0.41010000  0.99530000  0.37690000  1.0 0.1399084064
H  H14  1  0.58990000  0.49530000  0.12310000  1.0 0.1399084064
H  H15  1  0.58990000  0.00470000  0.62310000  1.0 0.1399084064
H  H16  1  0.41010000  0.50470000  0.87690000  1.0 0.1399084064
H  H17  1  0.24480000  0.98180000  0.42850000  1.0 0.1399084064
H  H18  1  0.75520000  0.48180000  0.07150000  1.0 0.1399084064
H  H19  1  0.75520000  0.01820000  0.57150000  1.0 0.1399084064
H  H20  1  0.24480000  0.51820000  0.92850000  1.0 0.1399084064
H  H21  1  0.24170000  0.43950000  0.53450000  1.0 0.1507884661
H  H22  1  0.75830000  0.93950000  0.96550000  1.0 0.1507884661
H  H23  1  0.75830000  0.56050000  0.46550000  1.0 0.1507884661
H  H24  1  0.24170000  0.06050000  0.03450000  1.0 0.1507884661
H  H25  1  0.44930000  0.29670000  0.70310000  1.0 0.1300078431
H  H26  1  0.55070000  0.79670000  0.79690000  1.0 0.1300078431
H  H27  1  0.55070000  0.70330000  0.29690000  1.0 0.1300078431
H  H28  1  0.44930000  0.20330000  0.20310000  1.0 0.1300078431
H  H29  1  0.41810000  0.57310000  0.71190000  1.0 0.1300078431
H  H30  1  0.58190000  0.07310000  0.78810000  1.0 0.1300078431
H  H31  1  0.58190000  0.42690000  0.28810000  1.0 0.1300078431
H  H32  1  0.41810000  0.92690000  0.21190000  1.0 0.1300078431
H  H33  1  0.87320000  0.07480000  0.55300000  1.0 0.1399084064
H  H34  1  0.12680000  0.57480000  0.94700000  1.0 0.1399084064
H  H35  1  0.12680000  0.92520000  0.44700000  1.0 0.1399084064
H  H36  1  0.87320000  0.42520000  0.05300000  1.0 0.1399084064
H  H37  1  0.57290000  0.25940000  0.21710000  1.0 0.1594951279
H  H38  1  0.60360000  0.33090000  0.18770000  1.0 0.1594951279
H  H39  1  0.68050000  0.30580000  0.26600000  1.0 0.1703135203
H  H40  1  0.64840000  0.10100000  0.25290000  1.0 0.1507884661
H  H41  1  0.75720000  0.14500000  0.30200000  1.0 0.1594951279
H  H42  1  0.72570000  0.07240000  0.24520000  1.0 0.1399084064
H  H43  1  0.53010000  0.14180000  0.13240000  1.0 0.1594951279
H  H44  1  0.61190000  0.11230000  0.12910000  1.0 0.1507884661
H  H45  1  0.56220000  0.21320000  0.10390000  1.0 0.1594951279
H  H46  1  0.80410000  0.26200000  0.25950000  1.0 0.1703135203
H  H47  1  0.72880000  0.28540000  0.18090000  1.0 0.1507884661
H  H48  1  0.77890000  0.18470000  0.20690000  1.0 0.1507884661
H  H49  1  0.42710000  0.75940000  0.28290000  1.0 0.1594951279
H  H50  1  0.39640000  0.83090000  0.31230000  1.0 0.1594951279
H  H51  1  0.31950000  0.80580000  0.23400000  1.0 0.1703135203
H  H52  1  0.35160000  0.60100000  0.24710000  1.0 0.1507884661
H  H53  1  0.24280000  0.64500000  0.19800000  1.0 0.1594951279
H  H54  1  0.27430000  0.57240000  0.25480000  1.0 0.1399084064
H  H55  1  0.46990000  0.64180000  0.36760000  1.0 0.1507884661
H  H56  1  0.38810000  0.61230000  0.37090000  1.0 0.1507884661
H  H57  1  0.43780000  0.71320000  0.39610000  1.0 0.1594951279
H  H58  1  0.19590000  0.76200000  0.24050000  1.0 0.1703135203
H  H59  1  0.27120000  0.78540000  0.31910000  1.0 0.1507884661
H  H60  1  0.22110000  0.68470000  0.29310000  1.0 0.1507884661
H  H61  1  0.42710000  0.74060000  0.78290000  1.0 0.1594951279
H  H62  1  0.39640000  0.66910000  0.81230000  1.0 0.1594951279
H  H63  1  0.31950000  0.69420000  0.73400000  1.0 0.1703135203
H  H64  1  0.35160000  0.89900000  0.74710000  1.0 0.1507884661
H  H65  1  0.24280000  0.85500000  0.69800000  1.0 0.1594951279
H  H66  1  0.27430000  0.92760000  0.75480000  1.0 0.1399084064
H  H67  1  0.46990000  0.85820000  0.86760000  1.0 0.1594951279
H  H68  1  0.38810000  0.88770000  0.87090000  1.0 0.1507884661
H  H69  1  0.43780000  0.78680000  0.89610000  1.0 0.1594951279
H  H70  1  0.19590000  0.73800000  0.74050000  1.0 0.1703135203
H  H71  1  0.27120000  0.71460000  0.81910000  1.0 0.1507884661
H  H72  1  0.22110000  0.81530000  0.79310000  1.0 0.1507884661
H  H73  1  0.57290000  0.24060000  0.71710000  1.0 0.1594951279
H  H74  1  0.60360000  0.16910000  0.68770000  1.0 0.1594951279
H  H75  1  0.68050000  0.19420000  0.76600000  1.0 0.1703135203
H  H76  1  0.64840000  0.39900000  0.75290000  1.0 0.1507884661
H  H77  1  0.75720000  0.35500000  0.80200000  1.0 0.1594951279
H  H78  1  0.72570000  0.42760000  0.74520000  1.0 0.1399084064
H  H79  1  0.53010000  0.35820000  0.63240000  1.0 0.1507884661
H  H80  1  0.61190000  0.38770000  0.62910000  1.0 0.1507884661
H  H81  1  0.56220000  0.28680000  0.60390000  1.0 0.1594951279
H  H82  1  0.80410000  0.23800000  0.75950000  1.0 0.1703135203
H  H83  1  0.72880000  0.21460000  0.68090000  1.0 0.1507884661
H  H84  1  0.77890000  0.31530000  0.70690000  1.0 0.1507884661
H  H85  1  0.54080000  0.79240000  0.13770000  1.0 0.1594951279
H  H86  1  0.55740000  0.71670000  0.18840000  1.0 0.1507884661
H  H87  1  0.61550000  0.70770000  0.16270000  1.0 0.1594951279
H  H88  1  0.58850000  0.91600000  0.22120000  1.0 0.1507884661
H  H89  1  0.69150000  0.90470000  0.29670000  1.0 0.1507884661
H  H90  1  0.60200000  0.83520000  0.26800000  1.0 0.1594951279
H  H91  1  0.67750000  0.90380000  0.18040000  1.0 0.1399084064
H  H92  1  0.74790000  0.81600000  0.20270000  1.0 0.1703135203
H  H93  1  0.77900000  0.89380000  0.25670000  1.0 0.1399084064
H  H94  1  0.70870000  0.70550000  0.30060000  1.0 0.1507884661
H  H95  1  0.79700000  0.77690000  0.32970000  1.0 0.1399084064
H  H96  1  0.76970000  0.69900000  0.27690000  1.0 0.1703135203
H  H97  1  0.45920000  0.29240000  0.36230000  1.0 0.1594951279
H  H98  1  0.44260000  0.21670000  0.31160000  1.0 0.1507884661
H  H99  1  0.38450000  0.20770000  0.33730000  1.0 0.1594951279
H  H100  1  0.41150000  0.41600000  0.27880000  1.0 0.1507884661
H  H101  1  0.30850000  0.40470000  0.20330000  1.0 0.1507884661
H  H102  1  0.39800000  0.33520000  0.23200000  1.0 0.1594951279
H  H103  1  0.32250000  0.40380000  0.31960000  1.0 0.1399084064
H  H104  1  0.25210000  0.31600000  0.29730000  1.0 0.1703135203
H  H105  1  0.22100000  0.39380000  0.24330000  1.0 0.1399084064
H  H106  1  0.29130000  0.20550000  0.19940000  1.0 0.1507884661
H  H107  1  0.20300000  0.27690000  0.17030000  1.0 0.1399084064
H  H108  1  0.23030000  0.19900000  0.22310000  1.0 0.1703135203
H  H109  1  0.45920000  0.20760000  0.86230000  1.0 0.1594951279
H  H110  1  0.44260000  0.28330000  0.81160000  1.0 0.1507884661
H  H111  1  0.38450000  0.29230000  0.83730000  1.0 0.1594951279
H  H112  1  0.41150000  0.08400000  0.77880000  1.0 0.1507884661
H  H113  1  0.30850000  0.09530000  0.70330000  1.0 0.1507884661
H  H114  1  0.39800000  0.16480000  0.73200000  1.0 0.1594951279
H  H115  1  0.32250000  0.09620000  0.81960000  1.0 0.1399084064
H  H116  1  0.25210000  0.18400000  0.79730000  1.0 0.1703135203
H  H117  1  0.22100000  0.10620000  0.74330000  1.0 0.1399084064
H  H118  1  0.29130000  0.29450000  0.69940000  1.0 0.1507884661
H  H119  1  0.20300000  0.22310000  0.67030000  1.0 0.1399084064
H  H120  1  0.23030000  0.30100000  0.72310000  1.0 0.1703135203
H  H121  1  0.54080000  0.70760000  0.63770000  1.0 0.1594951279
H  H122  1  0.55740000  0.78330000  0.68840000  1.0 0.1507884661
H  H123  1  0.61550000  0.79230000  0.66270000  1.0 0.1594951279
H  H124  1  0.58850000  0.58400000  0.72120000  1.0 0.1507884661
H  H125  1  0.69150000  0.59530000  0.79670000  1.0 0.1507884661
H  H126  1  0.60200000  0.66480000  0.76800000  1.0 0.1594951279
H  H127  1  0.67750000  0.59620000  0.68040000  1.0 0.1399084064
H  H128  1  0.74790000  0.68400000  0.70270000  1.0 0.1703135203
H  H129  1  0.77900000  0.60620000  0.75670000  1.0 0.1399084064
H  H130  1  0.70870000  0.79450000  0.80060000  1.0 0.1507884661
H  H131  1  0.79700000  0.72310000  0.82970000  1.0 0.1399084064
H  H132  1  0.76970000  0.80100000  0.77690000  1.0 0.1703135203
C  C1  1  0.07150000  0.08930000  0.57600000  1.0 -0.1112937462
C  C2  1  0.92850000  0.58930000  0.92400000  1.0 -0.1112937462
C  C3  1  0.92850000  0.91070000  0.42400000  1.0 -0.1112937462
C  C4  1  0.07150000  0.41070000  0.07600000  1.0 -0.1112937462
C  C5  1  0.09910000  0.99610000  0.58790000  1.0 -0.0312071108
C  C6  1  0.90090000  0.49610000  0.91210000  1.0 -0.0312071108
C  C7  1  0.90090000  0.00390000  0.41210000  1.0 -0.0312071108
C  C8  1  0.09910000  0.50390000  0.08790000  1.0 -0.0312071108
C  C9  1  0.46040000  0.90120000  0.44990000  1.0 -0.0312071108
C  C10  1  0.53960000  0.40120000  0.05010000  1.0 -0.0312071108
C  C11  1  0.53960000  0.09880000  0.55010000  1.0 -0.0312071108
C  C12  1  0.46040000  0.59880000  0.94990000  1.0 -0.0312071108
C  C13  1  0.24770000  0.07640000  0.34520000  1.0 0.5816572882
C  C14  1  0.75230000  0.57640000  0.15480000  1.0 0.5816572882
C  C15  1  0.75230000  0.92360000  0.65480000  1.0 0.5816572882
C  C16  1  0.24770000  0.42360000  0.84520000  1.0 0.5816572882
C  C17  1  0.44160000  0.86090000  0.48760000  1.0 -0.1169862878
C  C18  1  0.55840000  0.36090000  0.01240000  1.0 -0.1169862878
C  C19  1  0.55840000  0.13910000  0.51240000  1.0 -0.1169862878
C  C20  1  0.44160000  0.63910000  0.98760000  1.0 -0.1169862878
C  C21  1  0.04180000  0.93280000  0.58870000  1.0 -0.1112937462
C  C22  1  0.95820000  0.43280000  0.91130000  1.0 -0.1112937462
C  C23  1  0.95820000  0.06720000  0.41130000  1.0 -0.1112937462
C  C24  1  0.04180000  0.56720000  0.08870000  1.0 -0.1112937462
C  C25  1  0.53570000  0.43220000  0.79480000  1.0 0.5901255644
C  C26  1  0.46430000  0.93220000  0.70520000  1.0 0.5901255644
C  C27  1  0.46430000  0.56780000  0.20520000  1.0 0.5901255644
C  C28  1  0.53570000  0.06780000  0.29480000  1.0 0.5901255644
C  C29  1  0.39750000  0.96880000  0.40310000  1.0 -0.1112937462
C  C30  1  0.60250000  0.46880000  0.09690000  1.0 -0.1112937462
C  C31  1  0.60250000  0.03120000  0.59690000  1.0 -0.1112937462
C  C32  1  0.39750000  0.53120000  0.90310000  1.0 -0.1112937462
C  C33  1  0.31040000  0.26780000  0.57290000  1.0 0.5901255644
C  C34  1  0.68960000  0.76780000  0.92710000  1.0 0.5901255644
C  C35  1  0.68960000  0.73220000  0.42710000  1.0 0.5901255644
C  C36  1  0.31040000  0.23220000  0.07290000  1.0 0.5901255644
C  C37  1  0.36090000  0.89040000  0.47960000  1.0 -0.0114639791
C  C38  1  0.63910000  0.39040000  0.02040000  1.0 -0.0114639791
C  C39  1  0.63910000  0.10960000  0.52040000  1.0 -0.0114639791
C  C40  1  0.36090000  0.60960000  0.97960000  1.0 -0.0114639791
C  C41  1  0.44830000  0.43370000  0.72000000  1.0 -0.0312071108
C  C42  1  0.55170000  0.93370000  0.78000000  1.0 -0.0312071108
C  C43  1  0.55170000  0.56630000  0.28000000  1.0 -0.0312071108
C  C44  1  0.44830000  0.06630000  0.22000000  1.0 -0.0312071108
C  C45  1  0.29870000  0.96050000  0.43310000  1.0 -0.1169862878
C  C46  1  0.70130000  0.46050000  0.06690000  1.0 -0.1169862878
C  C47  1  0.70130000  0.03950000  0.56690000  1.0 -0.1169862878
C  C48  1  0.29870000  0.53950000  0.93310000  1.0 -0.1169862878
C  C49  1  0.29370000  0.43820000  0.58190000  1.0 -0.0833531973
C  C50  1  0.70630000  0.93820000  0.91810000  1.0 -0.0833531973
C  C51  1  0.70630000  0.56180000  0.41810000  1.0 -0.0833531973
C  C52  1  0.29370000  0.06180000  0.08190000  1.0 -0.0833531973
C  C53  1  0.34050000  0.35490000  0.61330000  1.0 -0.0228103094
C  C54  1  0.65950000  0.85490000  0.88670000  1.0 -0.0228103094
C  C55  1  0.65950000  0.64510000  0.38670000  1.0 -0.0228103094
C  C56  1  0.34050000  0.14510000  0.11330000  1.0 -0.0228103094
C  C57  1  0.32080000  0.52000000  0.61790000  1.0 -0.0228103094
C  C58  1  0.67920000  0.02000000  0.88210000  1.0 -0.0228103094
C  C59  1  0.67920000  0.48000000  0.38210000  1.0 -0.0228103094
C  C60  1  0.32080000  0.98000000  0.11790000  1.0 -0.0228103094
C  C61  1  0.41690000  0.35390000  0.68150000  1.0 -0.138594281
C  C62  1  0.58310000  0.85390000  0.81850000  1.0 -0.138594281
C  C63  1  0.58310000  0.64610000  0.31850000  1.0 -0.138594281
C  C64  1  0.41690000  0.14610000  0.18150000  1.0 -0.138594281
C  C65  1  0.39820000  0.51740000  0.68660000  1.0 -0.1112937462
C  C66  1  0.60180000  0.01740000  0.81340000  1.0 -0.1112937462
C  C67  1  0.60180000  0.48260000  0.31340000  1.0 -0.1112937462
C  C68  1  0.39820000  0.98260000  0.18660000  1.0 -0.1112937462
C  C69  1  0.18320000  0.96370000  0.59370000  1.0 0.5901255644
C  C70  1  0.81680000  0.46370000  0.90630000  1.0 0.5901255644
C  C71  1  0.81680000  0.03630000  0.40630000  1.0 0.5901255644
C  C72  1  0.18320000  0.53630000  0.09370000  1.0 0.5901255644
C  C73  1  0.34420000  0.85440000  0.52320000  1.0 0.5816572882
C  C74  1  0.65580000  0.35440000  0.97680000  1.0 0.5816572882
C  C75  1  0.65580000  0.14560000  0.47680000  1.0 0.5816572882
C  C76  1  0.34420000  0.64560000  0.02320000  1.0 0.5816572882
C  C77  1  0.55520000  0.87760000  0.46470000  1.0 0.5816572882
C  C78  1  0.44480000  0.37760000  0.03530000  1.0 0.5816572882
C  C79  1  0.44480000  0.12240000  0.53530000  1.0 0.5816572882
C  C80  1  0.55520000  0.62240000  0.96470000  1.0 0.5816572882
C  C81  1  0.31580000  0.99890000  0.39370000  1.0 -0.0114639791
C  C82  1  0.68420000  0.49890000  0.10630000  1.0 -0.0114639791
C  C83  1  0.68420000  0.00110000  0.60630000  1.0 -0.0114639791
C  C84  1  0.31580000  0.50110000  0.89370000  1.0 -0.0114639791
C  C85  1  0.27000000  0.60850000  0.58300000  1.0 0.5816572882
C  C86  1  0.73000000  0.10850000  0.91700000  1.0 0.5816572882
C  C87  1  0.73000000  0.39150000  0.41700000  1.0 0.5816572882
C  C88  1  0.27000000  0.89150000  0.08300000  1.0 0.5816572882
C  C89  1  0.98810000  0.11930000  0.56350000  1.0 -0.0228103094
C  C90  1  0.01190000  0.61930000  0.93650000  1.0 -0.0228103094
C  C91  1  0.01190000  0.88070000  0.43650000  1.0 -0.0228103094
C  C92  1  0.98810000  0.38070000  0.06350000  1.0 -0.0228103094
C  C93  1  0.93130000  0.05510000  0.56240000  1.0 -0.0917330199
C  C94  1  0.06870000  0.55510000  0.93760000  1.0 -0.0917330199
C  C95  1  0.06870000  0.94490000  0.43760000  1.0 -0.0917330199
C  C96  1  0.93130000  0.44490000  0.06240000  1.0 -0.0917330199
C  C97  1  0.95820000  0.21880000  0.54810000  1.0 0.5666083283
C  C98  1  0.04180000  0.71880000  0.95190000  1.0 0.5666083283
C  C99  1  0.04180000  0.78120000  0.45190000  1.0 0.5666083283
C  C100  1  0.95820000  0.28120000  0.04810000  1.0 0.5666083283
C  C101  1  0.95760000  0.96100000  0.57490000  1.0 0.0020724506
C  C102  1  0.04240000  0.46100000  0.92510000  1.0 0.0020724506
C  C103  1  0.04240000  0.03900000  0.42510000  1.0 0.0020724506
C  C104  1  0.95760000  0.53900000  0.07490000  1.0 0.0020724506
C  C105  1  0.89130000  0.89410000  0.57210000  1.0 0.5816572882
C  C106  1  0.10870000  0.39410000  0.92790000  1.0 0.5816572882
C  C107  1  0.10870000  0.10590000  0.42790000  1.0 0.5816572882
C  C108  1  0.89130000  0.60590000  0.07210000  1.0 0.5816572882
C  C109  1  0.62750000  0.28140000  0.22070000  1.0 -0.3678698559
C  C110  1  0.70260000  0.12330000  0.25610000  1.0 -0.3678698559
C  C111  1  0.58540000  0.16400000  0.13690000  1.0 -0.3678698559
C  C112  1  0.75220000  0.23670000  0.21430000  1.0 -0.3678698559
C  C113  1  0.37250000  0.78140000  0.27930000  1.0 -0.3678698559
C  C114  1  0.29740000  0.62330000  0.24390000  1.0 -0.3678698559
C  C115  1  0.41460000  0.66400000  0.36310000  1.0 -0.3678698559
C  C116  1  0.24780000  0.73670000  0.28570000  1.0 -0.3678698559
C  C117  1  0.37250000  0.71860000  0.77930000  1.0 -0.3678698559
C  C118  1  0.29740000  0.87670000  0.74390000  1.0 -0.3678698559
C  C119  1  0.41460000  0.83600000  0.86310000  1.0 -0.3678698559
C  C120  1  0.24780000  0.76330000  0.78570000  1.0 -0.3678698559
C  C121  1  0.62750000  0.21860000  0.72070000  1.0 -0.3678698559
C  C122  1  0.70260000  0.37670000  0.75610000  1.0 -0.3678698559
C  C123  1  0.58540000  0.33600000  0.63690000  1.0 -0.3678698559
C  C124  1  0.75220000  0.26330000  0.71430000  1.0 -0.3678698559
C  C125  1  0.58940000  0.75140000  0.17570000  1.0 -0.3605270386
C  C126  1  0.63520000  0.87120000  0.25670000  1.0 -0.3605270386
C  C127  1  0.72320000  0.85970000  0.21680000  1.0 -0.3528886252
C  C128  1  0.74280000  0.74140000  0.29000000  1.0 -0.3447714262
C  C129  1  0.41060000  0.25140000  0.32430000  1.0 -0.3605270386
C  C130  1  0.36480000  0.37120000  0.24330000  1.0 -0.3605270386
C  C131  1  0.27680000  0.35970000  0.28320000  1.0 -0.3528886252
C  C132  1  0.25720000  0.24140000  0.21000000  1.0 -0.3447714262
C  C133  1  0.41060000  0.24860000  0.82430000  1.0 -0.3605270386
C  C134  1  0.36480000  0.12880000  0.74330000  1.0 -0.3605270386
C  C135  1  0.27680000  0.14030000  0.78320000  1.0 -0.3528886252
C  C136  1  0.25720000  0.25860000  0.71000000  1.0 -0.3447714262
C  C137  1  0.58940000  0.74860000  0.67570000  1.0 -0.3605270386
C  C138  1  0.63520000  0.62880000  0.75670000  1.0 -0.3605270386
C  C139  1  0.72320000  0.64030000  0.71680000  1.0 -0.3528886252
C  C140  1  0.74280000  0.75860000  0.79000000  1.0 -0.3447714262
N  N1  1  0.66620000  0.20240000  0.20740000  1.0 0.3207951374
N  N2  1  0.33380000  0.70240000  0.29260000  1.0 0.3207951374
N  N3  1  0.33380000  0.79760000  0.79260000  1.0 0.3207951374
N  N4  1  0.66620000  0.29760000  0.70740000  1.0 0.3207951374
N  N5  1  0.67080000  0.80750000  0.23300000  1.0 0.303330589
N  N6  1  0.32920000  0.30750000  0.26700000  1.0 0.303330589
N  N7  1  0.32920000  0.19250000  0.76700000  1.0 0.303330589
N  N8  1  0.67080000  0.69250000  0.73300000  1.0 0.303330589
O  O1  1  0.30220000  0.68230000  0.61800000  1.0 -0.5751823001
O  O2  1  0.69780000  0.18230000  0.88200000  1.0 -0.5751823001
O  O3  1  0.69780000  0.31770000  0.38200000  1.0 -0.5710785601
O  O4  1  0.30220000  0.81770000  0.11800000  1.0 -0.5710785601
O  O5  1  0.30160000  0.90800000  0.53620000  1.0 -0.6041816884
O  O6  1  0.69840000  0.40800000  0.96380000  1.0 -0.6041816884
O  O7  1  0.69840000  0.09200000  0.46380000  1.0 -0.6041816884
O  O8  1  0.30160000  0.59200000  0.03620000  1.0 -0.6041816884
O  O9  1  0.33610000  0.19220000  0.60280000  1.0 -0.5303928368
O  O10  1  0.66390000  0.69220000  0.89720000  1.0 -0.5303928368
O  O11  1  0.66390000  0.80780000  0.39720000  1.0 -0.5303928368
O  O12  1  0.33610000  0.30780000  0.10280000  1.0 -0.5303928368
O  O13  1  0.55920000  0.50700000  0.82700000  1.0 -0.5495622866
O  O14  1  0.44080000  0.00700000  0.67300000  1.0 -0.5495622866
O  O15  1  0.44080000  0.49300000  0.17300000  1.0 -0.5495622866
O  O16  1  0.55920000  0.99300000  0.32700000  1.0 -0.5495622866
O  O17  1  0.36850000  0.77460000  0.54640000  1.0 -0.4819583144
O  O18  1  0.63150000  0.27460000  0.95360000  1.0 -0.4819583144
O  O19  1  0.63150000  0.22540000  0.45360000  1.0 -0.4819583144
O  O20  1  0.36850000  0.72540000  0.04640000  1.0 -0.4819583144
O  O21  1  0.19990000  0.87730000  0.59920000  1.0 -0.5495622866
O  O22  1  0.80010000  0.37730000  0.90080000  1.0 -0.5495622866
O  O23  1  0.80010000  0.12270000  0.40080000  1.0 -0.5495622866
O  O24  1  0.19990000  0.62270000  0.09920000  1.0 -0.5495622866
O  O25  1  0.26330000  0.27960000  0.51140000  1.0 -0.5123696439
O  O26  1  0.73670000  0.77960000  0.98860000  1.0 -0.5123696439
O  O27  1  0.73670000  0.72040000  0.48860000  1.0 -0.5123696439
O  O28  1  0.26330000  0.22040000  0.01140000  1.0 -0.5123696439
O  O29  1  0.86770000  0.23670000  0.52110000  1.0 -0.5303928368
O  O30  1  0.13230000  0.73670000  0.97890000  1.0 -0.5303928368
O  O31  1  0.13230000  0.76330000  0.47890000  1.0 -0.5303928368
O  O32  1  0.86770000  0.26330000  0.02110000  1.0 -0.5303928368
O  O33  1  0.57800000  0.35420000  0.81870000  1.0 -0.5710785601
O  O34  1  0.42200000  0.85420000  0.68130000  1.0 -0.5710785601
O  O35  1  0.42200000  0.64580000  0.18130000  1.0 -0.5710785601
O  O36  1  0.57800000  0.14580000  0.31870000  1.0 -0.5710785601
O  O37  1  0.22830000  0.02500000  0.58980000  1.0 -0.5495622866
O  O38  1  0.77170000  0.52500000  0.91020000  1.0 -0.5495622866
O  O39  1  0.77170000  0.97500000  0.41020000  1.0 -0.5495622866
O  O40  1  0.22830000  0.47500000  0.08980000  1.0 -0.5495622866
O  O41  1  0.61090000  0.81730000  0.50890000  1.0 -0.5415514745
O  O42  1  0.38910000  0.31730000  0.99110000  1.0 -0.5415514745
O  O43  1  0.38910000  0.18270000  0.49110000  1.0 -0.5415514745
O  O44  1  0.61090000  0.68270000  0.00890000  1.0 -0.5415514745
O  O45  1  0.57140000  0.92380000  0.43340000  1.0 -0.5415514745
O  O46  1  0.42860000  0.42380000  0.06660000  1.0 -0.5415514745
O  O47  1  0.42860000  0.07620000  0.56660000  1.0 -0.5415514745
O  O48  1  0.57140000  0.57620000  0.93340000  1.0 -0.5415514745
O  O49  1  0.20220000  0.12400000  0.35640000  1.0 -0.5303928368
O  O50  1  0.79780000  0.62400000  0.14360000  1.0 -0.5303928368
O  O51  1  0.79780000  0.87600000  0.64360000  1.0 -0.5303928368
O  O52  1  0.20220000  0.37600000  0.85640000  1.0 -0.5303928368
O  O53  1  0.01430000  0.27900000  0.56030000  1.0 -0.4370572754
O  O54  1  0.98570000  0.77900000  0.93970000  1.0 -0.4370572754
O  O55  1  0.98570000  0.72100000  0.43970000  1.0 -0.4370572754
O  O56  1  0.01430000  0.22100000  0.06030000  1.0 -0.4370572754
O  O57  1  0.24040000  0.08730000  0.29570000  1.0 -0.5495622866
O  O58  1  0.75960000  0.58730000  0.20430000  1.0 -0.5495622866
O  O59  1  0.75960000  0.91270000  0.70430000  1.0 -0.5495622866
O  O60  1  0.24040000  0.41270000  0.79570000  1.0 -0.5495622866
O  O61  1  0.19850000  0.60540000  0.52130000  1.0 -0.4076990598
O  O62  1  0.80150000  0.10540000  0.97870000  1.0 -0.4076990598
O  O63  1  0.80150000  0.39460000  0.47870000  1.0 -0.4076990598
O  O64  1  0.19850000  0.89460000  0.02130000  1.0 -0.4076990598
O  O65  1  0.79790000  0.91260000  0.53120000  1.0 -0.6229915433
O  O66  1  0.20210000  0.41260000  0.96880000  1.0 -0.6229915433
O  O67  1  0.20210000  0.08740000  0.46880000  1.0 -0.6229915433
O  O68  1  0.79790000  0.58740000  0.03120000  1.0 -0.6229915433
O  O69  1  0.92600000  0.82480000  0.60940000  1.0 -0.4819583144
O  O70  1  0.07400000  0.32480000  0.89060000  1.0 -0.4819583144
O  O71  1  0.07400000  0.17520000  0.39060000  1.0 -0.4819583144
O  O72  1  0.92600000  0.67520000  0.10940000  1.0 -0.4819583144
O  O73  1  0.21490000  0.32550000  0.38610000  1.0 -0.4585889541
O  O74  1  0.78510000  0.82550000  0.11390000  1.0 -0.4819583144
O  O75  1  0.78510000  0.67450000  0.61390000  1.0 -0.4585889541
O  O76  1  0.21490000  0.17450000  0.88610000  1.0 -0.4722528868
