# DDEC6 charges by PACMAN v1.1 (https://github.com/mtap-research/PACMAN-charge/)
data_LARREE_ASR_pacman
_symmetry_space_group_name_H-M   'P 1'
_cell_length_a   5.71140000
_cell_length_b   15.37000000
_cell_length_c   10.76010000
_cell_angle_alpha   90.00000000
_cell_angle_beta   104.32900000
_cell_angle_gamma   90.00000000
_symmetry_Int_Tables_number   1
_chemical_formula_structural   CuH12C13SN7
_chemical_formula_sum   'Cu2 H24 C26 S2 N14'
_cell_volume   915.18204301
_cell_formula_units_Z   2
loop_
 _symmetry_equiv_pos_site_id
 _symmetry_equiv_pos_as_xyz
  1  'x, y, z'
loop_
 _atom_site_type_symbol
 _atom_site_label
 _atom_site_symmetry_multiplicity
 _atom_site_fract_x
 _atom_site_fract_y
 _atom_site_fract_z
 _atom_site_occupancy
 _atom_site_charge
Cu  Cu1  1  0.57542000  0.25000000  0.59364000  1.0 0.3028546056
Cu  Cu2  1  0.42458000  0.75000000  0.40636000  1.0 0.3028546056
H  H1  1  0.94740000  0.39080000  0.52340000  1.0 0.1092344453
H  H2  1  0.26600000  0.37760000  0.37640000  1.0 0.1218067869
H  H3  1  0.20490000  0.51260000  0.23240000  1.0 0.1218067869
H  H4  1  0.41540000  0.58020000  0.27480000  1.0 0.1218067869
H  H5  1  0.17450000  0.42660000  0.03870000  1.0 0.1218067869
H  H6  1  0.27380000  0.41030000  0.84660000  1.0 0.1278637281
H  H7  1  0.05260000  0.89080000  0.47660000  1.0 0.1092344453
H  H8  1  0.73400000  0.87760000  0.62360000  1.0 0.1218067869
H  H9  1  0.79510000  0.01260000  0.76760000  1.0 0.1218067869
H  H10  1  0.58460000  0.08020000  0.72520000  1.0 0.1218067869
H  H11  1  0.82550000  0.92660000  0.96130000  1.0 0.1218067869
H  H12  1  0.72620000  0.91030000  0.15340000  1.0 0.1278637281
H  H13  1  0.05260000  0.60920000  0.47660000  1.0 0.1092344453
H  H14  1  0.73400000  0.62240000  0.62360000  1.0 0.1218067869
H  H15  1  0.79510000  0.48740000  0.76760000  1.0 0.1218067869
H  H16  1  0.58460000  0.41980000  0.72520000  1.0 0.1218067869
H  H17  1  0.82550000  0.57340000  0.96130000  1.0 0.1218067869
H  H18  1  0.72620000  0.58970000  0.15340000  1.0 0.1278637281
H  H19  1  0.94740000  0.10920000  0.52340000  1.0 0.1092344453
H  H20  1  0.26600000  0.12240000  0.37640000  1.0 0.1218067869
H  H21  1  0.20490000  0.98740000  0.23240000  1.0 0.1218067869
H  H22  1  0.41540000  0.91980000  0.27480000  1.0 0.1218067869
H  H23  1  0.17450000  0.07340000  0.03870000  1.0 0.1218067869
H  H24  1  0.27380000  0.08970000  0.84660000  1.0 0.1278637281
C  C1  1  0.79350000  0.40210000  0.47250000  1.0 0.1092344453
C  C2  1  0.42760000  0.39400000  0.39480000  1.0 0.0772936648
C  C3  1  0.37720000  0.52130000  0.24410000  1.0 -0.2065732846
C  C4  1  0.44100000  0.51010000  0.11720000  1.0 0.1021574238
C  C5  1  0.30650000  0.45640000  0.02370000  1.0 -0.1557444775
C  C6  1  0.36620000  0.44680000  0.90860000  1.0 -0.1351791093
C  C7  1  0.20650000  0.90210000  0.52750000  1.0 0.1092344453
C  C8  1  0.57240000  0.89400000  0.60520000  1.0 0.0772936648
C  C9  1  0.62280000  0.02130000  0.75590000  1.0 -0.2065732846
C  C10  1  0.55900000  0.01010000  0.88280000  1.0 0.1021574238
C  C11  1  0.69350000  0.95640000  0.97630000  1.0 -0.1557444775
C  C12  1  0.63380000  0.94680000  0.09140000  1.0 -0.1347026
C  C13  1  0.20650000  0.59790000  0.52750000  1.0 0.1092344453
C  C14  1  0.57240000  0.60600000  0.60520000  1.0 0.0772936648
C  C15  1  0.62280000  0.47870000  0.75590000  1.0 -0.2065732846
C  C16  1  0.55900000  0.48990000  0.88280000  1.0 0.1021574238
C  C17  1  0.69350000  0.54360000  0.97630000  1.0 -0.1557444775
C  C18  1  0.63380000  0.55320000  0.09140000  1.0 -0.1347026
C  C19  1  0.79350000  0.09790000  0.47250000  1.0 0.1092344453
C  C20  1  0.42760000  0.10600000  0.39480000  1.0 0.0772936648
C  C21  1  0.37720000  0.97870000  0.24410000  1.0 -0.2065732846
C  C22  1  0.44100000  0.98990000  0.11720000  1.0 0.1021574238
C  C23  1  0.30650000  0.04360000  0.02370000  1.0 -0.1557444775
C  C24  1  0.36620000  0.05320000  0.90860000  1.0 -0.1347026
C  C25  1  0.12810000  0.25000000  0.70570000  1.0 0.2475263705
C  C26  1  0.87190000  0.75000000  0.29430000  1.0 0.2475263705
S  S1  1  0.90399000  0.25000000  0.77634000  1.0 -0.3819683114
S  S2  1  0.09601000  0.75000000  0.22366000  1.0 -0.3819683114
N  N1  1  0.59960000  0.35484000  0.47830000  1.0 -0.2840545544
N  N2  1  0.50970000  0.45943000  0.34000000  1.0 0.1757154917
N  N3  1  0.74760000  0.46580000  0.38870000  1.0 -0.2543521592
N  N4  1  0.40040000  0.85484000  0.52170000  1.0 -0.2840545544
N  N5  1  0.49030000  0.95943000  0.66000000  1.0 0.1757154917
N  N6  1  0.25240000  0.96580000  0.61130000  1.0 -0.2543521592
N  N7  1  0.40040000  0.64516000  0.52170000  1.0 -0.2840545544
N  N8  1  0.49030000  0.54057000  0.66000000  1.0 0.1757154917
N  N9  1  0.25240000  0.53420000  0.61130000  1.0 -0.2543521592
N  N10  1  0.59960000  0.14516000  0.47830000  1.0 -0.2840545544
N  N11  1  0.50970000  0.04057000  0.34000000  1.0 0.1757154917
N  N12  1  0.74760000  0.03420000  0.38870000  1.0 -0.2543521592
N  N13  1  0.28740000  0.25000000  0.65840000  1.0 -0.47452072
N  N14  1  0.71260000  0.75000000  0.34160000  1.0 -0.4750251839
