# DDEC6 charges by PACMAN v1.1 (https://github.com/mtap-research/PACMAN-charge/)
data_LASQON_ASR_pacman
_symmetry_space_group_name_H-M   'P 1'
_cell_length_a   10.04700000
_cell_length_b   12.65800000
_cell_length_c   13.49400000
_cell_angle_alpha   86.56000000
_cell_angle_beta   108.57000000
_cell_angle_gamma   107.84000000
_symmetry_Int_Tables_number   1
_chemical_formula_structural   NiH12C18(NO)4
_chemical_formula_sum   'Ni3 H36 C54 N12 O12'
_cell_volume   1547.18706015
_cell_formula_units_Z   3
loop_
 _symmetry_equiv_pos_site_id
 _symmetry_equiv_pos_as_xyz
  1  'x, y, z'
loop_
 _atom_site_type_symbol
 _atom_site_label
 _atom_site_symmetry_multiplicity
 _atom_site_fract_x
 _atom_site_fract_y
 _atom_site_fract_z
 _atom_site_occupancy
 _atom_site_charge
Ni  Ni1  1  0.61641000  0.92467000  0.42128000  1.0 0.7874147533
Ni  Ni2  1  0.38359000  0.07533000  0.57872000  1.0 0.7874147533
Ni  Ni3  1  0.00000000  0.50000000  0.00000000  1.0 0.6954652308
H  H1  1  0.91520000  0.12390000  0.44190000  1.0 0.1212820003
H  H2  1  0.08480000  0.87610000  0.55810000  1.0 0.1212820003
H  H3  1  0.51400000  0.13700000  0.30780000  1.0 0.1306196618
H  H4  1  0.48600000  0.86300000  0.69220000  1.0 0.1306196618
H  H5  1  0.67990000  0.32460000  0.30850000  1.0 0.1306196618
H  H6  1  0.32010000  0.67540000  0.69150000  1.0 0.1306196618
H  H7  1  0.05130000  0.31450000  0.56170000  1.0 0.1306196618
H  H8  1  0.94870000  0.68550000  0.43830000  1.0 0.1306196618
H  H9  1  0.94970000  0.41220000  0.26690000  1.0 0.1384431331
H  H10  1  0.05030000  0.58780000  0.73310000  1.0 0.1384431331
H  H11  1  0.33530000  0.71770000  0.37640000  1.0 0.1212820003
H  H12  1  0.66470000  0.28230000  0.62360000  1.0 0.1212820003
H  H13  1  0.70200000  0.74040000  0.60010000  1.0 0.1306196618
H  H14  1  0.29800000  0.25960000  0.39990000  1.0 0.1306196618
H  H15  1  0.52650000  0.56280000  0.61680000  1.0 0.1306196618
H  H16  1  0.47350000  0.43720000  0.38320000  1.0 0.1306196618
H  H17  1  0.27090000  0.45900000  0.60570000  1.0 0.1306196618
H  H18  1  0.72910000  0.54100000  0.39430000  1.0 0.1306196618
H  H19  1  0.17200000  0.55300000  0.30970000  1.0 0.1384431331
H  H20  1  0.82800000  0.44700000  0.69030000  1.0 0.1384431331
H  H21  1  0.29970000  0.69400000  0.02010000  1.0 0.1306196618
H  H22  1  0.70030000  0.30600000  0.97990000  1.0 0.1306196618
H  H23  1  0.90950000  0.69820000  0.84490000  1.0 0.1306196618
H  H24  1  0.09050000  0.30180000  0.15510000  1.0 0.1306196618
H  H25  1  0.07800000  0.88320000  0.84500000  1.0 0.1384431331
H  H26  1  0.92200000  0.11680000  0.15500000  1.0 0.1384431331
H  H27  1  0.44210000  0.87520000  0.12400000  1.0 0.1472872137
H  H28  1  0.55790000  0.12480000  0.87600000  1.0 0.1472872137
H  H29  1  0.34210000  0.97830000  0.82930000  1.0 0.1306196618
H  H30  1  0.65790000  0.02170000  0.17070000  1.0 0.1384431331
H  H31  1  0.07560000  0.96900000  0.39440000  1.0 0.1212820003
H  H32  1  0.92440000  0.03100000  0.60560000  1.0 0.1212820003
H  H33  1  0.75240000  0.72670000  0.20250000  1.0 0.1306196618
H  H34  1  0.24760000  0.27330000  0.79750000  1.0 0.1306196618
H  H35  1  0.17530000  0.77270000  0.22330000  1.0 0.1101756483
H  H36  1  0.82470000  0.22730000  0.77670000  1.0 0.1101756483
C  C1  1  0.83550000  0.14980000  0.40870000  1.0 0.1101756483
C  C2  1  0.16450000  0.85020000  0.59130000  1.0 0.1101756483
C  C3  1  0.61620000  0.15780000  0.33500000  1.0 -0.0176113527
C  C4  1  0.38380000  0.84220000  0.66500000  1.0 -0.0176113527
C  C5  1  0.70700000  0.26210000  0.33520000  1.0 -0.1078304858
C  C6  1  0.29300000  0.73790000  0.66480000  1.0 -0.1078304858
C  C7  1  0.98200000  0.34800000  0.40920000  1.0 0.1472872137
C  C8  1  0.01800000  0.65200000  0.59080000  1.0 0.1472872137
C  C9  1  0.07600000  0.36250000  0.51090000  1.0 -0.1430295469
C  C10  1  0.92400000  0.63750000  0.48910000  1.0 -0.1430295469
C  C11  1  0.01530000  0.42020000  0.33460000  1.0 -0.1430295469
C  C12  1  0.98470000  0.57980000  0.66540000  1.0 -0.1430295469
C  C13  1  0.40520000  0.70160000  0.43440000  1.0 0.1101756483
C  C14  1  0.59480000  0.29840000  0.56560000  1.0 0.1101756483
C  C15  1  0.60510000  0.71340000  0.55660000  1.0 -0.0176113527
C  C16  1  0.39490000  0.28660000  0.44340000  1.0 -0.0176113527
C  C17  1  0.50870000  0.61490000  0.56670000  1.0 -0.1208368377
C  C18  1  0.49130000  0.38510000  0.43330000  1.0 -0.1208368377
C  C19  1  0.24300000  0.51890000  0.46160000  1.0 0.1384431331
C  C20  1  0.75700000  0.48110000  0.53840000  1.0 0.1384431331
C  C21  1  0.20730000  0.44870000  0.53730000  1.0 -0.1641730578
C  C22  1  0.79270000  0.55130000  0.46270000  1.0 -0.1641730578
C  C23  1  0.14750000  0.50510000  0.36050000  1.0 -0.1641730578
C  C24  1  0.85250000  0.49490000  0.63950000  1.0 -0.1641730578
C  C25  1  0.22260000  0.71770000  0.97660000  1.0 0.1101756483
C  C26  1  0.77740000  0.28230000  0.02340000  1.0 0.1101756483
C  C27  1  0.01010000  0.72050000  0.88050000  1.0 -0.0387244993
C  C28  1  0.98990000  0.27950000  0.11950000  1.0 -0.0387244993
C  C29  1  0.10250000  0.82320000  0.88080000  1.0 -0.0971281962
C  C30  1  0.89750000  0.17680000  0.11920000  1.0 -0.0971281962
C  C31  1  0.37160000  0.91300000  0.97180000  1.0 0.1472872137
C  C32  1  0.62840000  0.08700000  0.02820000  1.0 0.1384431331
C  C33  1  0.46580000  0.92550000  0.07450000  1.0 -0.1430295469
C  C34  1  0.53420000  0.07450000  0.92550000  1.0 -0.1430295469
C  C35  1  0.40570000  0.98730000  0.89770000  1.0 -0.1430295469
C  C36  1  0.59430000  0.01270000  0.10230000  1.0 -0.1430295469
C  C37  1  0.15080000  0.88310000  0.31380000  1.0 -0.0329699353
C  C38  1  0.84920000  0.11690000  0.68620000  1.0 -0.0329699353
C  C39  1  0.04590000  0.91050000  0.34590000  1.0 -0.1458526165
C  C40  1  0.95410000  0.08950000  0.65410000  1.0 -0.1430295469
C  C41  1  0.89740000  0.85080000  0.30570000  1.0 -0.0176113527
C  C42  1  0.10260000  0.14920000  0.69430000  1.0 -0.0176113527
C  C43  1  0.85210000  0.76440000  0.23140000  1.0 -0.132895138
C  C44  1  0.14790000  0.23560000  0.76860000  1.0 -0.132895138
C  C45  1  0.95500000  0.73430000  0.20010000  1.0 -0.0176113527
C  C46  1  0.04500000  0.26570000  0.79990000  1.0 -0.0176113527
C  C47  1  0.10550000  0.79340000  0.24260000  1.0 -0.1430295469
C  C48  1  0.89450000  0.20660000  0.75740000  1.0 -0.132895138
C  C49  1  0.31290000  0.94460000  0.36380000  1.0 0.5630167364
C  C50  1  0.68710000  0.05540000  0.63620000  1.0 0.5630167364
C  C51  1  0.78870000  0.87270000  0.35030000  1.0 0.5291704177
C  C52  1  0.21130000  0.12730000  0.64970000  1.0 0.5291704177
C  C53  1  0.90740000  0.63530000  0.12610000  1.0 0.5506636142
C  C54  1  0.09260000  0.36470000  0.87390000  1.0 0.5506636142
N  N1  1  0.69660000  0.08730000  0.38070000  1.0 -0.2836299301
N  N2  1  0.30340000  0.91270000  0.61930000  1.0 -0.2836299301
N  N3  1  0.84730000  0.25650000  0.38280000  1.0 -0.0003514076
N  N4  1  0.15270000  0.74350000  0.61720000  1.0 -0.0003514076
N  N5  1  0.53990000  0.76750000  0.47370000  1.0 -0.2463876889
N  N6  1  0.46010000  0.23250000  0.52630000  1.0 -0.2463876889
N  N7  1  0.37900000  0.60740000  0.48750000  1.0 -0.007988337
N  N8  1  0.62100000  0.39260000  0.51250000  1.0 -0.007988337
N  N9  1  0.08630000  0.65360000  0.94040000  1.0 -0.2652546228
N  N10  1  0.91370000  0.34640000  0.05960000  1.0 -0.2637842656
N  N11  1  0.23830000  0.82250000  0.94340000  1.0 0.0073838528
N  N12  1  0.76170000  0.17750000  0.05660000  1.0 0.0073838528
O  O1  1  0.40280000  0.91060000  0.33610000  1.0 -0.5524635674
O  O2  1  0.59720000  0.08940000  0.66390000  1.0 -0.5524635674
O  O3  1  0.34790000  0.02160000  0.42890000  1.0 -0.5397904874
O  O4  1  0.65210000  0.97840000  0.57110000  1.0 -0.5397904874
O  O5  1  0.83320000  0.91020000  0.44350000  1.0 -0.5320095182
O  O6  1  0.16680000  0.08980000  0.55650000  1.0 -0.5320095182
O  O7  1  0.65500000  0.85290000  0.29490000  1.0 -0.5320095182
O  O8  1  0.34500000  0.14710000  0.70510000  1.0 -0.5320095182
O  O9  1  0.77170000  0.59830000  0.07480000  1.0 -0.579266584
O  O10  1  0.22830000  0.40170000  0.92520000  1.0 -0.579266584
O  O11  1  0.00440000  0.59600000  0.12040000  1.0 -0.5691363574
O  O12  1  0.99560000  0.40400000  0.87960000  1.0 -0.5691363574
