# DDEC6 charges by PACMAN v1.1 (https://github.com/mtap-research/PACMAN-charge/)
data_LASRAB_ASR_pacman
_symmetry_space_group_name_H-M   'P 1'
_cell_length_a   16.21700000
_cell_length_b   17.98310000
_cell_length_c   19.64020000
_cell_angle_alpha   90.00000000
_cell_angle_beta   90.00000000
_cell_angle_gamma   90.00000000
_symmetry_Int_Tables_number   1
_chemical_formula_structural   MnCu3H3C9BrO18
_chemical_formula_sum   'Mn4 Cu12 H12 C36 Br4 O72'
_cell_volume   5727.70948461
_cell_formula_units_Z   4
loop_
 _symmetry_equiv_pos_site_id
 _symmetry_equiv_pos_as_xyz
  1  'x, y, z'
loop_
 _atom_site_type_symbol
 _atom_site_label
 _atom_site_symmetry_multiplicity
 _atom_site_fract_x
 _atom_site_fract_y
 _atom_site_fract_z
 _atom_site_occupancy
 _atom_site_charge
Mn  Mn1  1  0.89764000  0.42820000  0.89729000  1.0 1.0322362093
Mn  Mn2  1  0.60236000  0.57180000  0.39729000  1.0 1.0322362093
Mn  Mn3  1  0.10236000  0.92820000  0.60271000  1.0 1.0322362093
Mn  Mn4  1  0.39764000  0.07180000  0.10271000  1.0 1.0322362093
Cu  Cu1  1  0.21909000  0.06905000  0.84918000  1.0 0.9161952642
Cu  Cu2  1  0.28091000  0.93095000  0.34918000  1.0 0.9161952642
Cu  Cu3  1  0.78091000  0.56905000  0.65082000  1.0 0.9161952642
Cu  Cu4  1  0.71909000  0.43095000  0.15082000  1.0 0.9161952642
Cu  Cu5  1  0.02992000  0.14915000  0.80037000  1.0 0.9080872593
Cu  Cu6  1  0.47008000  0.85085000  0.30037000  1.0 0.9080872593
Cu  Cu7  1  0.97008000  0.64915000  0.69963000  1.0 0.9080872593
Cu  Cu8  1  0.52992000  0.35085000  0.19963000  1.0 0.9080872593
Cu  Cu9  1  0.15529000  0.21203000  0.93119000  1.0 0.9080872593
Cu  Cu10  1  0.34471000  0.78797000  0.43119000  1.0 0.9080872593
Cu  Cu11  1  0.84471000  0.71203000  0.56881000  1.0 0.9080872593
Cu  Cu12  1  0.65529000  0.28797000  0.06881000  1.0 0.9080872593
H  H1  1  0.07020000  0.91910000  0.75560000  1.0 0.3708414791
H  H2  1  0.42980000  0.08090000  0.25560000  1.0 0.3708414791
H  H3  1  0.92980000  0.41910000  0.74440000  1.0 0.3708414791
H  H4  1  0.57020000  0.58090000  0.24440000  1.0 0.3708414791
H  H5  1  0.22140000  0.03820000  0.07360000  1.0 0.378540626
H  H6  1  0.27860000  0.96180000  0.57360000  1.0 0.378540626
H  H7  1  0.77860000  0.53820000  0.42640000  1.0 0.378540626
H  H8  1  0.72140000  0.46180000  0.92640000  1.0 0.378540626
H  H9  1  0.89960000  0.26750000  0.93840000  1.0 0.3708414791
H  H10  1  0.60040000  0.73250000  0.43840000  1.0 0.3708414791
H  H11  1  0.10040000  0.76750000  0.56160000  1.0 0.3708414791
H  H12  1  0.39960000  0.23250000  0.06160000  1.0 0.3708414791
C  C1  1  0.19044000  0.00419000  0.72530000  1.0 0.5401517141
C  C2  1  0.30956000  0.99581000  0.22530000  1.0 0.5401517141
C  C3  1  0.80956000  0.50419000  0.77470000  1.0 0.5401517141
C  C4  1  0.69044000  0.49581000  0.27470000  1.0 0.5401517141
C  C5  1  0.30720000  0.04132000  0.96584000  1.0 0.5276628194
C  C6  1  0.19280000  0.95868000  0.46584000  1.0 0.5276628194
C  C7  1  0.69280000  0.54132000  0.53416000  1.0 0.5276628194
C  C8  1  0.80720000  0.45868000  0.03416000  1.0 0.5276628194
C  C9  1  0.04316000  0.32496000  0.93090000  1.0 0.5401517141
C  C10  1  0.45684000  0.67504000  0.43090000  1.0 0.5401517141
C  C11  1  0.95684000  0.82496000  0.56910000  1.0 0.5401517141
C  C12  1  0.54316000  0.17504000  0.06910000  1.0 0.5401517141
C  C13  1  0.10361000  0.01833000  0.75560000  1.0 0.2861709603
C  C14  1  0.39639000  0.98167000  0.25560000  1.0 0.2849241106
C  C15  1  0.89639000  0.51833000  0.74440000  1.0 0.2849241106
C  C16  1  0.60361000  0.48167000  0.24440000  1.0 0.2861709603
C  C17  1  0.23289000  0.08820000  0.99120000  1.0 0.2861709603
C  C18  1  0.26711000  0.91180000  0.49120000  1.0 0.2861709603
C  C19  1  0.76711000  0.58820000  0.50880000  1.0 0.2861709603
C  C20  1  0.73289000  0.41180000  0.00880000  1.0 0.2861709603
C  C21  1  0.99982000  0.26012000  0.89265000  1.0 0.2741638777
C  C22  1  0.50018000  0.73988000  0.39265000  1.0 0.2741638777
C  C23  1  0.00018000  0.76012000  0.60735000  1.0 0.2741638777
C  C24  1  0.49982000  0.23988000  0.10735000  1.0 0.2741638777
C  C25  1  0.04059000  0.04489000  0.70240000  1.0 0.5401517141
C  C26  1  0.45941000  0.95511000  0.20240000  1.0 0.5450642613
C  C27  1  0.95941000  0.54489000  0.79760000  1.0 0.5401517141
C  C28  1  0.54059000  0.45511000  0.29760000  1.0 0.5401517141
C  C29  1  0.26523000  0.16124000  0.02328000  1.0 0.5276628194
C  C30  1  0.23477000  0.83876000  0.52328000  1.0 0.5276628194
C  C31  1  0.73477000  0.66124000  0.47672000  1.0 0.5276628194
C  C32  1  0.76523000  0.33876000  0.97672000  1.0 0.5276628194
C  C33  1  0.96466000  0.28523000  0.82296000  1.0 0.5401517141
C  C34  1  0.53534000  0.71477000  0.32296000  1.0 0.5401517141
C  C35  1  0.03534000  0.78523000  0.67704000  1.0 0.5401517141
C  C36  1  0.46466000  0.21477000  0.17704000  1.0 0.5401517141
Br  Br1  1  0.25342000  0.21412000  0.81867000  1.0 -0.6641732546
Br  Br2  1  0.24658000  0.78588000  0.31867000  1.0 -0.6651678773
Br  Br3  1  0.74658000  0.71412000  0.68133000  1.0 -0.6651678773
Br  Br4  1  0.75342000  0.28588000  0.18133000  1.0 -0.6651678773
O  O1  1  0.25021000  0.02169000  0.76334000  1.0 -0.4419073678
O  O2  1  0.24979000  0.97831000  0.26334000  1.0 -0.4419073678
O  O3  1  0.74979000  0.52169000  0.73666000  1.0 -0.4419073678
O  O4  1  0.75021000  0.47831000  0.23666000  1.0 -0.4419073678
O  O5  1  0.31097000  0.02859000  0.90225000  1.0 -0.4517598095
O  O6  1  0.18903000  0.97141000  0.40225000  1.0 -0.4517598095
O  O7  1  0.68903000  0.52859000  0.59775000  1.0 -0.4517598095
O  O8  1  0.81097000  0.47141000  0.09775000  1.0 -0.4517598095
O  O9  1  0.11758000  0.31326000  0.94798000  1.0 -0.4419073678
O  O10  1  0.38242000  0.68674000  0.44798000  1.0 -0.4419073678
O  O11  1  0.88242000  0.81326000  0.55202000  1.0 -0.4419073678
O  O12  1  0.61758000  0.18674000  0.05202000  1.0 -0.4419073678
O  O13  1  0.19786000  0.97502000  0.66752000  1.0 -0.4976407977
O  O14  1  0.30214000  0.02498000  0.16752000  1.0 -0.4976407977
O  O15  1  0.80214000  0.47502000  0.83248000  1.0 -0.4976407977
O  O16  1  0.69786000  0.52498000  0.33248000  1.0 -0.4976407977
O  O17  1  0.35823000  0.01820000  0.00834000  1.0 -0.4603023323
O  O18  1  0.14177000  0.98180000  0.50834000  1.0 -0.4603023323
O  O19  1  0.64177000  0.51820000  0.49166000  1.0 -0.4603023323
O  O20  1  0.85823000  0.48180000  0.99166000  1.0 -0.4603023323
O  O21  1  0.00468000  0.38227000  0.94433000  1.0 -0.4517598095
O  O22  1  0.49532000  0.61773000  0.44433000  1.0 -0.4517598095
O  O23  1  0.99532000  0.88227000  0.55567000  1.0 -0.4517598095
O  O24  1  0.50468000  0.11773000  0.05567000  1.0 -0.4517598095
O  O25  1  0.10919000  0.06984000  0.80730000  1.0 -0.5688499542
O  O26  1  0.39081000  0.93016000  0.30730000  1.0 -0.5756988021
O  O27  1  0.89081000  0.56984000  0.69270000  1.0 -0.5756988021
O  O28  1  0.60919000  0.43016000  0.19270000  1.0 -0.5756988021
O  O29  1  0.17896000  0.10389000  0.93875000  1.0 -0.5611091199
O  O30  1  0.32104000  0.89611000  0.43875000  1.0 -0.5611091199
O  O31  1  0.82104000  0.60389000  0.56125000  1.0 -0.5611091199
O  O32  1  0.67896000  0.39611000  0.06125000  1.0 -0.5611091199
O  O33  1  0.05352000  0.20206000  0.88267000  1.0 -0.5688499542
O  O34  1  0.44648000  0.79794000  0.38267000  1.0 -0.5688499542
O  O35  1  0.94648000  0.70206000  0.61733000  1.0 -0.5688499542
O  O36  1  0.55352000  0.29794000  0.11733000  1.0 -0.5688499542
O  O37  1  0.07532000  0.95076000  0.78531000  1.0 -0.371144017
O  O38  1  0.42468000  0.04924000  0.28531000  1.0 -0.371144017
O  O39  1  0.92468000  0.45076000  0.71469000  1.0 -0.371144017
O  O40  1  0.57532000  0.54924000  0.21469000  1.0 -0.371144017
O  O41  1  0.18996000  0.04772000  0.04208000  1.0 -0.3622903841
O  O42  1  0.31004000  0.95228000  0.54208000  1.0 -0.3622903841
O  O43  1  0.81004000  0.54772000  0.45792000  1.0 -0.3622903841
O  O44  1  0.68996000  0.45228000  0.95792000  1.0 -0.3622903841
O  O45  1  0.93322000  0.23390000  0.93303000  1.0 -0.371144017
O  O46  1  0.56678000  0.76610000  0.43303000  1.0 -0.371144017
O  O47  1  0.06678000  0.73390000  0.56697000  1.0 -0.371144017
O  O48  1  0.43322000  0.26610000  0.06697000  1.0 -0.371144017
O  O49  1  0.02861000  0.00813000  0.64980000  1.0 -0.4419073678
O  O50  1  0.47139000  0.99187000  0.14980000  1.0 -0.4419073678
O  O51  1  0.97139000  0.50813000  0.85020000  1.0 -0.4419073678
O  O52  1  0.52861000  0.49187000  0.35020000  1.0 -0.4419073678
O  O53  1  0.31553000  0.15754000  0.07128000  1.0 -0.4879663082
O  O54  1  0.18447000  0.84246000  0.57128000  1.0 -0.4879663082
O  O55  1  0.68447000  0.65754000  0.42872000  1.0 -0.4879663082
O  O56  1  0.81553000  0.34246000  0.92872000  1.0 -0.4879663082
O  O57  1  0.92983000  0.34618000  0.81659000  1.0 -0.4724045189
O  O58  1  0.57017000  0.65382000  0.31659000  1.0 -0.4724045189
O  O59  1  0.07017000  0.84618000  0.68341000  1.0 -0.4724045189
O  O60  1  0.42983000  0.15382000  0.18341000  1.0 -0.4724045189
O  O61  1  0.99971000  0.10187000  0.71568000  1.0 -0.4517598095
O  O62  1  0.50029000  0.89813000  0.21568000  1.0 -0.4517598095
O  O63  1  0.00029000  0.60187000  0.78432000  1.0 -0.4517598095
O  O64  1  0.49971000  0.39813000  0.28432000  1.0 -0.4517598095
O  O65  1  0.23934000  0.22142000  0.00068000  1.0 -0.4233539792
O  O66  1  0.26066000  0.77858000  0.50068000  1.0 -0.4233539792
O  O67  1  0.76066000  0.72142000  0.49932000  1.0 -0.4233539792
O  O68  1  0.73934000  0.27858000  0.99932000  1.0 -0.4233539792
O  O69  1  0.97110000  0.23926000  0.77542000  1.0 -0.4517598095
O  O70  1  0.52890000  0.76074000  0.27542000  1.0 -0.4517598095
O  O71  1  0.02890000  0.73926000  0.72458000  1.0 -0.4517598095
O  O72  1  0.47110000  0.26074000  0.22458000  1.0 -0.4517598095
