# DDEC6 charges by PACMAN v1.1 (https://github.com/mtap-research/PACMAN-charge/)
data_LASWEJ_ASR_pacman
_symmetry_space_group_name_H-M   'P 1'
_cell_length_a   8.81020000
_cell_length_b   15.63230000
_cell_length_c   16.35920000
_cell_angle_alpha   103.54400000
_cell_angle_beta   100.81100000
_cell_angle_gamma   90.19090000
_symmetry_Int_Tables_number   1
_chemical_formula_structural   CoH13C19(NO2)2
_chemical_formula_sum   'Co4 H52 C76 N8 O16'
_cell_volume   2148.87980524
_cell_formula_units_Z   4
loop_
 _symmetry_equiv_pos_site_id
 _symmetry_equiv_pos_as_xyz
  1  'x, y, z'
loop_
 _atom_site_type_symbol
 _atom_site_label
 _atom_site_symmetry_multiplicity
 _atom_site_fract_x
 _atom_site_fract_y
 _atom_site_fract_z
 _atom_site_occupancy
 _atom_site_charge
Co  Co1  1  0.64462000  0.04965000  0.64027000  1.0 0.8896625872
Co  Co2  1  0.35538000  0.95035000  0.35973000  1.0 0.8896625872
Co  Co3  1  0.18834000  0.20988000  0.26764000  1.0 0.6540099914
Co  Co4  1  0.81166000  0.79012000  0.73236000  1.0 0.6540099914
H  H1  1  0.62950000  0.17200000  0.24510000  1.0 0.1076573243
H  H2  1  0.37050000  0.82800000  0.75490000  1.0 0.1076573243
H  H3  1  0.92590000  0.99720000  0.39570000  1.0 0.138899644
H  H4  1  0.07410000  0.00280000  0.60430000  1.0 0.138899644
H  H5  1  0.73610000  0.04310000  0.83580000  1.0 0.099942442
H  H6  1  0.26390000  0.95690000  0.16420000  1.0 0.099942442
H  H7  1  0.65230000  0.08160000  0.96270000  1.0 0.138899644
H  H8  1  0.34770000  0.91840000  0.03730000  1.0 0.138899644
H  H9  1  0.26300000  0.15290000  0.83610000  1.0 0.1335157725
H  H10  1  0.73700000  0.84710000  0.16390000  1.0 0.1335157725
H  H11  1  0.36570000  0.12270000  0.71580000  1.0 0.099942442
H  H12  1  0.63430000  0.87730000  0.28420000  1.0 0.099942442
H  H13  1  0.85160000  0.20900000  0.75520000  1.0 0.1076573243
H  H14  1  0.14840000  0.79100000  0.24480000  1.0 0.1076573243
H  H15  1  0.88800000  0.35800000  0.77490000  1.0 0.1194405268
H  H16  1  0.11200000  0.64200000  0.22510000  1.0 0.1194405268
H  H17  1  0.53300000  0.34850000  0.58100000  1.0 0.1194405268
H  H18  1  0.46700000  0.65150000  0.41900000  1.0 0.1194405268
H  H19  1  0.51100000  0.20010000  0.56410000  1.0 0.1194405268
H  H20  1  0.48900000  0.79990000  0.43590000  1.0 0.1194405268
H  H21  1  0.84000000  0.49830000  0.81900000  1.0 0.1076573243
H  H22  1  0.16000000  0.50170000  0.18100000  1.0 0.1076573243
H  H23  1  0.87070000  0.64730000  0.83260000  1.0 0.099942442
H  H24  1  0.12930000  0.35270000  0.16740000  1.0 0.099942442
H  H25  1  0.67270000  0.62570000  0.59690000  1.0 0.0845360394
H  H26  1  0.32730000  0.37430000  0.40310000  1.0 0.0845360394
H  H27  1  0.63810000  0.47680000  0.57520000  1.0 0.099942442
H  H28  1  0.36190000  0.52320000  0.42480000  1.0 0.099942442
H  H29  1  0.18730000  0.06300000  0.95260000  1.0 0.1194405268
H  H30  1  0.81270000  0.93700000  0.04740000  1.0 0.1194405268
H  H31  1  0.09850000  0.09930000  0.08020000  1.0 0.1335157725
H  H32  1  0.90150000  0.90070000  0.91980000  1.0 0.1335157725
H  H33  1  0.44870000  0.26510000  0.18570000  1.0 0.099942442
H  H34  1  0.55130000  0.73490000  0.81430000  1.0 0.099942442
H  H35  1  0.55460000  0.22790000  0.06550000  1.0 0.1194405268
H  H36  1  0.44540000  0.77210000  0.93450000  1.0 0.1194405268
H  H37  1  0.96020000  0.47980000  0.73120000  1.0 0.1076573243
H  H38  1  0.03980000  0.52020000  0.26880000  1.0 0.1076573243
H  H39  1  0.98900000  0.62420000  0.72780000  1.0 0.1194405268
H  H40  1  0.01100000  0.37580000  0.27220000  1.0 0.1194405268
H  H41  1  0.55410000  0.63830000  0.65090000  1.0 0.091608657
H  H42  1  0.44590000  0.36170000  0.34910000  1.0 0.091608657
H  H43  1  0.51350000  0.49260000  0.64610000  1.0 0.099942442
H  H44  1  0.48650000  0.50740000  0.35390000  1.0 0.099942442
H  H45  1  0.45410000  0.03940000  0.03920000  1.0 0.099942442
H  H46  1  0.54590000  0.96060000  0.96080000  1.0 0.099942442
H  H47  1  0.38410000  0.08280000  0.16990000  1.0 0.1076573243
H  H48  1  0.61590000  0.91720000  0.83010000  1.0 0.1076573243
H  H49  1  0.22620000  0.29730000  0.11780000  1.0 0.099942442
H  H50  1  0.77380000  0.70270000  0.88220000  1.0 0.099942442
H  H51  1  0.33170000  0.27040000  0.99570000  1.0 0.1076573243
H  H52  1  0.66830000  0.72960000  0.00430000  1.0 0.1076573243
C  C1  1  0.66900000  0.01553000  0.45143000  1.0 0.5837526257
C  C2  1  0.33100000  0.98447000  0.54857000  1.0 0.5837526257
C  C3  1  0.46990000  0.13304000  0.35150000  1.0 0.5590447272
C  C4  1  0.53010000  0.86696000  0.64850000  1.0 0.5590447272
C  C5  1  0.87610000  0.14437000  0.18164000  1.0 0.5590447272
C  C6  1  0.12390000  0.85563000  0.81836000  1.0 0.5590447272
C  C7  1  0.07560000  0.02952000  0.28127000  1.0 0.5691036518
C  C8  1  0.92440000  0.97048000  0.71873000  1.0 0.5691036518
C  C9  1  0.72060000  0.05385000  0.38411000  1.0 -0.0360748135
C  C10  1  0.27940000  0.94615000  0.61589000  1.0 -0.0360748135
C  C11  1  0.63080000  0.10697000  0.33739000  1.0 -0.0503323299
C  C12  1  0.36920000  0.89303000  0.66261000  1.0 -0.0503323299
C  C13  1  0.68850000  0.13552000  0.27464000  1.0 -0.1461960738
C  C14  1  0.31150000  0.86448000  0.72536000  1.0 -0.1461960738
C  C15  1  0.83100000  0.11180000  0.25412000  1.0 -0.0360748135
C  C16  1  0.16900000  0.88820000  0.74588000  1.0 -0.0360748135
C  C17  1  0.92010000  0.05831000  0.29988000  1.0 -0.0503323299
C  C18  1  0.07990000  0.94169000  0.70012000  1.0 -0.0503323299
C  C19  1  0.86460000  0.03143000  0.36447000  1.0 -0.1445491005
C  C20  1  0.13540000  0.96857000  0.63553000  1.0 -0.1445491005
C  C21  1  0.64020000  0.06760000  0.83598000  1.0 0.0711108028
C  C22  1  0.35980000  0.93240000  0.16402000  1.0 0.0711108028
C  C23  1  0.58950000  0.08890000  0.91260000  1.0 -0.2104527716
C  C24  1  0.41050000  0.91110000  0.08740000  1.0 -0.2104527716
C  C25  1  0.44330000  0.12142000  0.91417000  1.0 0.099942442
C  C26  1  0.55670000  0.87858000  0.08583000  1.0 0.099942442
C  C27  1  0.36210000  0.13200000  0.83867000  1.0 -0.1952873533
C  C28  1  0.63790000  0.86800000  0.16133000  1.0 -0.1952873533
C  C29  1  0.42390000  0.11240000  0.76591000  1.0 0.0711108028
C  C30  1  0.57610000  0.88760000  0.23409000  1.0 0.0711108028
C  C31  1  0.78610000  0.23753000  0.71970000  1.0 0.091608657
C  C32  1  0.21390000  0.76247000  0.28030000  1.0 0.091608657
C  C33  1  0.80850000  0.32736000  0.73220000  1.0 -0.2173195247
C  C34  1  0.19150000  0.67264000  0.26780000  1.0 -0.2173195247
C  C35  1  0.71160000  0.37205000  0.68078000  1.0 0.091608657
C  C36  1  0.28840000  0.62795000  0.31922000  1.0 0.091608657
C  C37  1  0.59970000  0.32179000  0.61758000  1.0 -0.2104527716
C  C38  1  0.40030000  0.67821000  0.38242000  1.0 -0.2104527716
C  C39  1  0.58620000  0.23247000  0.60826000  1.0 0.099942442
C  C40  1  0.41380000  0.76753000  0.39174000  1.0 0.099942442
C  C41  1  0.73340000  0.46881000  0.69270000  1.0 0.01806852
C  C42  1  0.26660000  0.53119000  0.30730000  1.0 0.01806852
C  C43  1  0.80510000  0.52250000  0.77240000  1.0 -0.1113624562
C  C44  1  0.19490000  0.47750000  0.22760000  1.0 -0.1113624562
C  C45  1  0.82250000  0.61220000  0.77990000  1.0 -0.0503323299
C  C46  1  0.17750000  0.38780000  0.22010000  1.0 -0.0562947606
C  C47  1  0.70750000  0.60010000  0.64250000  1.0 0.0088143694
C  C48  1  0.29250000  0.39990000  0.35750000  1.0 0.0088143694
C  C49  1  0.68600000  0.50980000  0.62900000  1.0 -0.0791040145
C  C50  1  0.31400000  0.49020000  0.37100000  1.0 -0.0791040145
C  C51  1  0.38180000  0.14341000  0.99445000  1.0 0.0542445603
C  C52  1  0.61820000  0.85659000  0.00555000  1.0 0.0542445603
C  C53  1  0.24330000  0.10370000  0.99960000  1.0 -0.1113624562
C  C54  1  0.75670000  0.89630000  0.00040000  1.0 -0.1113624562
C  C55  1  0.19040000  0.12630000  0.07670000  1.0 0.01806852
C  C56  1  0.80960000  0.87370000  0.92330000  1.0 0.01806852
C  C57  1  0.39650000  0.22260000  0.13895000  1.0 -0.0060728957
C  C58  1  0.60350000  0.77740000  0.86105000  1.0 -0.0060728957
C  C59  1  0.45970000  0.20210000  0.06600000  1.0 -0.0712225706
C  C60  1  0.54030000  0.79790000  0.93400000  1.0 -0.0712225706
C  C61  1  0.87320000  0.51080000  0.71690000  1.0 -0.0712225706
C  C62  1  0.12680000  0.48920000  0.28310000  1.0 -0.0712225706
C  C63  1  0.88980000  0.59980000  0.72100000  1.0 0.0011506887
C  C64  1  0.11020000  0.40020000  0.27900000  1.0 0.0011506887
C  C65  1  0.63410000  0.60750000  0.67450000  1.0 -0.0345147
C  C66  1  0.36590000  0.39250000  0.32550000  1.0 -0.0360748135
C  C67  1  0.61200000  0.51930000  0.66780000  1.0 -0.1020502288
C  C68  1  0.38800000  0.48070000  0.33220000  1.0 -0.1020502288
C  C69  1  0.40440000  0.09180000  0.05230000  1.0 -0.0791040145
C  C70  1  0.59560000  0.90820000  0.94770000  1.0 -0.0791040145
C  C71  1  0.35550000  0.11530000  0.12910000  1.0 -0.0060728957
C  C72  1  0.64450000  0.88470000  0.87090000  1.0 -0.0060728957
C  C73  1  0.26700000  0.24290000  0.10000000  1.0 -0.0360748135
C  C74  1  0.73300000  0.75710000  0.90000000  1.0 -0.0360748135
C  C75  1  0.32800000  0.22640000  0.02500000  1.0 -0.1020502288
C  C76  1  0.67200000  0.77360000  0.97500000  1.0 -0.1020502288
N  N1  1  0.56200000  0.07968000  0.76283000  1.0 -0.2668088888
N  N2  1  0.43800000  0.92032000  0.23717000  1.0 -0.2668088888
N  N3  1  0.67550000  0.18947000  0.65939000  1.0 -0.2350341444
N  N4  1  0.32450000  0.81053000  0.34061000  1.0 -0.2350341444
N  N5  1  0.77400000  0.65143000  0.71582000  1.0 -0.1623026197
N  N6  1  0.22600000  0.34857000  0.28418000  1.0 -0.1623026197
N  N7  1  0.26610000  0.18542000  0.14628000  1.0 -0.0191643185
N  N8  1  0.73390000  0.81458000  0.85372000  1.0 -0.0191643185
O  O1  1  0.72934000  0.04943000  0.52733000  1.0 -0.5155147974
O  O2  1  0.27066000  0.95057000  0.47267000  1.0 -0.5155147974
O  O3  1  0.57765000  0.94757000  0.42621000  1.0 -0.571626461
O  O4  1  0.42235000  0.05243000  0.57379000  1.0 -0.571626461
O  O5  1  0.41797000  0.19898000  0.32553000  1.0 -0.571626461
O  O6  1  0.58203000  0.80102000  0.67447000  1.0 -0.571626461
O  O7  1  0.39824000  0.08830000  0.38761000  1.0 -0.5358640019
O  O8  1  0.60176000  0.91170000  0.61239000  1.0 -0.5358640019
O  O9  1  0.81720000  0.10516000  0.10763000  1.0 -0.5610749885
O  O10  1  0.18280000  0.89484000  0.89237000  1.0 -0.5610749885
O  O11  1  0.96493000  0.21379000  0.20079000  1.0 -0.6008449559
O  O12  1  0.03507000  0.78621000  0.79921000  1.0 -0.6008449559
O  O13  1  0.12723000  0.96197000  0.30475000  1.0 -0.5610749885
O  O14  1  0.87277000  0.03803000  0.69525000  1.0 -0.5610749885
O  O15  1  0.14495000  0.07340000  0.24322000  1.0 -0.5610749885
O  O16  1  0.85505000  0.92660000  0.75678000  1.0 -0.5610749885
