# DDEC6 charges by PACMAN v1.1 (https://github.com/mtap-research/PACMAN-charge/)
data_LATCEO_ASR_pacman
_symmetry_space_group_name_H-M   'P 1'
_cell_length_a   14.40850000
_cell_length_b   14.40850000
_cell_length_c   8.46400000
_cell_angle_alpha   76.69470000
_cell_angle_beta   103.30500000
_cell_angle_gamma   53.50890000
_symmetry_Int_Tables_number   1
_chemical_formula_structural   CdC4
_chemical_formula_sum   'Cd5 C20'
_cell_volume   1214.11763346
_cell_formula_units_Z   5
loop_
 _symmetry_equiv_pos_site_id
 _symmetry_equiv_pos_as_xyz
  1  'x, y, z'
loop_
 _atom_site_type_symbol
 _atom_site_label
 _atom_site_symmetry_multiplicity
 _atom_site_fract_x
 _atom_site_fract_y
 _atom_site_fract_z
 _atom_site_occupancy
 _atom_site_charge
Cd  Cd1  1  0.00000000  0.00000000  0.00000000  1.0 0.6677961696
Cd  Cd2  1  0.49224000  0.81056000  0.12127000  1.0 0.7183190484
Cd  Cd3  1  0.81056000  0.49224000  0.87873000  1.0 0.7183190484
Cd  Cd4  1  0.50776000  0.18944000  0.87873000  1.0 0.7183190484
Cd  Cd5  1  0.18944000  0.50776000  0.12127000  1.0 0.7183190484
C  C1  1  0.20420000  0.91940000  0.06880000  1.0 -0.0224693076
C  C2  1  0.91940000  0.20420000  0.93120000  1.0 -0.0224693076
C  C3  1  0.79580000  0.08060000  0.93120000  1.0 -0.0224693076
C  C4  1  0.08060000  0.79580000  0.06880000  1.0 -0.0224693076
C  C5  1  0.30020000  0.88220000  0.08230000  1.0 -0.2561073553
C  C6  1  0.88220000  0.30020000  0.91770000  1.0 -0.2536999535
C  C7  1  0.69980000  0.11780000  0.91770000  1.0 -0.2561073553
C  C8  1  0.11780000  0.69980000  0.08230000  1.0 -0.2536999535
C  C9  1  0.62650000  0.69210000  0.42250000  1.0 -0.1984755779
C  C10  1  0.69210000  0.62650000  0.57750000  1.0 -0.1984755779
C  C11  1  0.37350000  0.30790000  0.57750000  1.0 -0.1984755779
C  C12  1  0.30790000  0.37350000  0.42250000  1.0 -0.1984755779
C  C13  1  0.49780000  0.96180000  0.02480000  1.0 -0.1984755779
C  C14  1  0.96180000  0.49780000  0.97520000  1.0 -0.2131073277
C  C15  1  0.50220000  0.03820000  0.97520000  1.0 -0.1984755779
C  C16  1  0.03820000  0.50220000  0.02480000  1.0 -0.1984755779
C  C17  1  0.60490000  0.67250000  0.02320000  1.0 -0.1984755779
C  C18  1  0.67250000  0.60490000  0.97680000  1.0 -0.2160964932
C  C19  1  0.39510000  0.32750000  0.97680000  1.0 -0.2160964932
C  C20  1  0.32750000  0.39510000  0.02320000  1.0 -0.1984755779
