# DDEC6 charges by PACMAN v1.1 (https://github.com/mtap-research/PACMAN-charge/)
data_LAVMAY_ASR_pacman
_symmetry_space_group_name_H-M   'P 1'
_cell_length_a   9.42770000
_cell_length_b   9.86650000
_cell_length_c   12.88050000
_cell_angle_alpha   108.81000000
_cell_angle_beta   94.99600000
_cell_angle_gamma   105.38700000
_symmetry_Int_Tables_number   1
_chemical_formula_structural   Zn3PH6C6(N3O)4
_chemical_formula_sum   'Zn6 P2 H12 C12 N24 O8'
_cell_volume   1073.74158069
_cell_formula_units_Z   2
loop_
 _symmetry_equiv_pos_site_id
 _symmetry_equiv_pos_as_xyz
  1  'x, y, z'
loop_
 _atom_site_type_symbol
 _atom_site_label
 _atom_site_symmetry_multiplicity
 _atom_site_fract_x
 _atom_site_fract_y
 _atom_site_fract_z
 _atom_site_occupancy
 _atom_site_charge
Zn  Zn1  1  0.27307000  0.64449000  0.26412000  1.0 0.7599035953
Zn  Zn2  1  0.88499000  0.56898000  0.24716000  1.0 0.794034109
Zn  Zn3  1  0.10113000  0.18360000  0.47600000  1.0 0.88565369
Zn  Zn4  1  0.72862000  0.35635000  0.73545000  1.0 0.7540299748
Zn  Zn5  1  0.11562000  0.42973000  0.75075000  1.0 0.799826846
Zn  Zn6  1  0.89913000  0.81695000  0.52372000  1.0 0.88565369
P  P1  1  0.13641000  0.87698000  0.36951000  1.0 1.5164686297
P  P2  1  0.86379000  0.12355000  0.63092000  1.0 1.5164686297
H  H1  1  0.30704000  0.40135000  0.36990000  1.0 0.1099227448
H  H2  1  0.52152000  0.47824000  0.15945000  1.0 0.1099227448
H  H3  1  0.73249000  0.34246000  0.37027000  1.0 0.3279612456
H  H4  1  0.81099000  0.23971000  0.43792000  1.0 0.3354537939
H  H5  1  0.61133000  0.88055000  0.56325000  1.0 0.3279612456
H  H6  1  0.43736000  0.83719000  0.48049000  1.0 0.3236922776
H  H7  1  0.69291000  0.59857000  0.62969000  1.0 0.1099227448
H  H8  1  0.47712000  0.52080000  0.84077000  1.0 0.1099227448
H  H9  1  0.26708000  0.65664000  0.62900000  1.0 0.3279612456
H  H10  1  0.18875000  0.76024000  0.56194000  1.0 0.3354537939
H  H11  1  0.38894000  0.11972000  0.43684000  1.0 0.3279612456
H  H12  1  0.56323000  0.16211000  0.51907000  1.0 0.3236922776
C  C1  1  0.19194000  0.40363000  0.35974000  1.0 0.1600460452
C  C2  1  0.95764000  0.36514000  0.36952000  1.0 0.5605408107
C  C3  1  0.20485000  0.49987000  0.01472000  1.0 0.424398974
C  C4  1  0.57116000  0.71964000  0.40907000  1.0 0.5423986768
C  C5  1  0.56143000  0.55930000  0.24481000  1.0 0.1600460452
C  C6  1  0.80832000  0.59695000  0.64003000  1.0 0.1600460452
C  C7  1  0.04261000  0.63535000  0.63064000  1.0 0.5605408107
C  C8  1  0.85630000  0.49604000  0.99157000  1.0 0.4760398124
C  C9  1  0.42969000  0.27986000  0.59104000  1.0 0.5423986768
C  C10  1  0.43856000  0.44034000  0.75515000  1.0 0.1600460452
C  C11  1  0.74399000  0.29684000  0.03635000  1.0 0.3279612456
C  C12  1  0.22969000  0.70379000  0.96905000  1.0 0.3897974943
N  N1  1  0.14401000  0.48412000  0.30675000  1.0 -0.2131519263
N  N2  1  0.99198000  0.46112000  0.31370000  1.0 -0.3482822175
N  N3  1  0.08118000  0.32797000  0.40040000  1.0 -0.4295631195
N  N4  1  0.82125000  0.31040000  0.39292000  1.0 -0.6459935452
N  N5  1  0.20334000  0.56691000  0.90831000  1.0 -0.4534083153
N  N6  1  0.27185000  0.75903000  0.07945000  1.0 -0.23102726
N  N7  1  0.17692000  0.36583000  0.99721000  1.0 -0.4354742016
N  N8  1  0.70904000  0.70255000  0.40736000  1.0 -0.3687855895
N  N9  1  0.70063000  0.59658000  0.30172000  1.0 -0.2171757366
N  N10  1  0.47660000  0.63265000  0.30745000  1.0 -0.4295631195
N  N11  1  0.52462000  0.79915000  0.50129000  1.0 -0.6731579448
N  N12  1  0.77297000  0.36707000  0.89206000  1.0 -0.2171757366
N  N13  1  0.72466000  0.24636000  0.91906000  1.0 -0.1734664435
N  N14  1  0.91897000  0.62625000  0.99811000  1.0 -0.458614185
N  N15  1  0.85616000  0.51644000  0.69304000  1.0 -0.2131519263
N  N16  1  0.00825000  0.53942000  0.68666000  1.0 -0.3482822175
N  N17  1  0.91921000  0.67266000  0.59962000  1.0 -0.4295631195
N  N18  1  0.17907000  0.69073000  0.60793000  1.0 -0.6431543375
N  N19  1  0.83215000  0.43430000  0.08606000  1.0 -0.4173971559
N  N20  1  0.29192000  0.29722000  0.59212000  1.0 -0.3687855895
N  N21  1  0.29997000  0.40315000  0.69729000  1.0 -0.2131519263
N  N22  1  0.52379000  0.36670000  0.69311000  1.0 -0.4295631195
N  N23  1  0.47606000  0.20051000  0.49879000  1.0 -0.6731579448
N  N24  1  0.23871000  0.63325000  0.10823000  1.0 -0.242409959
O  O1  1  0.01564000  0.76437000  0.26709000  1.0 -0.7580956763
O  O2  1  0.28844000  0.84262000  0.36602000  1.0 -0.7580956763
O  O3  1  0.16497000  0.03766000  0.36873000  1.0 -0.7580956763
O  O4  1  0.09047000  0.86688000  0.48097000  1.0 -0.8120486285
O  O5  1  0.98295000  0.23745000  0.73412000  1.0 -0.7580956763
O  O6  1  0.71102000  0.15652000  0.63378000  1.0 -0.7580956763
O  O7  1  0.83632000  0.96312000  0.63199000  1.0 -0.7580956763
O  O8  1  0.91077000  0.13404000  0.51997000  1.0 -0.8120486285
