# DDEC6 charges by PACMAN v1.1 (https://github.com/mtap-research/PACMAN-charge/)
data_LAVZUG_ASR_pacman
_symmetry_space_group_name_H-M   'P 1'
_cell_length_a   14.80080000
_cell_length_b   12.25430000
_cell_length_c   33.42300000
_cell_angle_alpha   90.00000000
_cell_angle_beta   115.29000000
_cell_angle_gamma   90.00000000
_symmetry_Int_Tables_number   1
_chemical_formula_structural   U3P4H6(C7O8)2
_chemical_formula_sum   'U12 P16 H24 C56 O64'
_cell_volume   5481.04081063
_cell_formula_units_Z   4
loop_
 _symmetry_equiv_pos_site_id
 _symmetry_equiv_pos_as_xyz
  1  'x, y, z'
loop_
 _atom_site_type_symbol
 _atom_site_label
 _atom_site_symmetry_multiplicity
 _atom_site_fract_x
 _atom_site_fract_y
 _atom_site_fract_z
 _atom_site_occupancy
 _atom_site_charge
U  U1  1  0.22019000  0.67133000  0.76524000  1.0 2.3201529242
U  U2  1  0.77981000  0.17133000  0.73476000  1.0 2.3280440228
U  U3  1  0.77981000  0.32867000  0.23476000  1.0 2.3201529242
U  U4  1  0.22019000  0.82867000  0.26524000  1.0 2.3201529242
U  U5  1  0.45684000  0.35956000  0.92365000  1.0 2.1199944871
U  U6  1  0.54316000  0.85956000  0.57635000  1.0 2.1199944871
U  U7  1  0.54316000  0.64044000  0.07635000  1.0 2.1199944871
U  U8  1  0.45684000  0.14044000  0.42365000  1.0 2.1199944871
U  U9  1  0.50550000  0.42695000  0.75709000  1.0 2.239683594
U  U10  1  0.49450000  0.92695000  0.74291000  1.0 2.239683594
U  U11  1  0.49450000  0.57305000  0.24291000  1.0 2.239683594
U  U12  1  0.50550000  0.07305000  0.25709000  1.0 2.239683594
P  P1  1  0.67750000  0.89560000  0.69750000  1.0 1.3513877647
P  P2  1  0.32250000  0.39560000  0.80250000  1.0 1.3513877647
P  P3  1  0.32250000  0.10440000  0.30250000  1.0 1.3513877647
P  P4  1  0.67750000  0.60440000  0.19750000  1.0 1.3513877647
P  P5  1  0.68476000  0.44840000  0.70836000  1.0 1.3311587828
P  P6  1  0.31524000  0.94840000  0.79164000  1.0 1.3311587828
P  P7  1  0.31524000  0.55160000  0.29164000  1.0 1.3311587828
P  P8  1  0.68476000  0.05160000  0.20836000  1.0 1.3311587828
P  P9  1  0.49881000  0.68430000  0.80401000  1.0 1.3574153143
P  P10  1  0.50119000  0.18430000  0.69599000  1.0 1.3574153143
P  P11  1  0.50119000  0.31570000  0.19599000  1.0 1.3574153143
P  P12  1  0.49881000  0.81570000  0.30401000  1.0 1.3574153143
P  P13  1  0.42764000  0.63590000  0.95244000  1.0 1.3229899066
P  P14  1  0.57236000  0.13590000  0.54756000  1.0 1.3229899066
P  P15  1  0.57236000  0.36410000  0.04756000  1.0 1.3229899066
P  P16  1  0.42764000  0.86410000  0.45244000  1.0 1.3229899066
H  H1  1  0.88540000  0.83640000  0.72510000  1.0 0.138346163
H  H2  1  0.11460000  0.33640000  0.77490000  1.0 0.138346163
H  H3  1  0.11460000  0.16360000  0.27490000  1.0 0.138346163
H  H4  1  0.88540000  0.66360000  0.22510000  1.0 0.138346163
H  H5  1  0.63250000  0.67100000  0.70010000  1.0 0.1200144733
H  H6  1  0.36750000  0.17100000  0.79990000  1.0 0.1200144733
H  H7  1  0.36750000  0.32900000  0.29990000  1.0 0.1200144733
H  H8  1  0.63250000  0.82900000  0.20010000  1.0 0.1200144733
H  H9  1  0.88840000  0.50840000  0.73070000  1.0 0.138346163
H  H10  1  0.11160000  0.00840000  0.76930000  1.0 0.138346163
H  H11  1  0.11160000  0.49160000  0.26930000  1.0 0.138346163
H  H12  1  0.88840000  0.99160000  0.23070000  1.0 0.138346163
H  H13  1  0.64180000  0.82620000  0.86980000  1.0 0.1090030767
H  H14  1  0.35820000  0.32620000  0.63020000  1.0 0.1090030767
H  H15  1  0.35820000  0.17380000  0.13020000  1.0 0.1090030767
H  H16  1  0.64180000  0.67380000  0.36980000  1.0 0.1090030767
H  H17  1  0.43130000  0.61760000  0.86780000  1.0 0.0933503764
H  H18  1  0.56870000  0.11760000  0.63220000  1.0 0.0933503764
H  H19  1  0.56870000  0.38240000  0.13220000  1.0 0.0933503764
H  H20  1  0.43130000  0.88240000  0.36780000  1.0 0.0933503764
H  H21  1  0.58890000  0.78430000  0.97830000  1.0 0.1090030767
H  H22  1  0.41110000  0.28430000  0.52170000  1.0 0.1090030767
H  H23  1  0.41110000  0.21570000  0.02170000  1.0 0.1090030767
H  H24  1  0.58890000  0.71570000  0.47830000  1.0 0.1090030767
C  C1  1  0.01270000  0.67090000  0.74290000  1.0 0.5446129697
C  C2  1  0.98730000  0.17090000  0.75710000  1.0 0.5446129697
C  C3  1  0.98730000  0.32910000  0.25710000  1.0 0.5446129697
C  C4  1  0.01270000  0.82910000  0.24290000  1.0 0.5446129697
C  C5  1  0.90260000  0.67260000  0.72980000  1.0 -0.0036919194
C  C6  1  0.09740000  0.17260000  0.77020000  1.0 -0.0036919194
C  C7  1  0.09740000  0.32740000  0.27020000  1.0 -0.0055470444
C  C8  1  0.90260000  0.82740000  0.22980000  1.0 -0.0036919194
C  C9  1  0.85150000  0.77090000  0.72220000  1.0 -0.0821341598
C  C10  1  0.14850000  0.27090000  0.77780000  1.0 -0.0821341598
C  C11  1  0.14850000  0.22910000  0.27780000  1.0 -0.0821341598
C  C12  1  0.85150000  0.72910000  0.22220000  1.0 -0.0821341598
C  C13  1  0.74980000  0.77080000  0.71040000  1.0 -0.1963699353
C  C14  1  0.25020000  0.27080000  0.78960000  1.0 -0.1963699353
C  C15  1  0.25020000  0.22920000  0.28960000  1.0 -0.1963699353
C  C16  1  0.74980000  0.72920000  0.21040000  1.0 -0.1963699353
C  C17  1  0.70050000  0.67160000  0.70720000  1.0 -0.0708165093
C  C18  1  0.29950000  0.17160000  0.79280000  1.0 -0.0708165093
C  C19  1  0.29950000  0.32840000  0.29280000  1.0 -0.0708165093
C  C20  1  0.70050000  0.82840000  0.20720000  1.0 -0.0708165093
C  C21  1  0.75320000  0.57330000  0.71460000  1.0 -0.1923510773
C  C22  1  0.24680000  0.07330000  0.78540000  1.0 -0.1923510773
C  C23  1  0.24680000  0.42670000  0.28540000  1.0 -0.1923510773
C  C24  1  0.75320000  0.92670000  0.21460000  1.0 -0.1923510773
C  C25  1  0.85330000  0.57380000  0.72580000  1.0 -0.0708165093
C  C26  1  0.14670000  0.07380000  0.77420000  1.0 -0.0708165093
C  C27  1  0.14670000  0.42620000  0.27420000  1.0 -0.0708165093
C  C28  1  0.85330000  0.92620000  0.22580000  1.0 -0.0708165093
C  C29  1  0.71110000  0.89900000  0.95110000  1.0 0.5304023283
C  C30  1  0.28890000  0.39900000  0.54890000  1.0 0.5304023283
C  C31  1  0.28890000  0.10100000  0.04890000  1.0 0.5304023283
C  C32  1  0.71110000  0.60100000  0.45110000  1.0 0.5304023283
C  C33  1  0.62580000  0.81740000  0.92750000  1.0 0.0240794601
C  C34  1  0.37420000  0.31740000  0.57250000  1.0 0.0240794601
C  C35  1  0.37420000  0.18260000  0.07250000  1.0 0.0240794601
C  C36  1  0.62580000  0.68260000  0.42750000  1.0 0.0240794601
C  C37  1  0.60610000  0.79250000  0.88350000  1.0 -0.0708165093
C  C38  1  0.39390000  0.29250000  0.61650000  1.0 -0.0708165093
C  C39  1  0.39390000  0.20750000  0.11650000  1.0 -0.0708165093
C  C40  1  0.60610000  0.70750000  0.38350000  1.0 -0.0708165093
C  C41  1  0.53100000  0.71550000  0.86050000  1.0 -0.1639344213
C  C42  1  0.46900000  0.21550000  0.63950000  1.0 -0.1639344213
C  C43  1  0.46900000  0.28450000  0.13950000  1.0 -0.1639344213
C  C44  1  0.53100000  0.78450000  0.36050000  1.0 -0.1639344213
C  C45  1  0.48080000  0.66870000  0.88280000  1.0 -0.0937588109
C  C46  1  0.51920000  0.16870000  0.61720000  1.0 -0.0958004413
C  C47  1  0.51920000  0.33130000  0.11720000  1.0 -0.0958004413
C  C48  1  0.48080000  0.83130000  0.38280000  1.0 -0.0958004413
C  C49  1  0.49990000  0.69370000  0.92660000  1.0 -0.1963699353
C  C50  1  0.50010000  0.19370000  0.57340000  1.0 -0.1923510773
C  C51  1  0.50010000  0.30630000  0.07340000  1.0 -0.1923510773
C  C52  1  0.49990000  0.80630000  0.42660000  1.0 -0.1963699353
C  C53  1  0.57350000  0.76740000  0.94890000  1.0 -0.0497861976
C  C54  1  0.42650000  0.26740000  0.55110000  1.0 -0.0497861976
C  C55  1  0.42650000  0.23260000  0.05110000  1.0 -0.0497861976
C  C56  1  0.57350000  0.73260000  0.44890000  1.0 -0.0497861976
O  O1  1  0.38620000  0.67710000  0.78150000  1.0 -0.9281368149
O  O2  1  0.61380000  0.17710000  0.71850000  1.0 -0.9281368149
O  O3  1  0.61380000  0.32290000  0.21850000  1.0 -0.9281368149
O  O4  1  0.38620000  0.82290000  0.28150000  1.0 -0.9281368149
O  O5  1  0.06030000  0.58340000  0.75050000  1.0 -0.6341107679
O  O6  1  0.93970000  0.08340000  0.74950000  1.0 -0.6341107679
O  O7  1  0.93970000  0.41660000  0.24950000  1.0 -0.6341107679
O  O8  1  0.06030000  0.91660000  0.25050000  1.0 -0.6341107679
O  O9  1  0.05790000  0.76160000  0.74590000  1.0 -0.6497915877
O  O10  1  0.94210000  0.26160000  0.75410000  1.0 -0.6497915877
O  O11  1  0.94210000  0.23840000  0.25410000  1.0 -0.6497915877
O  O12  1  0.05790000  0.73840000  0.24590000  1.0 -0.6497915877
O  O13  1  0.54810000  0.57560000  0.80220000  1.0 -0.8858104689
O  O14  1  0.45190000  0.07560000  0.69780000  1.0 -0.8834290547
O  O15  1  0.45190000  0.42440000  0.19780000  1.0 -0.8834290547
O  O16  1  0.54810000  0.92440000  0.30220000  1.0 -0.8858104689
O  O17  1  0.53970000  0.77510000  0.78630000  1.0 -0.8834290547
O  O18  1  0.46030000  0.27510000  0.71370000  1.0 -0.8834290547
O  O19  1  0.46030000  0.22490000  0.21370000  1.0 -0.8834290547
O  O20  1  0.53970000  0.72490000  0.28630000  1.0 -0.8834290547
O  O21  1  0.76770000  0.92000000  0.93370000  1.0 -0.5071600048
O  O22  1  0.23230000  0.42000000  0.56630000  1.0 -0.5071600048
O  O23  1  0.23230000  0.08000000  0.06630000  1.0 -0.5071600048
O  O24  1  0.76770000  0.58000000  0.43370000  1.0 -0.5071600048
O  O25  1  0.71650000  0.93600000  0.98850000  1.0 -0.5319892807
O  O26  1  0.28350000  0.43600000  0.51150000  1.0 -0.5319892807
O  O27  1  0.28350000  0.06400000  0.01150000  1.0 -0.5319892807
O  O28  1  0.71650000  0.56400000  0.48850000  1.0 -0.5319892807
O  O29  1  0.49000000  0.64100000  0.00130000  1.0 -0.9215854672
O  O30  1  0.51000000  0.14100000  0.49870000  1.0 -0.9215854672
O  O31  1  0.51000000  0.35900000  0.99870000  1.0 -0.9215854672
O  O32  1  0.49000000  0.85900000  0.50130000  1.0 -0.9215854672
O  O33  1  0.33380000  0.70900000  0.94040000  1.0 -0.6621058924
O  O34  1  0.66620000  0.20900000  0.55960000  1.0 -0.6621058924
O  O35  1  0.66620000  0.29100000  0.05960000  1.0 -0.6621058924
O  O36  1  0.33380000  0.79100000  0.44040000  1.0 -0.6621058924
O  O37  1  0.39440000  0.52480000  0.93380000  1.0 -0.8610830052
O  O38  1  0.60560000  0.02480000  0.56620000  1.0 -0.8610830052
O  O39  1  0.60560000  0.47520000  0.06620000  1.0 -0.8610830052
O  O40  1  0.39440000  0.97520000  0.43380000  1.0 -0.8610830052
O  O41  1  0.74340000  0.98700000  0.72390000  1.0 -0.8684894932
O  O42  1  0.25660000  0.48700000  0.77610000  1.0 -0.8684894932
O  O43  1  0.25660000  0.01300000  0.27610000  1.0 -0.8684894932
O  O44  1  0.74340000  0.51300000  0.22390000  1.0 -0.8684894932
O  O45  1  0.63870000  0.91430000  0.64790000  1.0 -0.8992403118
O  O46  1  0.36130000  0.41430000  0.85210000  1.0 -0.8992403118
O  O47  1  0.36130000  0.08570000  0.35210000  1.0 -0.8992403118
O  O48  1  0.63870000  0.58570000  0.14790000  1.0 -0.8992403118
O  O49  1  0.58900000  0.87350000  0.70850000  1.0 -0.9215854672
O  O50  1  0.41100000  0.37350000  0.79150000  1.0 -0.9215854672
O  O51  1  0.41100000  0.12650000  0.29150000  1.0 -0.9215854672
O  O52  1  0.58900000  0.62650000  0.20850000  1.0 -0.9215854672
O  O53  1  0.59760000  0.47410000  0.71940000  1.0 -0.8992403118
O  O54  1  0.40240000  0.97410000  0.78060000  1.0 -0.8992403118
O  O55  1  0.40240000  0.52590000  0.28060000  1.0 -0.8992403118
O  O56  1  0.59760000  0.02590000  0.21940000  1.0 -0.8992403118
O  O57  1  0.64210000  0.41700000  0.65900000  1.0 -0.7246604902
O  O58  1  0.35790000  0.91700000  0.84100000  1.0 -0.7252275688
O  O59  1  0.35790000  0.58300000  0.34100000  1.0 -0.7252275688
O  O60  1  0.64210000  0.08300000  0.15900000  1.0 -0.7252275688
O  O61  1  0.75650000  0.36080000  0.73510000  1.0 -0.8834290547
O  O62  1  0.24350000  0.86080000  0.76490000  1.0 -0.8834290547
O  O63  1  0.24350000  0.63920000  0.26490000  1.0 -0.8834290547
O  O64  1  0.75650000  0.13920000  0.23510000  1.0 -0.8834290547
