# DDEC6 charges by PACMAN v1.1 (https://github.com/mtap-research/PACMAN-charge/)
data_LAWFUN_FSR_pacman
_symmetry_space_group_name_H-M   'P 1'
_cell_length_a   12.71670000
_cell_length_b   12.71670000
_cell_length_c   16.76110000
_cell_angle_alpha   75.18700000
_cell_angle_beta   104.81300000
_cell_angle_gamma   84.06970000
_symmetry_Int_Tables_number   1
_chemical_formula_structural   LiZnH14C17N5O6
_chemical_formula_sum   'Li4 Zn4 H56 C68 N20 O24'
_cell_volume   2491.73955995
_cell_formula_units_Z   4
loop_
 _symmetry_equiv_pos_site_id
 _symmetry_equiv_pos_as_xyz
  1  'x, y, z'
loop_
 _atom_site_type_symbol
 _atom_site_label
 _atom_site_symmetry_multiplicity
 _atom_site_fract_x
 _atom_site_fract_y
 _atom_site_fract_z
 _atom_site_occupancy
 _atom_site_charge
Li  Li1  1  0.53460000  0.69880000  0.75300000  1.0 0.7982178162
Li  Li2  1  0.69880000  0.53460000  0.74700000  1.0 0.7982178162
Li  Li3  1  0.46540000  0.30120000  0.24700000  1.0 0.7982178162
Li  Li4  1  0.30120000  0.46540000  0.25300000  1.0 0.7982178162
Zn  Zn1  1  0.38004000  0.87660000  0.58061000  1.0 0.843161879
Zn  Zn2  1  0.87660000  0.38004000  0.91939000  1.0 0.843161879
Zn  Zn3  1  0.61996000  0.12340000  0.41939000  1.0 0.843161879
Zn  Zn4  1  0.12340000  0.61996000  0.08061000  1.0 0.843161879
H  H1  1  0.35800000  0.11120000  0.46330000  1.0 0.1185650681
H  H2  1  0.11120000  0.35800000  0.03670000  1.0 0.1185650681
H  H3  1  0.64200000  0.88880000  0.53670000  1.0 0.1185650681
H  H4  1  0.88880000  0.64200000  0.96330000  1.0 0.1185650681
H  H5  1  0.25890000  0.21930000  0.32560000  1.0 0.1416526548
H  H6  1  0.21930000  0.25890000  0.17440000  1.0 0.1416526548
H  H7  1  0.74110000  0.78070000  0.67440000  1.0 0.1416526548
H  H8  1  0.78070000  0.74110000  0.82560000  1.0 0.1416526548
H  H9  1  0.10660000  0.96260000  0.29340000  1.0 0.1280482168
H  H10  1  0.96260000  0.10660000  0.20660000  1.0 0.1280482168
H  H11  1  0.89340000  0.03740000  0.70660000  1.0 0.1280482168
H  H12  1  0.03740000  0.89340000  0.79340000  1.0 0.1280482168
H  H13  1  0.21110000  0.86090000  0.43160000  1.0 0.1017725001
H  H14  1  0.86090000  0.21110000  0.06840000  1.0 0.1017725001
H  H15  1  0.78890000  0.13910000  0.56840000  1.0 0.1017725001
H  H16  1  0.13910000  0.78890000  0.93160000  1.0 0.1017725001
H  H17  1  0.60090000  0.28890000  0.66830000  1.0 0.1185650681
H  H18  1  0.28890000  0.60090000  0.83170000  1.0 0.1185650681
H  H19  1  0.39910000  0.71110000  0.33170000  1.0 0.1185650681
H  H20  1  0.71110000  0.39910000  0.16830000  1.0 0.1185650681
H  H21  1  0.51750000  0.15290000  0.62280000  1.0 0.1185650681
H  H22  1  0.15290000  0.51750000  0.87720000  1.0 0.1185650681
H  H23  1  0.48250000  0.84710000  0.37720000  1.0 0.1185650681
H  H24  1  0.84710000  0.48250000  0.12280000  1.0 0.1185650681
H  H25  1  0.62280000  0.86160000  0.87690000  1.0 0.2921576629
H  H26  1  0.86160000  0.62280000  0.62310000  1.0 0.2921576629
H  H27  1  0.37720000  0.13840000  0.12310000  1.0 0.2921576629
H  H28  1  0.13840000  0.37720000  0.37690000  1.0 0.2921576629
H  H29  1  0.71070000  0.90190000  0.93680000  1.0 0.2740244965
H  H30  1  0.90190000  0.71070000  0.56320000  1.0 0.2740244965
H  H31  1  0.28930000  0.09810000  0.06320000  1.0 0.2740244965
H  H32  1  0.09810000  0.28930000  0.43680000  1.0 0.2740244965
H  H33  1  0.76150000  0.46010000  0.59610000  1.0 0.2796640696
H  H34  1  0.46010000  0.76150000  0.90390000  1.0 0.2796640696
H  H35  1  0.23850000  0.53990000  0.40390000  1.0 0.2740244965
H  H36  1  0.53990000  0.23850000  0.09610000  1.0 0.2740244965
H  H37  1  0.71900000  0.55880000  0.62220000  1.0 0.2796640696
H  H38  1  0.55880000  0.71900000  0.87780000  1.0 0.2796640696
H  H39  1  0.28100000  0.44120000  0.37780000  1.0 0.2796640696
H  H40  1  0.44120000  0.28100000  0.12220000  1.0 0.2796640696
H  H41  1  0.75650000  0.38670000  0.53770000  1.0 0.2796640696
H  H42  1  0.38670000  0.75650000  0.96230000  1.0 0.2796640696
H  H43  1  0.24350000  0.61330000  0.46230000  1.0 0.2796640696
H  H44  1  0.61330000  0.24350000  0.03770000  1.0 0.2796640696
H  H45  1  0.69560000  0.31620000  0.48700000  1.0 0.2796640696
H  H46  1  0.31620000  0.69560000  0.01300000  1.0 0.2796640696
H  H47  1  0.30440000  0.68380000  0.51300000  1.0 0.2796640696
H  H48  1  0.68380000  0.30440000  0.98700000  1.0 0.2796640696
H  H49  1  0.82700000  0.09460000  0.94610000  1.0 0.2957897017
H  H50  1  0.09460000  0.82700000  0.55390000  1.0 0.2957897017
H  H51  1  0.17300000  0.90540000  0.05390000  1.0 0.2957897017
H  H52  1  0.90540000  0.17300000  0.44610000  1.0 0.2957897017
H  H53  1  0.79420000  0.98080000  0.95900000  1.0 0.2740244965
H  H54  1  0.98080000  0.79420000  0.54100000  1.0 0.2740244965
H  H55  1  0.20580000  0.01920000  0.04100000  1.0 0.2740244965
H  H56  1  0.01920000  0.20580000  0.45900000  1.0 0.2740244965
C  C1  1  0.30605000  0.08091000  0.42803000  1.0 0.0771058629
C  C2  1  0.08091000  0.30605000  0.07197000  1.0 0.0771058629
C  C3  1  0.69395000  0.91909000  0.57197000  1.0 0.0771058629
C  C4  1  0.91909000  0.69395000  0.92803000  1.0 0.0771058629
C  C5  1  0.24721000  0.14595000  0.34618000  1.0 -0.1746528728
C  C6  1  0.14595000  0.24721000  0.15382000  1.0 -0.1746528728
C  C7  1  0.75279000  0.85405000  0.65382000  1.0 -0.1746528728
C  C8  1  0.85405000  0.75279000  0.84618000  1.0 -0.1746528728
C  C9  1  0.17036000  0.10316000  0.29395000  1.0 0.109449921
C  C10  1  0.10316000  0.17036000  0.20605000  1.0 0.109449921
C  C11  1  0.82964000  0.89684000  0.70605000  1.0 0.109449921
C  C12  1  0.89684000  0.82964000  0.79395000  1.0 0.109449921
C  C13  1  0.15786000  0.99504000  0.32723000  1.0 -0.1955062357
C  C14  1  0.99504000  0.15786000  0.17277000  1.0 -0.1955062357
C  C15  1  0.84214000  0.00496000  0.67277000  1.0 -0.1955062357
C  C16  1  0.00496000  0.84214000  0.82723000  1.0 -0.1955062357
C  C17  1  0.22028000  0.93494000  0.40970000  1.0 0.0599040891
C  C18  1  0.93494000  0.22028000  0.09030000  1.0 0.0599040891
C  C19  1  0.77972000  0.06506000  0.59030000  1.0 0.0599040891
C  C20  1  0.06506000  0.77972000  0.90970000  1.0 0.0599040891
C  C21  1  0.53096000  0.94178000  0.70578000  1.0 0.6067524532
C  C22  1  0.94178000  0.53096000  0.79422000  1.0 0.6067524532
C  C23  1  0.46904000  0.05822000  0.29422000  1.0 0.6067524532
C  C24  1  0.05822000  0.46904000  0.20578000  1.0 0.6067524532
C  C25  1  0.58393000  0.02977000  0.73593000  1.0 -0.1303518062
C  C26  1  0.02977000  0.58393000  0.76407000  1.0 -0.1303518062
C  C27  1  0.41607000  0.97023000  0.26407000  1.0 -0.1303518062
C  C28  1  0.97023000  0.41607000  0.23593000  1.0 -0.1303518062
C  C29  1  0.65461000  0.00545000  0.81900000  1.0 0.1580345983
C  C30  1  0.00545000  0.65461000  0.68100000  1.0 0.1580345983
C  C31  1  0.34539000  0.99455000  0.18100000  1.0 0.1580345983
C  C32  1  0.99455000  0.34539000  0.31900000  1.0 0.1580345983
C  C33  1  0.70683000  0.08723000  0.84620000  1.0 0.1416526548
C  C34  1  0.08723000  0.70683000  0.65380000  1.0 0.1416526548
C  C35  1  0.29317000  0.91277000  0.15380000  1.0 0.1416526548
C  C36  1  0.91277000  0.29317000  0.34620000  1.0 0.1416526548
C  C37  1  0.68604000  0.19416000  0.78989000  1.0 -0.1303518062
C  C38  1  0.19416000  0.68604000  0.71011000  1.0 -0.1303518062
C  C39  1  0.31396000  0.80584000  0.21011000  1.0 -0.1303518062
C  C40  1  0.80584000  0.31396000  0.28989000  1.0 -0.1303518062
C  C41  1  0.61511000  0.21649000  0.70699000  1.0 -0.1303518062
C  C42  1  0.21649000  0.61511000  0.79301000  1.0 -0.1303518062
C  C43  1  0.38489000  0.78351000  0.29301000  1.0 -0.1303518062
C  C44  1  0.78351000  0.38489000  0.20699000  1.0 -0.1303518062
C  C45  1  0.56515000  0.13603000  0.67995000  1.0 -0.1238056684
C  C46  1  0.13603000  0.56515000  0.82005000  1.0 -0.1238056684
C  C47  1  0.43485000  0.86397000  0.32005000  1.0 -0.1238056684
C  C48  1  0.86397000  0.43485000  0.17995000  1.0 -0.1238056684
C  C49  1  0.73595000  0.28527000  0.81606000  1.0 0.6067524532
C  C50  1  0.28527000  0.73595000  0.68394000  1.0 0.6067524532
C  C51  1  0.26405000  0.71473000  0.18394000  1.0 0.6067524532
C  C52  1  0.71473000  0.26405000  0.31606000  1.0 0.6067524532
C  C53  1  0.51658000  0.66988000  0.58625000  1.0 0.630999578
C  C54  1  0.66988000  0.51658000  0.91375000  1.0 0.630999578
C  C55  1  0.48342000  0.33012000  0.41375000  1.0 0.630999578
C  C56  1  0.33012000  0.48342000  0.08625000  1.0 0.630999578
C  C57  1  0.50948000  0.58240000  0.54132000  1.0 -0.2328260263
C  C58  1  0.58240000  0.50948000  0.95868000  1.0 -0.2328260263
C  C59  1  0.49052000  0.41760000  0.45868000  1.0 -0.2328260263
C  C60  1  0.41760000  0.49052000  0.04132000  1.0 -0.2328260263
C  C61  1  0.60347000  0.50853000  0.54958000  1.0 0.1580345983
C  C62  1  0.50853000  0.60347000  0.95042000  1.0 0.1580345983
C  C63  1  0.39653000  0.49147000  0.45042000  1.0 0.1580345983
C  C64  1  0.49147000  0.39653000  0.04958000  1.0 0.1580345983
C  C65  1  0.59444000  0.42654000  0.50877000  1.0 0.1280482168
C  C66  1  0.42654000  0.59444000  0.99123000  1.0 0.1280482168
C  C67  1  0.40556000  0.57346000  0.49123000  1.0 0.1280482168
C  C68  1  0.57346000  0.40556000  0.00877000  1.0 0.1280482168
N  N1  1  0.29343000  0.97673000  0.46021000  1.0 -0.2415572909
N  N2  1  0.97673000  0.29343000  0.03979000  1.0 -0.2415572909
N  N3  1  0.70657000  0.02327000  0.53979000  1.0 -0.2415572909
N  N4  1  0.02327000  0.70657000  0.96021000  1.0 -0.2415572909
N  N5  1  0.66380000  0.91160000  0.88560000  1.0 -0.5660286864
N  N6  1  0.91160000  0.66380000  0.61440000  1.0 -0.5660286864
N  N7  1  0.33620000  0.08840000  0.11440000  1.0 -0.5660286864
N  N8  1  0.08840000  0.33620000  0.38560000  1.0 -0.5660286864
N  N9  1  0.70630000  0.50930000  0.59440000  1.0 -0.5321496
N  N10  1  0.50930000  0.70630000  0.90560000  1.0 -0.5321496
N  N11  1  0.29370000  0.49070000  0.40560000  1.0 -0.5321496
N  N12  1  0.49070000  0.29370000  0.09440000  1.0 -0.5321496
N  N13  1  0.69420000  0.36960000  0.51150000  1.0 -0.5567586889
N  N14  1  0.36960000  0.69420000  0.98850000  1.0 -0.5567586889
N  N15  1  0.30580000  0.63040000  0.48850000  1.0 -0.5567586889
N  N16  1  0.63040000  0.30580000  0.01150000  1.0 -0.5567586889
N  N17  1  0.78580000  0.04960000  0.92710000  1.0 -0.5870566239
N  N18  1  0.04960000  0.78580000  0.57290000  1.0 -0.5870566239
N  N19  1  0.21420000  0.95040000  0.07290000  1.0 -0.5870566239
N  N20  1  0.95040000  0.21420000  0.42710000  1.0 -0.5870566239
O  O1  1  0.46003000  0.97437000  0.63086000  1.0 -0.5787593891
O  O2  1  0.97437000  0.46003000  0.86914000  1.0 -0.5787593891
O  O3  1  0.53997000  0.02563000  0.36914000  1.0 -0.5787593891
O  O4  1  0.02563000  0.53997000  0.13086000  1.0 -0.5787593891
O  O5  1  0.55688000  0.84384000  0.75218000  1.0 -0.6415929367
O  O6  1  0.84384000  0.55688000  0.74782000  1.0 -0.6415929367
O  O7  1  0.44312000  0.15616000  0.24782000  1.0 -0.6415929367
O  O8  1  0.15616000  0.44312000  0.25218000  1.0 -0.6415929367
O  O9  1  0.69433000  0.38287000  0.77384000  1.0 -0.6415929367
O  O10  1  0.38287000  0.69433000  0.72616000  1.0 -0.6415929367
O  O11  1  0.30567000  0.61713000  0.22616000  1.0 -0.6415929367
O  O12  1  0.61713000  0.30567000  0.27384000  1.0 -0.6415929367
O  O13  1  0.82103000  0.25795000  0.88251000  1.0 -0.5787593891
O  O14  1  0.25795000  0.82103000  0.61749000  1.0 -0.5787593891
O  O15  1  0.17897000  0.74205000  0.11749000  1.0 -0.5787593891
O  O16  1  0.74205000  0.17897000  0.38251000  1.0 -0.5787593891
O  O17  1  0.45061000  0.76045000  0.54601000  1.0 -0.5660286864
O  O18  1  0.76045000  0.45061000  0.95399000  1.0 -0.5660286864
O  O19  1  0.54939000  0.23955000  0.45399000  1.0 -0.5660286864
O  O20  1  0.23955000  0.54939000  0.04601000  1.0 -0.5660286864
O  O21  1  0.58483000  0.65065000  0.65946000  1.0 -0.6889850964
O  O22  1  0.65065000  0.58483000  0.84054000  1.0 -0.6889850964
O  O23  1  0.41517000  0.34935000  0.34054000  1.0 -0.6889850964
O  O24  1  0.34935000  0.41517000  0.15946000  1.0 -0.6889850964
