# DDEC6 charges by PACMAN v1.1 (https://github.com/mtap-research/PACMAN-charge/)
data_LAXVOZ_ASR_pacman
_symmetry_space_group_name_H-M   'P 1'
_cell_length_a   12.78240000
_cell_length_b   12.78240000
_cell_length_c   15.04440000
_cell_angle_alpha   55.20120000
_cell_angle_beta   124.79900000
_cell_angle_gamma   133.88000000
_symmetry_Int_Tables_number   1
_chemical_formula_structural   Co2H10C12NO7
_chemical_formula_sum   'Co8 H40 C48 N4 O28'
_cell_volume   1389.77994404
_cell_formula_units_Z   4
loop_
 _symmetry_equiv_pos_site_id
 _symmetry_equiv_pos_as_xyz
  1  'x, y, z'
loop_
 _atom_site_type_symbol
 _atom_site_label
 _atom_site_symmetry_multiplicity
 _atom_site_fract_x
 _atom_site_fract_y
 _atom_site_fract_z
 _atom_site_occupancy
 _atom_site_charge
Co  Co1  1  0.97786000  0.46828000  0.89621000  1.0 0.8846828611
Co  Co2  1  0.24977000  0.82049000  0.76334000  1.0 0.8846828611
Co  Co3  1  0.46828000  0.97786000  0.60379000  1.0 0.8846828611
Co  Co4  1  0.82049000  0.24977000  0.73666000  1.0 0.8846828611
Co  Co5  1  0.02214000  0.53172000  0.10379000  1.0 0.8846828611
Co  Co6  1  0.75023000  0.17951000  0.23666000  1.0 0.8846828611
Co  Co7  1  0.53172000  0.02214000  0.39621000  1.0 0.8846828611
Co  Co8  1  0.17951000  0.75023000  0.26334000  1.0 0.8846828611
H  H1  1  0.08836000  0.62760000  0.54181000  1.0 0.1101074312
H  H2  1  0.13993000  0.51659000  0.60052000  1.0 0.0834598029
H  H3  1  0.33365000  0.63783000  0.73991000  1.0 0.0900214324
H  H4  1  0.01401000  0.02171000  0.62418000  1.0 0.1372430744
H  H5  1  0.86142000  0.11422000  0.51808000  1.0 0.0986433672
H  H6  1  0.49861000  0.70775000  0.53419000  1.0 0.1101074312
H  H7  1  0.64098000  0.60240000  0.64829000  1.0 0.1291280808
H  H8  1  0.36044000  0.64394000  0.67851000  1.0 0.0900214324
H  H9  1  0.19622000  0.51240000  0.63245000  1.0 0.0834598029
H  H10  1  0.11128000  0.66750000  0.57944000  1.0 0.0900214324
H  H11  1  0.62760000  0.08836000  0.95819000  1.0 0.1101074312
H  H12  1  0.51659000  0.13993000  0.89948000  1.0 0.0834598029
H  H13  1  0.63783000  0.33365000  0.76009000  1.0 0.0900214324
H  H14  1  0.02171000  0.01401000  0.87582000  1.0 0.1372430744
H  H15  1  0.11422000  0.86142000  0.98192000  1.0 0.0986433672
H  H16  1  0.70775000  0.49861000  0.96581000  1.0 0.1101074312
H  H17  1  0.60240000  0.64098000  0.85171000  1.0 0.1291280808
H  H18  1  0.64394000  0.36044000  0.82149000  1.0 0.0900214324
H  H19  1  0.51240000  0.19622000  0.86755000  1.0 0.0834598029
H  H20  1  0.66750000  0.11128000  0.92056000  1.0 0.0900214324
H  H21  1  0.91164000  0.37240000  0.45819000  1.0 0.1101074312
H  H22  1  0.86007000  0.48341000  0.39948000  1.0 0.0834598029
H  H23  1  0.66635000  0.36217000  0.26009000  1.0 0.0900214324
H  H24  1  0.98599000  0.97829000  0.37582000  1.0 0.1372430744
H  H25  1  0.13858000  0.88578000  0.48192000  1.0 0.0986433672
H  H26  1  0.50139000  0.29225000  0.46581000  1.0 0.1101074312
H  H27  1  0.35902000  0.39760000  0.35171000  1.0 0.1291280808
H  H28  1  0.63956000  0.35606000  0.32149000  1.0 0.0900214324
H  H29  1  0.80378000  0.48760000  0.36755000  1.0 0.0834598029
H  H30  1  0.88872000  0.33250000  0.42056000  1.0 0.0900214324
H  H31  1  0.37240000  0.91164000  0.04181000  1.0 0.1101074312
H  H32  1  0.48341000  0.86007000  0.10052000  1.0 0.0834598029
H  H33  1  0.36217000  0.66635000  0.23991000  1.0 0.0900214324
H  H34  1  0.97829000  0.98599000  0.12418000  1.0 0.1372430744
H  H35  1  0.88578000  0.13858000  0.01808000  1.0 0.0986433672
H  H36  1  0.29225000  0.50139000  0.03419000  1.0 0.1101074312
H  H37  1  0.39760000  0.35902000  0.14829000  1.0 0.1291280808
H  H38  1  0.35606000  0.63956000  0.17851000  1.0 0.0900214324
H  H39  1  0.48760000  0.80378000  0.13245000  1.0 0.0834598029
H  H40  1  0.33250000  0.88872000  0.07944000  1.0 0.0900214324
C  C1  1  0.26888000  0.71852000  0.50189000  1.0 0.4710602732
C  C2  1  0.17674000  0.62106000  0.58270000  1.0 -0.1617390988
C  C3  1  0.24888000  0.65212000  0.69370000  1.0 0.0900214324
C  C4  1  0.12483000  0.53305000  0.75246000  1.0 0.4281133385
C  C5  1  0.94401000  0.73739000  0.72097000  1.0 0.5722552063
C  C6  1  0.84457000  0.80049000  0.64877000  1.0 0.0192245534
C  C7  1  0.90903000  0.95497000  0.60810000  1.0 -0.138313028
C  C8  1  0.81598000  0.00962000  0.54310000  1.0 0.0521897604
C  C9  1  0.60392000  0.77208000  0.55340000  1.0 0.0582293961
C  C10  1  0.68877000  0.70743000  0.62140000  1.0 -0.1617390988
C  C11  1  0.26010000  0.61970000  0.62560000  1.0 -0.1617390988
C  C12  1  0.19300000  0.65900000  0.64730000  1.0 0.0521897604
C  C13  1  0.71852000  0.26888000  0.99811000  1.0 0.4710602732
C  C14  1  0.62106000  0.17674000  0.91730000  1.0 -0.1617390988
C  C15  1  0.65212000  0.24888000  0.80630000  1.0 0.0900214324
C  C16  1  0.53305000  0.12483000  0.74754000  1.0 0.4281133385
C  C17  1  0.73739000  0.94401000  0.77903000  1.0 0.5722552063
C  C18  1  0.80049000  0.84457000  0.85123000  1.0 0.0192245534
C  C19  1  0.95497000  0.90903000  0.89190000  1.0 -0.138313028
C  C20  1  0.00962000  0.81598000  0.95690000  1.0 0.0521897604
C  C21  1  0.77208000  0.60392000  0.94660000  1.0 0.0582293961
C  C22  1  0.70743000  0.68877000  0.87860000  1.0 -0.1617390988
C  C23  1  0.61970000  0.26010000  0.87440000  1.0 -0.1617390988
C  C24  1  0.65900000  0.19300000  0.85270000  1.0 0.0521897604
C  C25  1  0.73112000  0.28148000  0.49811000  1.0 0.4710602732
C  C26  1  0.82326000  0.37894000  0.41730000  1.0 -0.1617390988
C  C27  1  0.75112000  0.34788000  0.30630000  1.0 0.0900214324
C  C28  1  0.87517000  0.46695000  0.24754000  1.0 0.4281133385
C  C29  1  0.05599000  0.26261000  0.27903000  1.0 0.5722552063
C  C30  1  0.15543000  0.19951000  0.35123000  1.0 0.0192245534
C  C31  1  0.09097000  0.04503000  0.39190000  1.0 -0.138313028
C  C32  1  0.18402000  0.99038000  0.45690000  1.0 0.0521897604
C  C33  1  0.39608000  0.22792000  0.44660000  1.0 0.0582293961
C  C34  1  0.31123000  0.29257000  0.37860000  1.0 -0.1617390988
C  C35  1  0.73990000  0.38030000  0.37440000  1.0 -0.1617390988
C  C36  1  0.80700000  0.34100000  0.35270000  1.0 0.0521897604
C  C37  1  0.28148000  0.73112000  0.00189000  1.0 0.4710602732
C  C38  1  0.37894000  0.82326000  0.08270000  1.0 -0.1617390988
C  C39  1  0.34788000  0.75112000  0.19370000  1.0 0.0900214324
C  C40  1  0.46695000  0.87517000  0.25246000  1.0 0.4281133385
C  C41  1  0.26261000  0.05599000  0.22097000  1.0 0.5722552063
C  C42  1  0.19951000  0.15543000  0.14877000  1.0 0.0192245534
C  C43  1  0.04503000  0.09097000  0.10810000  1.0 -0.138313028
C  C44  1  0.99038000  0.18402000  0.04310000  1.0 0.0521897604
C  C45  1  0.22792000  0.39608000  0.05340000  1.0 0.0582293961
C  C46  1  0.29257000  0.31123000  0.12140000  1.0 -0.1617390988
C  C47  1  0.38030000  0.73990000  0.12560000  1.0 -0.1617390988
C  C48  1  0.34100000  0.80700000  0.14730000  1.0 0.0521897604
N  N1  1  0.66465000  0.92105000  0.51403000  1.0 -0.2434285758
N  N2  1  0.92105000  0.66465000  0.98597000  1.0 -0.2434285758
N  N3  1  0.33535000  0.07895000  0.48597000  1.0 -0.2434285758
N  N4  1  0.07895000  0.33535000  0.01403000  1.0 -0.2434285758
O  O1  1  0.37781000  0.85691000  0.49724000  1.0 -0.5408284618
O  O2  1  0.21488000  0.65708000  0.43244000  1.0 -0.5155531941
O  O3  1  0.30184000  0.79996000  0.67746000  1.0 -0.4561394332
O  O4  1  0.10954000  0.58268000  0.79377000  1.0 -0.5408284618
O  O5  1  0.05208000  0.39678000  0.76155000  1.0 -0.4863646357
O  O6  1  0.88728000  0.60280000  0.78041000  1.0 -0.5526201157
O  O7  1  0.07752000  0.83150000  0.71478000  1.0 -0.5757637648
O  O8  1  0.85691000  0.37781000  0.00276000  1.0 -0.5408284618
O  O9  1  0.65708000  0.21488000  0.06756000  1.0 -0.5155531941
O  O10  1  0.79996000  0.30184000  0.82254000  1.0 -0.4561394332
O  O11  1  0.58268000  0.10954000  0.70623000  1.0 -0.5408284618
O  O12  1  0.39678000  0.05208000  0.73845000  1.0 -0.4863646357
O  O13  1  0.60280000  0.88728000  0.71959000  1.0 -0.5526201157
O  O14  1  0.83150000  0.07752000  0.78522000  1.0 -0.5757637648
O  O15  1  0.62219000  0.14309000  0.50276000  1.0 -0.5408284618
O  O16  1  0.78512000  0.34292000  0.56756000  1.0 -0.5155531941
O  O17  1  0.69816000  0.20004000  0.32254000  1.0 -0.4561394332
O  O18  1  0.89046000  0.41732000  0.20623000  1.0 -0.5408284618
O  O19  1  0.94792000  0.60322000  0.23845000  1.0 -0.4863646357
O  O20  1  0.11272000  0.39720000  0.21959000  1.0 -0.5526201157
O  O21  1  0.92248000  0.16850000  0.28522000  1.0 -0.5749868182
O  O22  1  0.14309000  0.62219000  0.99724000  1.0 -0.5408284618
O  O23  1  0.34292000  0.78512000  0.93244000  1.0 -0.5155531941
O  O24  1  0.20004000  0.69816000  0.17746000  1.0 -0.4561394332
O  O25  1  0.41732000  0.89046000  0.29377000  1.0 -0.5408284618
O  O26  1  0.60322000  0.94792000  0.26155000  1.0 -0.4863646357
O  O27  1  0.39720000  0.11272000  0.28041000  1.0 -0.5526201157
O  O28  1  0.16850000  0.92248000  0.21478000  1.0 -0.5757637648
