# DDEC6 charges by PACMAN v1.1 (https://github.com/mtap-research/PACMAN-charge/)
data_LAXWUG_FSR_pacman
_symmetry_space_group_name_H-M   'P 1'
_cell_length_a   12.78130000
_cell_length_b   12.78130000
_cell_length_c   15.07360000
_cell_angle_alpha   55.15980000
_cell_angle_beta   124.84000000
_cell_angle_gamma   133.67400000
_symmetry_Int_Tables_number   1
_chemical_formula_structural   Co2H10C12NO7
_chemical_formula_sum   'Co8 H40 C48 N4 O28'
_cell_volume   1395.46534896
_cell_formula_units_Z   4
loop_
 _symmetry_equiv_pos_site_id
 _symmetry_equiv_pos_as_xyz
  1  'x, y, z'
loop_
 _atom_site_type_symbol
 _atom_site_label
 _atom_site_symmetry_multiplicity
 _atom_site_fract_x
 _atom_site_fract_y
 _atom_site_fract_z
 _atom_site_occupancy
 _atom_site_charge
Co  Co1  1  0.97778000  0.46784000  0.89610000  1.0 0.8794847604
Co  Co2  1  0.25254000  0.82006000  0.76596000  1.0 0.8679801103
Co  Co3  1  0.46784000  0.97778000  0.60390000  1.0 0.8794847604
Co  Co4  1  0.82006000  0.25254000  0.73404000  1.0 0.8679801103
Co  Co5  1  0.02222000  0.53216000  0.10390000  1.0 0.8794847604
Co  Co6  1  0.74746000  0.17994000  0.23404000  1.0 0.8679801103
Co  Co7  1  0.53216000  0.02222000  0.39610000  1.0 0.8794847604
Co  Co8  1  0.17994000  0.74746000  0.26596000  1.0 0.8679801103
H  H1  1  0.09097000  0.63767000  0.53947000  1.0 0.1085392635
H  H2  1  0.13330000  0.51930000  0.59663000  1.0 0.0905709926
H  H3  1  0.33292000  0.63670000  0.73953000  1.0 0.0905709926
H  H4  1  0.01510000  0.02184000  0.62034000  1.0 0.1370774236
H  H5  1  0.86407000  0.11705000  0.51158000  1.0 0.0955503777
H  H6  1  0.50339000  0.71031000  0.53851000  1.0 0.1160838109
H  H7  1  0.64705000  0.60707000  0.65659000  1.0 0.1295329508
H  H8  1  0.36283000  0.64587000  0.68138000  1.0 0.0905709926
H  H9  1  0.19926000  0.51414000  0.63643000  1.0 0.0905709926
H  H10  1  0.11513000  0.67137000  0.58152000  1.0 0.0836558899
H  H11  1  0.63767000  0.09097000  0.96053000  1.0 0.1085392635
H  H12  1  0.51930000  0.13330000  0.90337000  1.0 0.0905709926
H  H13  1  0.63670000  0.33292000  0.76047000  1.0 0.0905709926
H  H14  1  0.02184000  0.01510000  0.87966000  1.0 0.1370774236
H  H15  1  0.11705000  0.86407000  0.98842000  1.0 0.0955503777
H  H16  1  0.71031000  0.50339000  0.96149000  1.0 0.1160838109
H  H17  1  0.60707000  0.64705000  0.84341000  1.0 0.1295329508
H  H18  1  0.64587000  0.36283000  0.81862000  1.0 0.0905709926
H  H19  1  0.51414000  0.19926000  0.86357000  1.0 0.0905709926
H  H20  1  0.67137000  0.11513000  0.91848000  1.0 0.0836558899
H  H21  1  0.90903000  0.36233000  0.46053000  1.0 0.1085392635
H  H22  1  0.86670000  0.48070000  0.40337000  1.0 0.0905709926
H  H23  1  0.66708000  0.36330000  0.26047000  1.0 0.0905709926
H  H24  1  0.98490000  0.97816000  0.37966000  1.0 0.1370774236
H  H25  1  0.13593000  0.88295000  0.48842000  1.0 0.0955503777
H  H26  1  0.49661000  0.28969000  0.46149000  1.0 0.1160838109
H  H27  1  0.35295000  0.39293000  0.34341000  1.0 0.1295329508
H  H28  1  0.63717000  0.35413000  0.31862000  1.0 0.0905709926
H  H29  1  0.80074000  0.48586000  0.36357000  1.0 0.0905709926
H  H30  1  0.88487000  0.32863000  0.41848000  1.0 0.0836558899
H  H31  1  0.36233000  0.90903000  0.03947000  1.0 0.1085392635
H  H32  1  0.48070000  0.86670000  0.09663000  1.0 0.0905709926
H  H33  1  0.36330000  0.66708000  0.23953000  1.0 0.0905709926
H  H34  1  0.97816000  0.98490000  0.12034000  1.0 0.1370774236
H  H35  1  0.88295000  0.13593000  0.01158000  1.0 0.0955503777
H  H36  1  0.28969000  0.49661000  0.03851000  1.0 0.1160838109
H  H37  1  0.39293000  0.35295000  0.15659000  1.0 0.1295329508
H  H38  1  0.35413000  0.63717000  0.18138000  1.0 0.0905709926
H  H39  1  0.48586000  0.80074000  0.13643000  1.0 0.0905709926
H  H40  1  0.32863000  0.88487000  0.08152000  1.0 0.0836558899
C  C1  1  0.27040000  0.71980000  0.50280000  1.0 0.4743910011
C  C2  1  0.17550000  0.62470000  0.58100000  1.0 -0.1612314481
C  C3  1  0.24930000  0.65290000  0.69400000  1.0 0.0836558899
C  C4  1  0.12400000  0.53380000  0.75220000  1.0 0.4258622553
C  C5  1  0.94750000  0.73990000  0.72320000  1.0 0.5745471593
C  C6  1  0.84820000  0.80280000  0.65050000  1.0 0.0200740367
C  C7  1  0.91060000  0.95580000  0.60600000  1.0 -0.1398223612
C  C8  1  0.81870000  0.01250000  0.53960000  1.0 0.0520677841
C  C9  1  0.60830000  0.77490000  0.55670000  1.0 0.0520677841
C  C10  1  0.69410000  0.71170000  0.62620000  1.0 -0.1612314481
C  C11  1  0.26250000  0.62150000  0.62900000  1.0 -0.1612314481
C  C12  1  0.19530000  0.66070000  0.65000000  1.0 0.0520677841
C  C13  1  0.71980000  0.27040000  0.99720000  1.0 0.4743910011
C  C14  1  0.62470000  0.17550000  0.91900000  1.0 -0.1612314481
C  C15  1  0.65290000  0.24930000  0.80600000  1.0 0.0836558899
C  C16  1  0.53380000  0.12400000  0.74780000  1.0 0.4258622553
C  C17  1  0.73990000  0.94750000  0.77680000  1.0 0.5745471593
C  C18  1  0.80280000  0.84820000  0.84950000  1.0 0.0200740367
C  C19  1  0.95580000  0.91060000  0.89400000  1.0 -0.1398223612
C  C20  1  0.01250000  0.81870000  0.96040000  1.0 0.0520677841
C  C21  1  0.77490000  0.60830000  0.94330000  1.0 0.0520677841
C  C22  1  0.71170000  0.69410000  0.87380000  1.0 -0.1612314481
C  C23  1  0.62150000  0.26250000  0.87100000  1.0 -0.1612314481
C  C24  1  0.66070000  0.19530000  0.85000000  1.0 0.0520677841
C  C25  1  0.72960000  0.28020000  0.49720000  1.0 0.4743910011
C  C26  1  0.82450000  0.37530000  0.41900000  1.0 -0.1612314481
C  C27  1  0.75070000  0.34710000  0.30600000  1.0 0.0836558899
C  C28  1  0.87600000  0.46620000  0.24780000  1.0 0.4258622553
C  C29  1  0.05250000  0.26010000  0.27680000  1.0 0.5745471593
C  C30  1  0.15180000  0.19720000  0.34950000  1.0 0.0200740367
C  C31  1  0.08940000  0.04420000  0.39400000  1.0 -0.1398223612
C  C32  1  0.18130000  0.98750000  0.46040000  1.0 0.0520677841
C  C33  1  0.39170000  0.22510000  0.44330000  1.0 0.0520677841
C  C34  1  0.30590000  0.28830000  0.37380000  1.0 -0.1612314481
C  C35  1  0.73750000  0.37850000  0.37100000  1.0 -0.1612314481
C  C36  1  0.80470000  0.33930000  0.35000000  1.0 0.0520677841
C  C37  1  0.28020000  0.72960000  0.00280000  1.0 0.4743910011
C  C38  1  0.37530000  0.82450000  0.08100000  1.0 -0.1612314481
C  C39  1  0.34710000  0.75070000  0.19400000  1.0 0.0836558899
C  C40  1  0.46620000  0.87600000  0.25220000  1.0 0.4258622553
C  C41  1  0.26010000  0.05250000  0.22320000  1.0 0.5745471593
C  C42  1  0.19720000  0.15180000  0.15050000  1.0 0.0200740367
C  C43  1  0.04420000  0.08940000  0.10600000  1.0 -0.1398223612
C  C44  1  0.98750000  0.18130000  0.03960000  1.0 0.0520677841
C  C45  1  0.22510000  0.39170000  0.05670000  1.0 0.0520677841
C  C46  1  0.28830000  0.30590000  0.12620000  1.0 -0.1612314481
C  C47  1  0.37850000  0.73750000  0.12900000  1.0 -0.1612314481
C  C48  1  0.33930000  0.80470000  0.15000000  1.0 0.0520677841
N  N1  1  0.66780000  0.92420000  0.51400000  1.0 -0.2483167697
N  N2  1  0.92420000  0.66780000  0.98600000  1.0 -0.2483167697
N  N3  1  0.33220000  0.07580000  0.48600000  1.0 -0.2483167697
N  N4  1  0.07580000  0.33220000  0.01400000  1.0 -0.2483167697
O  O1  1  0.37901000  0.85679000  0.49850000  1.0 -0.5400593404
O  O2  1  0.21890000  0.65690000  0.43570000  1.0 -0.5125135455
O  O3  1  0.30337000  0.79983000  0.67940000  1.0 -0.454797608
O  O4  1  0.11136000  0.58304000  0.79530000  1.0 -0.5330677156
O  O5  1  0.05030000  0.39970000  0.75830000  1.0 -0.4796190236
O  O6  1  0.88927000  0.60393000  0.78160000  1.0 -0.5558853272
O  O7  1  0.08000000  0.83140000  0.71810000  1.0 -0.5670161072
O  O8  1  0.85679000  0.37901000  0.00150000  1.0 -0.5400593404
O  O9  1  0.65690000  0.21890000  0.06430000  1.0 -0.5125135455
O  O10  1  0.79983000  0.30337000  0.82060000  1.0 -0.455318046
O  O11  1  0.58304000  0.11136000  0.70470000  1.0 -0.5330677156
O  O12  1  0.39970000  0.05030000  0.74170000  1.0 -0.4796190236
O  O13  1  0.60393000  0.88927000  0.71840000  1.0 -0.5558853272
O  O14  1  0.83140000  0.08000000  0.78190000  1.0 -0.5670161072
O  O15  1  0.62099000  0.14321000  0.50150000  1.0 -0.5400593404
O  O16  1  0.78110000  0.34310000  0.56430000  1.0 -0.5125135455
O  O17  1  0.69663000  0.20017000  0.32060000  1.0 -0.454797608
O  O18  1  0.88864000  0.41696000  0.20470000  1.0 -0.5330677156
O  O19  1  0.94970000  0.60030000  0.24170000  1.0 -0.4796190236
O  O20  1  0.11073000  0.39607000  0.21840000  1.0 -0.5558853272
O  O21  1  0.92000000  0.16860000  0.28190000  1.0 -0.5670161072
O  O22  1  0.14321000  0.62099000  0.99850000  1.0 -0.5400593404
O  O23  1  0.34310000  0.78110000  0.93570000  1.0 -0.5125135455
O  O24  1  0.20017000  0.69663000  0.17940000  1.0 -0.454797608
O  O25  1  0.41696000  0.88864000  0.29530000  1.0 -0.5330677156
O  O26  1  0.60030000  0.94970000  0.25830000  1.0 -0.4796190236
O  O27  1  0.39607000  0.11073000  0.28160000  1.0 -0.5558853272
O  O28  1  0.16860000  0.92000000  0.21810000  1.0 -0.5670161072
