# DDEC6 charges by PACMAN v1.1 (https://github.com/mtap-research/PACMAN-charge/)
data_LAZKUU_ASR_pacman
_symmetry_space_group_name_H-M   'P 1'
_cell_length_a   18.89010000
_cell_length_b   12.79800000
_cell_length_c   20.61300000
_cell_angle_alpha   90.00000000
_cell_angle_beta   104.45000000
_cell_angle_gamma   90.00000000
_symmetry_Int_Tables_number   1
_chemical_formula_structural   CdH24C36(N3Cl)2
_chemical_formula_sum   'Cd4 H96 C144 N24 Cl8'
_cell_volume   4825.66306291
_cell_formula_units_Z   4
loop_
 _symmetry_equiv_pos_site_id
 _symmetry_equiv_pos_as_xyz
  1  'x, y, z'
loop_
 _atom_site_type_symbol
 _atom_site_label
 _atom_site_symmetry_multiplicity
 _atom_site_fract_x
 _atom_site_fract_y
 _atom_site_fract_z
 _atom_site_occupancy
 _atom_site_charge
Cd  Cd1  1  0.42213000  0.00343000  0.29904000  1.0 0.6842909953
Cd  Cd2  1  0.92213000  0.49657000  0.29904000  1.0 0.6842909953
Cd  Cd3  1  0.07787000  0.50343000  0.70096000  1.0 0.6842909953
Cd  Cd4  1  0.57787000  0.99657000  0.70096000  1.0 0.6842909953
H  H1  1  0.25480000  0.56330000  0.65480000  1.0 0.1160358465
H  H2  1  0.75480000  0.93670000  0.65480000  1.0 0.1160358465
H  H3  1  0.19950000  0.65110000  0.55880000  1.0 0.1385017455
H  H4  1  0.69950000  0.84890000  0.55880000  1.0 0.1385017455
H  H5  1  0.37540000  0.60320000  0.48790000  1.0 0.1385017455
H  H6  1  0.87540000  0.89680000  0.48790000  1.0 0.1385017455
H  H7  1  0.43290000  0.52260000  0.58530000  1.0 0.1302321455
H  H8  1  0.93290000  0.97740000  0.58530000  1.0 0.1302321455
H  H9  1  0.42540000  0.40020000  0.97040000  1.0 0.1160358465
H  H10  1  0.92540000  0.09980000  0.97040000  1.0 0.1160358465
H  H11  1  0.47820000  0.36410000  0.08180000  1.0 0.1385017455
H  H12  1  0.97820000  0.13590000  0.08180000  1.0 0.1385017455
H  H13  1  0.65860000  0.27840000  0.03170000  1.0 0.1385017455
H  H14  1  0.15860000  0.22160000  0.03170000  1.0 0.1385017455
H  H15  1  0.60730000  0.32670000  0.92210000  1.0 0.1385017455
H  H16  1  0.10730000  0.17330000  0.92210000  1.0 0.1385017455
H  H17  1  0.29230000  0.83550000  0.27600000  1.0 0.1085431246
H  H18  1  0.79230000  0.66450000  0.27600000  1.0 0.1085431246
H  H19  1  0.22650000  0.72420000  0.32490000  1.0 0.1385017455
H  H20  1  0.72650000  0.77580000  0.32490000  1.0 0.1385017455
H  H21  1  0.34950000  0.81600000  0.50040000  1.0 0.1385017455
H  H22  1  0.84950000  0.68400000  0.50040000  1.0 0.1385017455
H  H23  1  0.41020000  0.92380000  0.44730000  1.0 0.1085431246
H  H24  1  0.91020000  0.57620000  0.44730000  1.0 0.1085431246
H  H25  1  0.01810000  0.71510000  0.33100000  1.0 0.1085431246
H  H26  1  0.51810000  0.78490000  0.33100000  1.0 0.1085431246
H  H27  1  0.12900000  0.78320000  0.38160000  1.0 0.1385017455
H  H28  1  0.62900000  0.71680000  0.38160000  1.0 0.1385017455
H  H29  1  0.19040000  0.49670000  0.44780000  1.0 0.1385017455
H  H30  1  0.69040000  0.00330000  0.44780000  1.0 0.1385017455
H  H31  1  0.07530000  0.44160000  0.40140000  1.0 0.1003576521
H  H32  1  0.57530000  0.05840000  0.40140000  1.0 0.1003576521
H  H33  1  0.77780000  0.53710000  0.17240000  1.0 0.1003576521
H  H34  1  0.27780000  0.96290000  0.17240000  1.0 0.1003576521
H  H35  1  0.66930000  0.46760000  0.11600000  1.0 0.1385017455
H  H36  1  0.16930000  0.03240000  0.11600000  1.0 0.1385017455
H  H37  1  0.71460000  0.21460000  0.23040000  1.0 0.1385017455
H  H38  1  0.21460000  0.28540000  0.23040000  1.0 0.1385017455
H  H39  1  0.82290000  0.28870000  0.28050000  1.0 0.1085431246
H  H40  1  0.32290000  0.21130000  0.28050000  1.0 0.1085431246
H  H41  1  0.44940000  0.05050000  0.15570000  1.0 0.1085431246
H  H42  1  0.94940000  0.44950000  0.15570000  1.0 0.1085431246
H  H43  1  0.51700000  0.13880000  0.09670000  1.0 0.1385017455
H  H44  1  0.01700000  0.36120000  0.09670000  1.0 0.1385017455
H  H45  1  0.60290000  0.30360000  0.26330000  1.0 0.1385017455
H  H46  1  0.10290000  0.19640000  0.26330000  1.0 0.1385017455
H  H47  1  0.53290000  0.20520000  0.31520000  1.0 0.1003576521
H  H48  1  0.03290000  0.29480000  0.31520000  1.0 0.1003576521
H  H49  1  0.24520000  0.06330000  0.34520000  1.0 0.1160358465
H  H50  1  0.74520000  0.43670000  0.34520000  1.0 0.1160358465
H  H51  1  0.30050000  0.15110000  0.44120000  1.0 0.1385017455
H  H52  1  0.80050000  0.34890000  0.44120000  1.0 0.1385017455
H  H53  1  0.12460000  0.10320000  0.51210000  1.0 0.1385017455
H  H54  1  0.62460000  0.39680000  0.51210000  1.0 0.1385017455
H  H55  1  0.06710000  0.02260000  0.41470000  1.0 0.1302321455
H  H56  1  0.56710000  0.47740000  0.41470000  1.0 0.1302321455
H  H57  1  0.07460000  0.90020000  0.02960000  1.0 0.1160358465
H  H58  1  0.57460000  0.59980000  0.02960000  1.0 0.1160358465
H  H59  1  0.02180000  0.86410000  0.91820000  1.0 0.1385017455
H  H60  1  0.52180000  0.63590000  0.91820000  1.0 0.1385017455
H  H61  1  0.84140000  0.77840000  0.96830000  1.0 0.1385017455
H  H62  1  0.34140000  0.72160000  0.96830000  1.0 0.1385017455
H  H63  1  0.89270000  0.82670000  0.07790000  1.0 0.1385017455
H  H64  1  0.39270000  0.67330000  0.07790000  1.0 0.1385017455
H  H65  1  0.20770000  0.33550000  0.72400000  1.0 0.1085431246
H  H66  1  0.70770000  0.16450000  0.72400000  1.0 0.1085431246
H  H67  1  0.27350000  0.22420000  0.67510000  1.0 0.1385017455
H  H68  1  0.77350000  0.27580000  0.67510000  1.0 0.1385017455
H  H69  1  0.15050000  0.31600000  0.49960000  1.0 0.1385017455
H  H70  1  0.65050000  0.18400000  0.49960000  1.0 0.1385017455
H  H71  1  0.08980000  0.42380000  0.55270000  1.0 0.1085431246
H  H72  1  0.58980000  0.07620000  0.55270000  1.0 0.1085431246
H  H73  1  0.48190000  0.21510000  0.66900000  1.0 0.1085431246
H  H74  1  0.98190000  0.28490000  0.66900000  1.0 0.1085431246
H  H75  1  0.37100000  0.28320000  0.61840000  1.0 0.1385017455
H  H76  1  0.87100000  0.21680000  0.61840000  1.0 0.1385017455
H  H77  1  0.30960000  0.99670000  0.55220000  1.0 0.1385017455
H  H78  1  0.80960000  0.50330000  0.55220000  1.0 0.1385017455
H  H79  1  0.42470000  0.94160000  0.59860000  1.0 0.1003576521
H  H80  1  0.92470000  0.55840000  0.59860000  1.0 0.1003576521
H  H81  1  0.72220000  0.03710000  0.82760000  1.0 0.1003576521
H  H82  1  0.22220000  0.46290000  0.82760000  1.0 0.1003576521
H  H83  1  0.83070000  0.96760000  0.88400000  1.0 0.1385017455
H  H84  1  0.33070000  0.53240000  0.88400000  1.0 0.1385017455
H  H85  1  0.78540000  0.71460000  0.76960000  1.0 0.1385017455
H  H86  1  0.28540000  0.78540000  0.76960000  1.0 0.1385017455
H  H87  1  0.67710000  0.78870000  0.71950000  1.0 0.1085431246
H  H88  1  0.17710000  0.71130000  0.71950000  1.0 0.1085431246
H  H89  1  0.05060000  0.55050000  0.84430000  1.0 0.1085431246
H  H90  1  0.55060000  0.94950000  0.84430000  1.0 0.1085431246
H  H91  1  0.98300000  0.63880000  0.90330000  1.0 0.1385017455
H  H92  1  0.48300000  0.86120000  0.90330000  1.0 0.1385017455
H  H93  1  0.89710000  0.80360000  0.73670000  1.0 0.1385017455
H  H94  1  0.39710000  0.69640000  0.73670000  1.0 0.1385017455
H  H95  1  0.96710000  0.70520000  0.68480000  1.0 0.1003576521
H  H96  1  0.46710000  0.79480000  0.68480000  1.0 0.1003576521
C  C1  1  0.38520000  0.48580000  0.69330000  1.0 -0.0879884591
C  C2  1  0.88520000  0.01420000  0.69330000  1.0 -0.0879884591
C  C3  1  0.41210000  0.45200000  0.74600000  1.0 -0.0482623881
C  C4  1  0.91210000  0.04800000  0.74600000  1.0 -0.0482623881
C  C5  1  0.44440000  0.41720000  0.81090000  1.0 -0.0482623881
C  C6  1  0.94440000  0.08280000  0.81090000  1.0 -0.0482623881
C  C7  1  0.47420000  0.39120000  0.86650000  1.0 -0.0745527545
C  C8  1  0.97420000  0.10880000  0.86650000  1.0 -0.0745527545
C  C9  1  0.34990000  0.53410000  0.63130000  1.0 0.1003576521
C  C10  1  0.84990000  0.96590000  0.63130000  1.0 0.1003576521
C  C11  1  0.27970000  0.57250000  0.62150000  1.0 -0.1249341989
C  C12  1  0.77970000  0.92750000  0.62150000  1.0 -0.1249341989
C  C13  1  0.24620000  0.62380000  0.56400000  1.0 -0.1707191938
C  C14  1  0.74620000  0.87620000  0.56400000  1.0 -0.1707191938
C  C15  1  0.28240000  0.63500000  0.51290000  1.0 0.166416218
C  C16  1  0.78240000  0.86500000  0.51290000  1.0 0.166416218
C  C17  1  0.35140000  0.59620000  0.52190000  1.0 -0.1707191938
C  C18  1  0.85140000  0.90380000  0.52190000  1.0 -0.1707191938
C  C19  1  0.38550000  0.54740000  0.57980000  1.0 -0.1260154048
C  C20  1  0.88550000  0.95260000  0.57980000  1.0 -0.1260154048
C  C21  1  0.50760000  0.36300000  0.93430000  1.0 0.1003576521
C  C22  1  0.00760000  0.13700000  0.93430000  1.0 0.1003576521
C  C23  1  0.47320000  0.37570000  0.98230000  1.0 -0.1260154048
C  C24  1  0.97320000  0.12430000  0.98230000  1.0 -0.1260154048
C  C25  1  0.50470000  0.35450000  0.04990000  1.0 -0.1707191938
C  C26  1  0.00470000  0.14550000  0.04990000  1.0 -0.1707191938
C  C27  1  0.57290000  0.32070000  0.06750000  1.0 0.1385017455
C  C28  1  0.07290000  0.17930000  0.06750000  1.0 0.1385017455
C  C29  1  0.61150000  0.30560000  0.01960000  1.0 -0.1707191938
C  C30  1  0.11150000  0.19440000  0.01960000  1.0 -0.1707191938
C  C31  1  0.57980000  0.33100000  0.95370000  1.0 -0.1090728963
C  C32  1  0.07980000  0.16900000  0.95370000  1.0 -0.1090728963
C  C33  1  0.30410000  0.83190000  0.32250000  1.0 0.1003576521
C  C34  1  0.80410000  0.66810000  0.32250000  1.0 0.1003576521
C  C35  1  0.26420000  0.76380000  0.35110000  1.0 -0.2312062152
C  C36  1  0.76420000  0.73620000  0.35110000  1.0 -0.2312062152
C  C37  1  0.28190000  0.75630000  0.41900000  1.0 0.1985386213
C  C38  1  0.78190000  0.74370000  0.41900000  1.0 0.1985386213
C  C39  1  0.33670000  0.81840000  0.45380000  1.0 -0.2312062152
C  C40  1  0.83670000  0.68160000  0.45380000  1.0 -0.2312062152
C  C41  1  0.37260000  0.88310000  0.42180000  1.0 0.0800575339
C  C42  1  0.87260000  0.61690000  0.42180000  1.0 0.0800575339
C  C43  1  0.05360000  0.67050000  0.35580000  1.0 0.1003576521
C  C44  1  0.55360000  0.82950000  0.35580000  1.0 0.1003576521
C  C45  1  0.12020000  0.71220000  0.38520000  1.0 -0.2229641644
C  C46  1  0.62020000  0.78780000  0.38520000  1.0 -0.2229641644
C  C47  1  0.17360000  0.64750000  0.41980000  1.0 0.2075548596
C  C48  1  0.67360000  0.85250000  0.41980000  1.0 0.2075548596
C  C49  1  0.15560000  0.54370000  0.42480000  1.0 -0.2312062152
C  C50  1  0.65560000  0.95630000  0.42480000  1.0 -0.2312062152
C  C51  1  0.08700000  0.51110000  0.39580000  1.0 0.0800575339
C  C52  1  0.58700000  0.98890000  0.39580000  1.0 0.0800575339
C  C53  1  0.76510000  0.47090000  0.18430000  1.0 0.0911556384
C  C54  1  0.26510000  0.02910000  0.18430000  1.0 0.0911556384
C  C55  1  0.69900000  0.42990000  0.15090000  1.0 -0.2312062152
C  C56  1  0.19900000  0.07010000  0.15090000  1.0 -0.2312062152
C  C57  1  0.67550000  0.33480000  0.16770000  1.0 0.2075548596
C  C58  1  0.17550000  0.16520000  0.16770000  1.0 0.2075548596
C  C59  1  0.72560000  0.28110000  0.21760000  1.0 -0.2312062152
C  C60  1  0.22560000  0.21890000  0.21760000  1.0 -0.2312062152
C  C61  1  0.79070000  0.32660000  0.24740000  1.0 0.0911556384
C  C62  1  0.29070000  0.17340000  0.24740000  1.0 0.0911556384
C  C63  1  0.48170000  0.10120000  0.17780000  1.0 0.1003576521
C  C64  1  0.98170000  0.39880000  0.17780000  1.0 0.1003576521
C  C65  1  0.52120000  0.15570000  0.14140000  1.0 -0.2392148381
C  C66  1  0.02120000  0.34430000  0.14140000  1.0 -0.2392148381
C  C67  1  0.56780000  0.23680000  0.17160000  1.0 0.2265540449
C  C68  1  0.06780000  0.26320000  0.17160000  1.0 0.2265540449
C  C69  1  0.57210000  0.25260000  0.23930000  1.0 -0.2392148381
C  C70  1  0.07210000  0.24740000  0.23930000  1.0 -0.2392148381
C  C71  1  0.53010000  0.19160000  0.27030000  1.0 0.0911556384
C  C72  1  0.03010000  0.30840000  0.27030000  1.0 0.0911556384
C  C73  1  0.11480000  0.98580000  0.30670000  1.0 -0.0879884591
C  C74  1  0.61480000  0.51420000  0.30670000  1.0 -0.0879884591
C  C75  1  0.08790000  0.95200000  0.25400000  1.0 -0.0482623881
C  C76  1  0.58790000  0.54800000  0.25400000  1.0 -0.0482623881
C  C77  1  0.05560000  0.91720000  0.18910000  1.0 -0.0482623881
C  C78  1  0.55560000  0.58280000  0.18910000  1.0 -0.0482623881
C  C79  1  0.02580000  0.89120000  0.13350000  1.0 -0.0745527545
C  C80  1  0.52580000  0.60880000  0.13350000  1.0 -0.0745527545
C  C81  1  0.15010000  0.03410000  0.36870000  1.0 0.1003576521
C  C82  1  0.65010000  0.46590000  0.36870000  1.0 0.1003576521
C  C83  1  0.22030000  0.07250000  0.37850000  1.0 -0.1249341989
C  C84  1  0.72030000  0.42750000  0.37850000  1.0 -0.1249341989
C  C85  1  0.25380000  0.12380000  0.43600000  1.0 -0.1707191938
C  C86  1  0.75380000  0.37620000  0.43600000  1.0 -0.1707191938
C  C87  1  0.21760000  0.13500000  0.48710000  1.0 0.166416218
C  C88  1  0.71760000  0.36500000  0.48710000  1.0 0.166416218
C  C89  1  0.14860000  0.09620000  0.47810000  1.0 -0.1707191938
C  C90  1  0.64860000  0.40380000  0.47810000  1.0 -0.1707191938
C  C91  1  0.11450000  0.04740000  0.42020000  1.0 -0.1260154048
C  C92  1  0.61450000  0.45260000  0.42020000  1.0 -0.1260154048
C  C93  1  0.99240000  0.86300000  0.06570000  1.0 0.1003576521
C  C94  1  0.49240000  0.63700000  0.06570000  1.0 0.1003576521
C  C95  1  0.02680000  0.87570000  0.01770000  1.0 -0.1260154048
C  C96  1  0.52680000  0.62430000  0.01770000  1.0 -0.1249341989
C  C97  1  0.99530000  0.85450000  0.95010000  1.0 -0.1707191938
C  C98  1  0.49530000  0.64550000  0.95010000  1.0 -0.1707191938
C  C99  1  0.92710000  0.82070000  0.93250000  1.0 0.1385017455
C  C100  1  0.42710000  0.67930000  0.93250000  1.0 0.1385017455
C  C101  1  0.88850000  0.80560000  0.98040000  1.0 -0.1707191938
C  C102  1  0.38850000  0.69440000  0.98040000  1.0 -0.1707191938
C  C103  1  0.92020000  0.83100000  0.04630000  1.0 -0.1090728963
C  C104  1  0.42020000  0.66900000  0.04630000  1.0 -0.1090728963
C  C105  1  0.19590000  0.33190000  0.67750000  1.0 0.1003576521
C  C106  1  0.69590000  0.16810000  0.67750000  1.0 0.1003576521
C  C107  1  0.23580000  0.26380000  0.64890000  1.0 -0.2312062152
C  C108  1  0.73580000  0.23620000  0.64890000  1.0 -0.2312062152
C  C109  1  0.21810000  0.25630000  0.58100000  1.0 0.1985386213
C  C110  1  0.71810000  0.24370000  0.58100000  1.0 0.1985386213
C  C111  1  0.16330000  0.31840000  0.54620000  1.0 -0.2312062152
C  C112  1  0.66330000  0.18160000  0.54620000  1.0 -0.2312062152
C  C113  1  0.12740000  0.38310000  0.57820000  1.0 0.0800575339
C  C114  1  0.62740000  0.11690000  0.57820000  1.0 0.0800575339
C  C115  1  0.44640000  0.17050000  0.64420000  1.0 0.1003576521
C  C116  1  0.94640000  0.32950000  0.64420000  1.0 0.1003576521
C  C117  1  0.37980000  0.21220000  0.61480000  1.0 -0.2229641644
C  C118  1  0.87980000  0.28780000  0.61480000  1.0 -0.2229641644
C  C119  1  0.32640000  0.14750000  0.58020000  1.0 0.2075548596
C  C120  1  0.82640000  0.35250000  0.58020000  1.0 0.2075548596
C  C121  1  0.34440000  0.04370000  0.57520000  1.0 -0.2312062152
C  C122  1  0.84440000  0.45630000  0.57520000  1.0 -0.2312062152
C  C123  1  0.41300000  0.01110000  0.60420000  1.0 0.0800575339
C  C124  1  0.91300000  0.48890000  0.60420000  1.0 0.0800575339
C  C125  1  0.73490000  0.97090000  0.81570000  1.0 0.0911556384
C  C126  1  0.23490000  0.52910000  0.81570000  1.0 0.0911556384
C  C127  1  0.80100000  0.92990000  0.84910000  1.0 -0.2312062152
C  C128  1  0.30100000  0.57010000  0.84910000  1.0 -0.2312062152
C  C129  1  0.82450000  0.83480000  0.83230000  1.0 0.2075548596
C  C130  1  0.32450000  0.66520000  0.83230000  1.0 0.2075548596
C  C131  1  0.77440000  0.78110000  0.78240000  1.0 -0.2312062152
C  C132  1  0.27440000  0.71890000  0.78240000  1.0 -0.2312062152
C  C133  1  0.70930000  0.82660000  0.75260000  1.0 0.0911556384
C  C134  1  0.20930000  0.67340000  0.75260000  1.0 0.0911556384
C  C135  1  0.01830000  0.60120000  0.82220000  1.0 0.1003576521
C  C136  1  0.51830000  0.89880000  0.82220000  1.0 0.1003576521
C  C137  1  0.97880000  0.65570000  0.85860000  1.0 -0.2392148381
C  C138  1  0.47880000  0.84430000  0.85860000  1.0 -0.2392148381
C  C139  1  0.93220000  0.73680000  0.82840000  1.0 0.2265540449
C  C140  1  0.43220000  0.76320000  0.82840000  1.0 0.2265540449
C  C141  1  0.92790000  0.75260000  0.76070000  1.0 -0.2392148381
C  C142  1  0.42790000  0.74740000  0.76070000  1.0 -0.2392148381
C  C143  1  0.96990000  0.69160000  0.72970000  1.0 0.0911556384
C  C144  1  0.46990000  0.80840000  0.72970000  1.0 0.0911556384
N  N1  1  0.24460000  0.68590000  0.45160000  1.0 -0.1631302038
N  N2  1  0.74460000  0.81410000  0.45160000  1.0 -0.1631302038
N  N3  1  0.35720000  0.89200000  0.35530000  1.0 -0.2134091859
N  N4  1  0.85720000  0.60800000  0.35530000  1.0 -0.2134091859
N  N5  1  0.03560000  0.57210000  0.36000000  1.0 -0.2134091859
N  N6  1  0.53560000  0.92790000  0.36000000  1.0 -0.2134091859
N  N7  1  0.60670000  0.29460000  0.13590000  1.0 -0.1532209912
N  N8  1  0.10670000  0.20540000  0.13590000  1.0 -0.1532209912
N  N9  1  0.81180000  0.42040000  0.23300000  1.0 -0.2229641644
N  N10  1  0.31180000  0.07960000  0.23300000  1.0 -0.2229641644
N  N11  1  0.48670000  0.11600000  0.24170000  1.0 -0.2312062152
N  N12  1  0.98670000  0.38400000  0.24170000  1.0 -0.2312062152
N  N13  1  0.25540000  0.18590000  0.54840000  1.0 -0.1631302038
N  N14  1  0.75540000  0.31410000  0.54840000  1.0 -0.1631302038
N  N15  1  0.14280000  0.39200000  0.64470000  1.0 -0.2134091859
N  N16  1  0.64280000  0.10800000  0.64470000  1.0 -0.2134091859
N  N17  1  0.46440000  0.07210000  0.64000000  1.0 -0.2134091859
N  N18  1  0.96440000  0.42790000  0.64000000  1.0 -0.2134091859
N  N19  1  0.89330000  0.79460000  0.86410000  1.0 -0.1532209912
N  N20  1  0.39330000  0.70540000  0.86410000  1.0 -0.1532209912
N  N21  1  0.68820000  0.92040000  0.76700000  1.0 -0.2229641644
N  N22  1  0.18820000  0.57960000  0.76700000  1.0 -0.2229641644
N  N23  1  0.01330000  0.61600000  0.75830000  1.0 -0.2312062152
N  N24  1  0.51330000  0.88400000  0.75830000  1.0 -0.2312062152
Cl  Cl1  1  0.41340000  0.85790000  0.20733000  1.0 -0.6477590897
Cl  Cl2  1  0.91340000  0.64210000  0.20733000  1.0 -0.6477590897
Cl  Cl3  1  0.43464000  0.14130000  0.39386000  1.0 -0.6411623755
Cl  Cl4  1  0.93464000  0.35870000  0.39386000  1.0 -0.6411623755
Cl  Cl5  1  0.08660000  0.35790000  0.79267000  1.0 -0.6477590897
Cl  Cl6  1  0.58660000  0.14210000  0.79267000  1.0 -0.6477590897
Cl  Cl7  1  0.06536000  0.64130000  0.60614000  1.0 -0.6411623755
Cl  Cl8  1  0.56536000  0.85870000  0.60614000  1.0 -0.6411623755
