# DDEC6 charges by PACMAN v1.1 (https://github.com/mtap-research/PACMAN-charge/)
data_LAZXIV_ASR_pacman
_symmetry_space_group_name_H-M   'P 1'
_cell_length_a   17.99990000
_cell_length_b   17.99990000
_cell_length_c   17.99990000
_cell_angle_alpha   113.20200000
_cell_angle_beta   113.20100000
_cell_angle_gamma   102.24400000
_symmetry_Int_Tables_number   1
_chemical_formula_structural   Cu3H14(C7O4)3
_chemical_formula_sum   'Cu12 H56 C84 O48'
_cell_volume   4436.74667173
_cell_formula_units_Z   4
loop_
 _symmetry_equiv_pos_site_id
 _symmetry_equiv_pos_as_xyz
  1  'x, y, z'
loop_
 _atom_site_type_symbol
 _atom_site_label
 _atom_site_symmetry_multiplicity
 _atom_site_fract_x
 _atom_site_fract_y
 _atom_site_fract_z
 _atom_site_occupancy
 _atom_site_charge
Cu  Cu1  1  0.43043000  0.42600000  0.46545000  1.0 0.8372498997
Cu  Cu2  1  0.03945000  0.57400000  0.00443000  1.0 0.8372498997
Cu  Cu3  1  0.96055000  0.96498000  0.53455000  1.0 0.8372498997
Cu  Cu4  1  0.56957000  0.03502000  0.99557000  1.0 0.8372498997
Cu  Cu5  1  0.56957000  0.57400000  0.53455000  1.0 0.8372498997
Cu  Cu6  1  0.96055000  0.42600000  0.99557000  1.0 0.8372498997
Cu  Cu7  1  0.03945000  0.03502000  0.46545000  1.0 0.8372498997
Cu  Cu8  1  0.43043000  0.96498000  0.00443000  1.0 0.8372498997
Cu  Cu9  1  0.00000000  0.56685000  0.56685000  1.0 0.9266958036
Cu  Cu10  1  0.00000000  0.43315000  0.43315000  1.0 0.9266958036
Cu  Cu11  1  0.43391000  0.50000000  0.93391000  1.0 0.856278012
Cu  Cu12  1  0.56609000  0.50000000  0.06609000  1.0 0.853829632
H  H1  1  0.71950000  0.46000000  0.46270000  1.0 0.136306832
H  H2  1  0.00270000  0.54000000  0.25950000  1.0 0.136306832
H  H3  1  0.99730000  0.25680000  0.53730000  1.0 0.136306832
H  H4  1  0.28050000  0.74320000  0.74050000  1.0 0.136306832
H  H5  1  0.28050000  0.54000000  0.53730000  1.0 0.136306832
H  H6  1  0.99730000  0.46000000  0.74050000  1.0 0.136306832
H  H7  1  0.00270000  0.74320000  0.46270000  1.0 0.136306832
H  H8  1  0.71950000  0.25680000  0.25950000  1.0 0.136306832
H  H9  1  0.42400000  0.18590000  0.15590000  1.0 0.1058615827
H  H10  1  0.97000000  0.81410000  0.23810000  1.0 0.1058615827
H  H11  1  0.03000000  0.26810000  0.84410000  1.0 0.1058615827
H  H12  1  0.57600000  0.73190000  0.76190000  1.0 0.1058615827
H  H13  1  0.57600000  0.81410000  0.84410000  1.0 0.1058615827
H  H14  1  0.03000000  0.18590000  0.76190000  1.0 0.1058615827
H  H15  1  0.97000000  0.73190000  0.15590000  1.0 0.1058615827
H  H16  1  0.42400000  0.26810000  0.23810000  1.0 0.1058615827
H  H17  1  0.42350000  0.26810000  0.23460000  1.0 0.1032255165
H  H18  1  0.96650000  0.73190000  0.15540000  1.0 0.1058615827
H  H19  1  0.03350000  0.18890000  0.76540000  1.0 0.1032255165
H  H20  1  0.57650000  0.81110000  0.84460000  1.0 0.1032255165
H  H21  1  0.57650000  0.73190000  0.76540000  1.0 0.1032255165
H  H22  1  0.03350000  0.26810000  0.84460000  1.0 0.1032255165
H  H23  1  0.96650000  0.81110000  0.23460000  1.0 0.1058615827
H  H24  1  0.42350000  0.18890000  0.15540000  1.0 0.1032255165
H  H25  1  0.43540000  0.18560000  0.24680000  1.0 0.1578005016
H  H26  1  0.06120000  0.81440000  0.24980000  1.0 0.1578005016
H  H27  1  0.93880000  0.18860000  0.75320000  1.0 0.1578005016
H  H28  1  0.56460000  0.81140000  0.75020000  1.0 0.1578005016
H  H29  1  0.56460000  0.81440000  0.75320000  1.0 0.1578005016
H  H30  1  0.93880000  0.18560000  0.75020000  1.0 0.1578005016
H  H31  1  0.06120000  0.81140000  0.24680000  1.0 0.1578005016
H  H32  1  0.43540000  0.18860000  0.24980000  1.0 0.1578005016
H  H33  1  0.19620000  0.53820000  0.28580000  1.0 0.03175871
H  H34  1  0.74760000  0.46180000  0.65800000  1.0 0.03175871
H  H35  1  0.25240000  0.91040000  0.71420000  1.0 0.03175871
H  H36  1  0.80380000  0.08960000  0.34200000  1.0 0.03175871
H  H37  1  0.80380000  0.46180000  0.71420000  1.0 0.03175871
H  H38  1  0.25240000  0.53820000  0.34200000  1.0 0.03175871
H  H39  1  0.74760000  0.08960000  0.28580000  1.0 0.03175871
H  H40  1  0.19620000  0.91040000  0.65800000  1.0 0.03175871
H  H41  1  0.25490000  0.49650000  0.33420000  1.0 0.03175871
H  H42  1  0.83770000  0.50350000  0.75840000  1.0 0.03175871
H  H43  1  0.16230000  0.92070000  0.66580000  1.0 0.03175871
H  H44  1  0.74510000  0.07930000  0.24160000  1.0 0.03175871
H  H45  1  0.74510000  0.50350000  0.66580000  1.0 0.03175871
H  H46  1  0.16230000  0.49650000  0.24160000  1.0 0.03175871
H  H47  1  0.83770000  0.07930000  0.33420000  1.0 0.03175871
H  H48  1  0.25490000  0.92070000  0.75840000  1.0 0.03175871
H  H49  1  0.16610000  0.43220000  0.22970000  1.0 0.0403443346
H  H50  1  0.79750000  0.56780000  0.73390000  1.0 0.0403443346
H  H51  1  0.20250000  0.93640000  0.77030000  1.0 0.0403443346
H  H52  1  0.83390000  0.06360000  0.26610000  1.0 0.0403443346
H  H53  1  0.83390000  0.56780000  0.77030000  1.0 0.0403443346
H  H54  1  0.20250000  0.43220000  0.26610000  1.0 0.0403443346
H  H55  1  0.79750000  0.06360000  0.22970000  1.0 0.0403443346
H  H56  1  0.16610000  0.93640000  0.73390000  1.0 0.0403443346
C  C1  1  0.59320000  0.35870000  0.35750000  1.0 -0.0922683417
C  C2  1  0.99880000  0.64130000  0.23450000  1.0 -0.0922683417
C  C3  1  0.00120000  0.23570000  0.64250000  1.0 -0.0922683417
C  C4  1  0.40680000  0.76430000  0.76550000  1.0 -0.0922683417
C  C5  1  0.40680000  0.64130000  0.64250000  1.0 -0.0922683417
C  C6  1  0.00120000  0.35870000  0.76550000  1.0 -0.0922683417
C  C7  1  0.99880000  0.76430000  0.35750000  1.0 -0.0922683417
C  C8  1  0.59320000  0.23570000  0.23450000  1.0 -0.0922683417
C  C9  1  0.68850000  0.40440000  0.40350000  1.0 0.0011707013
C  C10  1  0.99910000  0.59560000  0.28410000  1.0 0.0011707013
C  C11  1  0.00090000  0.28500000  0.59650000  1.0 0.0011707013
C  C12  1  0.31150000  0.71500000  0.71590000  1.0 0.0011707013
C  C13  1  0.31150000  0.59560000  0.59650000  1.0 0.0011707013
C  C14  1  0.00090000  0.40440000  0.71590000  1.0 0.0011707013
C  C15  1  0.99910000  0.71500000  0.40350000  1.0 0.0011707013
C  C16  1  0.68850000  0.28500000  0.28410000  1.0 0.0011707013
C  C17  1  0.74030000  0.37300000  0.36730000  1.0 -0.1058264844
C  C18  1  0.99430000  0.62700000  0.36730000  1.0 -0.1058264844
C  C19  1  0.00570000  0.37300000  0.63270000  1.0 -0.1058264844
C  C20  1  0.25970000  0.62700000  0.63270000  1.0 -0.1058264844
C  C21  1  0.83080000  0.41690000  0.41390000  1.0 0.5003054202
C  C22  1  0.99700000  0.58310000  0.41390000  1.0 0.5003054202
C  C23  1  0.00300000  0.41690000  0.58610000  1.0 0.5003054202
C  C24  1  0.16920000  0.58310000  0.58610000  1.0 0.5003054202
C  C25  1  0.54600000  0.27310000  0.27290000  1.0 0.0907698557
C  C26  1  0.99980000  0.72690000  0.27290000  1.0 0.0907698557
C  C27  1  0.00020000  0.27310000  0.72710000  1.0 0.0907698557
C  C28  1  0.45400000  0.72690000  0.72710000  1.0 0.0907698557
C  C29  1  0.44930000  0.22500000  0.22430000  1.0 -0.4708822436
C  C30  1  0.99930000  0.77500000  0.22430000  1.0 -0.4708822436
C  C31  1  0.00070000  0.22500000  0.77570000  1.0 -0.4708822436
C  C32  1  0.55070000  0.77500000  0.77570000  1.0 -0.4708822436
C  C33  1  0.55630000  0.40720000  0.41070000  1.0 0.5003054202
C  C34  1  0.00350000  0.59280000  0.14910000  1.0 0.5003054202
C  C35  1  0.99650000  0.14560000  0.58930000  1.0 0.5003054202
C  C36  1  0.44370000  0.85440000  0.85090000  1.0 0.5003054202
C  C37  1  0.44370000  0.59280000  0.58930000  1.0 0.5003054202
C  C38  1  0.99650000  0.40720000  0.85090000  1.0 0.5003054202
C  C39  1  0.00350000  0.85440000  0.41070000  1.0 0.5003054202
C  C40  1  0.55630000  0.14560000  0.14910000  1.0 0.5003054202
C  C41  1  0.78240000  0.50850000  0.72610000  1.0 -0.2078584559
C  C42  1  0.21760000  0.49150000  0.27390000  1.0 -0.2078584559
C  C43  1  0.78240000  0.05630000  0.27390000  1.0 -0.2078584559
C  C44  1  0.21760000  0.94370000  0.72610000  1.0 -0.2078584559
C  C45  1  0.72330000  0.49590000  0.77260000  1.0 0.0743661769
C  C46  1  0.27670000  0.50410000  0.22740000  1.0 0.0743661769
C  C47  1  0.72330000  0.95070000  0.22740000  1.0 0.0743661769
C  C48  1  0.27670000  0.04930000  0.77260000  1.0 0.0743661769
C  C49  1  0.64390000  0.49760000  0.73310000  1.0 -0.1035990735
C  C50  1  0.23550000  0.50240000  0.14630000  1.0 -0.1058264844
C  C51  1  0.76450000  0.91080000  0.26690000  1.0 -0.1035990735
C  C52  1  0.35610000  0.08920000  0.85370000  1.0 -0.1035990735
C  C53  1  0.35610000  0.50240000  0.26690000  1.0 -0.1035990735
C  C54  1  0.76450000  0.49760000  0.85370000  1.0 -0.1035990735
C  C55  1  0.23550000  0.08920000  0.73310000  1.0 -0.1035990735
C  C56  1  0.64390000  0.91080000  0.14630000  1.0 -0.1035990735
C  C57  1  0.58930000  0.49100000  0.77730000  1.0 0.0466489703
C  C58  1  0.28630000  0.50900000  0.09830000  1.0 0.0466489703
C  C59  1  0.71370000  0.81200000  0.22270000  1.0 0.0466489703
C  C60  1  0.41070000  0.18800000  0.90170000  1.0 0.0466489703
C  C61  1  0.41070000  0.50900000  0.22270000  1.0 0.0466489703
C  C62  1  0.71370000  0.49100000  0.90170000  1.0 0.0466489703
C  C63  1  0.28630000  0.18800000  0.77730000  1.0 0.0466489703
C  C64  1  0.58930000  0.81200000  0.09830000  1.0 0.0466489703
C  C65  1  0.65000000  0.49910000  0.86710000  1.0 -0.0139272084
C  C66  1  0.36800000  0.50090000  0.15090000  1.0 -0.0139272084
C  C67  1  0.63200000  0.78290000  0.13290000  1.0 -0.0139272084
C  C68  1  0.35000000  0.21710000  0.84910000  1.0 -0.0139272084
C  C69  1  0.35000000  0.50090000  0.13290000  1.0 -0.0139272084
C  C70  1  0.63200000  0.49910000  0.84910000  1.0 -0.0139272084
C  C71  1  0.36800000  0.21710000  0.86710000  1.0 -0.0139272084
C  C72  1  0.65000000  0.78290000  0.15090000  1.0 -0.0139272084
C  C73  1  0.59170000  0.49400000  0.64450000  1.0 0.5157600738
C  C74  1  0.15050000  0.50600000  0.09770000  1.0 0.5157600738
C  C75  1  0.84950000  0.94720000  0.35550000  1.0 0.5157600738
C  C76  1  0.40830000  0.05280000  0.90230000  1.0 0.5157600738
C  C77  1  0.40830000  0.50600000  0.35550000  1.0 0.5157600738
C  C78  1  0.84950000  0.49400000  0.90230000  1.0 0.5157600738
C  C79  1  0.15050000  0.05280000  0.64450000  1.0 0.5157600738
C  C80  1  0.59170000  0.94720000  0.09770000  1.0 0.5157600738
C  C81  1  0.41990000  0.50610000  0.08620000  1.0 0.5003054202
C  C82  1  0.58010000  0.49390000  0.91380000  1.0 0.5003054202
C  C83  1  0.41990000  0.33370000  0.91380000  1.0 0.5003054202
C  C84  1  0.58010000  0.66630000  0.08620000  1.0 0.5003054202
O  O1  1  0.48740000  0.36380000  0.40120000  1.0 -0.4708822436
O  O2  1  0.03740000  0.63620000  0.12360000  1.0 -0.4708822436
O  O3  1  0.96260000  0.08620000  0.59880000  1.0 -0.4708822436
O  O4  1  0.51260000  0.91380000  0.87640000  1.0 -0.4708822436
O  O5  1  0.51260000  0.63620000  0.59880000  1.0 -0.4708822436
O  O6  1  0.96260000  0.36380000  0.87640000  1.0 -0.4708822436
O  O7  1  0.03740000  0.91380000  0.40120000  1.0 -0.4708822436
O  O8  1  0.48740000  0.08620000  0.12360000  1.0 -0.4708822436
O  O9  1  0.59100000  0.48360000  0.45180000  1.0 -0.4461257733
O  O10  1  0.96820000  0.51640000  0.10740000  1.0 -0.4461257733
O  O11  1  0.03180000  0.13920000  0.54820000  1.0 -0.4461257733
O  O12  1  0.40900000  0.86080000  0.89260000  1.0 -0.4461257733
O  O13  1  0.40900000  0.51640000  0.54820000  1.0 -0.4461257733
O  O14  1  0.03180000  0.48360000  0.89260000  1.0 -0.4461257733
O  O15  1  0.96820000  0.86080000  0.45180000  1.0 -0.4461257733
O  O16  1  0.59100000  0.13920000  0.10740000  1.0 -0.4461257733
O  O17  1  0.87310000  0.49760000  0.49170000  1.0 -0.5355359645
O  O18  1  0.99410000  0.50240000  0.37550000  1.0 -0.5333893202
O  O19  1  0.00590000  0.38140000  0.50830000  1.0 -0.5355359645
O  O20  1  0.12690000  0.61860000  0.62450000  1.0 -0.5355359645
O  O21  1  0.12690000  0.50240000  0.50830000  1.0 -0.5355359645
O  O22  1  0.00590000  0.49760000  0.62450000  1.0 -0.5355359645
O  O23  1  0.99410000  0.61860000  0.49170000  1.0 -0.5355359645
O  O24  1  0.87310000  0.38140000  0.37550000  1.0 -0.5355359645
O  O25  1  0.51340000  0.42980000  0.57160000  1.0 -0.5237153075
O  O26  1  0.14180000  0.57020000  0.08360000  1.0 -0.5237153075
O  O27  1  0.85820000  0.94180000  0.42840000  1.0 -0.5237153075
O  O28  1  0.48660000  0.05820000  0.91640000  1.0 -0.5237153075
O  O29  1  0.48660000  0.57020000  0.42840000  1.0 -0.5237153075
O  O30  1  0.85820000  0.42980000  0.91640000  1.0 -0.5237153075
O  O31  1  0.14180000  0.05820000  0.57160000  1.0 -0.5237153075
O  O32  1  0.51340000  0.94180000  0.08360000  1.0 -0.5237153075
O  O33  1  0.62840000  0.55520000  0.63940000  1.0 -0.4708822436
O  O34  1  0.08420000  0.44480000  0.07320000  1.0 -0.4708822436
O  O35  1  0.91580000  0.98900000  0.36060000  1.0 -0.4708822436
O  O36  1  0.37160000  0.01100000  0.92680000  1.0 -0.4708822436
O  O37  1  0.37160000  0.44480000  0.36060000  1.0 -0.4708822436
O  O38  1  0.91580000  0.55520000  0.92680000  1.0 -0.4708822436
O  O39  1  0.08420000  0.01100000  0.63940000  1.0 -0.4708822436
O  O40  1  0.62840000  0.98900000  0.07320000  1.0 -0.4708822436
O  O41  1  0.38270000  0.50810000  0.01040000  1.0 -0.4879312679
O  O42  1  0.50230000  0.49190000  0.87460000  1.0 -0.4879312679
O  O43  1  0.49770000  0.37230000  0.98960000  1.0 -0.4879312679
O  O44  1  0.61730000  0.62770000  0.12540000  1.0 -0.4879312679
O  O45  1  0.61730000  0.49190000  0.98960000  1.0 -0.4879312679
O  O46  1  0.49770000  0.50810000  0.12540000  1.0 -0.4879312679
O  O47  1  0.50230000  0.62770000  0.01040000  1.0 -0.4879312679
O  O48  1  0.38270000  0.37230000  0.87460000  1.0 -0.4879312679
