# DDEC6 charges by PACMAN v1.1 (https://github.com/mtap-research/PACMAN-charge/)
data_LAZXOB_ASR_pacman
_symmetry_space_group_name_H-M   'P 1'
_cell_length_a   17.55750000
_cell_length_b   17.55750000
_cell_length_c   17.55750000
_cell_angle_alpha   110.04000000
_cell_angle_beta   110.04000000
_cell_angle_gamma   108.33900000
_symmetry_Int_Tables_number   1
_chemical_formula_structural   Cu3H8(C11O6)2
_chemical_formula_sum   'Cu12 H32 C88 O48'
_cell_volume   4165.26146519
_cell_formula_units_Z   4
loop_
 _symmetry_equiv_pos_site_id
 _symmetry_equiv_pos_as_xyz
  1  'x, y, z'
loop_
 _atom_site_type_symbol
 _atom_site_label
 _atom_site_symmetry_multiplicity
 _atom_site_fract_x
 _atom_site_fract_y
 _atom_site_fract_z
 _atom_site_occupancy
 _atom_site_charge
Cu  Cu1  1  0.57684000  0.57436000  0.52968000  1.0 0.8454626124
Cu  Cu2  1  0.04468000  0.04716000  0.47032000  1.0 0.8454626124
Cu  Cu3  1  0.42316000  0.95284000  0.99752000  1.0 0.8454626124
Cu  Cu4  1  0.95532000  0.42564000  0.00248000  1.0 0.8454626124
Cu  Cu5  1  0.42316000  0.42564000  0.47032000  1.0 0.8454626124
Cu  Cu6  1  0.95532000  0.95284000  0.52968000  1.0 0.8454626124
Cu  Cu7  1  0.57684000  0.04716000  0.00248000  1.0 0.8454626124
Cu  Cu8  1  0.04468000  0.57436000  0.99752000  1.0 0.8454626124
Cu  Cu9  1  0.50000000  0.43400000  0.93400000  1.0 0.8325835387
Cu  Cu10  1  0.50000000  0.56600000  0.06600000  1.0 0.8325835387
Cu  Cu11  1  0.56560000  0.00000000  0.56560000  1.0 0.8832952302
Cu  Cu12  1  0.43440000  0.00000000  0.43440000  1.0 0.8832952302
H  H1  1  0.54180000  0.29220000  0.54560000  1.0 0.1369709164
H  H2  1  0.74660000  0.99620000  0.45440000  1.0 0.1369709164
H  H3  1  0.45820000  0.00380000  0.75040000  1.0 0.1369709164
H  H4  1  0.25340000  0.70780000  0.24960000  1.0 0.1369709164
H  H5  1  0.45820000  0.70780000  0.45440000  1.0 0.1369709164
H  H6  1  0.25340000  0.00380000  0.54560000  1.0 0.1369709164
H  H7  1  0.54180000  0.99620000  0.24960000  1.0 0.1369709164
H  H8  1  0.74660000  0.29220000  0.75040000  1.0 0.1369709164
H  H9  1  0.48280000  0.22550000  0.33710000  1.0 0.1369709164
H  H10  1  0.88840000  0.14570000  0.66290000  1.0 0.1369709164
H  H11  1  0.51720000  0.85430000  0.74270000  1.0 0.1369709164
H  H12  1  0.11160000  0.77450000  0.25730000  1.0 0.1369709164
H  H13  1  0.51720000  0.77450000  0.66290000  1.0 0.1369709164
H  H14  1  0.11160000  0.85430000  0.33710000  1.0 0.1369709164
H  H15  1  0.48280000  0.14570000  0.25730000  1.0 0.1369709164
H  H16  1  0.88840000  0.22550000  0.74270000  1.0 0.1369709164
H  H17  1  0.52770000  0.46450000  0.26360000  1.0 0.1484403234
H  H18  1  0.20090000  0.26410000  0.73640000  1.0 0.1484403234
H  H19  1  0.47230000  0.73590000  0.93680000  1.0 0.1484403234
H  H20  1  0.79910000  0.53550000  0.06320000  1.0 0.1484403234
H  H21  1  0.47230000  0.53550000  0.73640000  1.0 0.1484403234
H  H22  1  0.79910000  0.73590000  0.26360000  1.0 0.1484403234
H  H23  1  0.52770000  0.26410000  0.06320000  1.0 0.1484403234
H  H24  1  0.20090000  0.46450000  0.93680000  1.0 0.1484403234
H  H25  1  0.75660000  0.60070000  0.76370000  1.0 0.1215016335
H  H26  1  0.83700000  0.99290000  0.23630000  1.0 0.1215016335
H  H27  1  0.24340000  0.00710000  0.84410000  1.0 0.1215016335
H  H28  1  0.16300000  0.39930000  0.15590000  1.0 0.1215016335
H  H29  1  0.24340000  0.39930000  0.23630000  1.0 0.1215016335
H  H30  1  0.16300000  0.00710000  0.76370000  1.0 0.1215016335
H  H31  1  0.75660000  0.99290000  0.15590000  1.0 0.1215016335
H  H32  1  0.83700000  0.60070000  0.84410000  1.0 0.1215016335
C  C1  1  0.51070000  0.26750000  0.24320000  1.0 0.0800316069
C  C2  1  0.02430000  0.26750000  0.75680000  1.0 0.0800316069
C  C3  1  0.48930000  0.73250000  0.75680000  1.0 0.0800316069
C  C4  1  0.97570000  0.73250000  0.24320000  1.0 0.0800316069
C  C5  1  0.64440000  0.42000000  0.65420000  1.0 -0.1083474054
C  C6  1  0.76580000  0.99020000  0.34580000  1.0 -0.1083474054
C  C7  1  0.35560000  0.00980000  0.77560000  1.0 -0.1083474054
C  C8  1  0.23420000  0.58000000  0.22440000  1.0 -0.1083474054
C  C9  1  0.35560000  0.58000000  0.34580000  1.0 -0.1083474054
C  C10  1  0.23420000  0.00980000  0.65420000  1.0 -0.1083474054
C  C11  1  0.64440000  0.99020000  0.22440000  1.0 -0.1083474054
C  C12  1  0.76580000  0.42000000  0.77560000  1.0 -0.1083474054
C  C13  1  0.59740000  0.32520000  0.60460000  1.0 -0.1272045807
C  C14  1  0.72060000  0.99280000  0.39540000  1.0 -0.1272045807
C  C15  1  0.40260000  0.00720000  0.72780000  1.0 -0.1272045807
C  C16  1  0.27940000  0.67480000  0.27220000  1.0 -0.1272045807
C  C17  1  0.40260000  0.67480000  0.39540000  1.0 -0.1272045807
C  C18  1  0.27940000  0.00720000  0.60460000  1.0 -0.1272045807
C  C19  1  0.59740000  0.99280000  0.27220000  1.0 -0.1272045807
C  C20  1  0.72060000  0.32520000  0.72780000  1.0 -0.1272045807
C  C21  1  0.51450000  0.21350000  0.30100000  1.0 -0.2492540707
C  C22  1  0.91250000  0.21350000  0.69900000  1.0 -0.2492540707
C  C23  1  0.48550000  0.78650000  0.69900000  1.0 -0.2492540707
C  C24  1  0.08750000  0.78650000  0.30100000  1.0 -0.2492540707
C  C25  1  0.58730000  0.17440000  0.58710000  1.0 0.5824299674
C  C26  1  0.58730000  0.00020000  0.41290000  1.0 0.5824299674
C  C27  1  0.41270000  0.99980000  0.58710000  1.0 0.5824299674
C  C28  1  0.41270000  0.82560000  0.41290000  1.0 0.5824299674
C  C29  1  0.61400000  0.24800000  0.36600000  1.0 0.0800316069
C  C30  1  0.88200000  0.24800000  0.63400000  1.0 0.0800316069
C  C31  1  0.38600000  0.75200000  0.63400000  1.0 0.0746914498
C  C32  1  0.11800000  0.75200000  0.36600000  1.0 0.0800316069
C  C33  1  0.71600000  0.57400000  0.85800000  1.0 0.100342467
C  C34  1  0.71600000  0.85800000  0.14200000  1.0 0.100342467
C  C35  1  0.28400000  0.14200000  0.85800000  1.0 0.100342467
C  C36  1  0.28400000  0.42600000  0.14200000  1.0 0.100342467
C  C37  1  0.59240000  0.45810000  0.60710000  1.0 0.5699699383
C  C38  1  0.85100000  0.98530000  0.39290000  1.0 0.5699699383
C  C39  1  0.40760000  0.01470000  0.86570000  1.0 0.5699699383
C  C40  1  0.14900000  0.54190000  0.13430000  1.0 0.5699699383
C  C41  1  0.40760000  0.54190000  0.39290000  1.0 0.5699699383
C  C42  1  0.14900000  0.01470000  0.60710000  1.0 0.5699699383
C  C43  1  0.59240000  0.98530000  0.13430000  1.0 0.5699699383
C  C44  1  0.85100000  0.45810000  0.86570000  1.0 0.5699699383
C  C45  1  0.50690000  0.35250000  0.27280000  1.0 -0.0603484459
C  C46  1  0.07970000  0.23410000  0.72720000  1.0 -0.0603484459
C  C47  1  0.49310000  0.76590000  0.84560000  1.0 -0.0603484459
C  C48  1  0.92030000  0.64750000  0.15440000  1.0 -0.0603484459
C  C49  1  0.49310000  0.64750000  0.72720000  1.0 -0.0603484459
C  C50  1  0.92030000  0.76590000  0.27280000  1.0 -0.0603484459
C  C51  1  0.50690000  0.23410000  0.15440000  1.0 -0.0603484459
C  C52  1  0.07970000  0.35250000  0.84560000  1.0 -0.0603484459
C  C53  1  0.72650000  0.47260000  0.74610000  1.0 0.0746914498
C  C54  1  0.72650000  0.98040000  0.25390000  1.0 0.0746914498
C  C55  1  0.27350000  0.01960000  0.74610000  1.0 0.0746914498
C  C56  1  0.27350000  0.52740000  0.25390000  1.0 0.0800316069
C  C57  1  0.63370000  0.27690000  0.64320000  1.0 -0.0538281616
C  C58  1  0.63370000  0.99050000  0.35680000  1.0 -0.0538281616
C  C59  1  0.36630000  0.00950000  0.64320000  1.0 -0.0538281616
C  C60  1  0.36630000  0.72310000  0.35680000  1.0 -0.0538281616
C  C61  1  0.51420000  0.40180000  0.23240000  1.0 -0.1083474054
C  C62  1  0.16940000  0.28180000  0.76760000  1.0 -0.1083474054
C  C63  1  0.48580000  0.71820000  0.88760000  1.0 -0.1083474054
C  C64  1  0.83060000  0.59820000  0.11240000  1.0 -0.1083474054
C  C65  1  0.48580000  0.59820000  0.76760000  1.0 -0.1083474054
C  C66  1  0.83060000  0.71820000  0.23240000  1.0 -0.1035791416
C  C67  1  0.51420000  0.28180000  0.11240000  1.0 -0.1083474054
C  C68  1  0.16940000  0.40180000  0.88760000  1.0 -0.1083474054
C  C69  1  0.50160000  0.36050000  0.14110000  1.0 -0.0208232333
C  C70  1  0.21940000  0.36050000  0.85890000  1.0 -0.0208232333
C  C71  1  0.49840000  0.63950000  0.85890000  1.0 -0.0208232333
C  C72  1  0.78060000  0.63950000  0.14110000  1.0 -0.0208232333
C  C73  1  0.50180000  0.41410000  0.08770000  1.0 0.5699699383
C  C74  1  0.32640000  0.41410000  0.91230000  1.0 0.5699699383
C  C75  1  0.49820000  0.58590000  0.91230000  1.0 0.5699699383
C  C76  1  0.67360000  0.58590000  0.08770000  1.0 0.5699699383
C  C77  1  0.50860000  0.39660000  0.36740000  1.0 0.5699699383
C  C78  1  0.02920000  0.14120000  0.63260000  1.0 0.5699699383
C  C79  1  0.49140000  0.85880000  0.88800000  1.0 0.5699699383
C  C80  1  0.97080000  0.60340000  0.11200000  1.0 0.5699699383
C  C81  1  0.49140000  0.60340000  0.63260000  1.0 0.5699699383
C  C82  1  0.97080000  0.85880000  0.36740000  1.0 0.5699699383
C  C83  1  0.50860000  0.14120000  0.11200000  1.0 0.5699699383
C  C84  1  0.02920000  0.39660000  0.88800000  1.0 0.5699699383
C  C85  1  0.76920000  0.57150000  0.80230000  1.0 -0.2438419875
C  C86  1  0.76920000  0.96690000  0.19770000  1.0 -0.2438419875
C  C87  1  0.23080000  0.03310000  0.80230000  1.0 -0.2438419875
C  C88  1  0.23080000  0.42850000  0.19770000  1.0 -0.2438419875
O  O1  1  0.57620000  0.48460000  0.42940000  1.0 -0.5716676642
O  O2  1  0.05520000  0.14680000  0.57060000  1.0 -0.5716676642
O  O3  1  0.42380000  0.85320000  0.90840000  1.0 -0.5716676642
O  O4  1  0.94480000  0.51540000  0.09160000  1.0 -0.5716676642
O  O5  1  0.42380000  0.51540000  0.57060000  1.0 -0.5716676642
O  O6  1  0.94480000  0.85320000  0.42940000  1.0 -0.5716676642
O  O7  1  0.57620000  0.14680000  0.09160000  1.0 -0.5716676642
O  O8  1  0.05520000  0.48460000  0.90840000  1.0 -0.5716676642
O  O9  1  0.49890000  0.37680000  0.01250000  1.0 -0.5173585047
O  O10  1  0.36430000  0.48640000  0.98750000  1.0 -0.5173585047
O  O11  1  0.50110000  0.51360000  0.87790000  1.0 -0.5173585047
O  O12  1  0.63570000  0.62320000  0.12210000  1.0 -0.5173585047
O  O13  1  0.50110000  0.62320000  0.98750000  1.0 -0.5173585047
O  O14  1  0.63570000  0.51360000  0.01250000  1.0 -0.5173585047
O  O15  1  0.49890000  0.48640000  0.12210000  1.0 -0.5173585047
O  O16  1  0.36430000  0.37680000  0.87790000  1.0 -0.5173585047
O  O17  1  0.51260000  0.41770000  0.56450000  1.0 -0.4423473854
O  O18  1  0.85320000  0.94810000  0.43550000  1.0 -0.4423473854
O  O19  1  0.48740000  0.05190000  0.90510000  1.0 -0.4423473854
O  O20  1  0.14680000  0.58230000  0.09490000  1.0 -0.4423473854
O  O21  1  0.48740000  0.58230000  0.43550000  1.0 -0.4423473854
O  O22  1  0.14680000  0.05190000  0.56450000  1.0 -0.4423473854
O  O23  1  0.51260000  0.94810000  0.09490000  1.0 -0.4423473854
O  O24  1  0.85320000  0.41770000  0.90510000  1.0 -0.4423473854
O  O25  1  0.64160000  0.53560000  0.61460000  1.0 -0.5173585047
O  O26  1  0.92100000  0.02700000  0.38540000  1.0 -0.5173585047
O  O27  1  0.35840000  0.97300000  0.89400000  1.0 -0.5173585047
O  O28  1  0.07900000  0.46440000  0.10600000  1.0 -0.5173585047
O  O29  1  0.35840000  0.46440000  0.38540000  1.0 -0.5173585047
O  O30  1  0.07900000  0.97300000  0.61460000  1.0 -0.5173585047
O  O31  1  0.64160000  0.02700000  0.10600000  1.0 -0.5173585047
O  O32  1  0.92100000  0.53560000  0.89400000  1.0 -0.5173585047
O  O33  1  0.62180000  0.13230000  0.62650000  1.0 -0.5485643525
O  O34  1  0.50580000  0.99530000  0.37350000  1.0 -0.5485643525
O  O35  1  0.37820000  0.00470000  0.51050000  1.0 -0.5485643525
O  O36  1  0.49420000  0.86770000  0.48950000  1.0 -0.5485643525
O  O37  1  0.37820000  0.86770000  0.37350000  1.0 -0.5485643525
O  O38  1  0.49420000  0.00470000  0.62650000  1.0 -0.5485643525
O  O39  1  0.62180000  0.99530000  0.48950000  1.0 -0.5485643525
O  O40  1  0.50580000  0.13230000  0.51050000  1.0 -0.5485643525
O  O41  1  0.44990000  0.35660000  0.37610000  1.0 -0.4171825465
O  O42  1  0.98050000  0.07380000  0.62390000  1.0 -0.4171825465
O  O43  1  0.55010000  0.92620000  0.90670000  1.0 -0.4171825465
O  O44  1  0.01950000  0.64340000  0.09330000  1.0 -0.4171825465
O  O45  1  0.55010000  0.64340000  0.62390000  1.0 -0.4171825465
O  O46  1  0.01950000  0.92620000  0.37610000  1.0 -0.4171825465
O  O47  1  0.44990000  0.07380000  0.09330000  1.0 -0.4171825465
O  O48  1  0.98050000  0.35660000  0.90670000  1.0 -0.4171825465
