# DDEC6 charges by PACMAN v1.1 (https://github.com/mtap-research/PACMAN-charge/)
data_LECGEH_ASR_pacman
_symmetry_space_group_name_H-M   'P 1'
_cell_length_a   8.02310000
_cell_length_b   9.53040000
_cell_length_c   15.47140000
_cell_angle_alpha   96.70900000
_cell_angle_beta   103.63700000
_cell_angle_gamma   99.06300000
_symmetry_Int_Tables_number   1
_chemical_formula_structural   CoH8C15(NO)4
_chemical_formula_sum   'Co2 H16 C30 N8 O8'
_cell_volume   1120.58672200
_cell_formula_units_Z   2
loop_
 _symmetry_equiv_pos_site_id
 _symmetry_equiv_pos_as_xyz
  1  'x, y, z'
loop_
 _atom_site_type_symbol
 _atom_site_label
 _atom_site_symmetry_multiplicity
 _atom_site_fract_x
 _atom_site_fract_y
 _atom_site_fract_z
 _atom_site_occupancy
 _atom_site_charge
Co  Co1  1  0.00000000  0.50000000  0.00000000  1.0 0.8206086233
Co  Co2  1  0.00000000  0.00000000  0.50000000  1.0 0.8576739505
H  H1  1  0.55500000  0.25610000  0.16610000  1.0 0.1314532483
H  H2  1  0.44500000  0.74390000  0.83390000  1.0 0.1314532483
H  H3  1  0.88690000  0.53350000  0.37880000  1.0 0.1314532483
H  H4  1  0.11310000  0.46650000  0.62120000  1.0 0.1314532483
H  H5  1  0.47570000  0.66360000  0.22210000  1.0 0.1314532483
H  H6  1  0.52430000  0.33640000  0.77790000  1.0 0.1314532483
H  H7  1  0.84350000  0.28100000  0.44060000  1.0 0.1458255276
H  H8  1  0.15650000  0.71900000  0.55940000  1.0 0.1458255276
H  H9  1  0.76180000  0.94300000  0.11110000  1.0 0.1438715905
H  H10  1  0.23820000  0.05700000  0.88890000  1.0 0.1438715905
H  H11  1  0.73570000  0.95950000  0.95600000  1.0 0.1438715905
H  H12  1  0.26430000  0.04050000  0.04400000  1.0 0.1438715905
H  H13  1  0.82810000  0.17560000  0.91520000  1.0 0.1212387606
H  H14  1  0.17190000  0.82440000  0.08480000  1.0 0.1212387606
H  H15  1  0.96630000  0.37080000  0.16730000  1.0 0.1116121039
H  H16  1  0.03370000  0.62920000  0.83270000  1.0 0.1116121039
C  C1  1  0.34050000  0.42780000  0.09690000  1.0 0.563459225
C  C2  1  0.65950000  0.57220000  0.90310000  1.0 0.563459225
C  C3  1  0.49520000  0.45700000  0.18020000  1.0 0.0187439886
C  C4  1  0.50480000  0.54300000  0.81980000  1.0 0.0187439886
C  C5  1  0.58850000  0.34900000  0.20190000  1.0 -0.2063358799
C  C6  1  0.41150000  0.65100000  0.79810000  1.0 -0.2063358799
C  C7  1  0.73230000  0.37920000  0.27710000  1.0 0.1570444926
C  C8  1  0.26770000  0.62080000  0.72290000  1.0 0.1570444926
C  C9  1  0.78550000  0.51410000  0.32960000  1.0 -0.2063358799
C  C10  1  0.21450000  0.48590000  0.67040000  1.0 -0.2063358799
C  C11  1  0.68890000  0.62150000  0.30960000  1.0 0.0187439886
C  C12  1  0.31110000  0.37850000  0.69040000  1.0 0.0187439886
C  C13  1  0.54310000  0.59160000  0.23530000  1.0 -0.1059980877
C  C14  1  0.45690000  0.40840000  0.76470000  1.0 -0.1059980877
C  C15  1  0.73930000  0.76630000  0.36850000  1.0 0.5698015764
C  C16  1  0.26070000  0.23370000  0.63150000  1.0 0.5698015764
C  C17  1  0.86190000  0.22850000  0.38870000  1.0 0.1116121039
C  C18  1  0.13810000  0.77150000  0.61130000  1.0 0.1116121039
C  C19  1  0.87180000  0.16070000  0.25090000  1.0 0.2221184447
C  C20  1  0.12820000  0.83930000  0.74910000  1.0 0.2221184447
C  C21  1  0.86170000  0.15910000  0.15460000  1.0 -0.0132570639
C  C22  1  0.13830000  0.84090000  0.84540000  1.0 -0.0132570639
C  C23  1  0.79610000  0.03220000  0.09250000  1.0 -0.0593855437
C  C24  1  0.20390000  0.96780000  0.90750000  1.0 -0.0593855437
C  C25  1  0.78300000  0.04230000  0.00090000  1.0 -0.1164756641
C  C26  1  0.21700000  0.95770000  0.99910000  1.0 -0.1164756641
C  C27  1  0.83860000  0.17150000  0.97730000  1.0 0.0792103186
C  C28  1  0.16140000  0.82850000  0.02270000  1.0 0.0792103186
C  C29  1  0.91820000  0.28590000  0.12410000  1.0 0.0433914438
C  C30  1  0.08180000  0.71410000  0.87590000  1.0 0.0433914438
N  N1  1  0.82270000  0.26460000  0.30392000  1.0 -0.0593855437
N  N2  1  0.17730000  0.73540000  0.69608000  1.0 -0.0593855437
N  N3  1  0.92790000  0.11230000  0.38796000  1.0 -0.1748598442
N  N4  1  0.07210000  0.88770000  0.61204000  1.0 -0.1748598442
N  N5  1  0.93590000  0.06750000  0.30041000  1.0 -0.231381394
N  N6  1  0.06410000  0.93250000  0.69959000  1.0 -0.231381394
N  N7  1  0.90810000  0.29440000  0.03710000  1.0 -0.2183048949
N  N8  1  0.09190000  0.70560000  0.96290000  1.0 -0.2183048949
O  O1  1  0.32640000  0.32040000  0.03862000  1.0 -0.5775796697
O  O2  1  0.67360000  0.67960000  0.96138000  1.0 -0.5775796697
O  O3  1  0.23850000  0.51840000  0.09318000  1.0 -0.5720879957
O  O4  1  0.76150000  0.48160000  0.90682000  1.0 -0.5720879957
O  O5  1  0.62220000  0.84210000  0.36728000  1.0 -0.5509098396
O  O6  1  0.37780000  0.15790000  0.63272000  1.0 -0.5509098396
O  O7  1  0.89530000  0.80240000  0.41741000  1.0 -0.5917488858
O  O8  1  0.10470000  0.19760000  0.58259000  1.0 -0.5917488858
