# DDEC6 charges by PACMAN v1.1 (https://github.com/mtap-research/PACMAN-charge/)
data_LECGIL_ion_pacman
_symmetry_space_group_name_H-M   'P 1'
_cell_length_a   15.32500000
_cell_length_b   16.47200000
_cell_length_c   17.07200000
_cell_angle_alpha   70.14400000
_cell_angle_beta   64.56700000
_cell_angle_gamma   67.51600000
_symmetry_Int_Tables_number   1
_chemical_formula_structural   Cu13Mo24P2H36C32(N8O15)6
_chemical_formula_sum   'Cu13 Mo24 P2 H36 C32 N48 O90'
_cell_volume   3515.69652512
_cell_formula_units_Z   1
loop_
 _symmetry_equiv_pos_site_id
 _symmetry_equiv_pos_as_xyz
  1  'x, y, z'
loop_
 _atom_site_type_symbol
 _atom_site_label
 _atom_site_symmetry_multiplicity
 _atom_site_fract_x
 _atom_site_fract_y
 _atom_site_fract_z
 _atom_site_occupancy
 _atom_site_charge
Cu  Cu1  1  0.50000000  0.50000000  0.00000000  1.0 0.8035461054
Cu  Cu2  1  0.56919000  0.68442000  0.87763000  1.0 0.6416533039
Cu  Cu3  1  0.43081000  0.31558000  0.12237000  1.0 0.6416533039
Cu  Cu4  1  0.85872000  0.87955000  0.66666667  1.0 0.6526360557
Cu  Cu5  1  0.14128000  0.12045000  0.33333333  1.0 0.6526360557
Cu  Cu6  1  0.00000000  0.00000000  0.00000000  1.0 0.3905312762
Cu  Cu7  1  0.12705000  0.93023000  0.31004000  1.0 0.6074879215
Cu  Cu8  1  0.87295000  0.06977000  0.68996000  1.0 0.6074879215
Cu  Cu9  1  0.21084000  0.91790000  0.08345000  1.0 0.520659481
Cu  Cu10  1  0.78916000  0.08210000  0.91655000  1.0 0.520659481
Cu  Cu11  1  0.35586000  0.69296000  0.06629000  1.0 0.6074879215
Cu  Cu12  1  0.64414000  0.30704000  0.93371000  1.0 0.6074879215
Cu  Cu13  1  0.00000000  0.00000000  0.50000000  1.0 0.7040866957
Mo  Mo1  1  0.58514000  0.53870000  0.31982000  1.0 2.197877501
Mo  Mo2  1  0.53324000  0.73224000  0.40716000  1.0 2.1789149986
Mo  Mo3  1  0.73271000  0.79585000  0.38866000  1.0 2.2080499873
Mo  Mo4  1  0.98485000  0.70472000  0.23980000  1.0 2.1713200555
Mo  Mo5  1  0.96440000  0.50155000  0.38126000  1.0 2.1931417928
Mo  Mo6  1  0.03289000  0.52310000  0.15650000  1.0 2.1789149986
Mo  Mo7  1  0.82273000  0.45507000  0.17601000  1.0 2.2161956773
Mo  Mo8  1  0.78750000  0.84621000  0.14836000  1.0 2.197877501
Mo  Mo9  1  0.77355000  0.40557000  0.40257000  1.0 2.2080499873
Mo  Mo10  1  0.70130000  0.58798000  0.51238000  1.0 2.2080499873
Mo  Mo11  1  0.85617000  0.67448000  0.04347000  1.0 2.1789149986
Mo  Mo12  1  0.60490000  0.75701000  0.16885000  1.0 2.197877501
Mo  Mo13  1  0.41486000  0.46130000  0.68018000  1.0 2.197877501
Mo  Mo14  1  0.46676000  0.26776000  0.59284000  1.0 2.1789149986
Mo  Mo15  1  0.26729000  0.20415000  0.61134000  1.0 2.2080499873
Mo  Mo16  1  0.01515000  0.29528000  0.76020000  1.0 2.1713200555
Mo  Mo17  1  0.03560000  0.49845000  0.61874000  1.0 2.1931417928
Mo  Mo18  1  0.96711000  0.47690000  0.84350000  1.0 2.1789149986
Mo  Mo19  1  0.17727000  0.54493000  0.82399000  1.0 2.2161956773
Mo  Mo20  1  0.21250000  0.15379000  0.85164000  1.0 2.197877501
Mo  Mo21  1  0.22645000  0.59443000  0.59743000  1.0 2.2080499873
Mo  Mo22  1  0.29870000  0.41202000  0.48762000  1.0 2.2080499873
Mo  Mo23  1  0.14383000  0.32552000  0.95653000  1.0 2.1789149986
Mo  Mo24  1  0.39510000  0.24299000  0.83115000  1.0 2.197877501
P  P1  1  0.78068000  0.62783000  0.27837000  1.0 1.4120638714
P  P2  1  0.21932000  0.37217000  0.72163000  1.0 1.4120638714
H  H1  1  0.00240000  0.92640000  0.65120000  1.0 0.3746062861
H  H2  1  0.99760000  0.07360000  0.34880000  1.0 0.3746062861
H  H3  1  0.41580000  0.64230000  0.93010000  1.0 0.3627398507
H  H4  1  0.58420000  0.35770000  0.06990000  1.0 0.3627398507
H  H5  1  0.59640000  0.77280000  0.66450000  1.0 0.1485450164
H  H6  1  0.40360000  0.22720000  0.33550000  1.0 0.1485450164
H  H7  1  0.72050000  0.86380000  0.57640000  1.0 0.1395551927
H  H8  1  0.27950000  0.13620000  0.42360000  1.0 0.1395551927
H  H9  1  0.92850000  0.72200000  0.54910000  1.0 0.1395551927
H  H10  1  0.07150000  0.27800000  0.45090000  1.0 0.1395551927
H  H11  1  0.05310000  0.73800000  0.39680000  1.0 0.1485450164
H  H12  1  0.94690000  0.26200000  0.60320000  1.0 0.1485450164
H  H13  1  0.26450000  0.18480000  0.12210000  1.0 0.1319890366
H  H14  1  0.73550000  0.81520000  0.87790000  1.0 0.1319890366
H  H15  1  0.29710000  0.09570000  0.01520000  1.0 0.1395551927
H  H16  1  0.70290000  0.90430000  0.98480000  1.0 0.1395551927
H  H17  1  0.83490000  0.01770000  0.19160000  1.0 0.1395551927
H  H18  1  0.16510000  0.98230000  0.80840000  1.0 0.1395551927
H  H19  1  0.88380000  0.97910000  0.32350000  1.0 0.1395551927
H  H20  1  0.11620000  0.02090000  0.67650000  1.0 0.1395551927
H  H21  1  0.18930000  0.67790000  0.98390000  1.0 0.1485450164
H  H22  1  0.81070000  0.32210000  0.01610000  1.0 0.1485450164
H  H23  1  0.05250000  0.81500000  0.94820000  1.0 0.1485450164
H  H24  1  0.94750000  0.18500000  0.05180000  1.0 0.1485450164
H  H25  1  0.28340000  0.73070000  0.36910000  1.0 0.1485450164
H  H26  1  0.71660000  0.26930000  0.63090000  1.0 0.1485450164
H  H27  1  0.37510000  0.62700000  0.26520000  1.0 0.1485450164
H  H28  1  0.62490000  0.37300000  0.73480000  1.0 0.1485450164
H  H29  1  0.40150000  0.99860000  0.92610000  1.0 0.1485450164
H  H30  1  0.59850000  0.00140000  0.07390000  1.0 0.1485450164
H  H31  1  0.55070000  0.90010000  0.83830000  1.0 0.1319890366
H  H32  1  0.44930000  0.09990000  0.16170000  1.0 0.1319890366
H  H33  1  0.76210000  0.57570000  0.72260000  1.0 0.1395551927
H  H34  1  0.23790000  0.42430000  0.27740000  1.0 0.1395551927
H  H35  1  0.79780000  0.41040000  0.75100000  1.0 0.1395551927
H  H36  1  0.20220000  0.58960000  0.24900000  1.0 0.1395551927
C  C1  1  0.64170000  0.78110000  0.68350000  1.0 -0.0488717268
C  C2  1  0.35830000  0.21890000  0.31650000  1.0 -0.0488717268
C  C3  1  0.70970000  0.83000000  0.63560000  1.0 -0.0287709149
C  C4  1  0.29030000  0.17000000  0.36440000  1.0 -0.0287709149
C  C5  1  0.95780000  0.77050000  0.51860000  1.0 -0.0007872368
C  C6  1  0.04220000  0.22950000  0.48140000  1.0 -0.0007872368
C  C7  1  0.02600000  0.77890000  0.43500000  1.0 -0.0091100543
C  C8  1  0.97400000  0.22110000  0.56500000  1.0 -0.0091100543
C  C9  1  0.24960000  0.12960000  0.13590000  1.0 -0.0217702591
C  C10  1  0.75040000  0.87040000  0.86410000  1.0 -0.0217702591
C  C11  1  0.26670000  0.08060000  0.07780000  1.0 -0.0217702591
C  C12  1  0.73330000  0.91940000  0.92220000  1.0 -0.0217702591
C  C13  1  0.90150000  0.99920000  0.19210000  1.0 -0.0287709149
C  C14  1  0.09850000  0.00080000  0.80790000  1.0 -0.0287709149
C  C15  1  0.92870000  0.97770000  0.26430000  1.0 -0.0287709149
C  C16  1  0.07130000  0.02230000  0.73570000  1.0 -0.0287709149
C  C17  1  0.17410000  0.73660000  0.99240000  1.0 -0.0091100543
C  C18  1  0.82590000  0.26340000  0.00760000  1.0 -0.0091100543
C  C19  1  0.09790000  0.81200000  0.97400000  1.0 -0.0217702591
C  C20  1  0.90210000  0.18800000  0.02600000  1.0 -0.0217702591
C  C21  1  0.28310000  0.74280000  0.31070000  1.0 -0.0217702591
C  C22  1  0.71690000  0.25720000  0.68930000  1.0 -0.0217702591
C  C23  1  0.33340000  0.68650000  0.25420000  1.0 -0.0287709149
C  C24  1  0.66666667  0.31350000  0.74580000  1.0 -0.0287709149
C  C25  1  0.41560000  0.93530000  0.93570000  1.0 -0.0217702591
C  C26  1  0.58440000  0.06470000  0.06430000  1.0 -0.0217702591
C  C27  1  0.49720000  0.88190000  0.88820000  1.0 -0.0488717268
C  C28  1  0.50280000  0.11810000  0.11180000  1.0 -0.0488717268
C  C29  1  0.72660000  0.53910000  0.77340000  1.0 0.0137876541
C  C30  1  0.27340000  0.46090000  0.22660000  1.0 0.0137876541
C  C31  1  0.74490000  0.44860000  0.78870000  1.0 0.0153066822
C  C32  1  0.25510000  0.55140000  0.21130000  1.0 0.0153066822
N  N1  1  0.75780000  0.82080000  0.68810000  1.0 -0.2058683738
N  N2  1  0.24220000  0.17920000  0.31190000  1.0 -0.2058683738
N  N3  1  0.71970000  0.77110000  0.76770000  1.0 -0.0437954172
N  N4  1  0.28030000  0.22890000  0.23230000  1.0 -0.0437954172
N  N5  1  0.65270000  0.74710000  0.76390000  1.0 -0.1610294401
N  N6  1  0.34730000  0.25290000  0.23610000  1.0 -0.1610294401
N  N7  1  0.04800000  0.85770000  0.41670000  1.0 -0.1610294401
N  N8  1  0.95200000  0.14230000  0.58330000  1.0 -0.1610294401
N  N9  1  0.99550000  0.89320000  0.48870000  1.0 -0.0694193459
N  N10  1  0.00450000  0.10680000  0.51130000  1.0 -0.0694193459
N  N11  1  0.93860000  0.84050000  0.55070000  1.0 -0.1793307915
N  N12  1  0.06140000  0.15950000  0.44930000  1.0 -0.1793307915
N  N13  1  0.20770000  0.08380000  0.21560000  1.0 -0.1610294401
N  N14  1  0.79230000  0.91620000  0.78440000  1.0 -0.1610294401
N  N15  1  0.19850000  0.01190000  0.20660000  1.0 -0.0217702591
N  N16  1  0.80150000  0.98810000  0.79340000  1.0 -0.0217702591
N  N17  1  0.23340000  0.00740000  0.12390000  1.0 -0.1002352565
N  N18  1  0.76660000  0.99260000  0.87610000  1.0 -0.1002352565
N  N19  1  0.02740000  0.95470000  0.23860000  1.0 -0.1715499862
N  N20  1  0.97260000  0.04530000  0.76140000  1.0 -0.1715499862
N  N21  1  0.06180000  0.96180000  0.15170000  1.0 -0.0217702591
N  N22  1  0.93820000  0.03820000  0.84830000  1.0 -0.0217702591
N  N23  1  0.98470000  0.98950000  0.12330000  1.0 -0.120224706
N  N24  1  0.01530000  0.01050000  0.87670000  1.0 -0.120224706
N  N25  1  0.10030000  0.87870000  0.99900000  1.0 -0.1097518458
N  N26  1  0.89970000  0.12130000  0.00100000  1.0 -0.1097518458
N  N27  1  0.17430000  0.84970000  0.03000000  1.0 -0.0091100543
N  N28  1  0.82570000  0.15030000  0.97000000  1.0 -0.0091100543
N  N29  1  0.22170000  0.76450000  0.02490000  1.0 -0.2058683738
N  N30  1  0.77830000  0.23550000  0.97510000  1.0 -0.2058683738
N  N31  1  0.23160000  0.82050000  0.26900000  1.0 -0.1541929051
N  N32  1  0.76840000  0.17950000  0.73100000  1.0 -0.1541929051
N  N33  1  0.25260000  0.80980000  0.18910000  1.0 -0.0217702591
N  N34  1  0.74740000  0.19020000  0.81090000  1.0 -0.0217702591
N  N35  1  0.31290000  0.73140000  0.17790000  1.0 -0.1272672611
N  N36  1  0.68710000  0.26860000  0.82210000  1.0 -0.1272672611
N  N37  1  0.35620000  0.88500000  0.99990000  1.0 -0.1272672611
N  N38  1  0.64380000  0.11500000  0.00010000  1.0 -0.1272672611
N  N39  1  0.40560000  0.80110000  0.99010000  1.0 -0.0091100543
N  N40  1  0.59440000  0.19890000  0.00990000  1.0 -0.0091100543
N  N41  1  0.49000000  0.79640000  0.92400000  1.0 -0.1417001441
N  N42  1  0.51000000  0.20360000  0.07600000  1.0 -0.1417001441
N  N43  1  0.64980000  0.56630000  0.84290000  1.0 -0.1715499862
N  N44  1  0.35020000  0.43370000  0.15710000  1.0 -0.1715499862
N  N45  1  0.62020000  0.49500000  0.89870000  1.0 -0.0437954172
N  N46  1  0.37980000  0.50500000  0.10130000  1.0 -0.0437954172
N  N47  1  0.67760000  0.42210000  0.86430000  1.0 -0.1610294401
N  N48  1  0.32240000  0.57790000  0.13570000  1.0 -0.1610294401
O  O1  1  0.66430000  0.64220000  0.97110000  1.0 0.0526049089
O  O2  1  0.33570000  0.35780000  0.02890000  1.0 0.0526049089
O  O3  1  0.58510000  0.50380000  0.09190000  1.0 -0.1610294401
O  O4  1  0.41490000  0.49620000  0.90810000  1.0 -0.1610294401
O  O5  1  0.95860000  0.74190000  0.73530000  1.0 -0.0217702591
O  O6  1  0.04140000  0.25810000  0.26470000  1.0 -0.0091100543
O  O7  1  0.94380000  0.96210000  0.63080000  1.0 -0.7644024446
O  O8  1  0.05620000  0.03790000  0.36920000  1.0 -0.7644024446
O  O9  1  0.45710000  0.63210000  0.96650000  1.0 -0.7487302377
O  O10  1  0.54290000  0.36790000  0.03350000  1.0 -0.7487302377
O  O11  1  0.71550000  0.66870000  0.36100000  1.0 -0.9220351829
O  O12  1  0.75190000  0.54320000  0.29030000  1.0 -0.9311908736
O  O13  1  0.89210000  0.59960000  0.26820000  1.0 -0.9369976177
O  O14  1  0.76520000  0.69540000  0.19520000  1.0 -0.9311908736
O  O15  1  0.59060000  0.81330000  0.41040000  1.0 -0.8401884242
O  O16  1  0.80510000  0.94740000  0.09030000  1.0 -0.6632372394
O  O17  1  0.50890000  0.81450000  0.13400000  1.0 -0.5686201706
O  O18  1  0.77560000  0.30500000  0.47020000  1.0 -0.5623946045
O  O19  1  0.14510000  0.47690000  0.08770000  1.0 -0.5178671136
O  O20  1  0.04870000  0.46720000  0.26600000  1.0 -0.8024653449
O  O21  1  0.68080000  0.55670000  0.62130000  1.0 -0.5686201706
O  O22  1  0.48250000  0.51530000  0.33150000  1.0 -0.5623946045
O  O23  1  0.68060000  0.47420000  0.22380000  1.0 -0.8113841833
O  O24  1  0.72100000  0.88340000  0.42270000  1.0 -0.585861887
O  O25  1  0.87070000  0.75090000  0.33630000  1.0 -0.8401884242
O  O26  1  0.91550000  0.78250000  0.16790000  1.0 -0.8187517478
O  O27  1  0.96900000  0.61360000  0.07440000  1.0 -0.8113841833
O  O28  1  0.73430000  0.85350000  0.26550000  1.0 -0.8401884242
O  O29  1  0.01420000  0.60060000  0.33520000  1.0 -0.8113841833
O  O30  1  0.70580000  0.49070000  0.48260000  1.0 -0.8113841833
O  O31  1  0.89160000  0.42150000  0.38920000  1.0 -0.8283559336
O  O32  1  0.70880000  0.72490000  0.06500000  1.0 -0.8024653449
O  O33  1  0.95170000  0.45860000  0.17060000  1.0 -0.7828300252
O  O34  1  0.84680000  0.55110000  0.46460000  1.0 -0.8113841833
O  O35  1  0.82060000  0.56110000  0.09250000  1.0 -0.8113841833
O  O36  1  0.66440000  0.85460000  0.14350000  1.0 -0.845496799
O  O37  1  0.41020000  0.77800000  0.45810000  1.0 -0.5498088851
O  O38  1  0.58670000  0.64420000  0.21940000  1.0 -0.8187517478
O  O39  1  0.53740000  0.62150000  0.38780000  1.0 -0.8113841833
O  O40  1  0.72130000  0.70740000  0.48970000  1.0 -0.7828300252
O  O41  1  0.63680000  0.44120000  0.39580000  1.0 -0.7853244796
O  O42  1  0.85180000  0.78770000  0.04840000  1.0 -0.8187517478
O  O43  1  0.89530000  0.68020000  0.93580000  1.0 -0.5286579385
O  O44  1  0.82330000  0.37310000  0.29290000  1.0 -0.8113841833
O  O45  1  0.54860000  0.77700000  0.28860000  1.0 -0.8401884242
O  O46  1  0.03880000  0.43240000  0.43860000  1.0 -0.5623946045
O  O47  1  0.06860000  0.75260000  0.22830000  1.0 -0.585861887
O  O48  1  0.85760000  0.37630000  0.11850000  1.0 -0.5686201706
O  O49  1  0.06300000  0.62540000  0.16340000  1.0 -0.8113841833
O  O50  1  0.57160000  0.65330000  0.50860000  1.0 -0.8024653449
O  O51  1  0.28450000  0.33130000  0.63900000  1.0 -0.9220351829
O  O52  1  0.24810000  0.45680000  0.70970000  1.0 -0.9311908736
O  O53  1  0.10790000  0.40040000  0.73180000  1.0 -0.9369976177
O  O54  1  0.23480000  0.30460000  0.80480000  1.0 -0.9311908736
O  O55  1  0.40940000  0.18670000  0.58960000  1.0 -0.8401884242
O  O56  1  0.19490000  0.05260000  0.90970000  1.0 -0.6632372394
O  O57  1  0.49110000  0.18550000  0.86600000  1.0 -0.5686201706
O  O58  1  0.22440000  0.69500000  0.52980000  1.0 -0.5623946045
O  O59  1  0.85490000  0.52310000  0.91230000  1.0 -0.5178671136
O  O60  1  0.95130000  0.53280000  0.73400000  1.0 -0.8024653449
O  O61  1  0.31920000  0.44330000  0.37870000  1.0 -0.5686201706
O  O62  1  0.51750000  0.48470000  0.66850000  1.0 -0.5623946045
O  O63  1  0.31940000  0.52580000  0.77620000  1.0 -0.8113841833
O  O64  1  0.27900000  0.11660000  0.57730000  1.0 -0.585861887
O  O65  1  0.12930000  0.24910000  0.66370000  1.0 -0.8401884242
O  O66  1  0.08450000  0.21750000  0.83210000  1.0 -0.8187517478
O  O67  1  0.03100000  0.38640000  0.92560000  1.0 -0.8113841833
O  O68  1  0.26570000  0.14650000  0.73450000  1.0 -0.8401884242
O  O69  1  0.98580000  0.39940000  0.66480000  1.0 -0.8113841833
O  O70  1  0.29420000  0.50930000  0.51740000  1.0 -0.8113841833
O  O71  1  0.10840000  0.57850000  0.61080000  1.0 -0.8283559336
O  O72  1  0.29120000  0.27510000  0.93500000  1.0 -0.8024653449
O  O73  1  0.04830000  0.54140000  0.82940000  1.0 -0.7828300252
O  O74  1  0.15320000  0.44890000  0.53540000  1.0 -0.8113841833
O  O75  1  0.17940000  0.43890000  0.90750000  1.0 -0.8113841833
O  O76  1  0.33560000  0.14540000  0.85650000  1.0 -0.845496799
O  O77  1  0.58980000  0.22200000  0.54190000  1.0 -0.5498088851
O  O78  1  0.41330000  0.35580000  0.78060000  1.0 -0.8187517478
O  O79  1  0.46260000  0.37850000  0.61220000  1.0 -0.8113841833
O  O80  1  0.27870000  0.29260000  0.51030000  1.0 -0.7828300252
O  O81  1  0.36320000  0.55880000  0.60420000  1.0 -0.7853244796
O  O82  1  0.14820000  0.21230000  0.95160000  1.0 -0.8187517478
O  O83  1  0.10470000  0.31980000  0.06420000  1.0 -0.5286579385
O  O84  1  0.17670000  0.62690000  0.70710000  1.0 -0.8113841833
O  O85  1  0.45140000  0.22300000  0.71140000  1.0 -0.8401884242
O  O86  1  0.96120000  0.56760000  0.56140000  1.0 -0.5623946045
O  O87  1  0.93140000  0.24740000  0.77170000  1.0 -0.5834079637
O  O88  1  0.14240000  0.62370000  0.88150000  1.0 -0.5686201706
O  O89  1  0.93700000  0.37460000  0.83660000  1.0 -0.8113841833
O  O90  1  0.42840000  0.34670000  0.49140000  1.0 -0.8024653449
