# DDEC6 charges by PACMAN v1.1 (https://github.com/mtap-research/PACMAN-charge/)
data_LEDJUA_FSR_pacman
_symmetry_space_group_name_H-M   'P 1'
_cell_length_a   9.54700000
_cell_length_b   11.49900000
_cell_length_c   11.59200000
_cell_angle_alpha   108.94100000
_cell_angle_beta   111.85100000
_cell_angle_gamma   92.17400000
_symmetry_Int_Tables_number   1
_chemical_formula_structural   NdP4H21C9N3O11
_chemical_formula_sum   'Nd2 P8 H42 C18 N6 O22'
_cell_volume   1098.77987001
_cell_formula_units_Z   2
loop_
 _symmetry_equiv_pos_site_id
 _symmetry_equiv_pos_as_xyz
  1  'x, y, z'
loop_
 _atom_site_type_symbol
 _atom_site_label
 _atom_site_symmetry_multiplicity
 _atom_site_fract_x
 _atom_site_fract_y
 _atom_site_fract_z
 _atom_site_occupancy
 _atom_site_charge
Nd  Nd1  1  0.71452000  0.97750000  0.52573000  1.0 2.1047125628
Nd  Nd2  1  0.28548000  0.02250000  0.47427000  1.0 2.1047125628
P  P1  1  0.42050000  0.10576000  0.29406000  1.0 1.269231694
P  P2  1  0.57950000  0.89424000  0.70594000  1.0 1.269231694
P  P3  1  0.38010000  0.74013000  0.28632000  1.0 1.3225159218
P  P4  1  0.61990000  0.25987000  0.71368000  1.0 1.3225159218
P  P5  1  0.13930000  0.03980000  0.72460000  1.0 0.5917189589
P  P6  1  0.86070000  0.96020000  0.27540000  1.0 0.5917189589
P  P7  1  0.05550000  0.94090000  0.64020000  1.0 0.3881233653
P  P8  1  0.94450000  0.05910000  0.35980000  1.0 0.3881233653
H  H1  1  0.56800000  0.35480000  0.51870000  1.0 0.2832432708
H  H2  1  0.43200000  0.64520000  0.48130000  1.0 0.2832432708
H  H3  1  0.36450000  0.51010000  0.07400000  1.0 0.2589895894
H  H4  1  0.63550000  0.48990000  0.92600000  1.0 0.2589895894
H  H5  1  0.93290000  0.93370000  0.81720000  1.0 0.2708236744
H  H6  1  0.06710000  0.06630000  0.18280000  1.0 0.2708236744
H  H7  1  0.62120000  0.25630000  0.33950000  1.0 0.1634501239
H  H8  1  0.37880000  0.74370000  0.66050000  1.0 0.1634501239
H  H9  1  0.46740000  0.28140000  0.24880000  1.0 0.1507426694
H  H10  1  0.53260000  0.71860000  0.75120000  1.0 0.1507426694
H  H11  1  0.23060000  0.66320000  0.05760000  1.0 0.1507426694
H  H12  1  0.76940000  0.33680000  0.94240000  1.0 0.1507426694
H  H13  1  0.37900000  0.75250000  0.08960000  1.0 0.1718441864
H  H14  1  0.62100000  0.24750000  0.91040000  1.0 0.1718441864
H  H15  1  0.30690000  0.33030000  0.43000000  1.0 0.1387982258
H  H16  1  0.69310000  0.66970000  0.57000000  1.0 0.1387982258
H  H17  1  0.31600000  0.41330000  0.34810000  1.0 0.1294928436
H  H18  1  0.68400000  0.58670000  0.65190000  1.0 0.1294928436
H  H19  1  0.57480000  0.49910000  0.37070000  1.0 0.1214616766
H  H20  1  0.42520000  0.50090000  0.62930000  1.0 0.1214616766
H  H21  1  0.72140000  0.46620000  0.46470000  1.0 0.1294928436
H  H22  1  0.27860000  0.53380000  0.53530000  1.0 0.1294928436
H  H23  1  0.41420000  0.60050000  0.89840000  1.0 0.1214616766
H  H24  1  0.58580000  0.39950000  0.10160000  1.0 0.1214616766
H  H25  1  0.25860000  0.52160000  0.86870000  1.0 0.1294928436
H  H26  1  0.74140000  0.47840000  0.13130000  1.0 0.1294928436
H  H27  1  0.59680000  0.60460000  0.23030000  1.0 0.1294928436
H  H28  1  0.40320000  0.39540000  0.76970000  1.0 0.1294928436
H  H29  1  0.62930000  0.65350000  0.12940000  1.0 0.1507426694
H  H30  1  0.37070000  0.34650000  0.87060000  1.0 0.1507426694
H  H31  1  0.10470000  0.84350000  0.74490000  1.0 0.1387982258
H  H32  1  0.89530000  0.15650000  0.25510000  1.0 0.1387982258
H  H33  1  0.24090000  0.93480000  0.87430000  1.0 0.1718441864
H  H34  1  0.75910000  0.06520000  0.12570000  1.0 0.1718441864
H  H35  1  0.02750000  0.79280000  0.91280000  1.0 0.1214616766
H  H36  1  0.97250000  0.20720000  0.08720000  1.0 0.1214616766
H  H37  1  0.15430000  0.90140000  0.03290000  1.0 0.1387982258
H  H38  1  0.84570000  0.09860000  0.96710000  1.0 0.1387982258
H  H39  1  0.16220000  0.12000000  0.02910000  1.0 0.1294928436
H  H40  1  0.83780000  0.88000000  0.97090000  1.0 0.1294928436
H  H41  1  0.04080000  0.14170000  0.90620000  1.0 0.1387982258
H  H42  1  0.95920000  0.85830000  0.09380000  1.0 0.1387982258
C  C1  1  0.51620000  0.26210000  0.32860000  1.0 -0.4150987695
C  C2  1  0.48380000  0.73790000  0.67140000  1.0 -0.4150987695
C  C3  1  0.34080000  0.68480000  0.10880000  1.0 -0.433075277
C  C4  1  0.65920000  0.31520000  0.89120000  1.0 -0.433075277
C  C5  1  0.36790000  0.40050000  0.43140000  1.0 -0.1108682433
C  C6  1  0.63210000  0.59950000  0.56860000  1.0 -0.1108682433
C  C7  1  0.61940000  0.48350000  0.45320000  1.0 -0.1018532681
C  C8  1  0.38060000  0.51650000  0.54680000  1.0 -0.1018532681
C  C9  1  0.36920000  0.53440000  0.91570000  1.0 -0.138781579
C  C10  1  0.63080000  0.46560000  0.08430000  1.0 -0.138781579
C  C11  1  0.57460000  0.58520000  0.13660000  1.0 -0.138781579
C  C12  1  0.42540000  0.41480000  0.86340000  1.0 -0.138781579
C  C13  1  0.13800000  0.92830000  0.80990000  1.0 -0.3381683657
C  C14  1  0.86200000  0.07170000  0.19010000  1.0 -0.3381683657
C  C15  1  0.04910000  0.88110000  0.96710000  1.0 -0.1217495127
C  C16  1  0.95090000  0.11890000  0.03290000  1.0 -0.1217495127
C  C17  1  0.05690000  0.09350000  0.96340000  1.0 -0.1217495127
C  C18  1  0.94310000  0.90650000  0.03660000  1.0 -0.1217495127
N  N1  1  0.52270000  0.37110000  0.44270000  1.0 0.0326670512
N  N2  1  0.47730000  0.62890000  0.55730000  1.0 0.0326670512
N  N3  1  0.41070000  0.57390000  0.06290000  1.0 0.0477700961
N  N4  1  0.58930000  0.42610000  0.93710000  1.0 0.0477700961
N  N5  1  0.03100000  0.95630000  0.88030000  1.0 -0.0026189274
N  N6  1  0.96900000  0.04370000  0.11970000  1.0 -0.0026189274
O  O1  1  0.50980000  0.06540000  0.40940000  1.0 -0.9094675014
O  O2  1  0.49020000  0.93460000  0.59060000  1.0 -0.9094675014
O  O3  1  0.26050000  0.11290000  0.29650000  1.0 -0.8488954732
O  O4  1  0.73950000  0.88710000  0.70350000  1.0 -0.8488954732
O  O5  1  0.41810000  0.03370000  0.15940000  1.0 -0.7276590894
O  O6  1  0.58190000  0.96630000  0.84060000  1.0 -0.7276590894
O  O7  1  0.54920000  0.79210000  0.36140000  1.0 -0.8800652752
O  O8  1  0.45080000  0.20790000  0.63860000  1.0 -0.8800652752
O  O9  1  0.27420000  0.83380000  0.30000000  1.0 -0.8488954732
O  O10  1  0.72580000  0.16620000  0.70000000  1.0 -0.8488954732
O  O11  1  0.33640000  0.62690000  0.31440000  1.0 -0.7911438773
O  O12  1  0.66360000  0.37310000  0.68560000  1.0 -0.7911438773
O  O13  1  0.98670000  0.06460000  0.66890000  1.0 -0.5796971748
O  O14  1  0.01330000  0.93540000  0.33110000  1.0 -0.5796971748
O  O15  1  0.19610000  0.95720000  0.61350000  1.0 -0.6007389555
O  O16  1  0.80390000  0.04280000  0.38650000  1.0 -0.6007389555
O  O17  1  0.24270000  0.16360000  0.83040000  1.0 -0.6526232193
O  O18  1  0.75730000  0.83640000  0.16960000  1.0 -0.6526232193
O  O19  1  0.87020000  0.81310000  0.45360000  1.0 -0.1641171853
O  O20  1  0.12980000  0.18690000  0.54640000  1.0 -0.1681434492
O  O21  1  0.91260000  0.83760000  0.54090000  1.0 -0.1681434492
O  O22  1  0.08740000  0.16240000  0.45910000  1.0 -0.1681434492
