# DDEC6 charges by PACMAN v1.1 (https://github.com/mtap-research/PACMAN-charge/)
data_LEDJOU_FSR_pacman
_symmetry_space_group_name_H-M   'P 1'
_cell_length_a   8.71200000
_cell_length_b   9.85900000
_cell_length_c   23.17600000
_cell_angle_alpha   90.00000000
_cell_angle_beta   90.00000000
_cell_angle_gamma   90.00000000
_symmetry_Int_Tables_number   1
_chemical_formula_structural   GdP3H23C10N4O9
_chemical_formula_sum   'Gd4 P12 H92 C40 N16 O36'
_cell_volume   1990.62390701
_cell_formula_units_Z   4
loop_
 _symmetry_equiv_pos_site_id
 _symmetry_equiv_pos_as_xyz
  1  'x, y, z'
loop_
 _atom_site_type_symbol
 _atom_site_label
 _atom_site_symmetry_multiplicity
 _atom_site_fract_x
 _atom_site_fract_y
 _atom_site_fract_z
 _atom_site_occupancy
 _atom_site_charge
Gd  Gd1  1  0.04409000  0.12998000  0.25469000  1.0 2.124473728
Gd  Gd2  1  0.95591000  0.37002000  0.75469000  1.0 2.124473728
Gd  Gd3  1  0.04409000  0.87002000  0.74531000  1.0 2.124473728
Gd  Gd4  1  0.95591000  0.62998000  0.24531000  1.0 2.124473728
P  P1  1  0.01760000  0.38950000  0.36425000  1.0 1.2922753168
P  P2  1  0.98240000  0.11050000  0.86425000  1.0 1.2922753168
P  P3  1  0.01760000  0.61050000  0.63575000  1.0 1.2922753168
P  P4  1  0.98240000  0.88950000  0.13575000  1.0 1.2922753168
P  P5  1  0.70470000  0.35240000  0.22320000  1.0 1.3298935068
P  P6  1  0.29530000  0.14760000  0.72320000  1.0 1.3298935068
P  P7  1  0.70470000  0.64760000  0.77680000  1.0 1.3298935068
P  P8  1  0.29530000  0.85240000  0.27680000  1.0 1.3298935068
P  P9  1  0.78630000  0.89010000  0.33130000  1.0 0.9072871877
P  P10  1  0.21370000  0.60990000  0.83130000  1.0 0.9163989199
P  P11  1  0.78630000  0.10990000  0.66870000  1.0 0.9072871877
P  P12  1  0.21370000  0.39010000  0.16870000  1.0 0.9045635236
H  H1  1  0.56080000  0.90930000  0.32450000  1.0 0.3484821392
H  H2  1  0.43920000  0.59070000  0.82450000  1.0 0.3484821392
H  H3  1  0.56080000  0.09070000  0.67550000  1.0 0.3484821392
H  H4  1  0.43920000  0.40930000  0.17550000  1.0 0.3484821392
H  H5  1  0.38010000  0.44020000  0.43480000  1.0 0.2324411644
H  H6  1  0.61990000  0.05980000  0.93480000  1.0 0.2324411644
H  H7  1  0.38010000  0.55980000  0.56520000  1.0 0.2324411644
H  H8  1  0.61990000  0.94020000  0.06520000  1.0 0.2324411644
H  H9  1  0.70840000  0.35740000  0.34260000  1.0 0.2639527095
H  H10  1  0.29160000  0.14260000  0.84260000  1.0 0.2639527095
H  H11  1  0.70840000  0.64260000  0.65740000  1.0 0.2639527095
H  H12  1  0.29160000  0.85740000  0.15740000  1.0 0.2639527095
H  H13  1  0.14200000  0.51280000  0.43470000  1.0 0.1500550715
H  H14  1  0.85800000  0.98720000  0.93470000  1.0 0.1500550715
H  H15  1  0.14200000  0.48720000  0.56530000  1.0 0.1500550715
H  H16  1  0.85800000  0.01280000  0.06530000  1.0 0.1500550715
H  H17  1  0.13980000  0.35950000  0.45160000  1.0 0.1325993182
H  H18  1  0.86020000  0.14050000  0.95160000  1.0 0.1325993182
H  H19  1  0.13980000  0.64050000  0.54840000  1.0 0.1325993182
H  H20  1  0.86020000  0.85950000  0.04840000  1.0 0.1325993182
H  H21  1  0.33650000  0.58900000  0.36160000  1.0 0.1426127454
H  H22  1  0.66350000  0.91100000  0.86160000  1.0 0.1426127454
H  H23  1  0.33650000  0.41100000  0.63840000  1.0 0.1426127454
H  H24  1  0.66350000  0.08900000  0.13840000  1.0 0.1426127454
H  H25  1  0.31850000  0.46450000  0.31990000  1.0 0.1325993182
H  H26  1  0.68150000  0.03550000  0.81990000  1.0 0.1325993182
H  H27  1  0.31850000  0.53550000  0.68010000  1.0 0.1325993182
H  H28  1  0.68150000  0.96450000  0.18010000  1.0 0.1325993182
H  H29  1  0.58880000  0.53560000  0.37900000  1.0 0.1193421518
H  H30  1  0.41120000  0.96440000  0.87900000  1.0 0.1193421518
H  H31  1  0.58880000  0.46440000  0.62100000  1.0 0.1193421518
H  H32  1  0.41120000  0.03560000  0.12100000  1.0 0.1193421518
H  H33  1  0.56570000  0.54560000  0.31210000  1.0 0.1500550715
H  H34  1  0.43430000  0.95440000  0.81210000  1.0 0.1500550715
H  H35  1  0.56570000  0.45440000  0.68790000  1.0 0.1500550715
H  H36  1  0.43430000  0.04560000  0.18790000  1.0 0.1500550715
H  H37  1  0.59530000  0.29350000  0.42260000  1.0 0.101674402
H  H38  1  0.40470000  0.20650000  0.92260000  1.0 0.101674402
H  H39  1  0.59530000  0.70650000  0.57740000  1.0 0.101674402
H  H40  1  0.40470000  0.79350000  0.07740000  1.0 0.101674402
H  H41  1  0.58330000  0.17110000  0.37970000  1.0 0.1130465739
H  H42  1  0.41670000  0.32890000  0.87970000  1.0 0.1130465739
H  H43  1  0.58330000  0.82890000  0.62030000  1.0 0.1130465739
H  H44  1  0.41670000  0.67110000  0.12030000  1.0 0.1130465739
H  H45  1  0.32610000  0.22840000  0.35890000  1.0 0.1426127454
H  H46  1  0.67390000  0.27160000  0.85890000  1.0 0.1426127454
H  H47  1  0.32610000  0.77160000  0.64110000  1.0 0.1426127454
H  H48  1  0.67390000  0.72840000  0.14110000  1.0 0.1426127454
H  H49  1  0.34450000  0.20710000  0.42590000  1.0 0.1130465739
H  H50  1  0.65550000  0.29290000  0.92590000  1.0 0.1130465739
H  H51  1  0.34450000  0.79290000  0.57410000  1.0 0.1130465739
H  H52  1  0.65550000  0.70710000  0.07410000  1.0 0.1130465739
H  H53  1  0.46760000  0.32200000  0.26900000  1.0 0.1426127454
H  H54  1  0.53240000  0.17800000  0.76900000  1.0 0.1426127454
H  H55  1  0.46760000  0.67800000  0.73100000  1.0 0.1426127454
H  H56  1  0.53240000  0.82200000  0.23100000  1.0 0.1426127454
H  H57  1  0.57350000  0.19720000  0.28170000  1.0 0.1500550715
H  H58  1  0.42650000  0.30280000  0.78170000  1.0 0.1500550715
H  H59  1  0.57350000  0.80280000  0.71830000  1.0 0.1500550715
H  H60  1  0.42650000  0.69720000  0.21830000  1.0 0.1500550715
H  H61  1  0.79570000  0.74350000  0.40990000  1.0 0.1500550715
H  H62  1  0.20430000  0.75650000  0.90990000  1.0 0.1500550715
H  H63  1  0.79570000  0.25650000  0.59010000  1.0 0.1500550715
H  H64  1  0.20430000  0.24350000  0.09010000  1.0 0.1500550715
H  H65  1  0.96050000  0.79920000  0.39680000  1.0 0.1566958947
H  H66  1  0.03950000  0.70080000  0.89680000  1.0 0.1566958947
H  H67  1  0.96050000  0.20080000  0.60320000  1.0 0.1566958947
H  H68  1  0.03950000  0.29920000  0.10320000  1.0 0.1566958947
H  H69  1  0.98580000  0.83860000  0.50680000  1.0 0.101674402
H  H70  1  0.01420000  0.66140000  0.00680000  1.0 0.101674402
H  H71  1  0.98580000  0.16140000  0.49320000  1.0 0.101674402
H  H72  1  0.01420000  0.33860000  0.99320000  1.0 0.101674402
H  H73  1  0.82230000  0.77030000  0.50730000  1.0 0.0870532783
H  H74  1  0.17770000  0.72970000  0.00730000  1.0 0.0870532783
H  H75  1  0.82230000  0.22970000  0.49270000  1.0 0.0870532783
H  H76  1  0.17770000  0.27030000  0.99270000  1.0 0.0870532783
H  H77  1  0.71580000  0.03700000  0.44530000  1.0 0.1130465739
H  H78  1  0.28420000  0.46300000  0.94530000  1.0 0.1130465739
H  H79  1  0.71580000  0.96300000  0.55470000  1.0 0.1130465739
H  H80  1  0.28420000  0.53700000  0.05470000  1.0 0.1130465739
H  H81  1  0.85280000  0.09090000  0.40790000  1.0 0.1426127454
H  H82  1  0.14720000  0.40910000  0.90790000  1.0 0.1426127454
H  H83  1  0.85280000  0.90910000  0.59210000  1.0 0.1426127454
H  H84  1  0.14720000  0.59090000  0.09210000  1.0 0.1426127454
H  H85  1  0.12550000  0.60400000  0.08960000  1.0 0.1426127454
H  H86  1  0.87450000  0.89600000  0.58960000  1.0 0.1426127454
H  H87  1  0.12550000  0.39600000  0.91040000  1.0 0.1426127454
H  H88  1  0.87450000  0.10400000  0.41040000  1.0 0.1426127454
H  H89  1  0.97950000  0.54710000  0.05810000  1.0 0.1193421518
H  H90  1  0.02050000  0.95290000  0.55810000  1.0 0.1193421518
H  H91  1  0.97950000  0.45290000  0.94190000  1.0 0.1193421518
H  H92  1  0.02050000  0.04710000  0.44190000  1.0 0.1193421518
C  C1  1  0.15920000  0.42190000  0.42010000  1.0 -0.4738012182
C  C2  1  0.84080000  0.07810000  0.92010000  1.0 -0.4738012182
C  C3  1  0.15920000  0.57810000  0.57990000  1.0 -0.4738012182
C  C4  1  0.84080000  0.92190000  0.07990000  1.0 -0.4751562404
C  C5  1  0.36920000  0.49650000  0.35460000  1.0 -0.128758155
C  C6  1  0.63080000  0.00350000  0.85460000  1.0 -0.128758155
C  C7  1  0.36920000  0.50350000  0.64540000  1.0 -0.128758155
C  C8  1  0.63080000  0.99650000  0.14540000  1.0 -0.128758155
C  C9  1  0.54000000  0.49280000  0.34610000  1.0 -0.128758155
C  C10  1  0.46000000  0.00720000  0.84610000  1.0 -0.128758155
C  C11  1  0.54000000  0.50720000  0.65390000  1.0 -0.128758155
C  C12  1  0.46000000  0.99280000  0.15390000  1.0 -0.128758155
C  C13  1  0.54920000  0.26330000  0.38670000  1.0 -0.1495591851
C  C14  1  0.45080000  0.23670000  0.88670000  1.0 -0.1495591851
C  C15  1  0.54920000  0.73670000  0.61330000  1.0 -0.1495591851
C  C16  1  0.45080000  0.76330000  0.11330000  1.0 -0.1495591851
C  C17  1  0.37440000  0.26350000  0.39350000  1.0 -0.1495591851
C  C18  1  0.62560000  0.23650000  0.89350000  1.0 -0.1495591851
C  C19  1  0.37440000  0.73650000  0.60650000  1.0 -0.1495591851
C  C20  1  0.62560000  0.76350000  0.10650000  1.0 -0.1495591851
C  C21  1  0.57080000  0.29550000  0.27990000  1.0 -0.4439686762
C  C22  1  0.42920000  0.20450000  0.77990000  1.0 -0.4439686762
C  C23  1  0.57080000  0.70450000  0.72010000  1.0 -0.4439686762
C  C24  1  0.42920000  0.79550000  0.22010000  1.0 -0.4439686762
C  C25  1  0.85340000  0.82470000  0.40040000  1.0 -0.2992681863
C  C26  1  0.14660000  0.67530000  0.90040000  1.0 -0.2992681863
C  C27  1  0.85340000  0.17530000  0.59960000  1.0 -0.2992681863
C  C28  1  0.14660000  0.32470000  0.09960000  1.0 -0.2992681863
C  C29  1  0.87630000  0.85620000  0.50500000  1.0 -0.090530839
C  C30  1  0.12370000  0.64380000  0.00500000  1.0 -0.090530839
C  C31  1  0.87630000  0.14380000  0.49500000  1.0 -0.090530839
C  C32  1  0.12370000  0.35620000  0.99500000  1.0 -0.090530839
C  C33  1  0.82600000  0.04800000  0.44430000  1.0 -0.0349598566
C  C34  1  0.17400000  0.45200000  0.94430000  1.0 -0.0357908944
C  C35  1  0.82600000  0.95200000  0.55570000  1.0 -0.0349598566
C  C36  1  0.17400000  0.54800000  0.05570000  1.0 -0.0357908944
C  C37  1  0.09000000  0.55900000  0.05490000  1.0 -0.090530839
C  C38  1  0.91000000  0.94100000  0.55490000  1.0 -0.090530839
C  C39  1  0.09000000  0.44100000  0.94510000  1.0 -0.090530839
C  C40  1  0.91000000  0.05900000  0.44510000  1.0 -0.090530839
N  N1  1  0.32520000  0.41010000  0.40390000  1.0 0.0488155035
N  N2  1  0.67480000  0.08990000  0.90390000  1.0 0.0488155035
N  N3  1  0.32520000  0.58990000  0.59610000  1.0 0.0488155035
N  N4  1  0.67480000  0.91010000  0.09610000  1.0 0.0488155035
N  N5  1  0.60460000  0.35120000  0.33910000  1.0 0.0361999942
N  N6  1  0.39540000  0.14880000  0.83910000  1.0 0.0361999942
N  N7  1  0.60460000  0.64880000  0.66090000  1.0 0.0361999942
N  N8  1  0.39540000  0.85120000  0.16090000  1.0 0.0361999942
N  N9  1  0.83700000  0.92740000  0.45020000  1.0 0.1500550715
N  N10  1  0.16300000  0.57260000  0.95020000  1.0 0.1500550715
N  N11  1  0.83700000  0.07260000  0.54980000  1.0 0.1500550715
N  N12  1  0.16300000  0.42740000  0.04980000  1.0 0.1500550715
N  N13  1  0.09900000  0.41170000  0.05280000  1.0 0.1691728977
N  N14  1  0.90100000  0.08830000  0.55280000  1.0 0.1691728977
N  N15  1  0.09900000  0.58830000  0.94720000  1.0 0.1691728977
N  N16  1  0.90100000  0.91170000  0.44720000  1.0 0.1691728977
O  O1  1  0.07130000  0.26050000  0.33470000  1.0 -0.9028859364
O  O2  1  0.92870000  0.23950000  0.83470000  1.0 -0.9055716621
O  O3  1  0.07130000  0.73950000  0.66530000  1.0 -0.9055716621
O  O4  1  0.92870000  0.76050000  0.16530000  1.0 -0.9055716621
O  O5  1  0.86710000  0.37500000  0.39650000  1.0 -0.7991144733
O  O6  1  0.13290000  0.12500000  0.89650000  1.0 -0.7991144733
O  O7  1  0.86710000  0.62500000  0.60350000  1.0 -0.7991144733
O  O8  1  0.13290000  0.87500000  0.10350000  1.0 -0.7991144733
O  O9  1  0.01970000  0.51130000  0.32520000  1.0 -0.9028859364
O  O10  1  0.98030000  0.98870000  0.82520000  1.0 -0.9028859364
O  O11  1  0.01970000  0.48870000  0.67480000  1.0 -0.9028859364
O  O12  1  0.98030000  0.01130000  0.17480000  1.0 -0.9028859364
O  O13  1  0.84650000  0.26360000  0.22820000  1.0 -0.9243139701
O  O14  1  0.15350000  0.23640000  0.72820000  1.0 -0.9243139701
O  O15  1  0.84650000  0.73640000  0.77180000  1.0 -0.9243139701
O  O16  1  0.15350000  0.76360000  0.27180000  1.0 -0.9243139701
O  O17  1  0.73940000  0.50130000  0.23240000  1.0 -0.9028859364
O  O18  1  0.26060000  0.99870000  0.73240000  1.0 -0.9028859364
O  O19  1  0.73940000  0.49870000  0.76760000  1.0 -0.9028859364
O  O20  1  0.26060000  0.00130000  0.26760000  1.0 -0.9028859364
O  O21  1  0.61730000  0.32320000  0.16730000  1.0 -0.7860967742
O  O22  1  0.38270000  0.17680000  0.66730000  1.0 -0.7860967742
O  O23  1  0.61730000  0.67680000  0.83270000  1.0 -0.7860967742
O  O24  1  0.38270000  0.82320000  0.33270000  1.0 -0.7860967742
O  O25  1  0.89230000  0.00310000  0.31270000  1.0 -0.8514127808
O  O26  1  0.10770000  0.49690000  0.81270000  1.0 -0.8514127808
O  O27  1  0.89230000  0.99690000  0.68730000  1.0 -0.8514127808
O  O28  1  0.10770000  0.50310000  0.18730000  1.0 -0.8514127808
O  O29  1  0.78260000  0.76680000  0.29270000  1.0 -0.8306688892
O  O30  1  0.21740000  0.73320000  0.79270000  1.0 -0.8306688892
O  O31  1  0.78260000  0.23320000  0.70730000  1.0 -0.8306688892
O  O32  1  0.21740000  0.26680000  0.20730000  1.0 -0.8306688892
O  O33  1  0.62530000  0.95060000  0.34330000  1.0 -0.6153233277
O  O34  1  0.37470000  0.54940000  0.84330000  1.0 -0.6153233277
O  O35  1  0.62530000  0.04940000  0.65670000  1.0 -0.6153233277
O  O36  1  0.37470000  0.45060000  0.15670000  1.0 -0.6153233277
