# DDEC6 charges by PACMAN v1.1 (https://github.com/mtap-research/PACMAN-charge/)
data_LEDLEN_ASR_pacman
_symmetry_space_group_name_H-M   'P 1'
_cell_length_a   15.86800000
_cell_length_b   15.86800000
_cell_length_c   21.28000000
_cell_angle_alpha   85.27140000
_cell_angle_beta   94.72860000
_cell_angle_gamma   119.39500000
_symmetry_Int_Tables_number   1
_chemical_formula_structural   Cu2H39C37N3O14
_chemical_formula_sum   'Cu8 H156 C148 N12 O56'
_cell_volume   4647.00749660
_cell_formula_units_Z   4
loop_
 _symmetry_equiv_pos_site_id
 _symmetry_equiv_pos_as_xyz
  1  'x, y, z'
loop_
 _atom_site_type_symbol
 _atom_site_label
 _atom_site_symmetry_multiplicity
 _atom_site_fract_x
 _atom_site_fract_y
 _atom_site_fract_z
 _atom_site_occupancy
 _atom_site_charge
Cu  Cu1  1  0.49676000  0.50994000  0.68693000  1.0 0.7889114011
Cu  Cu2  1  0.50994000  0.49676000  0.81307000  1.0 0.7889114011
Cu  Cu3  1  0.50324000  0.49006000  0.31307000  1.0 0.7889114011
Cu  Cu4  1  0.49006000  0.50324000  0.18693000  1.0 0.7889114011
Cu  Cu5  1  0.46144000  0.05832000  0.99413000  1.0 0.7638042558
Cu  Cu6  1  0.05832000  0.46144000  0.50587000  1.0 0.7638042558
Cu  Cu7  1  0.53856000  0.94168000  0.00587000  1.0 0.7638042558
Cu  Cu8  1  0.94168000  0.53856000  0.49413000  1.0 0.7638042558
H  H1  1  0.47720000  0.53240000  0.54160000  1.0 0.2217960793
H  H2  1  0.53240000  0.47720000  0.95840000  1.0 0.2217960793
H  H3  1  0.52280000  0.46760000  0.45840000  1.0 0.2217960793
H  H4  1  0.46760000  0.52280000  0.04160000  1.0 0.2217960793
H  H5  1  0.51760000  0.47360000  0.53670000  1.0 0.1179620789
H  H6  1  0.47360000  0.51760000  0.96330000  1.0 0.1179620789
H  H7  1  0.48240000  0.52640000  0.46330000  1.0 0.1179620789
H  H8  1  0.52640000  0.48240000  0.03670000  1.0 0.1179620789
H  H9  1  0.81350000  0.59910000  0.84050000  1.0 0.1179620789
H  H10  1  0.59910000  0.81350000  0.65950000  1.0 0.1179620789
H  H11  1  0.18650000  0.40090000  0.15950000  1.0 0.1179620789
H  H12  1  0.40090000  0.18650000  0.34050000  1.0 0.1179620789
H  H13  1  0.97448000  0.64112000  0.84550000  1.0 0.129697895
H  H14  1  0.64112000  0.97448000  0.65450000  1.0 0.129697895
H  H15  1  0.02552000  0.35888000  0.15450000  1.0 0.129697895
H  H16  1  0.35888000  0.02552000  0.34550000  1.0 0.129697895
H  H17  1  0.95420000  0.58580000  0.66230000  1.0 0.1381063208
H  H18  1  0.58580000  0.95420000  0.83770000  1.0 0.1381063208
H  H19  1  0.04580000  0.41420000  0.33770000  1.0 0.1381063208
H  H20  1  0.41420000  0.04580000  0.16230000  1.0 0.1381063208
H  H21  1  0.79300000  0.54740000  0.65580000  1.0 0.110992719
H  H22  1  0.54740000  0.79300000  0.84420000  1.0 0.110992719
H  H23  1  0.20700000  0.45260000  0.34420000  1.0 0.110992719
H  H24  1  0.45260000  0.20700000  0.15580000  1.0 0.110992719
H  H25  1  0.23390000  0.90670000  0.85370000  1.0 0.110992719
H  H26  1  0.90670000  0.23390000  0.64630000  1.0 0.110992719
H  H27  1  0.76610000  0.09330000  0.14630000  1.0 0.110992719
H  H28  1  0.09330000  0.76610000  0.35370000  1.0 0.110992719
H  H29  1  0.10170000  0.79790000  0.79240000  1.0 0.129697895
H  H30  1  0.79790000  0.10170000  0.70760000  1.0 0.129697895
H  H31  1  0.89830000  0.20210000  0.20760000  1.0 0.129697895
H  H32  1  0.20210000  0.89830000  0.29240000  1.0 0.129697895
H  H33  1  0.21630000  0.61850000  0.80310000  1.0 0.129697895
H  H34  1  0.61850000  0.21630000  0.69690000  1.0 0.129697895
H  H35  1  0.78370000  0.38150000  0.19690000  1.0 0.129697895
H  H36  1  0.38150000  0.78370000  0.30310000  1.0 0.129697895
H  H37  1  0.34660000  0.72840000  0.86730000  1.0 0.110992719
H  H38  1  0.72840000  0.34660000  0.63270000  1.0 0.110992719
H  H39  1  0.65340000  0.27160000  0.13270000  1.0 0.110992719
H  H40  1  0.27160000  0.65340000  0.36730000  1.0 0.110992719
H  H41  1  0.66450000  0.28350000  0.86510000  1.0 0.110992719
H  H42  1  0.28350000  0.66450000  0.63490000  1.0 0.110992719
H  H43  1  0.33550000  0.71650000  0.13490000  1.0 0.110992719
H  H44  1  0.71650000  0.33550000  0.36510000  1.0 0.110992719
H  H45  1  0.79550000  0.39830000  0.80970000  1.0 0.129697895
H  H46  1  0.39830000  0.79550000  0.69030000  1.0 0.129697895
H  H47  1  0.20450000  0.60170000  0.19030000  1.0 0.129697895
H  H48  1  0.60170000  0.20450000  0.30970000  1.0 0.129697895
H  H49  1  0.91810000  0.22630000  0.83420000  1.0 0.129697895
H  H50  1  0.22630000  0.91810000  0.66580000  1.0 0.129697895
H  H51  1  0.08190000  0.77370000  0.16580000  1.0 0.129697895
H  H52  1  0.77370000  0.08190000  0.33420000  1.0 0.129697895
H  H53  1  0.78510000  0.11190000  0.89070000  1.0 0.1179620789
H  H54  1  0.11190000  0.78510000  0.60930000  1.0 0.1179620789
H  H55  1  0.21490000  0.88810000  0.10930000  1.0 0.1179620789
H  H56  1  0.88810000  0.21490000  0.39070000  1.0 0.1179620789
H  H57  1  0.21260000  0.40380000  0.86480000  1.0 0.1179620789
H  H58  1  0.40380000  0.21260000  0.63520000  1.0 0.1179620789
H  H59  1  0.78740000  0.59620000  0.13520000  1.0 0.1179620789
H  H60  1  0.59620000  0.78740000  0.36480000  1.0 0.1179620789
H  H61  1  0.06000000  0.38180000  0.87310000  1.0 0.1381063208
H  H62  1  0.38180000  0.06000000  0.62690000  1.0 0.1381063208
H  H63  1  0.94000000  0.61820000  0.12690000  1.0 0.1381063208
H  H64  1  0.61820000  0.94000000  0.37310000  1.0 0.1381063208
H  H65  1  0.04110000  0.43710000  0.68600000  1.0 0.1381063208
H  H66  1  0.43710000  0.04110000  0.81400000  1.0 0.1381063208
H  H67  1  0.95890000  0.56290000  0.31400000  1.0 0.1381063208
H  H68  1  0.56290000  0.95890000  0.18600000  1.0 0.1381063208
H  H69  1  0.19900000  0.46400000  0.67810000  1.0 0.1179620789
H  H70  1  0.46400000  0.19900000  0.82190000  1.0 0.1179620789
H  H71  1  0.80100000  0.53600000  0.32190000  1.0 0.1179620789
H  H72  1  0.53600000  0.80100000  0.17810000  1.0 0.1179620789
H  H73  1  0.36100000  0.14440000  0.05890000  1.0 0.1875977766
H  H74  1  0.14440000  0.36100000  0.44110000  1.0 0.1875977766
H  H75  1  0.63900000  0.85560000  0.94110000  1.0 0.1875977766
H  H76  1  0.85560000  0.63900000  0.55890000  1.0 0.1875977766
H  H77  1  0.28290000  0.21590000  0.91180000  1.0 0.0986333354
H  H78  1  0.21590000  0.28290000  0.58820000  1.0 0.0986333354
H  H79  1  0.71710000  0.78410000  0.08820000  1.0 0.0986333354
H  H80  1  0.78410000  0.71710000  0.41180000  1.0 0.0986333354
H  H81  1  0.27020000  0.29520000  0.94250000  1.0 0.0800528664
H  H82  1  0.29520000  0.27020000  0.55750000  1.0 0.0800528664
H  H83  1  0.72980000  0.70480000  0.05750000  1.0 0.0800528664
H  H84  1  0.70480000  0.72980000  0.44250000  1.0 0.0800528664
H  H85  1  0.37410000  0.31410000  0.92950000  1.0 0.0910490418
H  H86  1  0.31410000  0.37410000  0.57050000  1.0 0.0910490418
H  H87  1  0.62590000  0.68590000  0.07050000  1.0 0.0910490418
H  H88  1  0.68590000  0.62590000  0.42950000  1.0 0.0910490418
H  H89  1  0.32220000  0.29220000  0.08130000  1.0 0.129697895
H  H90  1  0.29220000  0.32220000  0.41870000  1.0 0.129697895
H  H91  1  0.67780000  0.70780000  0.91870000  1.0 0.129697895
H  H92  1  0.70780000  0.67780000  0.58130000  1.0 0.129697895
H  H93  1  0.22840000  0.26460000  0.03800000  1.0 0.0910490418
H  H94  1  0.26460000  0.22840000  0.46200000  1.0 0.0910490418
H  H95  1  0.77160000  0.73540000  0.96200000  1.0 0.0910490418
H  H96  1  0.73540000  0.77160000  0.53800000  1.0 0.0986333354
H  H97  1  0.23820000  0.18460000  0.08130000  1.0 0.1179620789
H  H98  1  0.18460000  0.23820000  0.41870000  1.0 0.1179620789
H  H99  1  0.76180000  0.81540000  0.91870000  1.0 0.1179620789
H  H100  1  0.81540000  0.76180000  0.58130000  1.0 0.1179620789
H  H101  1  0.43800000  0.62940000  0.60310000  1.0 0.1381063208
H  H102  1  0.62940000  0.43800000  0.89690000  1.0 0.1381063208
H  H103  1  0.56200000  0.37060000  0.39690000  1.0 0.1381063208
H  H104  1  0.37060000  0.56200000  0.10310000  1.0 0.1381063208
H  H105  1  0.34490000  0.53830000  0.44220000  1.0 0.1179620789
H  H106  1  0.53830000  0.34490000  0.05780000  1.0 0.1179620789
H  H107  1  0.65510000  0.46170000  0.55780000  1.0 0.110992719
H  H108  1  0.46170000  0.65510000  0.94220000  1.0 0.1179620789
H  H109  1  0.45350000  0.61070000  0.42860000  1.0 0.129697895
H  H110  1  0.61070000  0.45350000  0.07140000  1.0 0.129697895
H  H111  1  0.54650000  0.38930000  0.57140000  1.0 0.129697895
H  H112  1  0.38930000  0.54650000  0.92860000  1.0 0.129697895
H  H113  1  0.42690000  0.51750000  0.47230000  1.0 0.0910490418
H  H114  1  0.51750000  0.42690000  0.02770000  1.0 0.0910490418
H  H115  1  0.57310000  0.48250000  0.52770000  1.0 0.0910490418
H  H116  1  0.48250000  0.57310000  0.97230000  1.0 0.0910490418
H  H117  1  0.32960000  0.67440000  0.47640000  1.0 0.129697895
H  H118  1  0.67440000  0.32960000  0.02360000  1.0 0.129697895
H  H119  1  0.67040000  0.32560000  0.52360000  1.0 0.129697895
H  H120  1  0.32560000  0.67040000  0.97640000  1.0 0.129697895
H  H121  1  0.37070000  0.70930000  0.54450000  1.0 0.1179620789
H  H122  1  0.70930000  0.37070000  0.95550000  1.0 0.1179620789
H  H123  1  0.62930000  0.29070000  0.45550000  1.0 0.1179620789
H  H124  1  0.29070000  0.62930000  0.04450000  1.0 0.1179620789
H  H125  1  0.43710000  0.75610000  0.48700000  1.0 0.129697895
H  H126  1  0.75610000  0.43710000  0.01300000  1.0 0.129697895
H  H127  1  0.56290000  0.24390000  0.51300000  1.0 0.129697895
H  H128  1  0.24390000  0.56290000  0.98700000  1.0 0.129697895
H  H129  1  0.10360000  0.34900000  0.59010000  1.0 0.1875977766
H  H130  1  0.34900000  0.10360000  0.90990000  1.0 0.1875977766
H  H131  1  0.89640000  0.65100000  0.40990000  1.0 0.1875977766
H  H132  1  0.65100000  0.89640000  0.09010000  1.0 0.1875977766
H  H133  1  0.23430000  0.31270000  0.47970000  1.0 0.110992719
H  H134  1  0.31270000  0.23430000  0.02030000  1.0 0.110992719
H  H135  1  0.76570000  0.68730000  0.52030000  1.0 0.110992719
H  H136  1  0.68730000  0.76570000  0.97970000  1.0 0.110992719
H  H137  1  0.32110000  0.39670000  0.51590000  1.0 0.0910490418
H  H138  1  0.39670000  0.32110000  0.98410000  1.0 0.0910490418
H  H139  1  0.67890000  0.60330000  0.48410000  1.0 0.0910490418
H  H140  1  0.60330000  0.67890000  0.01590000  1.0 0.0910490418
H  H141  1  0.29850000  0.28930000  0.53020000  1.0 0.0800528664
H  H142  1  0.28930000  0.29850000  0.96980000  1.0 0.0800528664
H  H143  1  0.70150000  0.71070000  0.46980000  1.0 0.0800528664
H  H144  1  0.71070000  0.70150000  0.03020000  1.0 0.0800528664
H  H145  1  0.24860000  0.23600000  0.62170000  1.0 0.0910490418
H  H146  1  0.23600000  0.24860000  0.87830000  1.0 0.0910490418
H  H147  1  0.75140000  0.76400000  0.37830000  1.0 0.0910490418
H  H148  1  0.76400000  0.75140000  0.12170000  1.0 0.0910490418
H  H149  1  0.24680000  0.31540000  0.66000000  1.0 0.1179620789
H  H150  1  0.31540000  0.24680000  0.84000000  1.0 0.1179620789
H  H151  1  0.75320000  0.68460000  0.34000000  1.0 0.1179620789
H  H152  1  0.68460000  0.75320000  0.16000000  1.0 0.1179620789
H  H153  1  0.14970000  0.22310000  0.64140000  1.0 0.0986333354
H  H154  1  0.22310000  0.14970000  0.85860000  1.0 0.0986333354
H  H155  1  0.85030000  0.77690000  0.35860000  1.0 0.0986333354
H  H156  1  0.77690000  0.85030000  0.14140000  1.0 0.0986333354
C  C1  1  0.68190000  0.54970000  0.74510000  1.0 0.5658516649
C  C2  1  0.54970000  0.68190000  0.75490000  1.0 0.5658516649
C  C3  1  0.31810000  0.45030000  0.25490000  1.0 0.5658516649
C  C4  1  0.45030000  0.31810000  0.24510000  1.0 0.5658516649
C  C5  1  0.78470000  0.57290000  0.74800000  1.0 -0.0585126734
C  C6  1  0.57290000  0.78470000  0.75200000  1.0 -0.0585126734
C  C7  1  0.21530000  0.42710000  0.25200000  1.0 -0.0585126734
C  C8  1  0.42710000  0.21530000  0.24800000  1.0 -0.0585126734
C  C9  1  0.84160000  0.59820000  0.80410000  1.0 -0.0868232895
C  C10  1  0.59820000  0.84160000  0.69590000  1.0 -0.0868232895
C  C11  1  0.15840000  0.40180000  0.19590000  1.0 -0.0868232895
C  C12  1  0.40180000  0.15840000  0.30410000  1.0 -0.0868232895
C  C13  1  0.93770000  0.62190000  0.80780000  1.0 -0.2303161409
C  C14  1  0.62190000  0.93770000  0.69220000  1.0 -0.2303161409
C  C15  1  0.06230000  0.37810000  0.19220000  1.0 -0.2303161409
C  C16  1  0.37810000  0.06230000  0.30780000  1.0 -0.2303161409
C  C17  1  0.97940000  0.61660000  0.75300000  1.0 0.2683880243
C  C18  1  0.61660000  0.97940000  0.74700000  1.0 0.2683880243
C  C19  1  0.02060000  0.38340000  0.24700000  1.0 0.2683880243
C  C20  1  0.38340000  0.02060000  0.25300000  1.0 0.2683880243
C  C21  1  0.92590000  0.58930000  0.69780000  1.0 -0.2303161409
C  C22  1  0.58930000  0.92590000  0.80220000  1.0 -0.2303161409
C  C23  1  0.07410000  0.41070000  0.30220000  1.0 -0.2303161409
C  C24  1  0.41070000  0.07410000  0.19780000  1.0 -0.2303161409
C  C25  1  0.82900000  0.56660000  0.69370000  1.0 -0.1126435038
C  C26  1  0.56660000  0.82900000  0.80630000  1.0 -0.1126435038
C  C27  1  0.17100000  0.43340000  0.30630000  1.0 -0.1126435038
C  C28  1  0.43340000  0.17100000  0.19370000  1.0 -0.1126435038
C  C29  1  0.38110000  0.89330000  0.91450000  1.0 0.5634011615
C  C30  1  0.89330000  0.38110000  0.58550000  1.0 0.5634011615
C  C31  1  0.61890000  0.10670000  0.08550000  1.0 0.5634011615
C  C32  1  0.10670000  0.61890000  0.41450000  1.0 0.5634011615
C  C33  1  0.30350000  0.82670000  0.87040000  1.0 -0.0504631444
C  C34  1  0.82670000  0.30350000  0.62960000  1.0 -0.0504631444
C  C35  1  0.69650000  0.17330000  0.12960000  1.0 -0.0504631444
C  C36  1  0.17330000  0.69650000  0.37040000  1.0 -0.0504631444
C  C37  1  0.22950000  0.84810000  0.84490000  1.0 -0.071551339
C  C38  1  0.84810000  0.22950000  0.65510000  1.0 -0.071551339
C  C39  1  0.77050000  0.15190000  0.15510000  1.0 -0.071551339
C  C40  1  0.15190000  0.77050000  0.34490000  1.0 -0.071551339
C  C41  1  0.15060000  0.78400000  0.80720000  1.0 -0.2303161409
C  C42  1  0.78400000  0.15060000  0.69280000  1.0 -0.2303161409
C  C43  1  0.84940000  0.21600000  0.19280000  1.0 -0.2303161409
C  C44  1  0.21600000  0.84940000  0.30720000  1.0 -0.2303161409
C  C45  1  0.14790000  0.69950000  0.79260000  1.0 0.2486401189
C  C46  1  0.69950000  0.14790000  0.70740000  1.0 0.2486401189
C  C47  1  0.85210000  0.30050000  0.20740000  1.0 0.2486401189
C  C48  1  0.30050000  0.85210000  0.29260000  1.0 0.2486401189
C  C49  1  0.21950000  0.67570000  0.81390000  1.0 -0.2119836945
C  C50  1  0.67570000  0.21950000  0.68610000  1.0 -0.2119836945
C  C51  1  0.78050000  0.32430000  0.18610000  1.0 -0.2119836945
C  C52  1  0.32430000  0.78050000  0.31390000  1.0 -0.2119836945
C  C53  1  0.29770000  0.74250000  0.85300000  1.0 -0.0785281042
C  C54  1  0.74250000  0.29770000  0.64700000  1.0 -0.0785281042
C  C55  1  0.70230000  0.25750000  0.14700000  1.0 -0.0785281042
C  C56  1  0.25750000  0.70230000  0.35300000  1.0 -0.0785281042
C  C57  1  0.62890000  0.11330000  0.92360000  1.0 0.5658516649
C  C58  1  0.11330000  0.62890000  0.57640000  1.0 0.5658516649
C  C59  1  0.37110000  0.88670000  0.07640000  1.0 0.5658516649
C  C60  1  0.88670000  0.37110000  0.42360000  1.0 0.5658516649
C  C61  1  0.71300000  0.18560000  0.88370000  1.0 -0.0305899101
C  C62  1  0.18560000  0.71300000  0.61630000  1.0 -0.0305899101
C  C63  1  0.28700000  0.81440000  0.11630000  1.0 -0.0305899101
C  C64  1  0.81440000  0.28700000  0.38370000  1.0 -0.0305899101
C  C65  1  0.71570000  0.27250000  0.85900000  1.0 -0.0868232895
C  C66  1  0.27250000  0.71570000  0.64100000  1.0 -0.0868232895
C  C67  1  0.28430000  0.72750000  0.14100000  1.0 -0.0868232895
C  C68  1  0.72750000  0.28430000  0.35900000  1.0 -0.0868232895
C  C69  1  0.79400000  0.34140000  0.82590000  1.0 -0.2119836945
C  C70  1  0.34140000  0.79400000  0.67410000  1.0 -0.2119836945
C  C71  1  0.20600000  0.65860000  0.17410000  1.0 -0.2119836945
C  C72  1  0.65860000  0.20600000  0.32590000  1.0 -0.2119836945
C  C73  1  0.87060000  0.32440000  0.81700000  1.0 0.2613656286
C  C74  1  0.32440000  0.87060000  0.68300000  1.0 0.2613656286
C  C75  1  0.12940000  0.67560000  0.18300000  1.0 0.2613656286
C  C76  1  0.67560000  0.12940000  0.31700000  1.0 0.2613656286
C  C77  1  0.86770000  0.23810000  0.84070000  1.0 -0.2371512961
C  C78  1  0.23810000  0.86770000  0.65930000  1.0 -0.2371512961
C  C79  1  0.13230000  0.76190000  0.15930000  1.0 -0.2371512961
C  C80  1  0.76190000  0.13230000  0.34070000  1.0 -0.2371512961
C  C81  1  0.78720000  0.16920000  0.87460000  1.0 -0.0785281042
C  C82  1  0.16920000  0.78720000  0.62540000  1.0 -0.0785281042
C  C83  1  0.21280000  0.83080000  0.12540000  1.0 -0.0785281042
C  C84  1  0.83080000  0.21280000  0.37460000  1.0 -0.0785281042
C  C85  1  0.32710000  0.45870000  0.76700000  1.0 0.5437141348
C  C86  1  0.45870000  0.32710000  0.73300000  1.0 0.5437141348
C  C87  1  0.67290000  0.54130000  0.23300000  1.0 0.5437141348
C  C88  1  0.54130000  0.67290000  0.26700000  1.0 0.5437141348
C  C89  1  0.22410000  0.43950000  0.77120000  1.0 -0.0305899101
C  C90  1  0.43950000  0.22410000  0.72880000  1.0 -0.0305899101
C  C91  1  0.77590000  0.56050000  0.22880000  1.0 -0.0305899101
C  C92  1  0.56050000  0.77590000  0.27120000  1.0 -0.0305899101
C  C93  1  0.17920000  0.41200000  0.82900000  1.0 -0.1126435038
C  C94  1  0.41200000  0.17920000  0.67100000  1.0 -0.1126435038
C  C95  1  0.82080000  0.58800000  0.17100000  1.0 -0.1126435038
C  C96  1  0.58800000  0.82080000  0.32900000  1.0 -0.1126435038
C  C97  1  0.08750000  0.39670000  0.83400000  1.0 -0.2247783553
C  C98  1  0.39670000  0.08750000  0.66600000  1.0 -0.2247783553
C  C99  1  0.91250000  0.60330000  0.16600000  1.0 -0.2247783553
C  C100  1  0.60330000  0.91250000  0.33400000  1.0 -0.2247783553
C  C101  1  0.03540000  0.40400000  0.77940000  1.0 0.2486401189
C  C102  1  0.40400000  0.03540000  0.72060000  1.0 0.2486401189
C  C103  1  0.96460000  0.59600000  0.22060000  1.0 0.2486401189
C  C104  1  0.59600000  0.96460000  0.27940000  1.0 0.2486401189
C  C105  1  0.07590000  0.43050000  0.72160000  1.0 -0.2119836945
C  C106  1  0.43050000  0.07590000  0.77840000  1.0 -0.2119836945
C  C107  1  0.92410000  0.56950000  0.27840000  1.0 -0.2119836945
C  C108  1  0.56950000  0.92410000  0.22160000  1.0 -0.2119836945
C  C109  1  0.17120000  0.44740000  0.71720000  1.0 -0.1126435038
C  C110  1  0.44740000  0.17120000  0.78280000  1.0 -0.1126435038
C  C111  1  0.82880000  0.55260000  0.28280000  1.0 -0.1126435038
C  C112  1  0.55260000  0.82880000  0.21720000  1.0 -0.1126435038
C  C113  1  0.35900000  0.16900000  0.01800000  1.0 0.1515636507
C  C114  1  0.16900000  0.35900000  0.48200000  1.0 0.1515636507
C  C115  1  0.64100000  0.83100000  0.98200000  1.0 0.1515636507
C  C116  1  0.83100000  0.64100000  0.51800000  1.0 0.1515636507
C  C117  1  0.31000000  0.26600000  0.94200000  1.0 -0.0305899101
C  C118  1  0.26600000  0.31000000  0.55800000  1.0 -0.0305899101
C  C119  1  0.69000000  0.73400000  0.05800000  1.0 -0.0305899101
C  C120  1  0.73400000  0.69000000  0.44200000  1.0 -0.0305899101
C  C121  1  0.27300000  0.24300000  0.05600000  1.0 -0.3219088364
C  C122  1  0.24300000  0.27300000  0.44400000  1.0 -0.3219088364
C  C123  1  0.72700000  0.75700000  0.94400000  1.0 -0.3219088364
C  C124  1  0.75700000  0.72700000  0.55600000  1.0 -0.3219088364
C  C125  1  0.44130000  0.59610000  0.57030000  1.0 -0.0585126734
C  C126  1  0.59610000  0.44130000  0.92970000  1.0 -0.0585126734
C  C127  1  0.55870000  0.40390000  0.42970000  1.0 -0.0585126734
C  C128  1  0.40390000  0.55870000  0.07030000  1.0 -0.0585126734
C  C129  1  0.41020000  0.56720000  0.45980000  1.0 -0.4771034729
C  C130  1  0.56720000  0.41020000  0.04020000  1.0 -0.4771034729
C  C131  1  0.58980000  0.43280000  0.54020000  1.0 -0.4771034729
C  C132  1  0.43280000  0.58980000  0.95980000  1.0 -0.4771034729
C  C133  1  0.38600000  0.69720000  0.50460000  1.0 -0.3219088364
C  C134  1  0.69720000  0.38600000  0.99540000  1.0 -0.3219088364
C  C135  1  0.61400000  0.30280000  0.49540000  1.0 -0.3219088364
C  C136  1  0.30280000  0.61400000  0.00460000  1.0 -0.3219088364
C  C137  1  0.14500000  0.35500000  0.56000000  1.0 0.0233577856
C  C138  1  0.35500000  0.14500000  0.94000000  1.0 0.0233577856
C  C139  1  0.85500000  0.64500000  0.44000000  1.0 0.0233577856
C  C140  1  0.64500000  0.85500000  0.06000000  1.0 0.0233577856
C  C141  1  0.27100000  0.33100000  0.51900000  1.0 -0.0504631444
C  C142  1  0.33100000  0.27100000  0.98100000  1.0 -0.0504631444
C  C143  1  0.72900000  0.66900000  0.48100000  1.0 -0.0504631444
C  C144  1  0.66900000  0.72900000  0.01900000  1.0 -0.0504631444
C  C145  1  0.21300000  0.26900000  0.62800000  1.0 -0.2510552716
C  C146  1  0.26900000  0.21300000  0.87200000  1.0 -0.2510552716
C  C147  1  0.78700000  0.73100000  0.37200000  1.0 -0.2510552716
C  C148  1  0.73100000  0.78700000  0.12800000  1.0 -0.2510552716
N  N1  1  0.31770000  0.22430000  0.00400000  1.0 0.0631348833
N  N2  1  0.22430000  0.31770000  0.49600000  1.0 0.0631348833
N  N3  1  0.68230000  0.77570000  0.99600000  1.0 0.0631348833
N  N4  1  0.77570000  0.68230000  0.50400000  1.0 0.0631348833
N  N5  1  0.41850000  0.62050000  0.51430000  1.0 -0.1349584322
N  N6  1  0.62050000  0.41850000  0.98570000  1.0 -0.1349584322
N  N7  1  0.58150000  0.37950000  0.48570000  1.0 -0.1349584322
N  N8  1  0.37950000  0.58150000  0.01430000  1.0 -0.1349584322
N  N9  1  0.20500000  0.31900000  0.56900000  1.0 0.0735119272
N  N10  1  0.31900000  0.20500000  0.93100000  1.0 0.0735119272
N  N11  1  0.79500000  0.68100000  0.43100000  1.0 0.0735119272
N  N12  1  0.68100000  0.79500000  0.06900000  1.0 0.0735119272
O  O1  1  0.63400000  0.53480000  0.69360000  1.0 -0.5376346719
O  O2  1  0.53480000  0.63400000  0.80640000  1.0 -0.5376346719
O  O3  1  0.36600000  0.46520000  0.30640000  1.0 -0.5376346719
O  O4  1  0.46520000  0.36600000  0.19360000  1.0 -0.5376346719
O  O5  1  0.64740000  0.54440000  0.79970000  1.0 -0.5900333535
O  O6  1  0.54440000  0.64740000  0.70030000  1.0 -0.5900333535
O  O7  1  0.35260000  0.45560000  0.20030000  1.0 -0.5900333535
O  O8  1  0.45560000  0.35260000  0.29970000  1.0 -0.5900333535
O  O9  1  0.37910000  0.96970000  0.92830000  1.0 -0.5783127558
O  O10  1  0.96970000  0.37910000  0.57170000  1.0 -0.5783127558
O  O11  1  0.62090000  0.03030000  0.07170000  1.0 -0.5783127558
O  O12  1  0.03030000  0.62090000  0.42830000  1.0 -0.5783127558
O  O13  1  0.44410000  0.86950000  0.93740000  1.0 -0.5563496959
O  O14  1  0.86950000  0.44410000  0.56260000  1.0 -0.5563496959
O  O15  1  0.55590000  0.13050000  0.06260000  1.0 -0.5563496959
O  O16  1  0.13050000  0.55590000  0.43740000  1.0 -0.5563496959
O  O17  1  0.07120000  0.63200000  0.75220000  1.0 -0.2119836945
O  O18  1  0.63200000  0.07120000  0.74780000  1.0 -0.2119836945
O  O19  1  0.92880000  0.36800000  0.24780000  1.0 -0.2119836945
O  O20  1  0.36800000  0.92880000  0.25220000  1.0 -0.2119836945
O  O21  1  0.56350000  0.13610000  0.93290000  1.0 -0.5714413386
O  O22  1  0.13610000  0.56350000  0.56710000  1.0 -0.5714413386
O  O23  1  0.43650000  0.86390000  0.06710000  1.0 -0.5714413386
O  O24  1  0.86390000  0.43650000  0.43290000  1.0 -0.5714413386
O  O25  1  0.62910000  0.03670000  0.94350000  1.0 -0.5487268578
O  O26  1  0.03670000  0.62910000  0.55650000  1.0 -0.5487268578
O  O27  1  0.37090000  0.96330000  0.05650000  1.0 -0.5487268578
O  O28  1  0.96330000  0.37090000  0.44350000  1.0 -0.5487268578
O  O29  1  0.36220000  0.48260000  0.71040000  1.0 -0.6142027986
O  O30  1  0.48260000  0.36220000  0.78960000  1.0 -0.6142027986
O  O31  1  0.63780000  0.51740000  0.28960000  1.0 -0.6142027986
O  O32  1  0.51740000  0.63780000  0.21040000  1.0 -0.6142027986
O  O33  1  0.37190000  0.45050000  0.81400000  1.0 -0.5056417
O  O34  1  0.45050000  0.37190000  0.68600000  1.0 -0.5056417
O  O35  1  0.62810000  0.54950000  0.18600000  1.0 -0.5056417
O  O36  1  0.54950000  0.62810000  0.31400000  1.0 -0.5056417
O  O37  1  0.94430000  0.39490000  0.77990000  1.0 -0.2119836945
O  O38  1  0.39490000  0.94430000  0.72010000  1.0 -0.2119836945
O  O39  1  0.05570000  0.60510000  0.22010000  1.0 -0.2119836945
O  O40  1  0.60510000  0.05570000  0.27990000  1.0 -0.2119836945
O  O41  1  0.39200000  0.15200000  0.97600000  1.0 -0.1184247743
O  O42  1  0.15200000  0.39200000  0.52400000  1.0 -0.1184247743
O  O43  1  0.60800000  0.84800000  0.02400000  1.0 -0.1184247743
O  O44  1  0.84800000  0.60800000  0.47600000  1.0 -0.1184247743
O  O45  1  0.50040000  0.49980000  0.56240000  1.0 -0.2608706068
O  O46  1  0.49980000  0.50040000  0.93760000  1.0 -0.2608706068
O  O47  1  0.49960000  0.50020000  0.43760000  1.0 -0.2608706068
O  O48  1  0.50020000  0.49960000  0.06240000  1.0 -0.2608706068
O  O49  1  0.46630000  0.53650000  0.58560000  1.0 -0.0785281042
O  O50  1  0.53650000  0.46630000  0.91440000  1.0 -0.0785281042
O  O51  1  0.53370000  0.46350000  0.41440000  1.0 -0.0785281042
O  O52  1  0.46350000  0.53370000  0.08560000  1.0 -0.0785281042
O  O53  1  0.14500000  0.39500000  0.50700000  1.0 -0.1464239855
O  O54  1  0.39500000  0.14500000  0.99300000  1.0 -0.1464239855
O  O55  1  0.85500000  0.60500000  0.49300000  1.0 -0.1464239855
O  O56  1  0.60500000  0.85500000  0.00700000  1.0 -0.1464239855
