# DDEC6 charges by PACMAN v1.1 (https://github.com/mtap-research/PACMAN-charge/)
data_LEJRIC_FSR_pacman
_symmetry_space_group_name_H-M   'P 1'
_cell_length_a   15.16340000
_cell_length_b   15.16340000
_cell_length_c   15.16340000
_cell_angle_alpha   117.87700000
_cell_angle_beta   117.87700000
_cell_angle_gamma   117.87700000
_symmetry_Int_Tables_number   1
_chemical_formula_structural   NiH(CO)4
_chemical_formula_sum   'Ni6 H6 C24 O24'
_cell_volume   1303.00176428
_cell_formula_units_Z   6
loop_
 _symmetry_equiv_pos_site_id
 _symmetry_equiv_pos_as_xyz
  1  'x, y, z'
loop_
 _atom_site_type_symbol
 _atom_site_label
 _atom_site_symmetry_multiplicity
 _atom_site_fract_x
 _atom_site_fract_y
 _atom_site_fract_z
 _atom_site_occupancy
 _atom_site_charge
Ni  Ni1  1  0.30180000  0.03280000  0.61550000  1.0 0.9797642052
Ni  Ni2  1  0.03280000  0.61550000  0.30180000  1.0 0.9797642052
Ni  Ni3  1  0.61550000  0.30180000  0.03280000  1.0 0.9797642052
Ni  Ni4  1  0.69820000  0.96720000  0.38450000  1.0 0.9797642052
Ni  Ni5  1  0.96720000  0.38450000  0.69820000  1.0 0.9797642052
Ni  Ni6  1  0.38450000  0.69820000  0.96720000  1.0 0.9797642052
H  H1  1  0.35600000  0.88600000  0.89800000  1.0 0.1294052621
H  H2  1  0.88600000  0.89800000  0.35600000  1.0 0.1294052621
H  H3  1  0.89800000  0.35600000  0.88600000  1.0 0.1294052621
H  H4  1  0.64400000  0.11400000  0.10200000  1.0 0.1294052621
H  H5  1  0.11400000  0.10200000  0.64400000  1.0 0.1294052621
H  H6  1  0.10200000  0.64400000  0.11400000  1.0 0.1294052621
C  C1  1  0.24820000  0.86450000  0.67930000  1.0 0.6243617753
C  C2  1  0.86450000  0.67930000  0.24820000  1.0 0.6243617753
C  C3  1  0.67930000  0.24820000  0.86450000  1.0 0.6243617753
C  C4  1  0.75180000  0.13550000  0.32070000  1.0 0.6243617753
C  C5  1  0.13550000  0.32070000  0.75180000  1.0 0.6243617753
C  C6  1  0.32070000  0.75180000  0.13550000  1.0 0.6243617753
C  C7  1  0.10570000  0.65940000  0.56790000  1.0 -0.1014242277
C  C8  1  0.65940000  0.56790000  0.10570000  1.0 -0.1014242277
C  C9  1  0.56790000  0.10570000  0.65940000  1.0 -0.1014242277
C  C10  1  0.89430000  0.34060000  0.43210000  1.0 -0.1014242277
C  C11  1  0.34060000  0.43210000  0.89430000  1.0 -0.1014242277
C  C12  1  0.43210000  0.89430000  0.34060000  1.0 -0.1014242277
C  C13  1  0.93010000  0.46720000  0.36870000  1.0 0.2704098691
C  C14  1  0.46720000  0.36870000  0.93010000  1.0 0.2704098691
C  C15  1  0.36870000  0.93010000  0.46720000  1.0 0.2704098691
C  C16  1  0.06990000  0.53280000  0.63130000  1.0 0.2704098691
C  C17  1  0.53280000  0.63130000  0.06990000  1.0 0.2704098691
C  C18  1  0.63130000  0.06990000  0.53280000  1.0 0.2704098691
C  C19  1  0.17070000  0.69450000  0.69880000  1.0 -0.1189943383
C  C20  1  0.69450000  0.69880000  0.17070000  1.0 -0.1189943383
C  C21  1  0.69880000  0.17070000  0.69450000  1.0 -0.1189943383
C  C22  1  0.82930000  0.30550000  0.30120000  1.0 -0.1189943383
C  C23  1  0.30550000  0.30120000  0.82930000  1.0 -0.1189943383
C  C24  1  0.30120000  0.82930000  0.30550000  1.0 -0.1189943383
O  O1  1  0.40570000  0.03430000  0.88000000  1.0 -0.5008079092
O  O2  1  0.03430000  0.88000000  0.40570000  1.0 -0.5008079092
O  O3  1  0.88000000  0.40570000  0.03430000  1.0 -0.5008079092
O  O4  1  0.59430000  0.96570000  0.12000000  1.0 -0.5008079092
O  O5  1  0.96570000  0.12000000  0.59430000  1.0 -0.5008079092
O  O6  1  0.12000000  0.59430000  0.96570000  1.0 -0.5008079092
O  O7  1  0.19250000  0.83940000  0.57110000  1.0 -0.5088658313
O  O8  1  0.83940000  0.57110000  0.19250000  1.0 -0.5088658313
O  O9  1  0.57110000  0.19250000  0.83940000  1.0 -0.5088658313
O  O10  1  0.80750000  0.16060000  0.42890000  1.0 -0.5088658313
O  O11  1  0.16060000  0.42890000  0.80750000  1.0 -0.5088658313
O  O12  1  0.42890000  0.80750000  0.16060000  1.0 -0.5088658313
O  O13  1  0.85280000  0.41210000  0.22210000  1.0 -0.5572790285
O  O14  1  0.41210000  0.22210000  0.85280000  1.0 -0.5572790285
O  O15  1  0.22210000  0.85280000  0.41210000  1.0 -0.5572790285
O  O16  1  0.14720000  0.58790000  0.77790000  1.0 -0.5572790285
O  O17  1  0.58790000  0.77790000  0.14720000  1.0 -0.5572790285
O  O18  1  0.77790000  0.14720000  0.58790000  1.0 -0.5572790285
O  O19  1  0.44200000  0.24470000  0.68430000  1.0 -0.2165697768
O  O20  1  0.24470000  0.68430000  0.44200000  1.0 -0.2165697768
O  O21  1  0.68430000  0.44200000  0.24470000  1.0 -0.2165697768
O  O22  1  0.55800000  0.75530000  0.31570000  1.0 -0.2165697768
O  O23  1  0.75530000  0.31570000  0.55800000  1.0 -0.2165697768
O  O24  1  0.31570000  0.55800000  0.75530000  1.0 -0.2165697768
