# DDEC6 charges by PACMAN v1.1 (https://github.com/mtap-research/PACMAN-charge/)
data_LEJZOQ_ion_pacman
_symmetry_space_group_name_H-M   'P 1'
_cell_length_a   15.74380000
_cell_length_b   15.74380000
_cell_length_c   17.27500000
_cell_angle_alpha   66.86000000
_cell_angle_beta   113.14000000
_cell_angle_gamma   112.62500000
_symmetry_Int_Tables_number   1
_chemical_formula_structural   Co2H70C59(N7O11)2
_chemical_formula_sum   'Co4 H140 C118 N28 O44'
_cell_volume   3483.80395115
_cell_formula_units_Z   2
loop_
 _symmetry_equiv_pos_site_id
 _symmetry_equiv_pos_as_xyz
  1  'x, y, z'
loop_
 _atom_site_type_symbol
 _atom_site_label
 _atom_site_symmetry_multiplicity
 _atom_site_fract_x
 _atom_site_fract_y
 _atom_site_fract_z
 _atom_site_occupancy
 _atom_site_charge
Co  Co1  1  0.22768000  0.58386000  0.76053000  1.0 0.7276663752
Co  Co2  1  0.58386000  0.22768000  0.73947000  1.0 0.7276663752
Co  Co3  1  0.77232000  0.41614000  0.23947000  1.0 0.7276663752
Co  Co4  1  0.41614000  0.77232000  0.26053000  1.0 0.7276663752
H  H1  1  0.95080000  0.03160000  0.65170000  1.0 0.1599162317
H  H2  1  0.03160000  0.95080000  0.84830000  1.0 0.1599162317
H  H3  1  0.04920000  0.96840000  0.34830000  1.0 0.1599162317
H  H4  1  0.96840000  0.04920000  0.15170000  1.0 0.1599162317
H  H5  1  0.00130000  0.31910000  0.53130000  1.0 0.1475742878
H  H6  1  0.31910000  0.00130000  0.96870000  1.0 0.1475742878
H  H7  1  0.99870000  0.68090000  0.46870000  1.0 0.1475742878
H  H8  1  0.68090000  0.99870000  0.03130000  1.0 0.1475742878
H  H9  1  0.14380000  0.16580000  0.50960000  1.0 0.1599162317
H  H10  1  0.16580000  0.14380000  0.99040000  1.0 0.1599162317
H  H11  1  0.85620000  0.83420000  0.49040000  1.0 0.1599162317
H  H12  1  0.83420000  0.85620000  0.00960000  1.0 0.1599162317
H  H13  1  0.03470000  0.92850000  0.70950000  1.0 0.1194348546
H  H14  1  0.92850000  0.03470000  0.79050000  1.0 0.1194348546
H  H15  1  0.96530000  0.07150000  0.29050000  1.0 0.1194348546
H  H16  1  0.07150000  0.96530000  0.20950000  1.0 0.1194348546
H  H17  1  0.95960000  0.90040000  0.62260000  1.0 0.1292367401
H  H18  1  0.90040000  0.95960000  0.87740000  1.0 0.1292367401
H  H19  1  0.04040000  0.09960000  0.37740000  1.0 0.1292367401
H  H20  1  0.09960000  0.04040000  0.12260000  1.0 0.1292367401
H  H21  1  0.22920000  0.78760000  0.63640000  1.0 0.1105661894
H  H22  1  0.78760000  0.22920000  0.86360000  1.0 0.1105661894
H  H23  1  0.77080000  0.21240000  0.36360000  1.0 0.1105661894
H  H24  1  0.21240000  0.77080000  0.13640000  1.0 0.1105661894
H  H25  1  0.16360000  0.91200000  0.59780000  1.0 0.1475742878
H  H26  1  0.91200000  0.16360000  0.90220000  1.0 0.1475742878
H  H27  1  0.83640000  0.08800000  0.40220000  1.0 0.1475742878
H  H28  1  0.08800000  0.83640000  0.09780000  1.0 0.1475742878
H  H29  1  0.99600000  0.74040000  0.75680000  1.0 0.1475742878
H  H30  1  0.74040000  0.99600000  0.74320000  1.0 0.1475742878
H  H31  1  0.00400000  0.25960000  0.24320000  1.0 0.1475742878
H  H32  1  0.25960000  0.00400000  0.25680000  1.0 0.1475742878
H  H33  1  0.06380000  0.62000000  0.78980000  1.0 0.1194348546
H  H34  1  0.62000000  0.06380000  0.71020000  1.0 0.1105661894
H  H35  1  0.93620000  0.38000000  0.21020000  1.0 0.1194348546
H  H36  1  0.38000000  0.93620000  0.28980000  1.0 0.1194348546
H  H37  1  0.86060000  0.28660000  0.54630000  1.0 0.1105661894
H  H38  1  0.28660000  0.86060000  0.95370000  1.0 0.1105661894
H  H39  1  0.13940000  0.71340000  0.45370000  1.0 0.1105661894
H  H40  1  0.71340000  0.13940000  0.04630000  1.0 0.1105661894
H  H41  1  0.81730000  0.24310000  0.62780000  1.0 0.1194348546
H  H42  1  0.24310000  0.81730000  0.87220000  1.0 0.1194348546
H  H43  1  0.18270000  0.75690000  0.37220000  1.0 0.1194348546
H  H44  1  0.75690000  0.18270000  0.12780000  1.0 0.1194348546
H  H45  1  0.13050000  0.36590000  0.82460000  1.0 0.1194348546
H  H46  1  0.36590000  0.13050000  0.67540000  1.0 0.1194348546
H  H47  1  0.86950000  0.63410000  0.17540000  1.0 0.1194348546
H  H48  1  0.63410000  0.86950000  0.32460000  1.0 0.1194348546
H  H49  1  0.01040000  0.24540000  0.76710000  1.0 0.1398656885
H  H50  1  0.24540000  0.01040000  0.73290000  1.0 0.1398656885
H  H51  1  0.98960000  0.75460000  0.23290000  1.0 0.1398656885
H  H52  1  0.75460000  0.98960000  0.26710000  1.0 0.1398656885
H  H53  1  0.91850000  0.44970000  0.55320000  1.0 0.1398656885
H  H54  1  0.44970000  0.91850000  0.94680000  1.0 0.1398656885
H  H55  1  0.08150000  0.55030000  0.44680000  1.0 0.1398656885
H  H56  1  0.55030000  0.08150000  0.05320000  1.0 0.1398656885
H  H57  1  0.03960000  0.56500000  0.61590000  1.0 0.1105661894
H  H58  1  0.56500000  0.03960000  0.88410000  1.0 0.1105661894
H  H59  1  0.96040000  0.43500000  0.38410000  1.0 0.1105661894
H  H60  1  0.43500000  0.96040000  0.11590000  1.0 0.1105661894
H  H61  1  0.14840000  0.30280000  0.37570000  1.0 0.1105661894
H  H62  1  0.30280000  0.14840000  0.12430000  1.0 0.1105661894
H  H63  1  0.85160000  0.69720000  0.62430000  1.0 0.1105661894
H  H64  1  0.69720000  0.85160000  0.87570000  1.0 0.1105661894
H  H65  1  0.23390000  0.30910000  0.46490000  1.0 0.1105661894
H  H66  1  0.30910000  0.23390000  0.03510000  1.0 0.1105661894
H  H67  1  0.76610000  0.69090000  0.53510000  1.0 0.1105661894
H  H68  1  0.69090000  0.76610000  0.96490000  1.0 0.1105661894
H  H69  1  0.42540000  0.67220000  0.72050000  1.0 0.1105661894
H  H70  1  0.67220000  0.42540000  0.77950000  1.0 0.1105661894
H  H71  1  0.57460000  0.32780000  0.27950000  1.0 0.1194348546
H  H72  1  0.32780000  0.57460000  0.22050000  1.0 0.1105661894
H  H73  1  0.58220000  0.74960000  0.78080000  1.0 0.1599162317
H  H74  1  0.74960000  0.58220000  0.71920000  1.0 0.1599162317
H  H75  1  0.41780000  0.25040000  0.21920000  1.0 0.1599162317
H  H76  1  0.25040000  0.41780000  0.28080000  1.0 0.1599162317
H  H77  1  0.21720000  0.50380000  0.45470000  1.0 0.1398656885
H  H78  1  0.50380000  0.21720000  0.04530000  1.0 0.1398656885
H  H79  1  0.78280000  0.49620000  0.54530000  1.0 0.1398656885
H  H80  1  0.49620000  0.78280000  0.95470000  1.0 0.1398656885
H  H81  1  0.34150000  0.70870000  0.88840000  1.0 0.1105661894
H  H82  1  0.70870000  0.34150000  0.61160000  1.0 0.1105661894
H  H83  1  0.65850000  0.29130000  0.11160000  1.0 0.1105661894
H  H84  1  0.29130000  0.65850000  0.38840000  1.0 0.1105661894
H  H85  1  0.38000000  0.49320000  0.92510000  1.0 0.0807301462
H  H86  1  0.49320000  0.38000000  0.57490000  1.0 0.0807301462
H  H87  1  0.62000000  0.50680000  0.07490000  1.0 0.0807301462
H  H88  1  0.50680000  0.62000000  0.42510000  1.0 0.0807301462
H  H89  1  0.44960000  0.51880000  0.74820000  1.0 0.0669398634
H  H90  1  0.51880000  0.44960000  0.75180000  1.0 0.0669398634
H  H91  1  0.55040000  0.48120000  0.25180000  1.0 0.0669398634
H  H92  1  0.48120000  0.55040000  0.24820000  1.0 0.0669398634
H  H93  1  0.56070000  0.55550000  0.79760000  1.0 0.1105661894
H  H94  1  0.55550000  0.56070000  0.70240000  1.0 0.1105661894
H  H95  1  0.43930000  0.44450000  0.20240000  1.0 0.1105661894
H  H96  1  0.44450000  0.43930000  0.29760000  1.0 0.1105661894
H  H97  1  0.51130000  0.44330000  0.80800000  1.0 0.0807301462
H  H98  1  0.44330000  0.51130000  0.69200000  1.0 0.0807301462
H  H99  1  0.48870000  0.55670000  0.19200000  1.0 0.0894208986
H  H100  1  0.55670000  0.48870000  0.30800000  1.0 0.0807301462
H  H101  1  0.53170000  0.49770000  0.00280000  1.0 0.0414920943
H  H102  1  0.49770000  0.53170000  0.49720000  1.0 0.0414920943
H  H103  1  0.46830000  0.50230000  0.99720000  1.0 0.0414920943
H  H104  1  0.50230000  0.46830000  0.50280000  1.0 0.0414920943
H  H105  1  0.57850000  0.44110000  0.97850000  1.0 0.1398656885
H  H106  1  0.44110000  0.57850000  0.52150000  1.0 0.1398656885
H  H107  1  0.42150000  0.55890000  0.02150000  1.0 0.1398656885
H  H108  1  0.55890000  0.42150000  0.47850000  1.0 0.1398656885
H  H109  1  0.60670000  0.55590000  0.94620000  1.0 0.1292367401
H  H110  1  0.55590000  0.60670000  0.55380000  1.0 0.1292367401
H  H111  1  0.39330000  0.44410000  0.05380000  1.0 0.1292367401
H  H112  1  0.44410000  0.39330000  0.44620000  1.0 0.1292367401
H  H113  1  0.21560000  0.40560000  0.70920000  1.0 0.0894208986
H  H114  1  0.40560000  0.21560000  0.79080000  1.0 0.0894208986
H  H115  1  0.78440000  0.59440000  0.29080000  1.0 0.0894208986
H  H116  1  0.59440000  0.78440000  0.20920000  1.0 0.0894208986
H  H117  1  0.35450000  0.34170000  0.92020000  1.0 0.1398656885
H  H118  1  0.34170000  0.35450000  0.57980000  1.0 0.1398656885
H  H119  1  0.64550000  0.65830000  0.07980000  1.0 0.1398656885
H  H120  1  0.65830000  0.64550000  0.42020000  1.0 0.1398656885
H  H121  1  0.37880000  0.25700000  0.91090000  1.0 0.1194348546
H  H122  1  0.25700000  0.37880000  0.58910000  1.0 0.1194348546
H  H123  1  0.62120000  0.74300000  0.08910000  1.0 0.1194348546
H  H124  1  0.74300000  0.62120000  0.41090000  1.0 0.1194348546
H  H125  1  0.43790000  0.36610000  0.87770000  1.0 0.1398656885
H  H126  1  0.36610000  0.43790000  0.62230000  1.0 0.1398656885
H  H127  1  0.56210000  0.63390000  0.12230000  1.0 0.1398656885
H  H128  1  0.63390000  0.56210000  0.37770000  1.0 0.1398656885
H  H129  1  0.24330000  0.29350000  0.68660000  1.0 0.1105661894
H  H130  1  0.29350000  0.24330000  0.81340000  1.0 0.1105661894
H  H131  1  0.75670000  0.70650000  0.31340000  1.0 0.1105661894
H  H132  1  0.70650000  0.75670000  0.18660000  1.0 0.1105661894
H  H133  1  0.30970000  0.22870000  0.76350000  1.0 0.0807301462
H  H134  1  0.22870000  0.30970000  0.73650000  1.0 0.0807301462
H  H135  1  0.69030000  0.77130000  0.23650000  1.0 0.0807301462
H  H136  1  0.77130000  0.69030000  0.26350000  1.0 0.0807301462
H  H137  1  0.20620000  0.21680000  0.76850000  1.0 0.0584351062
H  H138  1  0.21680000  0.20620000  0.73150000  1.0 0.0584351062
H  H139  1  0.79380000  0.78320000  0.23150000  1.0 0.0584351062
H  H140  1  0.78320000  0.79380000  0.26850000  1.0 0.0584351062
C  C1  1  0.05200000  0.08680000  0.58540000  1.0 0.3030712428
C  C2  1  0.08680000  0.05200000  0.91460000  1.0 0.3030712428
C  C3  1  0.94800000  0.91320000  0.41460000  1.0 0.3030712428
C  C4  1  0.91320000  0.94800000  0.08540000  1.0 0.3030712428
C  C5  1  0.98470000  0.08850000  0.61720000  1.0 -0.3806012077
C  C6  1  0.08850000  0.98470000  0.88280000  1.0 -0.3806012077
C  C7  1  0.01530000  0.91150000  0.38280000  1.0 -0.3806012077
C  C8  1  0.91150000  0.01530000  0.11720000  1.0 -0.3806012077
C  C9  1  0.96820000  0.17740000  0.59670000  1.0 0.2936990829
C  C10  1  0.17740000  0.96820000  0.90330000  1.0 0.2936990829
C  C11  1  0.03180000  0.82260000  0.40330000  1.0 0.2936990829
C  C12  1  0.82260000  0.03180000  0.09670000  1.0 0.2936990829
C  C13  1  0.01360000  0.25960000  0.54470000  1.0 -0.3885262637
C  C14  1  0.25960000  0.01360000  0.95530000  1.0 -0.3885262637
C  C15  1  0.98640000  0.74040000  0.45530000  1.0 -0.3885262637
C  C16  1  0.74040000  0.98640000  0.04470000  1.0 -0.3885262637
C  C17  1  0.07820000  0.25360000  0.51200000  1.0 0.3080543848
C  C18  1  0.25360000  0.07820000  0.98800000  1.0 0.3080543848
C  C19  1  0.92180000  0.74640000  0.48800000  1.0 0.3080543848
C  C20  1  0.74640000  0.92180000  0.01200000  1.0 0.3080543848
C  C21  1  0.09880000  0.16840000  0.53190000  1.0 -0.3806012077
C  C22  1  0.16840000  0.09880000  0.96810000  1.0 -0.3806012077
C  C23  1  0.90120000  0.83160000  0.46810000  1.0 -0.3806012077
C  C24  1  0.83160000  0.90120000  0.03190000  1.0 -0.3806012077
C  C25  1  0.02870000  0.91890000  0.65410000  1.0 -0.0702241426
C  C26  1  0.91890000  0.02870000  0.84590000  1.0 -0.0702241426
C  C27  1  0.97130000  0.08110000  0.34590000  1.0 -0.0702241426
C  C28  1  0.08110000  0.97130000  0.15410000  1.0 -0.0702241426
C  C29  1  0.18170000  0.77810000  0.66220000  1.0 0.0807301462
C  C30  1  0.77810000  0.18170000  0.83780000  1.0 0.0807301462
C  C31  1  0.81830000  0.22190000  0.33780000  1.0 0.0807301462
C  C32  1  0.22190000  0.81830000  0.16220000  1.0 0.0807301462
C  C33  1  0.14250000  0.85270000  0.63850000  1.0 -0.1815286753
C  C34  1  0.85270000  0.14250000  0.86150000  1.0 -0.1815286753
C  C35  1  0.85750000  0.14730000  0.36150000  1.0 -0.1815286753
C  C36  1  0.14730000  0.85750000  0.13850000  1.0 -0.1815286753
C  C37  1  0.07280000  0.84080000  0.67410000  1.0 0.1398656885
C  C38  1  0.84080000  0.07280000  0.82590000  1.0 0.1398656885
C  C39  1  0.92720000  0.15920000  0.32590000  1.0 0.1398656885
C  C40  1  0.15920000  0.92720000  0.17410000  1.0 0.1398656885
C  C41  1  0.04440000  0.75220000  0.73130000  1.0 -0.1894344268
C  C42  1  0.75220000  0.04440000  0.76870000  1.0 -0.1894344268
C  C43  1  0.95560000  0.24780000  0.26870000  1.0 -0.1894344268
C  C44  1  0.24780000  0.95560000  0.23130000  1.0 -0.1894344268
C  C45  1  0.08600000  0.68080000  0.75150000  1.0 0.0807301462
C  C46  1  0.68080000  0.08600000  0.74850000  1.0 0.0807301462
C  C47  1  0.91400000  0.31920000  0.24850000  1.0 0.0807301462
C  C48  1  0.31920000  0.91400000  0.25150000  1.0 0.0807301462
C  C49  1  0.87610000  0.25930000  0.61090000  1.0 -0.0771895749
C  C50  1  0.25930000  0.87610000  0.88910000  1.0 -0.0771895749
C  C51  1  0.12390000  0.74070000  0.38910000  1.0 -0.0771895749
C  C52  1  0.74070000  0.12390000  0.11090000  1.0 -0.0771895749
C  C53  1  0.08710000  0.38350000  0.76820000  1.0 0.0894208986
C  C54  1  0.38350000  0.08710000  0.73180000  1.0 0.0894208986
C  C55  1  0.91290000  0.61650000  0.23180000  1.0 0.0894208986
C  C56  1  0.61650000  0.91290000  0.26820000  1.0 0.0894208986
C  C57  1  0.01560000  0.31080000  0.73410000  1.0 -0.2011306791
C  C58  1  0.31080000  0.01560000  0.76590000  1.0 -0.2011306791
C  C59  1  0.98440000  0.68920000  0.26590000  1.0 -0.2011306791
C  C60  1  0.68920000  0.98440000  0.23410000  1.0 -0.2011306791
C  C61  1  0.95310000  0.33430000  0.65300000  1.0 0.1292367401
C  C62  1  0.33430000  0.95310000  0.84700000  1.0 0.1292367401
C  C63  1  0.04690000  0.66570000  0.34700000  1.0 0.1292367401
C  C64  1  0.66570000  0.04690000  0.15300000  1.0 0.1292367401
C  C65  1  0.96200000  0.43060000  0.60910000  1.0 -0.2011306791
C  C66  1  0.43060000  0.96200000  0.89090000  1.0 -0.2011306791
C  C67  1  0.03800000  0.56940000  0.39090000  1.0 -0.2011306791
C  C68  1  0.56940000  0.03800000  0.10910000  1.0 -0.2011306791
C  C69  1  0.03450000  0.49910000  0.64700000  1.0 0.1006040511
C  C70  1  0.49910000  0.03450000  0.85300000  1.0 0.1006040511
C  C71  1  0.96550000  0.50090000  0.35300000  1.0 0.1006040511
C  C72  1  0.50090000  0.96550000  0.14700000  1.0 0.1006040511
C  C73  1  0.18340000  0.33940000  0.41960000  1.0 -0.0771895749
C  C74  1  0.33940000  0.18340000  0.08040000  1.0 -0.0771895749
C  C75  1  0.81660000  0.66060000  0.58040000  1.0 -0.0771895749
C  C76  1  0.66060000  0.81660000  0.91960000  1.0 -0.0771895749
C  C77  1  0.43960000  0.69440000  0.76920000  1.0 0.1006040511
C  C78  1  0.69440000  0.43960000  0.73080000  1.0 0.1006040511
C  C79  1  0.56040000  0.30560000  0.23080000  1.0 0.1006040511
C  C80  1  0.30560000  0.56040000  0.26920000  1.0 0.1006040511
C  C81  1  0.53380000  0.74040000  0.80550000  1.0 -0.1894344268
C  C82  1  0.74040000  0.53380000  0.69450000  1.0 -0.1894344268
C  C83  1  0.46620000  0.25960000  0.19450000  1.0 -0.1894344268
C  C84  1  0.25960000  0.46620000  0.30550000  1.0 -0.1894344268
C  C85  1  0.22750000  0.44190000  0.37620000  1.0 0.1398656885
C  C86  1  0.44190000  0.22750000  0.12380000  1.0 0.1398656885
C  C87  1  0.77250000  0.55810000  0.62380000  1.0 0.1398656885
C  C88  1  0.55810000  0.77250000  0.87620000  1.0 0.1398656885
C  C89  1  0.23980000  0.51640000  0.40660000  1.0 -0.1815286753
C  C90  1  0.51640000  0.23980000  0.09340000  1.0 -0.1815286753
C  C91  1  0.76020000  0.48360000  0.59340000  1.0 -0.1815286753
C  C92  1  0.48360000  0.76020000  0.90660000  1.0 -0.1815286753
C  C93  1  0.39130000  0.71510000  0.86680000  1.0 0.0807301462
C  C94  1  0.71510000  0.39130000  0.63320000  1.0 0.0807301462
C  C95  1  0.60870000  0.28490000  0.13320000  1.0 0.0807301462
C  C96  1  0.28490000  0.60870000  0.36680000  1.0 0.0807301462
C  C97  1  0.38840000  0.49040000  0.87470000  1.0 0.1006040511
C  C98  1  0.49040000  0.38840000  0.62530000  1.0 0.1006040511
C  C99  1  0.61160000  0.50960000  0.12530000  1.0 0.1006040511
C  C100  1  0.50960000  0.61160000  0.37470000  1.0 0.1105661894
C  C101  1  0.50140000  0.50380000  0.80160000  1.0 -0.15543932
C  C102  1  0.50380000  0.50140000  0.69840000  1.0 -0.15543932
C  C103  1  0.49860000  0.49620000  0.19840000  1.0 -0.15543932
C  C104  1  0.49620000  0.49860000  0.30160000  1.0 -0.15543932
C  C105  1  0.55470000  0.49750000  0.95780000  1.0 -0.2884967057
C  C106  1  0.49750000  0.55470000  0.54220000  1.0 -0.2884967057
C  C107  1  0.44530000  0.50250000  0.04220000  1.0 -0.2884967057
C  C108  1  0.50250000  0.44530000  0.45780000  1.0 -0.2884967057
C  C109  1  0.26840000  0.40400000  0.76090000  1.0 0.0584351062
C  C110  1  0.40400000  0.26840000  0.73910000  1.0 0.0584351062
C  C111  1  0.73160000  0.59600000  0.23910000  1.0 0.0584351062
C  C112  1  0.59600000  0.73160000  0.26090000  1.0 0.0584351062
C  C113  1  0.37480000  0.32340000  0.88350000  1.0 -0.424665424
C  C114  1  0.32340000  0.37480000  0.61650000  1.0 -0.424665424
C  C115  1  0.62520000  0.67660000  0.11650000  1.0 -0.424665424
C  C116  1  0.67660000  0.62520000  0.38350000  1.0 -0.424665424
C  C117  1  0.26270000  0.26270000  0.75000000  1.0 -0.1718937335
C  C118  1  0.73730000  0.73730000  0.25000000  1.0 -0.1718937335
N  N1  1  0.25920000  0.59640000  0.59820000  1.0 0.487700251
N  N2  1  0.59640000  0.25920000  0.90180000  1.0 0.4839688363
N  N3  1  0.74080000  0.40360000  0.40180000  1.0 0.4839688363
N  N4  1  0.40360000  0.74080000  0.09820000  1.0 0.487700251
N  N5  1  0.47600000  0.49440000  0.87700000  1.0 -0.0702241426
N  N6  1  0.49440000  0.47600000  0.62300000  1.0 -0.0702241426
N  N7  1  0.52400000  0.50560000  0.12300000  1.0 -0.0702241426
N  N8  1  0.50560000  0.52400000  0.37700000  1.0 -0.0702241426
N  N9  1  0.15640000  0.69300000  0.71960000  1.0 -0.2546959771
N  N10  1  0.69300000  0.15640000  0.78040000  1.0 -0.2546959771
N  N11  1  0.84360000  0.30700000  0.28040000  1.0 -0.2546959771
N  N12  1  0.30700000  0.84360000  0.21960000  1.0 -0.2546959771
N  N13  1  0.09760000  0.47660000  0.72520000  1.0 -0.2442266224
N  N14  1  0.47660000  0.09760000  0.77480000  1.0 -0.2442266224
N  N15  1  0.90240000  0.52340000  0.27480000  1.0 -0.2442266224
N  N16  1  0.52340000  0.90240000  0.22520000  1.0 -0.2442266224
N  N17  1  0.36730000  0.67990000  0.80010000  1.0 -0.2566165952
N  N18  1  0.67990000  0.36730000  0.69990000  1.0 -0.2566165952
N  N19  1  0.63270000  0.32010000  0.19990000  1.0 -0.2566165952
N  N20  1  0.32010000  0.63270000  0.30010000  1.0 -0.2566165952
N  N21  1  0.30330000  0.33190000  0.79440000  1.0 0.031095305
N  N22  1  0.33190000  0.30330000  0.70560000  1.0 0.031095305
N  N23  1  0.69670000  0.66810000  0.20560000  1.0 0.031095305
N  N24  1  0.66810000  0.69670000  0.29440000  1.0 0.031095305
N  N25  1  0.79690000  0.67010000  0.94260000  1.0 0.6933990093
N  N26  1  0.67010000  0.79690000  0.55740000  1.0 0.6933990093
N  N27  1  0.20310000  0.32990000  0.05740000  1.0 0.6933990093
N  N28  1  0.32990000  0.20310000  0.44260000  1.0 0.6933990093
O  O1  1  0.07572000  0.00468000  0.60190000  1.0 -0.1718937335
O  O2  1  0.00468000  0.07572000  0.89810000  1.0 -0.1718937335
O  O3  1  0.92428000  0.99532000  0.39810000  1.0 -0.1718937335
O  O4  1  0.99532000  0.92428000  0.10190000  1.0 -0.1718937335
O  O5  1  0.90274000  0.17318000  0.63510000  1.0 -0.1894344268
O  O6  1  0.17318000  0.90274000  0.86490000  1.0 -0.1894344268
O  O7  1  0.09726000  0.82682000  0.36490000  1.0 -0.1894344268
O  O8  1  0.82682000  0.09726000  0.13510000  1.0 -0.1894344268
O  O9  1  0.11839000  0.33961000  0.45910000  1.0 -0.2011306791
O  O10  1  0.33961000  0.11839000  0.04090000  1.0 -0.2011306791
O  O11  1  0.88161000  0.66039000  0.54090000  1.0 -0.2055065958
O  O12  1  0.66039000  0.88161000  0.95910000  1.0 -0.2055065958
O  O13  1  0.30540000  0.48180000  0.79790000  1.0 -0.3970726837
O  O14  1  0.48180000  0.30540000  0.70210000  1.0 -0.3970726837
O  O15  1  0.69460000  0.51820000  0.20210000  1.0 -0.3970726837
O  O16  1  0.51820000  0.69460000  0.29790000  1.0 -0.3970726837
O  O17  1  0.21653000  0.53607000  0.88880000  1.0 -0.3707366576
O  O18  1  0.53607000  0.21653000  0.61120000  1.0 -0.3707366576
O  O19  1  0.78347000  0.46393000  0.11120000  1.0 -0.3707366576
O  O20  1  0.46393000  0.78347000  0.38880000  1.0 -0.3707366576
O  O21  1  0.24448000  0.63912000  0.63340000  1.0 -0.3707366576
O  O22  1  0.63912000  0.24448000  0.86660000  1.0 -0.3707366576
O  O23  1  0.75552000  0.36088000  0.36660000  1.0 -0.3707366576
O  O24  1  0.36088000  0.75552000  0.13340000  1.0 -0.3707366576
O  O25  1  0.20010000  0.52150000  0.58020000  1.0 -0.3970726837
O  O26  1  0.52150000  0.20010000  0.91980000  1.0 -0.3970726837
O  O27  1  0.79990000  0.47850000  0.41980000  1.0 -0.3885262637
O  O28  1  0.47850000  0.79990000  0.08020000  1.0 -0.3970726837
O  O29  1  0.33460000  0.62220000  0.57890000  1.0 -0.3509612409
O  O30  1  0.62220000  0.33460000  0.92110000  1.0 -0.3509612409
O  O31  1  0.66540000  0.37780000  0.42110000  1.0 -0.3509612409
O  O32  1  0.37780000  0.66540000  0.07890000  1.0 -0.3509612409
O  O33  1  0.82950000  0.75990000  0.90940000  1.0 -0.488515201
O  O34  1  0.78090000  0.64550000  0.01560000  1.0 -0.4256882397
O  O35  1  0.78840000  0.61000000  0.91040000  1.0 -0.3970726837
O  O36  1  0.75990000  0.82950000  0.59060000  1.0 -0.488515201
O  O37  1  0.64550000  0.78090000  0.48440000  1.0 -0.4256882397
O  O38  1  0.61000000  0.78840000  0.58960000  1.0 -0.3970726837
O  O39  1  0.17050000  0.24010000  0.09060000  1.0 -0.488515201
O  O40  1  0.21910000  0.35450000  0.98440000  1.0 -0.4256882397
O  O41  1  0.21160000  0.39000000  0.08960000  1.0 -0.3970726837
O  O42  1  0.24010000  0.17050000  0.40940000  1.0 -0.488515201
O  O43  1  0.35450000  0.21910000  0.51560000  1.0 -0.4256882397
O  O44  1  0.39000000  0.21160000  0.41040000  1.0 -0.3970726837
