# DDEC6 charges by PACMAN v1.1 (https://github.com/mtap-research/PACMAN-charge/)
data_LELROL_ASR_pacman
_symmetry_space_group_name_H-M   'P 1'
_cell_length_a   17.40470000
_cell_length_b   26.94300000
_cell_length_c   17.98920000
_cell_angle_alpha   90.00000000
_cell_angle_beta   106.94100000
_cell_angle_gamma   90.00000000
_symmetry_Int_Tables_number   1
_chemical_formula_structural   Mn5H56C92N34(ClO2)2
_chemical_formula_sum   'Mn10 H112 C184 N68 Cl4 O8'
_cell_volume   8069.69524264
_cell_formula_units_Z   2
loop_
 _symmetry_equiv_pos_site_id
 _symmetry_equiv_pos_as_xyz
  1  'x, y, z'
loop_
 _atom_site_type_symbol
 _atom_site_label
 _atom_site_symmetry_multiplicity
 _atom_site_fract_x
 _atom_site_fract_y
 _atom_site_fract_z
 _atom_site_occupancy
 _atom_site_charge
Mn  Mn1  1  0.32638000  0.12117000  0.05275000  1.0 0.6345688841
Mn  Mn2  1  0.67362000  0.62117000  0.44725000  1.0 0.6364524505
Mn  Mn3  1  0.67362000  0.87883000  0.94725000  1.0 0.6465358874
Mn  Mn4  1  0.32638000  0.37883000  0.55275000  1.0 0.6465358874
Mn  Mn5  1  0.11245000  0.12949000  0.02908000  1.0 0.6244222662
Mn  Mn6  1  0.88755000  0.62949000  0.47092000  1.0 0.6244222662
Mn  Mn7  1  0.88755000  0.87051000  0.97092000  1.0 0.6244222662
Mn  Mn8  1  0.11245000  0.37051000  0.52908000  1.0 0.6244222662
Mn  Mn9  1  0.00000000  0.00000000  0.00000000  1.0 0.5781031093
Mn  Mn10  1  0.00000000  0.50000000  0.50000000  1.0 0.5781031093
H  H1  1  0.36280000  0.76210000  0.15910000  1.0 0.1006385894
H  H2  1  0.63720000  0.26210000  0.34090000  1.0 0.1006385894
H  H3  1  0.63720000  0.23790000  0.84090000  1.0 0.1006385894
H  H4  1  0.36280000  0.73790000  0.65910000  1.0 0.1006385894
H  H5  1  0.37300000  0.76240000  0.07340000  1.0 0.1086793075
H  H6  1  0.62700000  0.26240000  0.42660000  1.0 0.1086793075
H  H7  1  0.62700000  0.23760000  0.92660000  1.0 0.1086793075
H  H8  1  0.37300000  0.73760000  0.57340000  1.0 0.1086793075
H  H9  1  0.30360000  0.63270000  0.15920000  1.0 0.1006385894
H  H10  1  0.69640000  0.13270000  0.34080000  1.0 0.1006385894
H  H11  1  0.69640000  0.36730000  0.84080000  1.0 0.1006385894
H  H12  1  0.30360000  0.86730000  0.65920000  1.0 0.1006385894
H  H13  1  0.31960000  0.68140000  0.21250000  1.0 0.1006385894
H  H14  1  0.68040000  0.18140000  0.28750000  1.0 0.1006385894
H  H15  1  0.68040000  0.31860000  0.78750000  1.0 0.1006385894
H  H16  1  0.31960000  0.81860000  0.71250000  1.0 0.1006385894
H  H17  1  0.18130000  0.62810000  0.04140000  1.0 0.1006385894
H  H18  1  0.81870000  0.12810000  0.45860000  1.0 0.1006385894
H  H19  1  0.81870000  0.37190000  0.95860000  1.0 0.1006385894
H  H20  1  0.18130000  0.87190000  0.54140000  1.0 0.1006385894
H  H21  1  0.12180000  0.67460000  0.01910000  1.0 0.1086793075
H  H22  1  0.87820000  0.17460000  0.48090000  1.0 0.1086793075
H  H23  1  0.87820000  0.32540000  0.98090000  1.0 0.1086793075
H  H24  1  0.12180000  0.82540000  0.51910000  1.0 0.1086793075
H  H25  1  0.25240000  0.75650000  0.95710000  1.0 0.1086793075
H  H26  1  0.74760000  0.25650000  0.54290000  1.0 0.1086793075
H  H27  1  0.74760000  0.24350000  0.04290000  1.0 0.1086793075
H  H28  1  0.25240000  0.74350000  0.45710000  1.0 0.1086793075
H  H29  1  0.16440000  0.75200000  0.96750000  1.0 0.0904924954
H  H30  1  0.83560000  0.25200000  0.53250000  1.0 0.0904924954
H  H31  1  0.83560000  0.24800000  0.03250000  1.0 0.0904924954
H  H32  1  0.16440000  0.74800000  0.46750000  1.0 0.0904924954
H  H33  1  0.32210000  0.63460000  0.02670000  1.0 0.1006385894
H  H34  1  0.67790000  0.13460000  0.47330000  1.0 0.1006385894
H  H35  1  0.67790000  0.36540000  0.97330000  1.0 0.1006385894
H  H36  1  0.32210000  0.86540000  0.52670000  1.0 0.1006385894
H  H37  1  0.34890000  0.68470000  0.99320000  1.0 0.1086793075
H  H38  1  0.65110000  0.18470000  0.50680000  1.0 0.1086793075
H  H39  1  0.65110000  0.31530000  0.00680000  1.0 0.1086793075
H  H40  1  0.34890000  0.81530000  0.49320000  1.0 0.1086793075
H  H41  1  0.22430000  0.75430000  0.17700000  1.0 0.1086793075
H  H42  1  0.77570000  0.25430000  0.32300000  1.0 0.1086793075
H  H43  1  0.77570000  0.24570000  0.82300000  1.0 0.1086793075
H  H44  1  0.22430000  0.74570000  0.67700000  1.0 0.1086793075
H  H45  1  0.14690000  0.75110000  0.10270000  1.0 0.1006385894
H  H46  1  0.85310000  0.25110000  0.39730000  1.0 0.1006385894
H  H47  1  0.85310000  0.24890000  0.89730000  1.0 0.1006385894
H  H48  1  0.14690000  0.74890000  0.60270000  1.0 0.1006385894
H  H49  1  0.12200000  0.81950000  0.01930000  1.0 0.1086793075
H  H50  1  0.87800000  0.31950000  0.48070000  1.0 0.1086793075
H  H51  1  0.87800000  0.18050000  0.98070000  1.0 0.1086793075
H  H52  1  0.12200000  0.68050000  0.51930000  1.0 0.1086793075
H  H53  1  0.10300000  0.90380000  0.00640000  1.0 0.1086793075
H  H54  1  0.89700000  0.40380000  0.49360000  1.0 0.1086793075
H  H55  1  0.89700000  0.09620000  0.99360000  1.0 0.1086793075
H  H56  1  0.10300000  0.59620000  0.50640000  1.0 0.1086793075
H  H57  1  0.34090000  0.92490000  0.10850000  1.0 0.1201065001
H  H58  1  0.65910000  0.42490000  0.39150000  1.0 0.1201065001
H  H59  1  0.65910000  0.07510000  0.89150000  1.0 0.1201065001
H  H60  1  0.34090000  0.57510000  0.60850000  1.0 0.1201065001
H  H61  1  0.35930000  0.84040000  0.12030000  1.0 0.1201065001
H  H62  1  0.64070000  0.34040000  0.37970000  1.0 0.1201065001
H  H63  1  0.64070000  0.15960000  0.87970000  1.0 0.1201065001
H  H64  1  0.35930000  0.65960000  0.62030000  1.0 0.1201065001
H  H65  1  0.46290000  0.64030000  0.06280000  1.0 0.1201065001
H  H66  1  0.53710000  0.14030000  0.43720000  1.0 0.1201065001
H  H67  1  0.53710000  0.35970000  0.93720000  1.0 0.1201065001
H  H68  1  0.46290000  0.85970000  0.56280000  1.0 0.1201065001
H  H69  1  0.59710000  0.62410000  0.12870000  1.0 0.1306264876
H  H70  1  0.40290000  0.12410000  0.37130000  1.0 0.1306264876
H  H71  1  0.40290000  0.37590000  0.87130000  1.0 0.1306264876
H  H72  1  0.59710000  0.87590000  0.62870000  1.0 0.1306264876
H  H73  1  0.57330000  0.69740000  0.31680000  1.0 0.1201065001
H  H74  1  0.42670000  0.19740000  0.18320000  1.0 0.1201065001
H  H75  1  0.42670000  0.30260000  0.68320000  1.0 0.1201065001
H  H76  1  0.57330000  0.80260000  0.81680000  1.0 0.1201065001
H  H77  1  0.44070000  0.71430000  0.25030000  1.0 0.1201065001
H  H78  1  0.55930000  0.21430000  0.24970000  1.0 0.1201065001
H  H79  1  0.55930000  0.28570000  0.74970000  1.0 0.1201065001
H  H80  1  0.44070000  0.78570000  0.75030000  1.0 0.1201065001
H  H81  1  0.13120000  0.72570000  0.21810000  1.0 0.1006385894
H  H82  1  0.86880000  0.22570000  0.28190000  1.0 0.1006385894
H  H83  1  0.86880000  0.27430000  0.78190000  1.0 0.1006385894
H  H84  1  0.13120000  0.77430000  0.71810000  1.0 0.1006385894
H  H85  1  0.07470000  0.69110000  0.30780000  1.0 0.1086793075
H  H86  1  0.92530000  0.19110000  0.19220000  1.0 0.1086793075
H  H87  1  0.92530000  0.30890000  0.69220000  1.0 0.1086793075
H  H88  1  0.07470000  0.80890000  0.80780000  1.0 0.1086793075
H  H89  1  0.11410000  0.55530000  0.23590000  1.0 0.1306264876
H  H90  1  0.88590000  0.05530000  0.26410000  1.0 0.1306264876
H  H91  1  0.88590000  0.44470000  0.76410000  1.0 0.1306264876
H  H92  1  0.11410000  0.94470000  0.73590000  1.0 0.1306264876
H  H93  1  0.17980000  0.58940000  0.15370000  1.0 0.1201065001
H  H94  1  0.82020000  0.08940000  0.34630000  1.0 0.1201065001
H  H95  1  0.82020000  0.41060000  0.84630000  1.0 0.1201065001
H  H96  1  0.17980000  0.91060000  0.65370000  1.0 0.1201065001
H  H97  1  0.16030000  0.72950000  0.85210000  1.0 0.1086793075
H  H98  1  0.83970000  0.22950000  0.64790000  1.0 0.1086793075
H  H99  1  0.83970000  0.27050000  0.14790000  1.0 0.1086793075
H  H100  1  0.16030000  0.77050000  0.35210000  1.0 0.1086793075
H  H101  1  0.09600000  0.69710000  0.73000000  1.0 0.1086793075
H  H102  1  0.90400000  0.19710000  0.77000000  1.0 0.1086793075
H  H103  1  0.90400000  0.30290000  0.27000000  1.0 0.1086793075
H  H104  1  0.09600000  0.80290000  0.23000000  1.0 0.1086793075
H  H105  1  0.15360000  0.55870000  0.81610000  1.0 0.1365230373
H  H106  1  0.84640000  0.05870000  0.68390000  1.0 0.1365230373
H  H107  1  0.84640000  0.44130000  0.18390000  1.0 0.1365230373
H  H108  1  0.15360000  0.94130000  0.31610000  1.0 0.1365230373
H  H109  1  0.22020000  0.59160000  0.93650000  1.0 0.1201065001
H  H110  1  0.77980000  0.09160000  0.56350000  1.0 0.1201065001
H  H111  1  0.77980000  0.40840000  0.06350000  1.0 0.1201065001
H  H112  1  0.22020000  0.90840000  0.43650000  1.0 0.1201065001
C  C1  1  0.25280000  0.76400000  0.07250000  1.0 0.1777508511
C  C2  1  0.74720000  0.26400000  0.42750000  1.0 0.1777508511
C  C3  1  0.74720000  0.23600000  0.92750000  1.0 0.1777508511
C  C4  1  0.25280000  0.73600000  0.57250000  1.0 0.1777508511
C  C5  1  0.34110000  0.74850000  0.10600000  1.0 -0.3111800188
C  C6  1  0.65890000  0.24850000  0.39400000  1.0 -0.3111800188
C  C7  1  0.65890000  0.25150000  0.89400000  1.0 -0.3111800188
C  C8  1  0.34110000  0.75150000  0.60600000  1.0 -0.3111800188
C  C9  1  0.34940000  0.69150000  0.10880000  1.0 0.1591591379
C  C10  1  0.65060000  0.19150000  0.39120000  1.0 0.1591591379
C  C11  1  0.65060000  0.30850000  0.89120000  1.0 0.1591591379
C  C12  1  0.34940000  0.80850000  0.60880000  1.0 0.1591591379
C  C13  1  0.29860000  0.66930000  0.15840000  1.0 -0.3018202679
C  C14  1  0.70140000  0.16930000  0.34160000  1.0 -0.3018202679
C  C15  1  0.70140000  0.33070000  0.84160000  1.0 -0.3018202679
C  C16  1  0.29860000  0.83070000  0.65840000  1.0 -0.3018202679
C  C17  1  0.20910000  0.68370000  0.12600000  1.0 0.1777508511
C  C18  1  0.79090000  0.18370000  0.37400000  1.0 0.1777508511
C  C19  1  0.79090000  0.31630000  0.87400000  1.0 0.1777508511
C  C20  1  0.20910000  0.81630000  0.62600000  1.0 0.1777508511
C  C21  1  0.17870000  0.66480000  0.04160000  1.0 -0.3111800188
C  C22  1  0.82130000  0.16480000  0.45840000  1.0 -0.3111800188
C  C23  1  0.82130000  0.33520000  0.95840000  1.0 -0.3111800188
C  C24  1  0.17870000  0.83520000  0.54160000  1.0 -0.3111800188
C  C25  1  0.22820000  0.68560000  0.99070000  1.0 0.173691406
C  C26  1  0.77180000  0.18560000  0.50930000  1.0 0.173691406
C  C27  1  0.77180000  0.31440000  0.00930000  1.0 0.173691406
C  C28  1  0.22820000  0.81440000  0.49070000  1.0 0.173691406
C  C29  1  0.22130000  0.74240000  0.99020000  1.0 -0.3178742711
C  C30  1  0.77870000  0.24240000  0.50980000  1.0 -0.3178742711
C  C31  1  0.77870000  0.25760000  0.00980000  1.0 -0.3178742711
C  C32  1  0.22130000  0.75760000  0.49020000  1.0 -0.3178742711
C  C33  1  0.31690000  0.67120000  0.02590000  1.0 -0.3178742711
C  C34  1  0.68310000  0.17120000  0.47410000  1.0 -0.3178742711
C  C35  1  0.68310000  0.32880000  0.97410000  1.0 -0.3178742711
C  C36  1  0.31690000  0.82880000  0.52590000  1.0 -0.3178742711
C  C37  1  0.20380000  0.74110000  0.12350000  1.0 -0.3178742711
C  C38  1  0.79620000  0.24110000  0.37650000  1.0 -0.3178742711
C  C39  1  0.79620000  0.25890000  0.87650000  1.0 -0.3178742711
C  C40  1  0.20380000  0.75890000  0.62350000  1.0 -0.3178742711
C  C41  1  0.24280000  0.82010000  0.06970000  1.0 0.0579419696
C  C42  1  0.75720000  0.32010000  0.43030000  1.0 0.0579419696
C  C43  1  0.75720000  0.17990000  0.93030000  1.0 0.0579419696
C  C44  1  0.24280000  0.67990000  0.56970000  1.0 0.0579419696
C  C45  1  0.16700000  0.84090000  0.03710000  1.0 -0.1619185373
C  C46  1  0.83300000  0.34090000  0.46290000  1.0 -0.1619185373
C  C47  1  0.83300000  0.15910000  0.96290000  1.0 -0.1619185373
C  C48  1  0.16700000  0.65910000  0.53710000  1.0 -0.1656998653
C  C49  1  0.15530000  0.89110000  0.03020000  1.0 -0.1084655974
C  C50  1  0.84470000  0.39110000  0.46980000  1.0 -0.1084655974
C  C51  1  0.84470000  0.10890000  0.96980000  1.0 -0.1084655974
C  C52  1  0.15530000  0.60890000  0.53020000  1.0 -0.1084655974
C  C53  1  0.21990000  0.92420000  0.05770000  1.0 0.0401960702
C  C54  1  0.78010000  0.42420000  0.44230000  1.0 0.0401960702
C  C55  1  0.78010000  0.07580000  0.94230000  1.0 0.0401960702
C  C56  1  0.21990000  0.57580000  0.55770000  1.0 0.0401960702
C  C57  1  0.29590000  0.90350000  0.09040000  1.0 -0.1084655974
C  C58  1  0.70410000  0.40350000  0.40960000  1.0 -0.1084655974
C  C59  1  0.70410000  0.09650000  0.90960000  1.0 -0.1084655974
C  C60  1  0.29590000  0.59650000  0.59040000  1.0 -0.1084655974
C  C61  1  0.30700000  0.85310000  0.09690000  1.0 -0.1656998653
C  C62  1  0.69300000  0.35310000  0.40310000  1.0 -0.1656998653
C  C63  1  0.69300000  0.14690000  0.90310000  1.0 -0.1656998653
C  C64  1  0.30700000  0.64690000  0.59690000  1.0 -0.1656998653
C  C65  1  0.21160000  0.97810000  0.04830000  1.0 0.2393376968
C  C66  1  0.78840000  0.47810000  0.45170000  1.0 0.2393376968
C  C67  1  0.78840000  0.02190000  0.95170000  1.0 0.2393376968
C  C68  1  0.21160000  0.52190000  0.54830000  1.0 0.2393376968
C  C69  1  0.43650000  0.67820000  0.14830000  1.0 0.0502036276
C  C70  1  0.56350000  0.17820000  0.35170000  1.0 0.0502036276
C  C71  1  0.56350000  0.32180000  0.85170000  1.0 0.0502036276
C  C72  1  0.43650000  0.82180000  0.64830000  1.0 0.0502036276
C  C73  1  0.48470000  0.65220000  0.11440000  1.0 -0.1619185373
C  C74  1  0.51530000  0.15220000  0.38560000  1.0 -0.1619185373
C  C75  1  0.51530000  0.34780000  0.88560000  1.0 -0.1619185373
C  C76  1  0.48470000  0.84780000  0.61440000  1.0 -0.1619185373
C  C77  1  0.56540000  0.64250000  0.15380000  1.0 -0.1007167631
C  C78  1  0.43460000  0.14250000  0.34620000  1.0 -0.1007167631
C  C79  1  0.43460000  0.35750000  0.84620000  1.0 -0.1007167631
C  C80  1  0.56540000  0.85750000  0.65380000  1.0 -0.1007167631
C  C81  1  0.59910000  0.65920000  0.22800000  1.0 0.0292435447
C  C82  1  0.40090000  0.15920000  0.27200000  1.0 0.0292435447
C  C83  1  0.40090000  0.34080000  0.77200000  1.0 0.0292435447
C  C84  1  0.59910000  0.84080000  0.72800000  1.0 0.0292435447
C  C85  1  0.55120000  0.68600000  0.26500000  1.0 -0.1186853023
C  C86  1  0.44880000  0.18600000  0.23500000  1.0 -0.1186853023
C  C87  1  0.44880000  0.31400000  0.73500000  1.0 -0.1186853023
C  C88  1  0.55120000  0.81400000  0.76500000  1.0 -0.1186853023
C  C89  1  0.47230000  0.69560000  0.22550000  1.0 -0.1619185373
C  C90  1  0.52770000  0.19560000  0.27450000  1.0 -0.1619185373
C  C91  1  0.52770000  0.30440000  0.77450000  1.0 -0.1619185373
C  C92  1  0.47230000  0.80440000  0.72550000  1.0 -0.1656998653
C  C93  1  0.68460000  0.65400000  0.26950000  1.0 0.2393376968
C  C94  1  0.31540000  0.15400000  0.23050000  1.0 0.2393376968
C  C95  1  0.31540000  0.34600000  0.73050000  1.0 0.2393376968
C  C96  1  0.68460000  0.84600000  0.76950000  1.0 0.2393376968
C  C97  1  0.16310000  0.66180000  0.17710000  1.0 0.0502036276
C  C98  1  0.83690000  0.16180000  0.32290000  1.0 0.0502036276
C  C99  1  0.83690000  0.33820000  0.82290000  1.0 0.0502036276
C  C100  1  0.16310000  0.83820000  0.67710000  1.0 0.0502036276
C  C101  1  0.12950000  0.69060000  0.22240000  1.0 -0.1619185373
C  C102  1  0.87050000  0.19060000  0.27760000  1.0 -0.1619185373
C  C103  1  0.87050000  0.30940000  0.77760000  1.0 -0.1619185373
C  C104  1  0.12950000  0.80940000  0.72240000  1.0 -0.1619185373
C  C105  1  0.09330000  0.67000000  0.27430000  1.0 -0.1309328336
C  C106  1  0.90670000  0.17000000  0.22570000  1.0 -0.1309328336
C  C107  1  0.90670000  0.33000000  0.72570000  1.0 -0.1309328336
C  C108  1  0.09330000  0.83000000  0.77430000  1.0 -0.1309328336
C  C109  1  0.08390000  0.61960000  0.27790000  1.0 0.0502036276
C  C110  1  0.91610000  0.11960000  0.22210000  1.0 0.0502036276
C  C111  1  0.91610000  0.38040000  0.72210000  1.0 0.0502036276
C  C112  1  0.08390000  0.88040000  0.77790000  1.0 0.0502036276
C  C113  1  0.11780000  0.59030000  0.23290000  1.0 -0.1084655974
C  C114  1  0.88220000  0.09030000  0.26710000  1.0 -0.1084655974
C  C115  1  0.88220000  0.40970000  0.76710000  1.0 -0.1084655974
C  C116  1  0.11780000  0.90970000  0.73290000  1.0 -0.1084655974
C  C117  1  0.15690000  0.61070000  0.18360000  1.0 -0.1619185373
C  C118  1  0.84310000  0.11070000  0.31640000  1.0 -0.1619185373
C  C119  1  0.84310000  0.38930000  0.81640000  1.0 -0.1619185373
C  C120  1  0.15690000  0.88930000  0.68360000  1.0 -0.1619185373
C  C121  1  0.04150000  0.60050000  0.33200000  1.0 0.2477077945
C  C122  1  0.95850000  0.10050000  0.16800000  1.0 0.2477077945
C  C123  1  0.95850000  0.39950000  0.66800000  1.0 0.2477077945
C  C124  1  0.04150000  0.89950000  0.83200000  1.0 0.2477077945
C  C125  1  0.19270000  0.66450000  0.90810000  1.0 0.0502036276
C  C126  1  0.80730000  0.16450000  0.59190000  1.0 0.0502036276
C  C127  1  0.80730000  0.33550000  0.09190000  1.0 0.0502036276
C  C128  1  0.19270000  0.83550000  0.40810000  1.0 0.0502036276
C  C129  1  0.15780000  0.69450000  0.84520000  1.0 -0.1619185373
C  C130  1  0.84220000  0.19450000  0.65480000  1.0 -0.1619185373
C  C131  1  0.84220000  0.30550000  0.15480000  1.0 -0.1619185373
C  C132  1  0.15780000  0.80550000  0.34520000  1.0 -0.1619185373
C  C133  1  0.11920000  0.67540000  0.77220000  1.0 -0.1309328336
C  C134  1  0.88080000  0.17540000  0.72780000  1.0 -0.1309328336
C  C135  1  0.88080000  0.32460000  0.22780000  1.0 -0.1309328336
C  C136  1  0.11920000  0.82460000  0.27220000  1.0 -0.1309328336
C  C137  1  0.11460000  0.62370000  0.76120000  1.0 0.0502036276
C  C138  1  0.88540000  0.12370000  0.73880000  1.0 0.0502036276
C  C139  1  0.88540000  0.37630000  0.23880000  1.0 0.0502036276
C  C140  1  0.11460000  0.87630000  0.26120000  1.0 0.0502036276
C  C141  1  0.15380000  0.59360000  0.82330000  1.0 -0.1084655974
C  C142  1  0.84620000  0.09360000  0.67670000  1.0 -0.1084655974
C  C143  1  0.84620000  0.40640000  0.17670000  1.0 -0.1084655974
C  C144  1  0.15380000  0.90640000  0.32330000  1.0 -0.1084655974
C  C145  1  0.19300000  0.61310000  0.89540000  1.0 -0.1619185373
C  C146  1  0.80700000  0.11310000  0.60460000  1.0 -0.1619185373
C  C147  1  0.80700000  0.38690000  0.10460000  1.0 -0.1619185373
C  C148  1  0.19300000  0.88690000  0.39540000  1.0 -0.1619185373
C  C149  1  0.06750000  0.60550000  0.68530000  1.0 0.2266931206
C  C150  1  0.93250000  0.10550000  0.81470000  1.0 0.2266931206
C  C151  1  0.93250000  0.39450000  0.31470000  1.0 0.2266931206
C  C152  1  0.06750000  0.89450000  0.18530000  1.0 0.2266931206
C  C153  1  0.08540000  0.27510000  0.23050000  1.0 -0.1309328336
C  C154  1  0.91460000  0.77510000  0.26950000  1.0 -0.1309328336
C  C155  1  0.91460000  0.72490000  0.76950000  1.0 -0.1309328336
C  C156  1  0.08540000  0.22490000  0.73050000  1.0 -0.1309328336
C  C157  1  0.10100000  0.24920000  0.30000000  1.0 0.1306264876
C  C158  1  0.89900000  0.74920000  0.20000000  1.0 0.1306264876
C  C159  1  0.89900000  0.75080000  0.70000000  1.0 0.1306264876
C  C160  1  0.10100000  0.25080000  0.80000000  1.0 0.1306264876
C  C161  1  0.09000000  0.21000000  0.36300000  1.0 0.0401960702
C  C162  1  0.91000000  0.71000000  0.13700000  1.0 0.0401960702
C  C163  1  0.91000000  0.79000000  0.63700000  1.0 0.0401960702
C  C164  1  0.09000000  0.29000000  0.86300000  1.0 0.0401960702
C  C165  1  0.09300000  0.16300000  0.38100000  1.0 -0.2378627642
C  C166  1  0.90700000  0.66300000  0.11900000  1.0 -0.2378627642
C  C167  1  0.90700000  0.83700000  0.61900000  1.0 -0.2378627642
C  C168  1  0.09300000  0.33700000  0.88100000  1.0 -0.2378627642
C  C169  1  0.06000000  0.25250000  0.15700000  1.0 0.0579419696
C  C170  1  0.94000000  0.75250000  0.34300000  1.0 0.0579419696
C  C171  1  0.94000000  0.74750000  0.84300000  1.0 0.0579419696
C  C172  1  0.06000000  0.24750000  0.65700000  1.0 0.0579419696
C  C173  1  0.06310000  0.22680000  0.08530000  1.0 0.2247392378
C  C174  1  0.93690000  0.72680000  0.41470000  1.0 0.2266931206
C  C175  1  0.93690000  0.77320000  0.91470000  1.0 0.2266931206
C  C176  1  0.06310000  0.27320000  0.58530000  1.0 0.2266931206
C  C177  1  0.06400000  0.30320000  0.00000000  1.0 -0.0290371696
C  C178  1  0.93600000  0.80320000  0.50000000  1.0 -0.0290371696
C  C179  1  0.93600000  0.69680000  0.00000000  1.0 -0.0234763668
C  C180  1  0.06400000  0.19680000  0.50000000  1.0 -0.0290371696
C  C181  1  0.06100000  0.31400000  0.14300000  1.0 0.023298693
C  C182  1  0.93900000  0.81400000  0.35700000  1.0 0.0292435447
C  C183  1  0.93900000  0.68600000  0.85700000  1.0 0.0292435447
C  C184  1  0.06100000  0.18600000  0.64300000  1.0 0.0292435447
N  N1  1  0.14370000  0.00574000  0.03240000  1.0 -0.2142831394
N  N2  1  0.85630000  0.50574000  0.46760000  1.0 -0.2156415889
N  N3  1  0.85630000  0.99426000  0.96760000  1.0 -0.2156415889
N  N4  1  0.14370000  0.49426000  0.53240000  1.0 -0.2142831394
N  N5  1  0.16950000  0.05261000  0.03260000  1.0 -0.0526346014
N  N6  1  0.83050000  0.55261000  0.46740000  1.0 -0.0526346014
N  N7  1  0.83050000  0.94739000  0.96740000  1.0 -0.0526346014
N  N8  1  0.16950000  0.44739000  0.53260000  1.0 -0.0526346014
N  N9  1  0.24820000  0.05300000  0.04890000  1.0 -0.0122723156
N  N10  1  0.75180000  0.55300000  0.45110000  1.0 -0.0122723156
N  N11  1  0.75180000  0.94700000  0.95110000  1.0 -0.0122723156
N  N12  1  0.24820000  0.44700000  0.54890000  1.0 -0.0122723156
N  N13  1  0.27650000  0.00726000  0.05970000  1.0 -0.2685340552
N  N14  1  0.72350000  0.50726000  0.44030000  1.0 -0.2685340552
N  N15  1  0.72350000  0.99274000  0.94030000  1.0 -0.2685340552
N  N16  1  0.27650000  0.49274000  0.55970000  1.0 -0.2685340552
N  N17  1  0.71590000  0.64660000  0.34500000  1.0 -0.2378627642
N  N18  1  0.28410000  0.14660000  0.15500000  1.0 -0.2378627642
N  N19  1  0.28410000  0.35340000  0.65500000  1.0 -0.2320929973
N  N20  1  0.71590000  0.85340000  0.84500000  1.0 -0.2320929973
N  N21  1  0.79610000  0.64690000  0.35880000  1.0 -0.0923689259
N  N22  1  0.20390000  0.14690000  0.14120000  1.0 -0.0923689259
N  N23  1  0.20390000  0.35310000  0.64120000  1.0 -0.0923689259
N  N24  1  0.79610000  0.85310000  0.85880000  1.0 -0.0923689259
N  N25  1  0.81140000  0.65250000  0.29030000  1.0 -0.0705041279
N  N26  1  0.18860000  0.15250000  0.20970000  1.0 -0.0705041279
N  N27  1  0.18860000  0.34750000  0.70970000  1.0 -0.0705041279
N  N28  1  0.81140000  0.84750000  0.79030000  1.0 -0.0705041279
N  N29  1  0.74260000  0.65830000  0.23560000  1.0 -0.2320929973
N  N30  1  0.25740000  0.15830000  0.26440000  1.0 -0.2320929973
N  N31  1  0.25740000  0.34170000  0.76440000  1.0 -0.2320929973
N  N32  1  0.74260000  0.84170000  0.73560000  1.0 -0.2320929973
N  N33  1  0.99490000  0.62930000  0.36030000  1.0 -0.3018202679
N  N34  1  0.00510000  0.12930000  0.13970000  1.0 -0.3018202679
N  N35  1  0.00510000  0.37070000  0.63970000  1.0 -0.3018202679
N  N36  1  0.99490000  0.87070000  0.86030000  1.0 -0.3018202679
N  N37  1  0.96740000  0.59930000  0.40570000  1.0 -0.0705041279
N  N38  1  0.03260000  0.09930000  0.09430000  1.0 -0.0705041279
N  N39  1  0.03260000  0.40070000  0.59430000  1.0 -0.0705041279
N  N40  1  0.96740000  0.90070000  0.90570000  1.0 -0.0705041279
N  N41  1  0.99640000  0.55520000  0.40480000  1.0 -0.0122723156
N  N42  1  0.00360000  0.05520000  0.09520000  1.0 -0.0122723156
N  N43  1  0.00360000  0.44480000  0.59520000  1.0 -0.0122723156
N  N44  1  0.99640000  0.94480000  0.90480000  1.0 -0.0122723156
N  N45  1  0.04480000  0.55350000  0.35860000  1.0 -0.2685340552
N  N46  1  0.95520000  0.05350000  0.14140000  1.0 -0.2685340552
N  N47  1  0.95520000  0.44650000  0.64140000  1.0 -0.2685340552
N  N48  1  0.04480000  0.94650000  0.85860000  1.0 -0.2685340552
N  N49  1  0.07020000  0.55930000  0.65830000  1.0 -0.2685340552
N  N50  1  0.92980000  0.05930000  0.84170000  1.0 -0.2685340552
N  N51  1  0.92980000  0.44070000  0.34170000  1.0 -0.2685340552
N  N52  1  0.07020000  0.94070000  0.15830000  1.0 -0.2685340552
N  N53  1  0.01370000  0.55990000  0.58880000  1.0 -0.0290371696
N  N54  1  0.98630000  0.05990000  0.91120000  1.0 -0.0290371696
N  N55  1  0.98630000  0.44010000  0.41120000  1.0 -0.0290371696
N  N56  1  0.01370000  0.94010000  0.08880000  1.0 -0.0290371696
N  N57  1  0.97970000  0.60420000  0.57660000  1.0 -0.0591100481
N  N58  1  0.02030000  0.10420000  0.92340000  1.0 -0.0591100481
N  N59  1  0.02030000  0.39580000  0.42340000  1.0 -0.0591100481
N  N60  1  0.97970000  0.89580000  0.07660000  1.0 -0.0591100481
N  N61  1  0.01200000  0.63360000  0.63620000  1.0 -0.2575446301
N  N62  1  0.98800000  0.13360000  0.86380000  1.0 -0.2575446301
N  N63  1  0.98800000  0.36640000  0.36380000  1.0 -0.2575446301
N  N64  1  0.01200000  0.86640000  0.13620000  1.0 -0.2575446301
N  N65  1  0.05240000  0.27840000  0.07420000  1.0 0.0401960702
N  N66  1  0.94760000  0.77840000  0.42580000  1.0 0.0292435447
N  N67  1  0.94760000  0.72160000  0.92580000  1.0 0.0292435447
N  N68  1  0.05240000  0.22160000  0.57420000  1.0 0.0292435447
Cl  Cl1  1  0.20506000  0.15654000  0.95700000  1.0 -0.426225678
Cl  Cl2  1  0.79494000  0.65654000  0.54300000  1.0 -0.4229631979
Cl  Cl3  1  0.79494000  0.84346000  0.04300000  1.0 -0.4229631979
Cl  Cl4  1  0.20506000  0.34346000  0.45700000  1.0 -0.4229631979
O  O1  1  0.06660000  0.20420000  0.03190000  1.0 0.0819913922
O  O2  1  0.93340000  0.70420000  0.46810000  1.0 0.0819913922
O  O3  1  0.93340000  0.79580000  0.96810000  1.0 0.0819913922
O  O4  1  0.06660000  0.29580000  0.53190000  1.0 0.0819913922
O  O5  1  0.05650000  0.29910000  0.49570000  1.0 0.0685766908
O  O6  1  0.94350000  0.79910000  0.00430000  1.0 0.0685766908
O  O7  1  0.94350000  0.70090000  0.50430000  1.0 0.0685766908
O  O8  1  0.05650000  0.20090000  0.99570000  1.0 0.0685766908
