# DDEC6 charges by PACMAN v1.1 (https://github.com/mtap-research/PACMAN-charge/)
data_LELRUR_ASR_pacman
_symmetry_space_group_name_H-M   'P 1'
_cell_length_a   14.78790000
_cell_length_b   14.78790000
_cell_length_c   27.98790000
_cell_angle_alpha   74.35160000
_cell_angle_beta   105.64800000
_cell_angle_gamma   99.87650000
_symmetry_Int_Tables_number   1
_chemical_formula_structural   LaP4H32(C19O6)2
_chemical_formula_sum   'La4 P16 H128 C152 O48'
_cell_volume   5642.87190549
_cell_formula_units_Z   4
loop_
 _symmetry_equiv_pos_site_id
 _symmetry_equiv_pos_as_xyz
  1  'x, y, z'
loop_
 _atom_site_type_symbol
 _atom_site_label
 _atom_site_symmetry_multiplicity
 _atom_site_fract_x
 _atom_site_fract_y
 _atom_site_fract_z
 _atom_site_occupancy
 _atom_site_charge
La  La1  1  0.12609000  0.39479000  0.99676000  1.0 2.1152568461
La  La2  1  0.39479000  0.12609000  0.50324000  1.0 2.1120672823
La  La3  1  0.87391000  0.60521000  0.00324000  1.0 2.1120672823
La  La4  1  0.60521000  0.87391000  0.49676000  1.0 2.1120672823
P  P1  1  0.27063000  0.46223000  0.89877000  1.0 1.2370990218
P  P2  1  0.46223000  0.27063000  0.60123000  1.0 1.2370990218
P  P3  1  0.72937000  0.53777000  0.10123000  1.0 1.2370990218
P  P4  1  0.53777000  0.72937000  0.39877000  1.0 1.2370990218
P  P5  1  0.56773000  0.60565000  0.55602000  1.0 1.2926186026
P  P6  1  0.60565000  0.56773000  0.94398000  1.0 1.2926186026
P  P7  1  0.43227000  0.39435000  0.44398000  1.0 1.2926186026
P  P8  1  0.39435000  0.43227000  0.05602000  1.0 1.2926186026
P  P9  1  0.13925000  0.06185000  0.52228000  1.0 1.2784445287
P  P10  1  0.06185000  0.13925000  0.97772000  1.0 1.2784445287
P  P11  1  0.86075000  0.93815000  0.47772000  1.0 1.2784445287
P  P12  1  0.93815000  0.86075000  0.02228000  1.0 1.2784445287
P  P13  1  0.35127000  0.89509000  0.45812000  1.0 1.3113742174
P  P14  1  0.89509000  0.35127000  0.04188000  1.0 1.3113742174
P  P15  1  0.64873000  0.10491000  0.54188000  1.0 1.3113742174
P  P16  1  0.10491000  0.64873000  0.95812000  1.0 1.3113742174
H  H1  1  0.10910000  0.37310000  0.83640000  1.0 0.120497557
H  H2  1  0.37310000  0.10910000  0.66360000  1.0 0.120497557
H  H3  1  0.89090000  0.62690000  0.16360000  1.0 0.120497557
H  H4  1  0.62690000  0.89090000  0.33640000  1.0 0.120497557
H  H5  1  0.06190000  0.36690000  0.75220000  1.0 0.1086890922
H  H6  1  0.36690000  0.06190000  0.74780000  1.0 0.1086890922
H  H7  1  0.93810000  0.63310000  0.24780000  1.0 0.1086890922
H  H8  1  0.63310000  0.93810000  0.25220000  1.0 0.1086890922
H  H9  1  0.26200000  0.58300000  0.72070000  1.0 0.1086890922
H  H10  1  0.58300000  0.26200000  0.77930000  1.0 0.1086890922
H  H11  1  0.73800000  0.41700000  0.27930000  1.0 0.1086890922
H  H12  1  0.41700000  0.73800000  0.22070000  1.0 0.1086890922
H  H13  1  0.01080000  0.56280000  0.66260000  1.0 0.120497557
H  H14  1  0.56280000  0.01080000  0.83740000  1.0 0.120497557
H  H15  1  0.98920000  0.43720000  0.33740000  1.0 0.120497557
H  H16  1  0.43720000  0.98920000  0.16260000  1.0 0.120497557
H  H17  1  0.97560000  0.45220000  0.67530000  1.0 0.1040995905
H  H18  1  0.45220000  0.97560000  0.82470000  1.0 0.1040995905
H  H19  1  0.02440000  0.54780000  0.32470000  1.0 0.1040995905
H  H20  1  0.54780000  0.02440000  0.17530000  1.0 0.1040995905
H  H21  1  0.00460000  0.59180000  0.53100000  1.0 0.120497557
H  H22  1  0.59180000  0.00460000  0.96900000  1.0 0.120497557
H  H23  1  0.99540000  0.40820000  0.46900000  1.0 0.120497557
H  H24  1  0.40820000  0.99540000  0.03100000  1.0 0.120497557
H  H25  1  0.02860000  0.64700000  0.57570000  1.0 0.120497557
H  H26  1  0.64700000  0.02860000  0.92430000  1.0 0.120497557
H  H27  1  0.97140000  0.35300000  0.42430000  1.0 0.120497557
H  H28  1  0.35300000  0.97140000  0.07570000  1.0 0.120497557
H  H29  1  0.17370000  0.61770000  0.64730000  1.0 0.1086890922
H  H30  1  0.61770000  0.17370000  0.85270000  1.0 0.120497557
H  H31  1  0.82630000  0.38230000  0.35270000  1.0 0.120497557
H  H32  1  0.38230000  0.82630000  0.14730000  1.0 0.1086890922
H  H33  1  0.24080000  0.54200000  0.64890000  1.0 0.120497557
H  H34  1  0.54200000  0.24080000  0.85110000  1.0 0.120497557
H  H35  1  0.75920000  0.45800000  0.35110000  1.0 0.120497557
H  H36  1  0.45800000  0.75920000  0.14890000  1.0 0.120497557
H  H37  1  0.93970000  0.36310000  0.60570000  1.0 0.1282966494
H  H38  1  0.36310000  0.93970000  0.89430000  1.0 0.1282966494
H  H39  1  0.06030000  0.63690000  0.39430000  1.0 0.1282966494
H  H40  1  0.63690000  0.06030000  0.10570000  1.0 0.1282966494
H  H41  1  0.95140000  0.41820000  0.54960000  1.0 0.120497557
H  H42  1  0.41820000  0.95140000  0.95040000  1.0 0.120497557
H  H43  1  0.04860000  0.58180000  0.45040000  1.0 0.120497557
H  H44  1  0.58180000  0.04860000  0.04960000  1.0 0.120497557
H  H45  1  0.11420000  0.47440000  0.53420000  1.0 0.120497557
H  H46  1  0.47440000  0.11420000  0.96580000  1.0 0.120497557
H  H47  1  0.88580000  0.52560000  0.46580000  1.0 0.120497557
H  H48  1  0.52560000  0.88580000  0.03420000  1.0 0.120497557
H  H49  1  0.20480000  0.45620000  0.58090000  1.0 0.1282966494
H  H50  1  0.45620000  0.20480000  0.91910000  1.0 0.1282966494
H  H51  1  0.79520000  0.54380000  0.41910000  1.0 0.1282966494
H  H52  1  0.54380000  0.79520000  0.08090000  1.0 0.1282966494
H  H53  1  0.07950000  0.33490000  0.67710000  1.0 0.120497557
H  H54  1  0.33490000  0.07950000  0.82290000  1.0 0.120497557
H  H55  1  0.92050000  0.66510000  0.32290000  1.0 0.120497557
H  H56  1  0.66510000  0.92050000  0.17710000  1.0 0.120497557
H  H57  1  0.18370000  0.36850000  0.66810000  1.0 0.120497557
H  H58  1  0.36850000  0.18370000  0.83190000  1.0 0.120497557
H  H59  1  0.81630000  0.63150000  0.33190000  1.0 0.120497557
H  H60  1  0.63150000  0.81630000  0.16810000  1.0 0.120497557
H  H61  1  0.82110000  0.41390000  0.63170000  1.0 0.1282966494
H  H62  1  0.41390000  0.82110000  0.86830000  1.0 0.1282966494
H  H63  1  0.17890000  0.58610000  0.36830000  1.0 0.1282966494
H  H64  1  0.58610000  0.17890000  0.13170000  1.0 0.1282966494
H  H65  1  0.66950000  0.44970000  0.61590000  1.0 0.1512227358
H  H66  1  0.44970000  0.66950000  0.88410000  1.0 0.1512227358
H  H67  1  0.33050000  0.55030000  0.38410000  1.0 0.1512227358
H  H68  1  0.55030000  0.33050000  0.11590000  1.0 0.1512227358
H  H69  1  0.72670000  0.68290000  0.51180000  1.0 0.1282966494
H  H70  1  0.68290000  0.72670000  0.98820000  1.0 0.1282966494
H  H71  1  0.27330000  0.31710000  0.48820000  1.0 0.1282966494
H  H72  1  0.31710000  0.27330000  0.01180000  1.0 0.1282966494
H  H73  1  0.87770000  0.64650000  0.52720000  1.0 0.1282966494
H  H74  1  0.64650000  0.87770000  0.97280000  1.0 0.1282966494
H  H75  1  0.12230000  0.35350000  0.47280000  1.0 0.1282966494
H  H76  1  0.35350000  0.12230000  0.02720000  1.0 0.1282966494
H  H77  1  0.16010000  0.74970000  0.57690000  1.0 0.1367649661
H  H78  1  0.74970000  0.16010000  0.92310000  1.0 0.1367649661
H  H79  1  0.83990000  0.25030000  0.42310000  1.0 0.1367649661
H  H80  1  0.25030000  0.83990000  0.07690000  1.0 0.1367649661
H  H81  1  0.23950000  0.87510000  0.52970000  1.0 0.1512227358
H  H82  1  0.87510000  0.23950000  0.97030000  1.0 0.1512227358
H  H83  1  0.76050000  0.12490000  0.47030000  1.0 0.1512227358
H  H84  1  0.12490000  0.76050000  0.02970000  1.0 0.1512227358
H  H85  1  0.32780000  0.69080000  0.47220000  1.0 0.1556974651
H  H86  1  0.69080000  0.32780000  0.02780000  1.0 0.1556974651
H  H87  1  0.67220000  0.30920000  0.52780000  1.0 0.1556974651
H  H88  1  0.30920000  0.67220000  0.97220000  1.0 0.1556974651
H  H89  1  0.24570000  0.56890000  0.51880000  1.0 0.1282966494
H  H90  1  0.56890000  0.24570000  0.98120000  1.0 0.1282966494
H  H91  1  0.75430000  0.43110000  0.48120000  1.0 0.1282966494
H  H92  1  0.43110000  0.75430000  0.01880000  1.0 0.1282966494
H  H93  1  0.95190000  0.26690000  0.55230000  1.0 0.120497557
H  H94  1  0.26690000  0.95190000  0.94770000  1.0 0.120497557
H  H95  1  0.04810000  0.73310000  0.44770000  1.0 0.120497557
H  H96  1  0.73310000  0.04810000  0.05230000  1.0 0.120497557
H  H97  1  0.97440000  0.14380000  0.52030000  1.0 0.1512227358
H  H98  1  0.14380000  0.97440000  0.97970000  1.0 0.1512227358
H  H99  1  0.02560000  0.85620000  0.47970000  1.0 0.1512227358
H  H100  1  0.85620000  0.02560000  0.02030000  1.0 0.1512227358
H  H101  1  0.25030000  0.17610000  0.58660000  1.0 0.1282966494
H  H102  1  0.17610000  0.25030000  0.91340000  1.0 0.1282966494
H  H103  1  0.74970000  0.82390000  0.41340000  1.0 0.1282966494
H  H104  1  0.82390000  0.74970000  0.08660000  1.0 0.1282966494
H  H105  1  0.23010000  0.29790000  0.61750000  1.0 0.1282966494
H  H106  1  0.29790000  0.23010000  0.88250000  1.0 0.1282966494
H  H107  1  0.76990000  0.70210000  0.38250000  1.0 0.1282966494
H  H108  1  0.70210000  0.76990000  0.11750000  1.0 0.1282966494
H  H109  1  0.31300000  0.57960000  0.80790000  1.0 0.1282966494
H  H110  1  0.57960000  0.31300000  0.69210000  1.0 0.1282966494
H  H111  1  0.68700000  0.42040000  0.19210000  1.0 0.1282966494
H  H112  1  0.42040000  0.68700000  0.30790000  1.0 0.1282966494
H  H113  1  0.09200000  0.47460000  0.83240000  1.0 0.1282966494
H  H114  1  0.47460000  0.09200000  0.66760000  1.0 0.1282966494
H  H115  1  0.90800000  0.52540000  0.16760000  1.0 0.1282966494
H  H116  1  0.52540000  0.90800000  0.33240000  1.0 0.1282966494
H  H117  1  0.03490000  0.46550000  0.74850000  1.0 0.1086890922
H  H118  1  0.46550000  0.03490000  0.75150000  1.0 0.1086890922
H  H119  1  0.96510000  0.53450000  0.25150000  1.0 0.1086890922
H  H120  1  0.53450000  0.96510000  0.24850000  1.0 0.1086890922
H  H121  1  0.27520000  0.41340000  0.73480000  1.0 0.1086890922
H  H122  1  0.41340000  0.27520000  0.76520000  1.0 0.1086890922
H  H123  1  0.72480000  0.58660000  0.26520000  1.0 0.1086890922
H  H124  1  0.58660000  0.72480000  0.23480000  1.0 0.1086890922
H  H125  1  0.35030000  0.42170000  0.82520000  1.0 0.1282966494
H  H126  1  0.42170000  0.35030000  0.67480000  1.0 0.1282966494
H  H127  1  0.64970000  0.57830000  0.17480000  1.0 0.1282966494
H  H128  1  0.57830000  0.64970000  0.32520000  1.0 0.1282966494
C  C1  1  0.22840000  0.46220000  0.83290000  1.0 -0.0890451203
C  C2  1  0.46220000  0.22840000  0.66710000  1.0 -0.0890451203
C  C3  1  0.77160000  0.53780000  0.16710000  1.0 -0.0890451203
C  C4  1  0.53780000  0.77160000  0.33290000  1.0 -0.0890451203
C  C5  1  0.14540000  0.41040000  0.81340000  1.0 -0.0495095618
C  C6  1  0.41040000  0.14540000  0.68660000  1.0 -0.0495095618
C  C7  1  0.85460000  0.58960000  0.18660000  1.0 -0.0495095618
C  C8  1  0.58960000  0.85460000  0.31340000  1.0 -0.0495095618
C  C9  1  0.11360000  0.41040000  0.76290000  1.0 -0.0495095618
C  C10  1  0.41040000  0.11360000  0.73710000  1.0 -0.0495095618
C  C11  1  0.88640000  0.58960000  0.23710000  1.0 -0.0495095618
C  C12  1  0.58960000  0.88640000  0.26290000  1.0 -0.0495095618
C  C13  1  0.23270000  0.53730000  0.74460000  1.0 -0.0890451203
C  C14  1  0.53730000  0.23270000  0.75540000  1.0 -0.0890451203
C  C15  1  0.76730000  0.46270000  0.25540000  1.0 -0.0890451203
C  C16  1  0.46270000  0.76730000  0.24460000  1.0 -0.0890451203
C  C17  1  0.26510000  0.53310000  0.79680000  1.0 -0.0594690338
C  C18  1  0.53310000  0.26510000  0.70320000  1.0 -0.0594690338
C  C19  1  0.73490000  0.46690000  0.20320000  1.0 -0.0594690338
C  C20  1  0.46690000  0.73490000  0.29680000  1.0 -0.0594690338
C  C21  1  0.15640000  0.47320000  0.72750000  1.0 0.0445432068
C  C22  1  0.47320000  0.15640000  0.77250000  1.0 0.0445432068
C  C23  1  0.84360000  0.52680000  0.27250000  1.0 0.0445432068
C  C24  1  0.52680000  0.84360000  0.22750000  1.0 0.0445432068
C  C25  1  0.11650000  0.47890000  0.67070000  1.0 0.1718181075
C  C26  1  0.47890000  0.11650000  0.82930000  1.0 0.1718181075
C  C27  1  0.88350000  0.52110000  0.32930000  1.0 0.1718181075
C  C28  1  0.52110000  0.88350000  0.17070000  1.0 0.1718181075
C  C29  1  0.01350000  0.50170000  0.65500000  1.0 -0.3000988765
C  C30  1  0.50170000  0.01350000  0.84500000  1.0 -0.3000988765
C  C31  1  0.98650000  0.49830000  0.34500000  1.0 -0.3000988765
C  C32  1  0.49830000  0.98650000  0.15500000  1.0 -0.3000988765
C  C33  1  0.97120000  0.50760000  0.59810000  1.0 0.1862090008
C  C34  1  0.50760000  0.97120000  0.90190000  1.0 0.1862090008
C  C35  1  0.02880000  0.49240000  0.40190000  1.0 0.1862090008
C  C36  1  0.49240000  0.02880000  0.09810000  1.0 0.1862090008
C  C37  1  0.03120000  0.58600000  0.56800000  1.0 -0.3000988765
C  C38  1  0.58600000  0.03120000  0.93200000  1.0 -0.3000988765
C  C39  1  0.96880000  0.41400000  0.43200000  1.0 -0.3000988765
C  C40  1  0.41400000  0.96880000  0.06800000  1.0 -0.3000988765
C  C41  1  0.13490000  0.56510000  0.58170000  1.0 0.1830706691
C  C42  1  0.56510000  0.13490000  0.91830000  1.0 0.1830706691
C  C43  1  0.86510000  0.43490000  0.41830000  1.0 0.1830706691
C  C44  1  0.43490000  0.86510000  0.08170000  1.0 0.1830706691
C  C45  1  0.17450000  0.55650000  0.63930000  1.0 -0.3000988765
C  C46  1  0.55650000  0.17450000  0.86070000  1.0 -0.3000988765
C  C47  1  0.82550000  0.44350000  0.36070000  1.0 -0.3000988765
C  C48  1  0.44350000  0.82550000  0.13930000  1.0 -0.3000988765
C  C49  1  0.97790000  0.41450000  0.58650000  1.0 -0.3055738209
C  C50  1  0.41450000  0.97790000  0.91350000  1.0 -0.3055738209
C  C51  1  0.02210000  0.58550000  0.41350000  1.0 -0.3055738209
C  C52  1  0.58550000  0.02210000  0.08650000  1.0 -0.3055738209
C  C53  1  0.13840000  0.47060000  0.57120000  1.0 -0.3000988765
C  C54  1  0.47060000  0.13840000  0.92880000  1.0 -0.3000988765
C  C55  1  0.86160000  0.52940000  0.42880000  1.0 -0.3000988765
C  C56  1  0.52940000  0.86160000  0.07120000  1.0 -0.3000988765
C  C57  1  0.11810000  0.38530000  0.65770000  1.0 -0.3000988765
C  C58  1  0.38530000  0.11810000  0.84230000  1.0 -0.3000988765
C  C59  1  0.88190000  0.61470000  0.34230000  1.0 -0.3000988765
C  C60  1  0.61470000  0.88190000  0.15770000  1.0 -0.3000988765
C  C61  1  0.07980000  0.39100000  0.60080000  1.0 0.1830706691
C  C62  1  0.39100000  0.07980000  0.89920000  1.0 0.1830706691
C  C63  1  0.92020000  0.60900000  0.39920000  1.0 0.1830706691
C  C64  1  0.60900000  0.92020000  0.10080000  1.0 0.1830706691
C  C65  1  0.86900000  0.53160000  0.58380000  1.0 0.0547139571
C  C66  1  0.53160000  0.86900000  0.91620000  1.0 0.0547139571
C  C67  1  0.13100000  0.46840000  0.41620000  1.0 0.0547139571
C  C68  1  0.46840000  0.13100000  0.08380000  1.0 0.0547139571
C  C69  1  0.80280000  0.47100000  0.60810000  1.0 -0.1486653526
C  C70  1  0.47100000  0.80280000  0.89190000  1.0 -0.1486653526
C  C71  1  0.19720000  0.52900000  0.39190000  1.0 -0.1486653526
C  C72  1  0.52900000  0.19720000  0.10810000  1.0 -0.1486653526
C  C73  1  0.71270000  0.49210000  0.59870000  1.0 -0.0412240607
C  C74  1  0.49210000  0.71270000  0.90130000  1.0 -0.0412240607
C  C75  1  0.28730000  0.50790000  0.40130000  1.0 -0.0412240607
C  C76  1  0.50790000  0.28730000  0.09870000  1.0 -0.0412240607
C  C77  1  0.68300000  0.57340000  0.56470000  1.0 -0.1412329747
C  C78  1  0.57340000  0.68300000  0.93530000  1.0 -0.1412329747
C  C79  1  0.31700000  0.42660000  0.43530000  1.0 -0.1412329747
C  C80  1  0.42660000  0.31700000  0.06470000  1.0 -0.1412329747
C  C81  1  0.74640000  0.62860000  0.53760000  1.0 -0.0495095618
C  C82  1  0.62860000  0.74640000  0.96240000  1.0 -0.0495095618
C  C83  1  0.25360000  0.37140000  0.46240000  1.0 -0.0495095618
C  C84  1  0.37140000  0.25360000  0.03760000  1.0 -0.0495095618
C  C85  1  0.83640000  0.60720000  0.54700000  1.0 -0.1486653526
C  C86  1  0.60720000  0.83640000  0.95300000  1.0 -0.1486653526
C  C87  1  0.16360000  0.39280000  0.45300000  1.0 -0.1486653526
C  C88  1  0.39280000  0.16360000  0.04700000  1.0 -0.1486653526
C  C89  1  0.19180000  0.64520000  0.55180000  1.0 0.0602131469
C  C90  1  0.64520000  0.19180000  0.94820000  1.0 0.0602131469
C  C91  1  0.80820000  0.35480000  0.44820000  1.0 0.0602131469
C  C92  1  0.35480000  0.80820000  0.05180000  1.0 0.0602131469
C  C93  1  0.19300000  0.73780000  0.55480000  1.0 -0.1412329747
C  C94  1  0.73780000  0.19300000  0.94520000  1.0 -0.1412329747
C  C95  1  0.80700000  0.26220000  0.44520000  1.0 -0.1412329747
C  C96  1  0.26220000  0.80700000  0.05480000  1.0 -0.1412329747
C  C97  1  0.24040000  0.81280000  0.52660000  1.0 -0.0412240607
C  C98  1  0.81280000  0.24040000  0.97340000  1.0 -0.0412240607
C  C99  1  0.75960000  0.18720000  0.47340000  1.0 -0.0412240607
C  C100  1  0.18720000  0.75960000  0.02660000  1.0 -0.0412240607
C  C101  1  0.28890000  0.79870000  0.49410000  1.0 -0.1486653526
C  C102  1  0.79870000  0.28890000  0.00590000  1.0 -0.1586026186
C  C103  1  0.71110000  0.20130000  0.50590000  1.0 -0.1586026186
C  C104  1  0.20130000  0.71110000  0.99410000  1.0 -0.1586026186
C  C105  1  0.29200000  0.70380000  0.49260000  1.0 -0.0198830895
C  C106  1  0.70380000  0.29200000  0.00740000  1.0 -0.0198830895
C  C107  1  0.70800000  0.29620000  0.50740000  1.0 -0.0198830895
C  C108  1  0.29620000  0.70800000  0.99260000  1.0 -0.0198830895
C  C109  1  0.24350000  0.63170000  0.52070000  1.0 -0.1486653526
C  C110  1  0.63170000  0.24350000  0.97930000  1.0 -0.1486653526
C  C111  1  0.75650000  0.36830000  0.47930000  1.0 -0.1486653526
C  C112  1  0.36830000  0.75650000  0.02070000  1.0 -0.1486653526
C  C113  1  0.08820000  0.29840000  0.58720000  1.0 0.0602131469
C  C114  1  0.29840000  0.08820000  0.91280000  1.0 0.0602131469
C  C115  1  0.91180000  0.70160000  0.41280000  1.0 0.0602131469
C  C116  1  0.70160000  0.91180000  0.08720000  1.0 0.0602131469
C  C117  1  0.01390000  0.24970000  0.55890000  1.0 -0.1486653526
C  C118  1  0.24970000  0.01390000  0.94110000  1.0 -0.1486653526
C  C119  1  0.98610000  0.75030000  0.44110000  1.0 -0.1486653526
C  C120  1  0.75030000  0.98610000  0.05890000  1.0 -0.1486653526
C  C121  1  0.02690000  0.17570000  0.53970000  1.0 -0.0412240607
C  C122  1  0.17570000  0.02690000  0.96030000  1.0 -0.0412240607
C  C123  1  0.97310000  0.82430000  0.46030000  1.0 -0.0412240607
C  C124  1  0.82430000  0.97310000  0.03970000  1.0 -0.0412240607
C  C125  1  0.11500000  0.15000000  0.54900000  1.0 -0.1586026186
C  C126  1  0.15000000  0.11500000  0.95100000  1.0 -0.1586026186
C  C127  1  0.88500000  0.85000000  0.45100000  1.0 -0.1586026186
C  C128  1  0.85000000  0.88500000  0.04900000  1.0 -0.1586026186
C  C129  1  0.18900000  0.19580000  0.57880000  1.0 -0.0594690338
C  C130  1  0.19580000  0.18900000  0.92120000  1.0 -0.0594690338
C  C131  1  0.81100000  0.80420000  0.42120000  1.0 -0.0594690338
C  C132  1  0.80420000  0.81100000  0.07880000  1.0 -0.0594690338
C  C133  1  0.17720000  0.26800000  0.59740000  1.0 -0.1412329747
C  C134  1  0.26800000  0.17720000  0.90260000  1.0 -0.1412329747
C  C135  1  0.82280000  0.73200000  0.40260000  1.0 -0.1412329747
C  C136  1  0.73200000  0.82280000  0.09740000  1.0 -0.1412329747
C  C137  1  0.13270000  0.46930000  0.81250000  1.0 -0.0594690338
C  C138  1  0.46930000  0.13270000  0.68750000  1.0 -0.0594690338
C  C139  1  0.86730000  0.53070000  0.18750000  1.0 -0.0594690338
C  C140  1  0.53070000  0.86730000  0.31250000  1.0 -0.0594690338
C  C141  1  0.10100000  0.46900000  0.76180000  1.0 -0.0412240607
C  C142  1  0.46900000  0.10100000  0.73820000  1.0 -0.0412240607
C  C143  1  0.89900000  0.53100000  0.23820000  1.0 -0.0412240607
C  C144  1  0.53100000  0.89900000  0.26180000  1.0 -0.0412240607
C  C145  1  0.24370000  0.43830000  0.75300000  1.0 -0.0594690338
C  C146  1  0.43830000  0.24370000  0.74700000  1.0 -0.0594690338
C  C147  1  0.75630000  0.56170000  0.24700000  1.0 -0.0594690338
C  C148  1  0.56170000  0.75630000  0.25300000  1.0 -0.0594690338
C  C149  1  0.28810000  0.43730000  0.80860000  1.0 -0.0778166483
C  C150  1  0.43730000  0.28810000  0.69140000  1.0 -0.0778166483
C  C151  1  0.71190000  0.56270000  0.19140000  1.0 -0.0778166483
C  C152  1  0.56270000  0.71190000  0.30860000  1.0 -0.0778166483
O  O1  1  0.20610000  0.40290000  0.92890000  1.0 -0.7665805219
O  O2  1  0.40290000  0.20610000  0.57110000  1.0 -0.7665805219
O  O3  1  0.79390000  0.59710000  0.07110000  1.0 -0.7665805219
O  O4  1  0.59710000  0.79390000  0.42890000  1.0 -0.7665805219
O  O5  1  0.37460000  0.42980000  0.91300000  1.0 -0.5980323701
O  O6  1  0.42980000  0.37460000  0.58700000  1.0 -0.5980323701
O  O7  1  0.62540000  0.57020000  0.08700000  1.0 -0.5980323701
O  O8  1  0.57020000  0.62540000  0.41300000  1.0 -0.5980323701
O  O9  1  0.27950000  0.56630000  0.90380000  1.0 -0.6202385325
O  O10  1  0.56630000  0.27950000  0.59620000  1.0 -0.6202385325
O  O11  1  0.72050000  0.43370000  0.09620000  1.0 -0.6202385325
O  O12  1  0.43370000  0.72050000  0.40380000  1.0 -0.6202385325
O  O13  1  0.56490000  0.70370000  0.53370000  1.0 -0.7957349716
O  O14  1  0.70370000  0.56490000  0.96630000  1.0 -0.7957349716
O  O15  1  0.43510000  0.29630000  0.46630000  1.0 -0.7957349716
O  O16  1  0.29630000  0.43510000  0.03370000  1.0 -0.7957349716
O  O17  1  0.49520000  0.54260000  0.52830000  1.0 -0.4489405675
O  O18  1  0.54260000  0.49520000  0.97170000  1.0 -0.4489405675
O  O19  1  0.50480000  0.45740000  0.47170000  1.0 -0.4489405675
O  O20  1  0.45740000  0.50480000  0.02830000  1.0 -0.4489405675
O  O21  1  0.54670000  0.58230000  0.61060000  1.0 -0.6528058051
O  O22  1  0.58230000  0.54670000  0.88940000  1.0 -0.6528058051
O  O23  1  0.45330000  0.41770000  0.38940000  1.0 -0.6528058051
O  O24  1  0.41770000  0.45330000  0.11060000  1.0 -0.6528058051
O  O25  1  0.23980000  0.07440000  0.52170000  1.0 -0.8331715314
O  O26  1  0.07440000  0.23980000  0.97830000  1.0 -0.8331715314
O  O27  1  0.76020000  0.92560000  0.47830000  1.0 -0.8331715314
O  O28  1  0.92560000  0.76020000  0.02170000  1.0 -0.8331715314
O  O29  1  0.10860000  0.96520000  0.55360000  1.0 -0.638000965
O  O30  1  0.96520000  0.10860000  0.94640000  1.0 -0.638000965
O  O31  1  0.89140000  0.03480000  0.44640000  1.0 -0.638000965
O  O32  1  0.03480000  0.89140000  0.05360000  1.0 -0.638000965
O  O33  1  0.07280000  0.07020000  0.46700000  1.0 -0.6263488381
O  O34  1  0.07020000  0.07280000  0.03300000  1.0 -0.6263488381
O  O35  1  0.92720000  0.92980000  0.53300000  1.0 -0.6263488381
O  O36  1  0.92980000  0.92720000  0.96700000  1.0 -0.6263488381
O  O37  1  0.37230000  0.97510000  0.48180000  1.0 -0.8535718619
O  O38  1  0.97510000  0.37230000  0.01820000  1.0 -0.8535718619
O  O39  1  0.62770000  0.02490000  0.51820000  1.0 -0.8535718619
O  O40  1  0.02490000  0.62770000  0.98180000  1.0 -0.8535718619
O  O41  1  0.28110000  0.92330000  0.40410000  1.0 -0.6202385325
O  O42  1  0.92330000  0.28110000  0.09590000  1.0 -0.6108262537
O  O43  1  0.71890000  0.07670000  0.59590000  1.0 -0.6202385325
O  O44  1  0.07670000  0.71890000  0.90410000  1.0 -0.6108262537
O  O45  1  0.43450000  0.86210000  0.44940000  1.0 -0.7768727242
O  O46  1  0.86210000  0.43450000  0.05060000  1.0 -0.7768727242
O  O47  1  0.56550000  0.13790000  0.55060000  1.0 -0.7768727242
O  O48  1  0.13790000  0.56550000  0.94940000  1.0 -0.7768727242
