# DDEC6 charges by PACMAN v1.1 (https://github.com/mtap-research/PACMAN-charge/)
data_LEMNOH_ASR_pacman
_symmetry_space_group_name_H-M   'P 1'
_cell_length_a   11.14000000
_cell_length_b   11.49700000
_cell_length_c   16.85400000
_cell_angle_alpha   90.00000000
_cell_angle_beta   90.00000000
_cell_angle_gamma   90.00000000
_symmetry_Int_Tables_number   1
_chemical_formula_structural   Fe(C8N5)2
_chemical_formula_sum   'Fe4 C64 N40'
_cell_volume   2158.60267932
_cell_formula_units_Z   4
loop_
 _symmetry_equiv_pos_site_id
 _symmetry_equiv_pos_as_xyz
  1  'x, y, z'
loop_
 _atom_site_type_symbol
 _atom_site_label
 _atom_site_symmetry_multiplicity
 _atom_site_fract_x
 _atom_site_fract_y
 _atom_site_fract_z
 _atom_site_occupancy
 _atom_site_charge
Fe  Fe1  1  0.00000000  0.00000000  0.00000000  1.0 0.9546068669
Fe  Fe2  1  0.50000000  0.00000000  0.50000000  1.0 0.9546068669
Fe  Fe3  1  0.00000000  0.50000000  0.50000000  1.0 0.9546068669
Fe  Fe4  1  0.50000000  0.50000000  0.00000000  1.0 0.9546068669
C  C1  1  0.82260000  0.93350000  0.75280000  1.0 -0.103031294
C  C2  1  0.67740000  0.06650000  0.25280000  1.0 -0.103031294
C  C3  1  0.17740000  0.43350000  0.74720000  1.0 -0.103031294
C  C4  1  0.32260000  0.56650000  0.24720000  1.0 -0.103031294
C  C5  1  0.17740000  0.06650000  0.24720000  1.0 -0.103031294
C  C6  1  0.32260000  0.93350000  0.74720000  1.0 -0.103031294
C  C7  1  0.82260000  0.56650000  0.25280000  1.0 -0.103031294
C  C8  1  0.67740000  0.43350000  0.75280000  1.0 -0.103031294
C  C9  1  0.86980000  0.85240000  0.70170000  1.0 0.0904505388
C  C10  1  0.63020000  0.14760000  0.20170000  1.0 0.0904505388
C  C11  1  0.13020000  0.35240000  0.79830000  1.0 0.0904505388
C  C12  1  0.36980000  0.64760000  0.29830000  1.0 0.0904505388
C  C13  1  0.13020000  0.14760000  0.29830000  1.0 0.0904505388
C  C14  1  0.36980000  0.85240000  0.79830000  1.0 0.0904505388
C  C15  1  0.86980000  0.64760000  0.20170000  1.0 0.0904505388
C  C16  1  0.63020000  0.35240000  0.70170000  1.0 0.0904505388
C  C17  1  0.83060000  0.81880000  0.62590000  1.0 -0.1381314485
C  C18  1  0.66940000  0.18120000  0.12590000  1.0 -0.1381314485
C  C19  1  0.16940000  0.31880000  0.87410000  1.0 -0.1381314485
C  C20  1  0.33060000  0.68120000  0.37410000  1.0 -0.1381314485
C  C21  1  0.16940000  0.18120000  0.37410000  1.0 -0.1381314485
C  C22  1  0.33060000  0.81880000  0.87410000  1.0 -0.1381314485
C  C23  1  0.83060000  0.68120000  0.12590000  1.0 -0.1381314485
C  C24  1  0.66940000  0.31880000  0.62590000  1.0 -0.1381314485
C  C25  1  0.87500000  0.95270000  0.83010000  1.0 0.3423382403
C  C26  1  0.62500000  0.04730000  0.33010000  1.0 0.3423382403
C  C27  1  0.12500000  0.45270000  0.66990000  1.0 0.3423382403
C  C28  1  0.37500000  0.54730000  0.16990000  1.0 0.3423382403
C  C29  1  0.12500000  0.04730000  0.16990000  1.0 0.3423382403
C  C30  1  0.37500000  0.95270000  0.66990000  1.0 0.3423382403
C  C31  1  0.87500000  0.54730000  0.33010000  1.0 0.3423382403
C  C32  1  0.62500000  0.45270000  0.83010000  1.0 0.3423382403
C  C33  1  0.71840000  0.00070000  0.73610000  1.0 0.2613401548
C  C34  1  0.78160000  0.99930000  0.23610000  1.0 0.2613401548
C  C35  1  0.28160000  0.50070000  0.76390000  1.0 0.2613401548
C  C36  1  0.21840000  0.49930000  0.26390000  1.0 0.2613401548
C  C37  1  0.28160000  0.99930000  0.26390000  1.0 0.2613401548
C  C38  1  0.21840000  0.00070000  0.76390000  1.0 0.2613401548
C  C39  1  0.71840000  0.49930000  0.23610000  1.0 0.2613401548
C  C40  1  0.78160000  0.50070000  0.73610000  1.0 0.2613401548
C  C41  1  0.98210000  0.79790000  0.72880000  1.0 0.2535263957
C  C42  1  0.51790000  0.20210000  0.22880000  1.0 0.2535263957
C  C43  1  0.01790000  0.29790000  0.77120000  1.0 0.2535263957
C  C44  1  0.48210000  0.70210000  0.27120000  1.0 0.2535263957
C  C45  1  0.01790000  0.20210000  0.27120000  1.0 0.2535263957
C  C46  1  0.48210000  0.79790000  0.77120000  1.0 0.2535263957
C  C47  1  0.98210000  0.70210000  0.22880000  1.0 0.2535263957
C  C48  1  0.51790000  0.29790000  0.72880000  1.0 0.2535263957
C  C49  1  0.22910000  0.86930000  0.91240000  1.0 0.3285183073
C  C50  1  0.27090000  0.13070000  0.41240000  1.0 0.3285183073
C  C51  1  0.77090000  0.36930000  0.58760000  1.0 0.3285183073
C  C52  1  0.72910000  0.63070000  0.08760000  1.0 0.3285183073
C  C53  1  0.77090000  0.13070000  0.08760000  1.0 0.3285183073
C  C54  1  0.72910000  0.86930000  0.58760000  1.0 0.3285183073
C  C55  1  0.22910000  0.63070000  0.41240000  1.0 0.3285183073
C  C56  1  0.27090000  0.36930000  0.91240000  1.0 0.3285183073
C  C57  1  0.88800000  0.77030000  0.08380000  1.0 0.3285183073
C  C58  1  0.61200000  0.22970000  0.58380000  1.0 0.3285183073
C  C59  1  0.11200000  0.27030000  0.41620000  1.0 0.3285183073
C  C60  1  0.38800000  0.72970000  0.91620000  1.0 0.3285183073
C  C61  1  0.11200000  0.22970000  0.91620000  1.0 0.3285183073
C  C62  1  0.38800000  0.77030000  0.41620000  1.0 0.3285183073
C  C63  1  0.88800000  0.72970000  0.58380000  1.0 0.3285183073
C  C64  1  0.61200000  0.27030000  0.08380000  1.0 0.3285183073
N  N1  1  0.90980000  0.96750000  0.89230000  1.0 -0.3663112535
N  N2  1  0.59020000  0.03250000  0.39230000  1.0 -0.3663112535
N  N3  1  0.09020000  0.46750000  0.60770000  1.0 -0.3663112535
N  N4  1  0.40980000  0.53250000  0.10770000  1.0 -0.3663112535
N  N5  1  0.09020000  0.03250000  0.10770000  1.0 -0.3663112535
N  N6  1  0.40980000  0.96750000  0.60770000  1.0 -0.3663112535
N  N7  1  0.90980000  0.53250000  0.39230000  1.0 -0.3663112535
N  N8  1  0.59020000  0.46750000  0.89230000  1.0 -0.3663112535
N  N9  1  0.63790000  0.05740000  0.72560000  1.0 -0.3428049548
N  N10  1  0.86210000  0.94260000  0.22560000  1.0 -0.3428049548
N  N11  1  0.36210000  0.55740000  0.77440000  1.0 -0.3428049548
N  N12  1  0.13790000  0.44260000  0.27440000  1.0 -0.3428049548
N  N13  1  0.36210000  0.94260000  0.27440000  1.0 -0.3428049548
N  N14  1  0.13790000  0.05740000  0.77440000  1.0 -0.3428049548
N  N15  1  0.63790000  0.44260000  0.22560000  1.0 -0.3428049548
N  N16  1  0.86210000  0.55740000  0.72560000  1.0 -0.3428049548
N  N17  1  0.06950000  0.75730000  0.74730000  1.0 -0.3428049548
N  N18  1  0.43050000  0.24270000  0.24730000  1.0 -0.3428049548
N  N19  1  0.93050000  0.25730000  0.75270000  1.0 -0.3428049548
N  N20  1  0.56950000  0.74270000  0.25270000  1.0 -0.3428049548
N  N21  1  0.93050000  0.24270000  0.25270000  1.0 -0.3428049548
N  N22  1  0.56950000  0.75730000  0.75270000  1.0 -0.3428049548
N  N23  1  0.06950000  0.74270000  0.24730000  1.0 -0.3428049548
N  N24  1  0.43050000  0.25730000  0.74730000  1.0 -0.3428049548
N  N25  1  0.15140000  0.91040000  0.94830000  1.0 -0.4035362168
N  N26  1  0.34860000  0.08960000  0.44830000  1.0 -0.4035362168
N  N27  1  0.84860000  0.41040000  0.55170000  1.0 -0.4035362168
N  N28  1  0.65140000  0.58960000  0.05170000  1.0 -0.4035362168
N  N29  1  0.84860000  0.08960000  0.05170000  1.0 -0.4035362168
N  N30  1  0.65140000  0.91040000  0.55170000  1.0 -0.4035362168
N  N31  1  0.15140000  0.58960000  0.44830000  1.0 -0.4035362168
N  N32  1  0.34860000  0.41040000  0.94830000  1.0 -0.4035362168
N  N33  1  0.93320000  0.84200000  0.04820000  1.0 -0.3853752552
N  N34  1  0.56680000  0.15800000  0.54820000  1.0 -0.3853752552
N  N35  1  0.06680000  0.34200000  0.45180000  1.0 -0.3853752552
N  N36  1  0.43320000  0.65800000  0.95180000  1.0 -0.3853752552
N  N37  1  0.06680000  0.15800000  0.95180000  1.0 -0.3853752552
N  N38  1  0.43320000  0.84200000  0.45180000  1.0 -0.3853752552
N  N39  1  0.93320000  0.65800000  0.54820000  1.0 -0.3853752552
N  N40  1  0.56680000  0.34200000  0.04820000  1.0 -0.3853752552
