# DDEC6 charges by PACMAN v1.1 (https://github.com/mtap-research/PACMAN-charge/)
data_LENGES_ASR_pacman
_symmetry_space_group_name_H-M   'P 1'
_cell_length_a   17.38670000
_cell_length_b   17.38670000
_cell_length_c   11.34550000
_cell_angle_alpha   90.00000000
_cell_angle_beta   90.00000000
_cell_angle_gamma   120.00000000
_symmetry_Int_Tables_number   1
_chemical_formula_structural   CdP3H24(C7O3)6
_chemical_formula_sum   'Cd4 P12 H96 C168 O72'
_cell_volume   2970.21982903
_cell_formula_units_Z   4
loop_
 _symmetry_equiv_pos_site_id
 _symmetry_equiv_pos_as_xyz
  1  'x, y, z'
loop_
 _atom_site_type_symbol
 _atom_site_label
 _atom_site_symmetry_multiplicity
 _atom_site_fract_x
 _atom_site_fract_y
 _atom_site_fract_z
 _atom_site_occupancy
 _atom_site_charge
Cd  Cd1  1  0.66666667  0.33333333  0.33660000  1.0 0.7466944011
Cd  Cd2  1  0.33333333  0.66666667  0.16340000  1.0 0.7466944011
Cd  Cd3  1  0.33333333  0.66666667  0.66340000  1.0 0.7466944011
Cd  Cd4  1  0.66666667  0.33333333  0.83660000  1.0 0.7466944011
P  P1  1  0.09100000  0.09100000  0.00450000  1.0 0.1476935411
P  P2  1  0.90900000  0.00000000  0.00450000  1.0 0.1476935411
P  P3  1  0.00000000  0.90900000  0.00450000  1.0 0.1476935411
P  P4  1  0.00000000  0.90900000  0.49550000  1.0 0.1476935411
P  P5  1  0.90900000  0.00000000  0.49550000  1.0 0.1476935411
P  P6  1  0.09100000  0.09100000  0.49550000  1.0 0.1476935411
P  P7  1  0.90900000  0.90900000  0.99550000  1.0 0.1476935411
P  P8  1  0.09100000  0.00000000  0.99550000  1.0 0.1476935411
P  P9  1  0.00000000  0.09100000  0.99550000  1.0 0.1476935411
P  P10  1  0.00000000  0.09100000  0.50450000  1.0 0.1476935411
P  P11  1  0.09100000  0.00000000  0.50450000  1.0 0.1476935411
P  P12  1  0.90900000  0.90900000  0.50450000  1.0 0.1476935411
H  H1  1  0.35370000  0.27080000  0.37880000  1.0 0.1161673518
H  H2  1  0.72920000  0.08290000  0.37880000  1.0 0.1161673518
H  H3  1  0.91710000  0.64630000  0.37880000  1.0 0.1161673518
H  H4  1  0.08290000  0.72920000  0.12120000  1.0 0.1161673518
H  H5  1  0.64630000  0.91710000  0.12120000  1.0 0.1161673518
H  H6  1  0.27080000  0.35370000  0.12120000  1.0 0.1161673518
H  H7  1  0.64630000  0.72920000  0.62120000  1.0 0.1161673518
H  H8  1  0.27080000  0.91710000  0.62120000  1.0 0.1161673518
H  H9  1  0.08290000  0.35370000  0.62120000  1.0 0.1161673518
H  H10  1  0.91710000  0.27080000  0.87880000  1.0 0.1161673518
H  H11  1  0.35370000  0.08290000  0.87880000  1.0 0.1161673518
H  H12  1  0.72920000  0.64630000  0.87880000  1.0 0.1161673518
H  H13  1  0.27440000  0.14220000  0.00780000  1.0 0.1285185947
H  H14  1  0.85780000  0.13220000  0.00780000  1.0 0.1285185947
H  H15  1  0.86780000  0.72560000  0.00780000  1.0 0.1285185947
H  H16  1  0.13220000  0.85780000  0.49220000  1.0 0.1285185947
H  H17  1  0.72560000  0.86780000  0.49220000  1.0 0.1285185947
H  H18  1  0.14220000  0.27440000  0.49220000  1.0 0.1285185947
H  H19  1  0.72560000  0.85780000  0.99220000  1.0 0.1285185947
H  H20  1  0.14220000  0.86780000  0.99220000  1.0 0.1285185947
H  H21  1  0.13220000  0.27440000  0.99220000  1.0 0.1285185947
H  H22  1  0.86780000  0.14220000  0.50780000  1.0 0.1285185947
H  H23  1  0.27440000  0.13220000  0.50780000  1.0 0.1285185947
H  H24  1  0.85780000  0.72560000  0.50780000  1.0 0.1285185947
H  H25  1  0.41660000  0.19160000  0.07920000  1.0 0.0898114408
H  H26  1  0.80840000  0.22500000  0.07920000  1.0 0.0898114408
H  H27  1  0.77500000  0.58340000  0.07920000  1.0 0.0898114408
H  H28  1  0.22500000  0.80840000  0.42080000  1.0 0.0898114408
H  H29  1  0.58340000  0.77500000  0.42080000  1.0 0.0898114408
H  H30  1  0.19160000  0.41660000  0.42080000  1.0 0.0898114408
H  H31  1  0.58340000  0.80840000  0.92080000  1.0 0.0898114408
H  H32  1  0.19160000  0.77500000  0.92080000  1.0 0.0898114408
H  H33  1  0.22500000  0.41660000  0.92080000  1.0 0.0898114408
H  H34  1  0.77500000  0.19160000  0.57920000  1.0 0.0898114408
H  H35  1  0.41660000  0.22500000  0.57920000  1.0 0.0898114408
H  H36  1  0.80840000  0.58340000  0.57920000  1.0 0.0898114408
H  H37  1  0.21150000  0.22140000  0.30730000  1.0 0.1575550998
H  H38  1  0.77860000  0.99010000  0.30730000  1.0 0.1575550998
H  H39  1  0.00990000  0.78850000  0.30730000  1.0 0.1575550998
H  H40  1  0.99010000  0.77860000  0.19270000  1.0 0.1575550998
H  H41  1  0.78850000  0.00990000  0.19270000  1.0 0.1575550998
H  H42  1  0.22140000  0.21150000  0.19270000  1.0 0.1575550998
H  H43  1  0.78850000  0.77860000  0.69270000  1.0 0.1575550998
H  H44  1  0.22140000  0.00990000  0.69270000  1.0 0.1575550998
H  H45  1  0.99010000  0.21150000  0.69270000  1.0 0.1575550998
H  H46  1  0.00990000  0.22140000  0.80730000  1.0 0.1575550998
H  H47  1  0.21150000  0.99010000  0.80730000  1.0 0.1575550998
H  H48  1  0.77860000  0.78850000  0.80730000  1.0 0.1575550998
H  H49  1  0.35840000  0.08830000  0.36310000  1.0 0.1285185947
H  H50  1  0.91170000  0.27010000  0.36310000  1.0 0.1285185947
H  H51  1  0.72990000  0.64160000  0.36310000  1.0 0.1285185947
H  H52  1  0.27010000  0.91170000  0.13690000  1.0 0.1285185947
H  H53  1  0.64160000  0.72990000  0.13690000  1.0 0.1285185947
H  H54  1  0.08830000  0.35840000  0.13690000  1.0 0.1285185947
H  H55  1  0.64160000  0.91170000  0.63690000  1.0 0.1285185947
H  H56  1  0.08830000  0.72990000  0.63690000  1.0 0.1285185947
H  H57  1  0.27010000  0.35840000  0.63690000  1.0 0.1285185947
H  H58  1  0.72990000  0.08830000  0.86310000  1.0 0.1285185947
H  H59  1  0.35840000  0.27010000  0.86310000  1.0 0.1285185947
H  H60  1  0.91170000  0.64160000  0.86310000  1.0 0.1285185947
H  H61  1  0.21570000  0.99420000  0.29430000  1.0 0.1075085581
H  H62  1  0.00580000  0.22150000  0.29430000  1.0 0.1075085581
H  H63  1  0.77850000  0.78430000  0.29430000  1.0 0.1075085581
H  H64  1  0.22150000  0.00580000  0.20570000  1.0 0.1075085581
H  H65  1  0.78430000  0.77850000  0.20570000  1.0 0.1075085581
H  H66  1  0.99420000  0.21570000  0.20570000  1.0 0.1075085581
H  H67  1  0.78430000  0.00580000  0.70570000  1.0 0.1075085581
H  H68  1  0.99420000  0.77850000  0.70570000  1.0 0.1075085581
H  H69  1  0.22150000  0.21570000  0.70570000  1.0 0.1075085581
H  H70  1  0.77850000  0.99420000  0.79430000  1.0 0.1075085581
H  H71  1  0.21570000  0.22150000  0.79430000  1.0 0.1075085581
H  H72  1  0.00580000  0.78430000  0.79430000  1.0 0.1075085581
H  H73  1  0.27710000  0.12930000  0.98900000  1.0 0.1075085581
H  H74  1  0.87070000  0.14780000  0.98900000  1.0 0.1075085581
H  H75  1  0.85220000  0.72290000  0.98900000  1.0 0.1075085581
H  H76  1  0.14780000  0.87070000  0.51100000  1.0 0.1075085581
H  H77  1  0.72290000  0.85220000  0.51100000  1.0 0.1075085581
H  H78  1  0.12930000  0.27710000  0.51100000  1.0 0.1075085581
H  H79  1  0.72290000  0.87070000  0.01100000  1.0 0.1075085581
H  H80  1  0.12930000  0.85220000  0.01100000  1.0 0.1075085581
H  H81  1  0.14780000  0.27710000  0.01100000  1.0 0.1075085581
H  H82  1  0.85220000  0.12930000  0.48900000  1.0 0.1075085581
H  H83  1  0.27710000  0.14780000  0.48900000  1.0 0.1075085581
H  H84  1  0.87070000  0.72290000  0.48900000  1.0 0.1075085581
H  H85  1  0.41980000  0.22340000  0.05780000  1.0 0.0832699838
H  H86  1  0.77660000  0.19640000  0.05780000  1.0 0.0832699838
H  H87  1  0.80360000  0.58020000  0.05780000  1.0 0.0832699838
H  H88  1  0.19640000  0.77660000  0.44220000  1.0 0.0832699838
H  H89  1  0.58020000  0.80360000  0.44220000  1.0 0.0832699838
H  H90  1  0.22340000  0.41980000  0.44220000  1.0 0.0832699838
H  H91  1  0.58020000  0.77660000  0.94220000  1.0 0.0832699838
H  H92  1  0.22340000  0.80360000  0.94220000  1.0 0.0832699838
H  H93  1  0.19640000  0.41980000  0.94220000  1.0 0.0832699838
H  H94  1  0.80360000  0.22340000  0.55780000  1.0 0.0832699838
H  H95  1  0.41980000  0.19640000  0.55780000  1.0 0.0832699838
H  H96  1  0.77660000  0.58020000  0.55780000  1.0 0.0832699838
C  C1  1  0.48520000  0.26470000  0.27450000  1.0 0.2848487672
C  C2  1  0.73530000  0.22050000  0.27450000  1.0 0.2848487672
C  C3  1  0.77950000  0.51480000  0.27450000  1.0 0.2848487672
C  C4  1  0.22050000  0.73530000  0.22550000  1.0 0.2848487672
C  C5  1  0.51480000  0.77950000  0.22550000  1.0 0.2848487672
C  C6  1  0.26470000  0.48520000  0.22550000  1.0 0.2848487672
C  C7  1  0.51480000  0.73530000  0.72550000  1.0 0.2848487672
C  C8  1  0.26470000  0.77950000  0.72550000  1.0 0.2848487672
C  C9  1  0.22050000  0.48520000  0.72550000  1.0 0.2848487672
C  C10  1  0.77950000  0.26470000  0.77450000  1.0 0.2848487672
C  C11  1  0.48520000  0.22050000  0.77450000  1.0 0.2848487672
C  C12  1  0.73530000  0.51480000  0.77450000  1.0 0.2848487672
C  C13  1  0.39920000  0.23610000  0.23610000  1.0 -0.0328111683
C  C14  1  0.76390000  0.16310000  0.23610000  1.0 -0.0328111683
C  C15  1  0.83690000  0.60080000  0.23610000  1.0 -0.0328111683
C  C16  1  0.16310000  0.76390000  0.26390000  1.0 -0.0328111683
C  C17  1  0.60080000  0.83690000  0.26390000  1.0 -0.0328111683
C  C18  1  0.23610000  0.39920000  0.26390000  1.0 -0.0328111683
C  C19  1  0.60080000  0.76390000  0.76390000  1.0 -0.0328111683
C  C20  1  0.23610000  0.83690000  0.76390000  1.0 -0.0328111683
C  C21  1  0.16310000  0.39920000  0.76390000  1.0 -0.0328111683
C  C22  1  0.83690000  0.23610000  0.73610000  1.0 -0.0328111683
C  C23  1  0.39920000  0.16310000  0.73610000  1.0 -0.0328111683
C  C24  1  0.76390000  0.60080000  0.73610000  1.0 -0.0328111683
C  C25  1  0.33780000  0.24500000  0.30440000  1.0 -0.097308581
C  C26  1  0.75500000  0.09280000  0.30440000  1.0 -0.097308581
C  C27  1  0.90720000  0.66220000  0.30440000  1.0 -0.097308581
C  C28  1  0.09280000  0.75500000  0.19560000  1.0 -0.097308581
C  C29  1  0.66220000  0.90720000  0.19560000  1.0 -0.097308581
C  C30  1  0.24500000  0.33780000  0.19560000  1.0 -0.097308581
C  C31  1  0.66220000  0.75500000  0.69560000  1.0 -0.097308581
C  C32  1  0.24500000  0.90720000  0.69560000  1.0 -0.097308581
C  C33  1  0.09280000  0.33780000  0.69560000  1.0 -0.097308581
C  C34  1  0.90720000  0.24500000  0.80440000  1.0 -0.097308581
C  C35  1  0.33780000  0.09280000  0.80440000  1.0 -0.097308581
C  C36  1  0.75500000  0.66220000  0.80440000  1.0 -0.097308581
C  C37  1  0.25260000  0.21540000  0.26160000  1.0 -0.0877688686
C  C38  1  0.78460000  0.03720000  0.26160000  1.0 -0.0877688686
C  C39  1  0.96280000  0.74740000  0.26160000  1.0 -0.0877688686
C  C40  1  0.03720000  0.78460000  0.23840000  1.0 -0.0877688686
C  C41  1  0.74740000  0.96280000  0.23840000  1.0 -0.0877688686
C  C42  1  0.21540000  0.25260000  0.23840000  1.0 -0.0877688686
C  C43  1  0.74740000  0.78460000  0.73840000  1.0 -0.0877688686
C  C44  1  0.21540000  0.96280000  0.73840000  1.0 -0.0877688686
C  C45  1  0.03720000  0.25260000  0.73840000  1.0 -0.0877688686
C  C46  1  0.96280000  0.21540000  0.76160000  1.0 -0.0877688686
C  C47  1  0.25260000  0.03720000  0.76160000  1.0 -0.0877688686
C  C48  1  0.78460000  0.74740000  0.76160000  1.0 -0.0877688686
C  C49  1  0.22880000  0.17690000  0.15050000  1.0 0.1075085581
C  C50  1  0.82310000  0.05190000  0.15050000  1.0 0.1075085581
C  C51  1  0.94810000  0.77120000  0.15050000  1.0 0.1075085581
C  C52  1  0.05190000  0.82310000  0.34950000  1.0 0.1075085581
C  C53  1  0.77120000  0.94810000  0.34950000  1.0 0.1075085581
C  C54  1  0.17690000  0.22880000  0.34950000  1.0 0.1075085581
C  C55  1  0.77120000  0.82310000  0.84950000  1.0 0.1075085581
C  C56  1  0.17690000  0.94810000  0.84950000  1.0 0.1075085581
C  C57  1  0.05190000  0.22880000  0.84950000  1.0 0.1075085581
C  C58  1  0.94810000  0.17690000  0.65050000  1.0 0.1075085581
C  C59  1  0.22880000  0.05190000  0.65050000  1.0 0.1075085581
C  C60  1  0.82310000  0.77120000  0.65050000  1.0 0.1075085581
C  C61  1  0.29030000  0.16800000  0.08220000  1.0 -0.097308581
C  C62  1  0.83200000  0.12230000  0.08220000  1.0 -0.097308581
C  C63  1  0.87770000  0.70970000  0.08220000  1.0 -0.097308581
C  C64  1  0.12230000  0.83200000  0.41780000  1.0 -0.097308581
C  C65  1  0.70970000  0.87770000  0.41780000  1.0 -0.097308581
C  C66  1  0.16800000  0.29030000  0.41780000  1.0 -0.097308581
C  C67  1  0.70970000  0.83200000  0.91780000  1.0 -0.097308581
C  C68  1  0.16800000  0.87770000  0.91780000  1.0 -0.097308581
C  C69  1  0.12230000  0.29030000  0.91780000  1.0 -0.097308581
C  C70  1  0.87770000  0.16800000  0.58220000  1.0 -0.097308581
C  C71  1  0.29030000  0.12230000  0.58220000  1.0 -0.097308581
C  C72  1  0.83200000  0.70970000  0.58220000  1.0 -0.097308581
C  C73  1  0.37550000  0.19760000  0.12500000  1.0 -0.0423486379
C  C74  1  0.80240000  0.17790000  0.12500000  1.0 -0.0423486379
C  C75  1  0.82210000  0.62450000  0.12500000  1.0 -0.0423486379
C  C76  1  0.17790000  0.80240000  0.37500000  1.0 -0.0423486379
C  C77  1  0.62450000  0.82210000  0.37500000  1.0 -0.0423486379
C  C78  1  0.19760000  0.37550000  0.37500000  1.0 -0.0423486379
C  C79  1  0.62450000  0.80240000  0.87500000  1.0 -0.0423486379
C  C80  1  0.19760000  0.82210000  0.87500000  1.0 -0.0423486379
C  C81  1  0.17790000  0.37550000  0.87500000  1.0 -0.0423486379
C  C82  1  0.82210000  0.19760000  0.62500000  1.0 -0.0423486379
C  C83  1  0.37550000  0.17790000  0.62500000  1.0 -0.0423486379
C  C84  1  0.80240000  0.62450000  0.62500000  1.0 -0.0423486379
C  C85  1  0.50200000  0.23010000  0.26550000  1.0 0.3053177299
C  C86  1  0.76990000  0.27190000  0.26550000  1.0 0.3053177299
C  C87  1  0.72810000  0.49800000  0.26550000  1.0 0.3053177299
C  C88  1  0.27190000  0.76990000  0.23450000  1.0 0.3053177299
C  C89  1  0.49800000  0.72810000  0.23450000  1.0 0.3053177299
C  C90  1  0.23010000  0.50200000  0.23450000  1.0 0.3053177299
C  C91  1  0.49800000  0.76990000  0.73450000  1.0 0.3053177299
C  C92  1  0.23010000  0.72810000  0.73450000  1.0 0.3053177299
C  C93  1  0.27190000  0.50200000  0.73450000  1.0 0.3053177299
C  C94  1  0.72810000  0.23010000  0.76550000  1.0 0.3053177299
C  C95  1  0.50200000  0.27190000  0.76550000  1.0 0.3053177299
C  C96  1  0.76990000  0.49800000  0.76550000  1.0 0.3053177299
C  C97  1  0.40330000  0.16520000  0.21730000  1.0 0.0204216412
C  C98  1  0.83480000  0.23810000  0.21730000  1.0 0.0204216412
C  C99  1  0.76190000  0.59670000  0.21730000  1.0 0.0204216412
C  C100  1  0.23810000  0.83480000  0.28270000  1.0 0.0204216412
C  C101  1  0.59670000  0.76190000  0.28270000  1.0 0.0204216412
C  C102  1  0.16520000  0.40330000  0.28270000  1.0 0.0204216412
C  C103  1  0.59670000  0.83480000  0.78270000  1.0 0.0204216412
C  C104  1  0.16520000  0.76190000  0.78270000  1.0 0.0204216412
C  C105  1  0.23810000  0.40330000  0.78270000  1.0 0.0204216412
C  C106  1  0.76190000  0.16520000  0.71730000  1.0 0.0204216412
C  C107  1  0.40330000  0.23810000  0.71730000  1.0 0.0204216412
C  C108  1  0.83480000  0.59670000  0.71730000  1.0 0.0204216412
C  C109  1  0.34210000  0.09650000  0.28810000  1.0 -0.1577943251
C  C110  1  0.90350000  0.24560000  0.28810000  1.0 -0.1577943251
C  C111  1  0.75440000  0.65790000  0.28810000  1.0 -0.1577943251
C  C112  1  0.24560000  0.90350000  0.21190000  1.0 -0.1577943251
C  C113  1  0.65790000  0.75440000  0.21190000  1.0 -0.1577943251
C  C114  1  0.09650000  0.34210000  0.21190000  1.0 -0.1577943251
C  C115  1  0.65790000  0.90350000  0.71190000  1.0 -0.1577943251
C  C116  1  0.09650000  0.75440000  0.71190000  1.0 -0.1577943251
C  C117  1  0.24560000  0.34210000  0.71190000  1.0 -0.1577943251
C  C118  1  0.75440000  0.09650000  0.78810000  1.0 -0.1577943251
C  C119  1  0.34210000  0.24560000  0.78810000  1.0 -0.1577943251
C  C120  1  0.90350000  0.65790000  0.78810000  1.0 -0.1577943251
C  C121  1  0.25660000  0.04010000  0.24690000  1.0 -0.0835342262
C  C122  1  0.95990000  0.21650000  0.24690000  1.0 -0.0835342262
C  C123  1  0.78350000  0.74340000  0.24690000  1.0 -0.0835342262
C  C124  1  0.21650000  0.95990000  0.25310000  1.0 -0.0835342262
C  C125  1  0.74340000  0.78350000  0.25310000  1.0 -0.0835342262
C  C126  1  0.04010000  0.25660000  0.25310000  1.0 -0.0835342262
C  C127  1  0.74340000  0.95990000  0.75310000  1.0 -0.0835342262
C  C128  1  0.04010000  0.78350000  0.75310000  1.0 -0.0835342262
C  C129  1  0.21650000  0.25660000  0.75310000  1.0 -0.0835342262
C  C130  1  0.78350000  0.04010000  0.74690000  1.0 -0.0835342262
C  C131  1  0.25660000  0.21650000  0.74690000  1.0 -0.0835342262
C  C132  1  0.95990000  0.74340000  0.74690000  1.0 -0.0835342262
C  C133  1  0.23230000  0.05240000  0.13480000  1.0 0.1075085581
C  C134  1  0.94760000  0.17990000  0.13480000  1.0 0.1075085581
C  C135  1  0.82010000  0.76770000  0.13480000  1.0 0.1075085581
C  C136  1  0.17990000  0.94760000  0.36520000  1.0 0.1075085581
C  C137  1  0.76770000  0.82010000  0.36520000  1.0 0.1075085581
C  C138  1  0.05240000  0.23230000  0.36520000  1.0 0.1075085581
C  C139  1  0.76770000  0.94760000  0.86520000  1.0 0.1075085581
C  C140  1  0.05240000  0.82010000  0.86520000  1.0 0.1075085581
C  C141  1  0.17990000  0.23230000  0.86520000  1.0 0.1075085581
C  C142  1  0.82010000  0.05240000  0.63480000  1.0 0.1075085581
C  C143  1  0.23230000  0.17990000  0.63480000  1.0 0.1075085581
C  C144  1  0.94760000  0.76770000  0.63480000  1.0 0.1075085581
C  C145  1  0.29340000  0.12100000  0.06400000  1.0 -0.097308581
C  C146  1  0.87900000  0.17240000  0.06400000  1.0 -0.097308581
C  C147  1  0.82760000  0.70660000  0.06400000  1.0 -0.097308581
C  C148  1  0.17240000  0.87900000  0.43600000  1.0 -0.097308581
C  C149  1  0.70660000  0.82760000  0.43600000  1.0 -0.097308581
C  C150  1  0.12100000  0.29340000  0.43600000  1.0 -0.097308581
C  C151  1  0.70660000  0.87900000  0.93600000  1.0 -0.097308581
C  C152  1  0.12100000  0.82760000  0.93600000  1.0 -0.097308581
C  C153  1  0.17240000  0.29340000  0.93600000  1.0 -0.097308581
C  C154  1  0.82760000  0.12100000  0.56400000  1.0 -0.097308581
C  C155  1  0.29340000  0.17240000  0.56400000  1.0 -0.097308581
C  C156  1  0.87900000  0.70660000  0.56400000  1.0 -0.097308581
C  C157  1  0.37890000  0.17740000  0.10520000  1.0 -0.0423486379
C  C158  1  0.82260000  0.20150000  0.10520000  1.0 -0.0423486379
C  C159  1  0.79850000  0.62110000  0.10520000  1.0 -0.0423486379
C  C160  1  0.20150000  0.82260000  0.39480000  1.0 -0.0423486379
C  C161  1  0.62110000  0.79850000  0.39480000  1.0 -0.0423486379
C  C162  1  0.17740000  0.37890000  0.39480000  1.0 -0.0423486379
C  C163  1  0.62110000  0.82260000  0.89480000  1.0 -0.0423486379
C  C164  1  0.17740000  0.79850000  0.89480000  1.0 -0.0453439651
C  C165  1  0.20150000  0.37890000  0.89480000  1.0 -0.0453439651
C  C166  1  0.79850000  0.17740000  0.60520000  1.0 -0.0423486379
C  C167  1  0.37890000  0.20150000  0.60520000  1.0 -0.0453439651
C  C168  1  0.82260000  0.62110000  0.60520000  1.0 -0.0423486379
O  O1  1  0.51950000  0.31490000  0.36790000  1.0 -0.3786838251
O  O2  1  0.68510000  0.20460000  0.36790000  1.0 -0.3786838251
O  O3  1  0.79540000  0.48050000  0.36790000  1.0 -0.3786838251
O  O4  1  0.20460000  0.68510000  0.13210000  1.0 -0.3786838251
O  O5  1  0.48050000  0.79540000  0.13210000  1.0 -0.3786838251
O  O6  1  0.31490000  0.51950000  0.13210000  1.0 -0.3786838251
O  O7  1  0.48050000  0.68510000  0.63210000  1.0 -0.3786838251
O  O8  1  0.31490000  0.79540000  0.63210000  1.0 -0.3786838251
O  O9  1  0.20460000  0.51950000  0.63210000  1.0 -0.3786838251
O  O10  1  0.79540000  0.31490000  0.86790000  1.0 -0.3786838251
O  O11  1  0.51950000  0.20460000  0.86790000  1.0 -0.3786838251
O  O12  1  0.68510000  0.48050000  0.86790000  1.0 -0.3786838251
O  O13  1  0.54240000  0.24440000  0.22970000  1.0 4.78334e-05
O  O14  1  0.75560000  0.29800000  0.22970000  1.0 -0.0047022003
O  O15  1  0.70200000  0.45760000  0.22970000  1.0 -0.0047022003
O  O16  1  0.29800000  0.75560000  0.27030000  1.0 -0.0047022003
O  O17  1  0.45760000  0.70200000  0.27030000  1.0 -0.0047022003
O  O18  1  0.24440000  0.54240000  0.27030000  1.0 -0.0047022003
O  O19  1  0.45760000  0.75560000  0.77030000  1.0 -0.0057082295
O  O20  1  0.24440000  0.70200000  0.77030000  1.0 -0.0057082295
O  O21  1  0.29800000  0.54240000  0.77030000  1.0 -0.0047022003
O  O22  1  0.70200000  0.24440000  0.72970000  1.0 -0.0057082295
O  O23  1  0.54240000  0.29800000  0.72970000  1.0 -0.0057082295
O  O24  1  0.75560000  0.45760000  0.72970000  1.0 -0.0057082295
O  O25  1  0.14040000  0.14620000  0.11580000  1.0 -0.3035849877
O  O26  1  0.85380000  0.99420000  0.11580000  1.0 -0.3035849877
O  O27  1  0.00580000  0.85960000  0.11580000  1.0 -0.3035849877
O  O28  1  0.99420000  0.85380000  0.38420000  1.0 -0.3035849877
O  O29  1  0.85960000  0.00580000  0.38420000  1.0 -0.3035849877
O  O30  1  0.14620000  0.14040000  0.38420000  1.0 -0.3035849877
O  O31  1  0.85960000  0.85380000  0.88420000  1.0 -0.3035849877
O  O32  1  0.14620000  0.00580000  0.88420000  1.0 -0.3035849877
O  O33  1  0.99420000  0.14040000  0.88420000  1.0 -0.3035849877
O  O34  1  0.00580000  0.14620000  0.61580000  1.0 -0.3035849877
O  O35  1  0.14040000  0.99420000  0.61580000  1.0 -0.3035849877
O  O36  1  0.85380000  0.85960000  0.61580000  1.0 -0.3035849877
O  O37  1  0.52210000  0.20910000  0.35310000  1.0 -0.233582407
O  O38  1  0.79090000  0.31300000  0.35310000  1.0 -0.233582407
O  O39  1  0.68700000  0.47790000  0.35310000  1.0 -0.233582407
O  O40  1  0.31300000  0.79090000  0.14690000  1.0 -0.233582407
O  O41  1  0.47790000  0.68700000  0.14690000  1.0 -0.233582407
O  O42  1  0.20910000  0.52210000  0.14690000  1.0 -0.233582407
O  O43  1  0.47790000  0.79090000  0.64690000  1.0 -0.233582407
O  O44  1  0.20910000  0.68700000  0.64690000  1.0 -0.233582407
O  O45  1  0.31300000  0.52210000  0.64690000  1.0 -0.233582407
O  O46  1  0.68700000  0.20910000  0.85310000  1.0 -0.233582407
O  O47  1  0.52210000  0.31300000  0.85310000  1.0 -0.233582407
O  O48  1  0.79090000  0.47790000  0.85310000  1.0 -0.233582407
O  O49  1  0.54540000  0.28770000  0.19980000  1.0 -0.1698451201
O  O50  1  0.71230000  0.25770000  0.19980000  1.0 -0.1698451201
O  O51  1  0.74230000  0.45460000  0.19980000  1.0 -0.1698451201
O  O52  1  0.25770000  0.71230000  0.30020000  1.0 -0.1698451201
O  O53  1  0.45460000  0.74230000  0.30020000  1.0 -0.1698451201
O  O54  1  0.28770000  0.54540000  0.30020000  1.0 -0.1698451201
O  O55  1  0.45460000  0.71230000  0.80020000  1.0 -0.1698451201
O  O56  1  0.28770000  0.74230000  0.80020000  1.0 -0.1698451201
O  O57  1  0.25770000  0.54540000  0.80020000  1.0 -0.1698451201
O  O58  1  0.74230000  0.28770000  0.69980000  1.0 -0.1698451201
O  O59  1  0.54540000  0.25770000  0.69980000  1.0 -0.1698451201
O  O60  1  0.71230000  0.45460000  0.69980000  1.0 -0.1698451201
O  O61  1  0.14430000  0.99210000  0.10070000  1.0 -0.3113527892
O  O62  1  0.00790000  0.15220000  0.10070000  1.0 -0.3113527892
O  O63  1  0.84780000  0.85570000  0.10070000  1.0 -0.3113527892
O  O64  1  0.15220000  0.00790000  0.39930000  1.0 -0.3113527892
O  O65  1  0.85570000  0.84780000  0.39930000  1.0 -0.3113527892
O  O66  1  0.99210000  0.14430000  0.39930000  1.0 -0.3113527892
O  O67  1  0.85570000  0.00790000  0.89930000  1.0 -0.3113527892
O  O68  1  0.99210000  0.84780000  0.89930000  1.0 -0.3113527892
O  O69  1  0.15220000  0.14430000  0.89930000  1.0 -0.3113527892
O  O70  1  0.84780000  0.99210000  0.60070000  1.0 -0.3113527892
O  O71  1  0.14430000  0.15220000  0.60070000  1.0 -0.3113527892
O  O72  1  0.00790000  0.85570000  0.60070000  1.0 -0.3113527892
