# DDEC6 charges by PACMAN v1.1 (https://github.com/mtap-research/PACMAN-charge/)
data_LENGAO_ASR_pacman
_symmetry_space_group_name_H-M   'P 1'
_cell_length_a   12.15830000
_cell_length_b   43.41000000
_cell_length_c   16.78310000
_cell_angle_alpha   90.00000000
_cell_angle_beta   93.68800000
_cell_angle_gamma   90.00000000
_symmetry_Int_Tables_number   1
_chemical_formula_structural   Cd4P3H24C42(NO8)3
_chemical_formula_sum   'Cd16 P12 H96 C168 N12 O96'
_cell_volume   8839.63871904
_cell_formula_units_Z   4
loop_
 _symmetry_equiv_pos_site_id
 _symmetry_equiv_pos_as_xyz
  1  'x, y, z'
loop_
 _atom_site_type_symbol
 _atom_site_label
 _atom_site_symmetry_multiplicity
 _atom_site_fract_x
 _atom_site_fract_y
 _atom_site_fract_z
 _atom_site_occupancy
 _atom_site_charge
Cd  Cd1  1  0.18547000  0.29793000  0.46408000  1.0 1.0167497463
Cd  Cd2  1  0.31453000  0.79793000  0.53592000  1.0 1.0167497463
Cd  Cd3  1  0.81453000  0.70207000  0.53592000  1.0 1.0167497463
Cd  Cd4  1  0.68547000  0.20207000  0.46408000  1.0 1.0167497463
Cd  Cd5  1  0.92036000  0.29575000  0.56684000  1.0 1.0167497463
Cd  Cd6  1  0.57964000  0.79575000  0.43316000  1.0 1.0167497463
Cd  Cd7  1  0.07964000  0.70425000  0.43316000  1.0 1.0167497463
Cd  Cd8  1  0.42036000  0.20425000  0.56684000  1.0 1.0167497463
Cd  Cd9  1  0.22680000  0.50489000  0.32143000  1.0 0.1809190262
Cd  Cd10  1  0.27320000  0.00489000  0.67857000  1.0 0.1809190262
Cd  Cd11  1  0.77320000  0.49511000  0.67857000  1.0 0.1809190262
Cd  Cd12  1  0.72680000  0.99511000  0.32143000  1.0 0.1809190262
Cd  Cd13  1  0.27650000  0.50554000  0.31419000  1.0 0.1854219392
Cd  Cd14  1  0.22350000  0.00554000  0.68581000  1.0 0.1854219392
Cd  Cd15  1  0.72350000  0.49446000  0.68581000  1.0 0.1854219392
Cd  Cd16  1  0.77650000  0.99446000  0.31419000  1.0 0.1854219392
P  P1  1  0.94100000  0.32396000  0.01457000  1.0 1.3117397346
P  P2  1  0.55900000  0.82396000  0.98543000  1.0 1.3117397346
P  P3  1  0.05900000  0.67604000  0.98543000  1.0 1.3117397346
P  P4  1  0.44100000  0.17604000  0.01457000  1.0 1.3117397346
P  P5  1  0.16820000  0.32458000  0.01813000  1.0 1.3117397346
P  P6  1  0.33180000  0.82458000  0.98187000  1.0 1.3117397346
P  P7  1  0.83180000  0.67542000  0.98187000  1.0 1.3117397346
P  P8  1  0.66820000  0.17542000  0.01813000  1.0 1.3117397346
P  P9  1  0.05500000  0.26956000  0.01756000  1.0 1.296150408
P  P10  1  0.44500000  0.76956000  0.98244000  1.0 1.296150408
P  P11  1  0.94500000  0.73044000  0.98244000  1.0 1.296150408
P  P12  1  0.55500000  0.23044000  0.01756000  1.0 1.296150408
H  H1  1  0.02280000  0.34850000  0.18070000  1.0 0.1289600094
H  H2  1  0.47720000  0.84850000  0.81930000  1.0 0.1289600094
H  H3  1  0.97720000  0.65150000  0.81930000  1.0 0.1289600094
H  H4  1  0.52280000  0.15150000  0.18070000  1.0 0.1289600094
H  H5  1  0.04020000  0.33540000  0.31460000  1.0 0.1100425471
H  H6  1  0.45980000  0.83540000  0.68540000  1.0 0.1100425471
H  H7  1  0.95980000  0.66460000  0.68540000  1.0 0.1100425471
H  H8  1  0.54020000  0.16460000  0.31460000  1.0 0.1100425471
H  H9  1  0.74650000  0.29280000  0.29070000  1.0 0.1100425471
H  H10  1  0.75350000  0.79280000  0.70930000  1.0 0.1100425471
H  H11  1  0.25350000  0.70720000  0.70930000  1.0 0.1100425471
H  H12  1  0.24650000  0.20720000  0.29070000  1.0 0.1100425471
H  H13  1  0.73100000  0.30670000  0.15640000  1.0 0.1368400373
H  H14  1  0.76900000  0.80670000  0.84360000  1.0 0.1368400373
H  H15  1  0.26900000  0.69330000  0.84360000  1.0 0.1368400373
H  H16  1  0.23100000  0.19330000  0.15640000  1.0 0.1368400373
H  H17  1  0.83230000  0.38610000  0.98900000  1.0 0.1289600094
H  H18  1  0.66770000  0.88610000  0.01100000  1.0 0.1289600094
H  H19  1  0.16770000  0.61390000  0.01100000  1.0 0.1289600094
H  H20  1  0.33230000  0.11390000  0.98900000  1.0 0.1289600094
H  H21  1  0.77720000  0.42880000  0.91470000  1.0 0.1100425471
H  H22  1  0.72280000  0.92880000  0.08530000  1.0 0.1100425471
H  H23  1  0.22280000  0.57120000  0.08530000  1.0 0.1100425471
H  H24  1  0.27720000  0.07120000  0.91470000  1.0 0.1100425471
H  H25  1  0.83590000  0.38390000  0.71580000  1.0 0.1199320632
H  H26  1  0.66410000  0.88390000  0.28420000  1.0 0.1199320632
H  H27  1  0.16410000  0.61610000  0.28420000  1.0 0.1199320632
H  H28  1  0.33590000  0.11610000  0.71580000  1.0 0.1199320632
H  H29  1  0.86820000  0.33890000  0.78820000  1.0 0.1289600094
H  H30  1  0.63180000  0.83890000  0.21180000  1.0 0.1289600094
H  H31  1  0.13180000  0.66110000  0.21180000  1.0 0.1289600094
H  H32  1  0.36820000  0.16110000  0.78820000  1.0 0.1289600094
H  H33  1  0.26100000  0.38830000  0.03750000  1.0 0.1289600094
H  H34  1  0.23900000  0.88830000  0.96250000  1.0 0.1289600094
H  H35  1  0.73900000  0.61170000  0.96250000  1.0 0.1289600094
H  H36  1  0.76100000  0.11170000  0.03750000  1.0 0.1289600094
H  H37  1  0.27470000  0.43460000  0.10640000  1.0 0.1199320632
H  H38  1  0.22530000  0.93460000  0.89360000  1.0 0.1199320632
H  H39  1  0.72530000  0.56540000  0.89360000  1.0 0.1199320632
H  H40  1  0.77470000  0.06540000  0.10640000  1.0 0.1199320632
H  H41  1  0.25340000  0.38920000  0.31360000  1.0 0.1199320632
H  H42  1  0.24660000  0.88920000  0.68640000  1.0 0.1199320632
H  H43  1  0.74660000  0.61080000  0.68640000  1.0 0.1199320632
H  H44  1  0.75340000  0.11080000  0.31360000  1.0 0.1199320632
H  H45  1  0.23960000  0.34290000  0.24460000  1.0 0.1289600094
H  H46  1  0.26040000  0.84290000  0.75540000  1.0 0.1289600094
H  H47  1  0.76040000  0.65710000  0.75540000  1.0 0.1289600094
H  H48  1  0.73960000  0.15710000  0.24460000  1.0 0.1289600094
H  H49  1  0.07990000  0.34710000  0.84940000  1.0 0.1289600094
H  H50  1  0.42010000  0.84710000  0.15060000  1.0 0.1289600094
H  H51  1  0.92010000  0.65290000  0.15060000  1.0 0.1289600094
H  H52  1  0.57990000  0.15290000  0.84940000  1.0 0.1289600094
H  H53  1  0.06030000  0.33140000  0.71800000  1.0 0.1100425471
H  H54  1  0.43970000  0.83140000  0.28200000  1.0 0.1100425471
H  H55  1  0.93970000  0.66860000  0.28200000  1.0 0.1100425471
H  H56  1  0.56030000  0.16860000  0.71800000  1.0 0.1100425471
H  H57  1  0.36090000  0.29510000  0.73820000  1.0 0.1199320632
H  H58  1  0.13910000  0.79510000  0.26180000  1.0 0.1199320632
H  H59  1  0.63910000  0.70490000  0.26180000  1.0 0.1199320632
H  H60  1  0.86090000  0.20490000  0.73820000  1.0 0.1199320632
H  H61  1  0.37540000  0.30560000  0.87370000  1.0 0.1368400373
H  H62  1  0.12460000  0.80560000  0.12630000  1.0 0.1368400373
H  H63  1  0.62460000  0.69440000  0.12630000  1.0 0.1368400373
H  H64  1  0.87540000  0.19440000  0.87370000  1.0 0.1368400373
H  H65  1  0.98260000  0.25140000  0.79840000  1.0 0.1199320632
H  H66  1  0.51740000  0.75140000  0.20160000  1.0 0.1199320632
H  H67  1  0.01740000  0.74860000  0.20160000  1.0 0.1199320632
H  H68  1  0.48260000  0.24860000  0.79840000  1.0 0.1199320632
H  H69  1  0.08430000  0.23820000  0.69070000  1.0 0.1199320632
H  H70  1  0.41570000  0.73820000  0.30930000  1.0 0.1199320632
H  H71  1  0.91570000  0.76180000  0.30930000  1.0 0.1199320632
H  H72  1  0.58430000  0.26180000  0.69070000  1.0 0.1199320632
H  H73  1  0.34150000  0.21690000  0.84070000  1.0 0.1100425471
H  H74  1  0.15850000  0.71690000  0.15930000  1.0 0.1100425471
H  H75  1  0.65850000  0.78310000  0.15930000  1.0 0.1100425471
H  H76  1  0.84150000  0.28310000  0.84070000  1.0 0.1100425471
H  H77  1  0.24160000  0.22920000  0.94790000  1.0 0.1455463685
H  H78  1  0.25840000  0.72920000  0.05210000  1.0 0.1455463685
H  H79  1  0.75840000  0.77080000  0.05210000  1.0 0.1455463685
H  H80  1  0.74160000  0.27080000  0.94790000  1.0 0.1455463685
H  H81  1  0.12270000  0.25280000  0.23880000  1.0 0.1289600094
H  H82  1  0.37730000  0.75280000  0.76120000  1.0 0.1289600094
H  H83  1  0.87730000  0.74720000  0.76120000  1.0 0.1289600094
H  H84  1  0.62270000  0.24720000  0.23880000  1.0 0.1289600094
H  H85  1  0.02210000  0.23780000  0.34540000  1.0 0.1199320632
H  H86  1  0.47790000  0.73780000  0.65460000  1.0 0.1199320632
H  H87  1  0.97790000  0.76220000  0.65460000  1.0 0.1199320632
H  H88  1  0.52210000  0.26220000  0.34540000  1.0 0.1199320632
H  H89  1  0.76860000  0.21440000  0.19170000  1.0 0.1100425471
H  H90  1  0.73140000  0.71440000  0.80830000  1.0 0.1100425471
H  H91  1  0.23140000  0.78560000  0.80830000  1.0 0.1100425471
H  H92  1  0.26860000  0.28560000  0.19170000  1.0 0.1100425471
H  H93  1  0.87390000  0.22800000  0.08350000  1.0 0.1455463685
H  H94  1  0.62610000  0.72800000  0.91650000  1.0 0.1455463685
H  H95  1  0.12610000  0.77200000  0.91650000  1.0 0.1455463685
H  H96  1  0.37390000  0.27200000  0.08350000  1.0 0.1455463685
C  C1  1  0.87630000  0.32830000  0.15890000  1.0 0.2707923867
C  C2  1  0.62370000  0.82830000  0.84110000  1.0 0.2707923867
C  C3  1  0.12370000  0.67170000  0.84110000  1.0 0.2707923867
C  C4  1  0.37630000  0.17170000  0.15890000  1.0 0.2707923867
C  C5  1  0.96800000  0.33710000  0.20350000  1.0 -0.201573253
C  C6  1  0.53200000  0.83710000  0.79650000  1.0 -0.201573253
C  C7  1  0.03200000  0.66290000  0.79650000  1.0 -0.201573253
C  C8  1  0.46800000  0.16290000  0.20350000  1.0 -0.201573253
C  C9  1  0.97850000  0.32900000  0.28340000  1.0 -0.0700405623
C  C10  1  0.52150000  0.82900000  0.71660000  1.0 -0.0700405623
C  C11  1  0.02150000  0.67100000  0.71660000  1.0 -0.0700405623
C  C12  1  0.47850000  0.17100000  0.28340000  1.0 -0.0700405623
C  C13  1  0.89720000  0.31110000  0.31850000  1.0 -0.0802116664
C  C14  1  0.60280000  0.81110000  0.68150000  1.0 -0.0802116664
C  C15  1  0.10280000  0.68890000  0.68150000  1.0 -0.0802116664
C  C16  1  0.39720000  0.18890000  0.31850000  1.0 -0.0802116664
C  C17  1  0.80350000  0.30360000  0.26910000  1.0 -0.0623949209
C  C18  1  0.69650000  0.80360000  0.73090000  1.0 -0.0623949209
C  C19  1  0.19650000  0.69640000  0.73090000  1.0 -0.0623949209
C  C20  1  0.30350000  0.19640000  0.26910000  1.0 -0.0623949209
C  C21  1  0.79310000  0.31210000  0.18860000  1.0 -0.201573253
C  C22  1  0.70690000  0.81210000  0.81140000  1.0 -0.201573253
C  C23  1  0.20690000  0.68790000  0.81140000  1.0 -0.201573253
C  C24  1  0.29310000  0.18790000  0.18860000  1.0 -0.201573253
C  C25  1  0.91090000  0.30270000  0.40260000  1.0 0.5653729059
C  C26  1  0.58910000  0.80270000  0.59740000  1.0 0.5653729059
C  C27  1  0.08910000  0.69730000  0.59740000  1.0 0.5653729059
C  C28  1  0.41090000  0.19730000  0.40260000  1.0 0.5653729059
C  C29  1  0.85120000  0.35890000  0.89490000  1.0 0.2805935957
C  C30  1  0.64880000  0.85890000  0.10510000  1.0 0.2805935957
C  C31  1  0.14880000  0.64110000  0.10510000  1.0 0.2805935957
C  C32  1  0.35120000  0.14110000  0.89490000  1.0 0.2805935957
C  C33  1  0.82900000  0.38540000  0.93350000  1.0 -0.201573253
C  C34  1  0.67100000  0.88540000  0.06650000  1.0 -0.201573253
C  C35  1  0.17100000  0.61460000  0.06650000  1.0 -0.201573253
C  C36  1  0.32900000  0.11460000  0.93350000  1.0 -0.201573253
C  C37  1  0.80140000  0.41120000  0.88940000  1.0 -0.0426138559
C  C38  1  0.69860000  0.91120000  0.11060000  1.0 -0.0426138559
C  C39  1  0.19860000  0.58880000  0.11060000  1.0 -0.0426138559
C  C40  1  0.30140000  0.08880000  0.88940000  1.0 -0.0426138559
C  C41  1  0.80960000  0.41130000  0.80600000  1.0 -0.0802116664
C  C42  1  0.69040000  0.91130000  0.19400000  1.0 -0.0802116664
C  C43  1  0.19040000  0.58870000  0.19400000  1.0 -0.0802116664
C  C44  1  0.30960000  0.08870000  0.80600000  1.0 -0.0802116664
C  C45  1  0.83320000  0.38440000  0.77100000  1.0 -0.0623949209
C  C46  1  0.66680000  0.88440000  0.22900000  1.0 -0.0623949209
C  C47  1  0.16680000  0.61560000  0.22900000  1.0 -0.0623949209
C  C48  1  0.33320000  0.11560000  0.77100000  1.0 -0.0623949209
C  C49  1  0.85360000  0.35730000  0.81380000  1.0 -0.201573253
C  C50  1  0.64640000  0.85730000  0.18620000  1.0 -0.201573253
C  C51  1  0.14640000  0.64270000  0.18620000  1.0 -0.201573253
C  C52  1  0.35360000  0.14270000  0.81380000  1.0 -0.201573253
C  C53  1  0.24900000  0.36097000  0.13420000  1.0 0.3004389547
C  C54  1  0.25100000  0.86097000  0.86580000  1.0 0.3004389547
C  C55  1  0.75100000  0.63903000  0.86580000  1.0 0.3004389547
C  C56  1  0.74900000  0.13903000  0.13420000  1.0 0.3004389547
C  C57  1  0.25950000  0.38844000  0.09280000  1.0 -0.201573253
C  C58  1  0.24050000  0.88844000  0.90720000  1.0 -0.201573253
C  C59  1  0.74050000  0.61156000  0.90720000  1.0 -0.201573253
C  C60  1  0.75950000  0.11156000  0.09280000  1.0 -0.201573253
C  C61  1  0.26770000  0.41619000  0.13410000  1.0 -0.0623949209
C  C62  1  0.23230000  0.91619000  0.86590000  1.0 -0.0623949209
C  C63  1  0.73230000  0.58381000  0.86590000  1.0 -0.0623949209
C  C64  1  0.76770000  0.08381000  0.13410000  1.0 -0.0623949209
C  C65  1  0.26540000  0.41647000  0.21680000  1.0 -0.0802116664
C  C66  1  0.23460000  0.91647000  0.78320000  1.0 -0.0802116664
C  C67  1  0.73460000  0.58353000  0.78320000  1.0 -0.0802116664
C  C68  1  0.76540000  0.08353000  0.21680000  1.0 -0.0802116664
C  C69  1  0.25490000  0.38900000  0.25820000  1.0 -0.0700405623
C  C70  1  0.24510000  0.88900000  0.74180000  1.0 -0.0700405623
C  C71  1  0.74510000  0.61100000  0.74180000  1.0 -0.0700405623
C  C72  1  0.75490000  0.11100000  0.25820000  1.0 -0.0700405623
C  C73  1  0.24670000  0.36125000  0.21690000  1.0 -0.2100146619
C  C74  1  0.25330000  0.86125000  0.78310000  1.0 -0.2100146619
C  C75  1  0.75330000  0.63875000  0.78310000  1.0 -0.2100146619
C  C76  1  0.74670000  0.13875000  0.21690000  1.0 -0.2100146619
C  C77  1  0.26990000  0.44610000  0.25850000  1.0 0.5385983653
C  C78  1  0.23010000  0.94610000  0.74150000  1.0 0.5385983653
C  C79  1  0.73010000  0.55390000  0.74150000  1.0 0.5385983653
C  C80  1  0.76990000  0.05390000  0.25850000  1.0 0.5385983653
C  C81  1  0.22970000  0.32900000  0.87290000  1.0 0.293330989
C  C82  1  0.27030000  0.82900000  0.12710000  1.0 0.293330989
C  C83  1  0.77030000  0.67100000  0.12710000  1.0 0.293330989
C  C84  1  0.72970000  0.17100000  0.87290000  1.0 0.293330989
C  C85  1  0.13610000  0.33620000  0.82720000  1.0 -0.2100146619
C  C86  1  0.36390000  0.83620000  0.17280000  1.0 -0.2100146619
C  C87  1  0.86390000  0.66380000  0.17280000  1.0 -0.2100146619
C  C88  1  0.63610000  0.16380000  0.82720000  1.0 -0.2100146619
C  C89  1  0.12470000  0.32720000  0.74900000  1.0 -0.0802116664
C  C90  1  0.37530000  0.82720000  0.25100000  1.0 -0.0802116664
C  C91  1  0.87530000  0.67280000  0.25100000  1.0 -0.0700405623
C  C92  1  0.62470000  0.17280000  0.74900000  1.0 -0.0802116664
C  C93  1  0.21280000  0.31150000  0.71660000  1.0 -0.0426138559
C  C94  1  0.28720000  0.81150000  0.28340000  1.0 -0.0426138559
C  C95  1  0.78720000  0.68850000  0.28340000  1.0 -0.0426138559
C  C96  1  0.71280000  0.18850000  0.71660000  1.0 -0.0426138559
C  C97  1  0.30300000  0.30490000  0.76150000  1.0 -0.0802116664
C  C98  1  0.19700000  0.80490000  0.23850000  1.0 -0.0802116664
C  C99  1  0.69700000  0.69510000  0.23850000  1.0 -0.0802116664
C  C100  1  0.80300000  0.19510000  0.76150000  1.0 -0.0802116664
C  C101  1  0.31420000  0.31200000  0.84180000  1.0 -0.190589764
C  C102  1  0.18580000  0.81200000  0.15820000  1.0 -0.190589764
C  C103  1  0.68580000  0.68800000  0.15820000  1.0 -0.190589764
C  C104  1  0.81420000  0.18800000  0.84180000  1.0 -0.190589764
C  C105  1  0.20740000  0.30440000  0.62970000  1.0 0.5653729059
C  C106  1  0.29260000  0.80440000  0.37030000  1.0 0.5653729059
C  C107  1  0.79260000  0.69560000  0.37030000  1.0 0.5653729059
C  C108  1  0.70740000  0.19560000  0.62970000  1.0 0.5653729059
C  C109  1  0.10160000  0.24060000  0.88440000  1.0 0.3004389547
C  C110  1  0.39840000  0.74060000  0.11560000  1.0 0.3004389547
C  C111  1  0.89840000  0.75940000  0.11560000  1.0 0.3004389547
C  C112  1  0.60160000  0.25940000  0.88440000  1.0 0.3004389547
C  C113  1  0.05420000  0.24400000  0.80700000  1.0 -0.2100146619
C  C114  1  0.44580000  0.74400000  0.19300000  1.0 -0.2100146619
C  C115  1  0.94580000  0.75600000  0.19300000  1.0 -0.2100146619
C  C116  1  0.55420000  0.25600000  0.80700000  1.0 -0.2100146619
C  C117  1  0.11580000  0.23630000  0.74250000  1.0 -0.0901478872
C  C118  1  0.38420000  0.73630000  0.25750000  1.0 -0.0901478872
C  C119  1  0.88420000  0.76370000  0.25750000  1.0 -0.0901478872
C  C120  1  0.61580000  0.26370000  0.74250000  1.0 -0.0901478872
C  C121  1  0.22380000  0.22580000  0.75480000  1.0 -0.0505404424
C  C122  1  0.27620000  0.72580000  0.24520000  1.0 -0.0505404424
C  C123  1  0.77620000  0.77420000  0.24520000  1.0 -0.0505404424
C  C124  1  0.72380000  0.27420000  0.75480000  1.0 -0.0505404424
C  C125  1  0.26900000  0.22350000  0.83190000  1.0 -0.0802116664
C  C126  1  0.23100000  0.72350000  0.16810000  1.0 -0.0802116664
C  C127  1  0.73100000  0.77650000  0.16810000  1.0 -0.0802116664
C  C128  1  0.76900000  0.27650000  0.83190000  1.0 -0.0802116664
C  C129  1  0.20930000  0.23080000  0.89640000  1.0 -0.201573253
C  C130  1  0.29070000  0.73080000  0.10360000  1.0 -0.201573253
C  C131  1  0.79070000  0.76920000  0.10360000  1.0 -0.201573253
C  C132  1  0.70930000  0.26920000  0.89640000  1.0 -0.201573253
C  C133  1  0.29030000  0.21780000  0.68570000  1.0 0.5385983653
C  C134  1  0.20970000  0.71780000  0.31430000  1.0 0.5385983653
C  C135  1  0.70970000  0.78220000  0.31430000  1.0 0.5385983653
C  C136  1  0.79030000  0.28220000  0.68570000  1.0 0.5385983653
C  C137  1  0.00670000  0.24060000  0.15210000  1.0 0.2805935957
C  C138  1  0.49330000  0.74060000  0.84790000  1.0 0.2805935957
C  C139  1  0.99330000  0.75940000  0.84790000  1.0 0.2805935957
C  C140  1  0.50670000  0.25940000  0.15210000  1.0 0.2805935957
C  C141  1  0.05240000  0.24460000  0.22980000  1.0 -0.201573253
C  C142  1  0.44760000  0.74460000  0.77020000  1.0 -0.201573253
C  C143  1  0.94760000  0.75540000  0.77020000  1.0 -0.201573253
C  C144  1  0.55240000  0.25540000  0.22980000  1.0 -0.201573253
C  C145  1  0.99180000  0.23610000  0.29330000  1.0 -0.0901478872
C  C146  1  0.50820000  0.73610000  0.70670000  1.0 -0.0901478872
C  C147  1  0.00820000  0.76390000  0.70670000  1.0 -0.0901478872
C  C148  1  0.49180000  0.26390000  0.29330000  1.0 -0.0901478872
C  C149  1  0.88590000  0.22510000  0.27850000  1.0 -0.0505404424
C  C150  1  0.61410000  0.72510000  0.72150000  1.0 -0.0505404424
C  C151  1  0.11410000  0.77490000  0.72150000  1.0 -0.0505404424
C  C152  1  0.38590000  0.27490000  0.27850000  1.0 -0.0505404424
C  C153  1  0.84000000  0.22180000  0.20080000  1.0 -0.0700405623
C  C154  1  0.66000000  0.72180000  0.79920000  1.0 -0.0700405623
C  C155  1  0.16000000  0.77820000  0.79920000  1.0 -0.0700405623
C  C156  1  0.34000000  0.27820000  0.20080000  1.0 -0.0700405623
C  C157  1  0.90300000  0.22990000  0.13590000  1.0 -0.201573253
C  C158  1  0.59700000  0.72990000  0.86410000  1.0 -0.201573253
C  C159  1  0.09700000  0.77010000  0.86410000  1.0 -0.201573253
C  C160  1  0.40300000  0.27010000  0.13590000  1.0 -0.201573253
C  C161  1  0.81970000  0.21570000  0.34640000  1.0 0.5385983653
C  C162  1  0.68030000  0.71570000  0.65360000  1.0 0.5385983653
C  C163  1  0.18030000  0.78430000  0.65360000  1.0 0.5385983653
C  C164  1  0.31970000  0.28430000  0.34640000  1.0 0.5385983653
C  C165  1  0.79140000  0.43990000  0.76030000  1.0 0.5605390288
C  C166  1  0.70860000  0.93990000  0.23970000  1.0 0.5605390288
C  C167  1  0.20860000  0.56010000  0.23970000  1.0 0.5605390288
C  C168  1  0.29140000  0.06010000  0.76030000  1.0 0.5605390288
N  N1  1  0.05470000  0.34260000  0.01720000  1.0 -0.8129607968
N  N2  1  0.44530000  0.84260000  0.98280000  1.0 -0.8129607968
N  N3  1  0.94530000  0.65740000  0.98280000  1.0 -0.8129607968
N  N4  1  0.55470000  0.15740000  0.01720000  1.0 -0.8129607968
N  N5  1  0.16590000  0.28810000  0.01010000  1.0 -0.8323126145
N  N6  1  0.33410000  0.78810000  0.98990000  1.0 -0.8323126145
N  N7  1  0.83410000  0.71190000  0.98990000  1.0 -0.8323126145
N  N8  1  0.66590000  0.21190000  0.01010000  1.0 -0.8323126145
N  N9  1  0.94700000  0.28820000  0.02570000  1.0 -0.8323126145
N  N10  1  0.55300000  0.78820000  0.97430000  1.0 -0.8323126145
N  N11  1  0.05300000  0.71180000  0.97430000  1.0 -0.8323126145
N  N12  1  0.44700000  0.21180000  0.02570000  1.0 -0.8323126145
O  O1  1  0.86210000  0.33801000  0.07770000  1.0 -0.4313917018
O  O2  1  0.63790000  0.83801000  0.92230000  1.0 -0.4313917018
O  O3  1  0.13790000  0.66199000  0.92230000  1.0 -0.4313917018
O  O4  1  0.36210000  0.16199000  0.07770000  1.0 -0.4313917018
O  O5  1  0.99710000  0.30377000  0.44330000  1.0 -0.5509570025
O  O6  1  0.50290000  0.80377000  0.55670000  1.0 -0.5509570025
O  O7  1  0.00290000  0.69623000  0.55670000  1.0 -0.5509570025
O  O8  1  0.49710000  0.19623000  0.44330000  1.0 -0.5509570025
O  O9  1  0.82290000  0.29419000  0.43650000  1.0 -0.5381781988
O  O10  1  0.67710000  0.79419000  0.56350000  1.0 -0.5381781988
O  O11  1  0.17710000  0.70581000  0.56350000  1.0 -0.5381781988
O  O12  1  0.32290000  0.20581000  0.43650000  1.0 -0.5381781988
O  O13  1  0.86800000  0.33071000  0.93530000  1.0 -0.4313917018
O  O14  1  0.63200000  0.83071000  0.06470000  1.0 -0.4313917018
O  O15  1  0.13200000  0.66929000  0.06470000  1.0 -0.4313917018
O  O16  1  0.36800000  0.16929000  0.93530000  1.0 -0.4313917018
O  O17  1  0.24170000  0.33247000  0.09710000  1.0 -0.4174048461
O  O18  1  0.25830000  0.83247000  0.90290000  1.0 -0.4174048461
O  O19  1  0.75830000  0.66753000  0.90290000  1.0 -0.4174048461
O  O20  1  0.74170000  0.16753000  0.09710000  1.0 -0.4174048461
O  O21  1  0.28160000  0.46960000  0.22220000  1.0 -0.4066694759
O  O22  1  0.21840000  0.96960000  0.77780000  1.0 -0.4066694759
O  O23  1  0.71840000  0.53040000  0.77780000  1.0 -0.4066694759
O  O24  1  0.78160000  0.03040000  0.22220000  1.0 -0.4066694759
O  O25  1  0.26530000  0.44770000  0.33110000  1.0 -0.439048969
O  O26  1  0.23470000  0.94770000  0.66890000  1.0 -0.439048969
O  O27  1  0.73470000  0.55230000  0.66890000  1.0 -0.439048969
O  O28  1  0.76530000  0.05230000  0.33110000  1.0 -0.439048969
O  O29  1  0.24400000  0.33783000  0.95320000  1.0 -0.4174048461
O  O30  1  0.25600000  0.83783000  0.04680000  1.0 -0.4174048461
O  O31  1  0.75600000  0.66217000  0.04680000  1.0 -0.4174048461
O  O32  1  0.74400000  0.16217000  0.95320000  1.0 -0.4174048461
O  O33  1  0.10810000  0.30508000  0.59010000  1.0 -0.6530604147
O  O34  1  0.39190000  0.80508000  0.40990000  1.0 -0.6530604147
O  O35  1  0.89190000  0.69492000  0.40990000  1.0 -0.6530604147
O  O36  1  0.60810000  0.19492000  0.59010000  1.0 -0.6530604147
O  O37  1  0.28650000  0.29781000  0.59290000  1.0 -0.4840711586
O  O38  1  0.21350000  0.79781000  0.40710000  1.0 -0.4840711586
O  O39  1  0.71350000  0.70219000  0.40710000  1.0 -0.4840711586
O  O40  1  0.78650000  0.20219000  0.59290000  1.0 -0.4840711586
O  O41  1  0.03550000  0.24690000  0.94590000  1.0 -0.4066694759
O  O42  1  0.46450000  0.74690000  0.05410000  1.0 -0.4066694759
O  O43  1  0.96450000  0.75310000  0.05410000  1.0 -0.4066694759
O  O44  1  0.53550000  0.25310000  0.94590000  1.0 -0.4066694759
O  O45  1  0.38940000  0.21031000  0.69860000  1.0 -0.5633927964
O  O46  1  0.11060000  0.71031000  0.30140000  1.0 -0.5633927964
O  O47  1  0.61060000  0.78969000  0.30140000  1.0 -0.5633927964
O  O48  1  0.88940000  0.28969000  0.69860000  1.0 -0.5633927964
O  O49  1  0.24550000  0.21851000  0.61700000  1.0 -0.52733294
O  O50  1  0.25450000  0.71851000  0.38300000  1.0 -0.52733294
O  O51  1  0.75450000  0.78149000  0.38300000  1.0 -0.52733294
O  O52  1  0.74550000  0.28149000  0.61700000  1.0 -0.52733294
O  O53  1  0.07490000  0.24688000  0.09010000  1.0 -0.4174048461
O  O54  1  0.42510000  0.74688000  0.90990000  1.0 -0.4174048461
O  O55  1  0.92510000  0.75312000  0.90990000  1.0 -0.4174048461
O  O56  1  0.57490000  0.25312000  0.09010000  1.0 -0.4174048461
O  O57  1  0.86050000  0.21518000  0.41770000  1.0 -0.5381781988
O  O58  1  0.63950000  0.71518000  0.58230000  1.0 -0.5381781988
O  O59  1  0.13950000  0.78482000  0.58230000  1.0 -0.5381781988
O  O60  1  0.36050000  0.28482000  0.41770000  1.0 -0.5381781988
O  O61  1  0.71940000  0.20884000  0.33160000  1.0 -0.5779315613
O  O62  1  0.78060000  0.70884000  0.66840000  1.0 -0.5779315613
O  O63  1  0.28060000  0.79116000  0.66840000  1.0 -0.5779315613
O  O64  1  0.21940000  0.29116000  0.33160000  1.0 -0.5779315613
O  O65  1  0.79740000  0.44050000  0.68920000  1.0 -0.439048969
O  O66  1  0.70260000  0.94050000  0.31080000  1.0 -0.439048969
O  O67  1  0.20260000  0.55950000  0.31080000  1.0 -0.439048969
O  O68  1  0.29740000  0.05950000  0.68920000  1.0 -0.439048969
O  O69  1  0.76430000  0.46420000  0.79590000  1.0 -0.463487909
O  O70  1  0.73570000  0.96420000  0.20410000  1.0 -0.463487909
O  O71  1  0.23570000  0.53580000  0.20410000  1.0 -0.463487909
O  O72  1  0.26430000  0.03580000  0.79590000  1.0 -0.463487909
O  O73  1  0.23790000  0.49810000  0.45510000  1.0 0.2111380763
O  O74  1  0.26210000  0.99810000  0.54490000  1.0 0.2111380763
O  O75  1  0.76210000  0.50190000  0.54490000  1.0 0.2111380763
O  O76  1  0.73790000  0.00190000  0.45510000  1.0 0.2111380763
O  O77  1  0.04460000  0.49570000  0.29950000  1.0 0.1289600094
O  O78  1  0.45540000  0.99570000  0.70050000  1.0 0.1289600094
O  O79  1  0.95540000  0.50430000  0.70050000  1.0 0.1289600094
O  O80  1  0.54460000  0.00430000  0.29950000  1.0 0.1289600094
O  O81  1  0.45520000  0.51080000  0.36140000  1.0 0.1809190262
O  O82  1  0.04480000  0.01080000  0.63860000  1.0 0.1809190262
O  O83  1  0.54480000  0.48920000  0.63860000  1.0 0.1809190262
O  O84  1  0.95520000  0.98920000  0.36140000  1.0 0.1809190262
O  O85  1  0.09210000  0.50230000  0.32880000  1.0 -0.010690895
O  O86  1  0.40790000  0.00230000  0.67120000  1.0 -0.010690895
O  O87  1  0.90790000  0.49770000  0.67120000  1.0 -0.010690895
O  O88  1  0.59210000  0.99770000  0.32880000  1.0 -0.010690895
O  O89  1  0.41170000  0.50970000  0.32050000  1.0 -0.0256811439
O  O90  1  0.08830000  0.00970000  0.67950000  1.0 -0.0238865263
O  O91  1  0.58830000  0.49030000  0.67950000  1.0 -0.0256811439
O  O92  1  0.91170000  0.99030000  0.32050000  1.0 -0.0238865263
O  O93  1  0.28300000  0.51180000  0.44910000  1.0 0.0509151231
O  O94  1  0.21700000  0.01180000  0.55090000  1.0 0.0509151231
O  O95  1  0.71700000  0.48820000  0.55090000  1.0 0.0509151231
O  O96  1  0.78300000  0.98820000  0.44910000  1.0 0.0509151231
