# DDEC6 charges by PACMAN v1.1 (https://github.com/mtap-research/PACMAN-charge/)
data_LENKIA_FSR_pacman
_symmetry_space_group_name_H-M   'P 1'
_cell_length_a   15.15380000
_cell_length_b   15.15380000
_cell_length_c   15.15380000
_cell_angle_alpha   118.13600000
_cell_angle_beta   118.13600000
_cell_angle_gamma   118.13600000
_symmetry_Int_Tables_number   1
_chemical_formula_structural   CuHC8NO5
_chemical_formula_sum   'Cu6 H6 C48 N6 O30'
_cell_volume   1221.17539822
_cell_formula_units_Z   6
loop_
 _symmetry_equiv_pos_site_id
 _symmetry_equiv_pos_as_xyz
  1  'x, y, z'
loop_
 _atom_site_type_symbol
 _atom_site_label
 _atom_site_symmetry_multiplicity
 _atom_site_fract_x
 _atom_site_fract_y
 _atom_site_fract_z
 _atom_site_occupancy
 _atom_site_charge
Cu  Cu1  1  0.07095000  0.63762000  0.33144000  1.0 0.9042248581
Cu  Cu2  1  0.63762000  0.33144000  0.07095000  1.0 0.9042248581
Cu  Cu3  1  0.33144000  0.07095000  0.63762000  1.0 0.9042248581
Cu  Cu4  1  0.92905000  0.36238000  0.66856000  1.0 0.9042248581
Cu  Cu5  1  0.36238000  0.66856000  0.92905000  1.0 0.9042248581
Cu  Cu6  1  0.66856000  0.92905000  0.36238000  1.0 0.9042248581
H  H1  1  0.68530000  0.14630000  0.12490000  1.0 0.1477163984
H  H2  1  0.14630000  0.12490000  0.68530000  1.0 0.1477163984
H  H3  1  0.12490000  0.68530000  0.14630000  1.0 0.1477163984
H  H4  1  0.31470000  0.85370000  0.87510000  1.0 0.1477163984
H  H5  1  0.85370000  0.87510000  0.31470000  1.0 0.1477163984
H  H6  1  0.87510000  0.31470000  0.85370000  1.0 0.1477163984
C  C1  1  0.81450000  0.29170000  0.27840000  1.0 -0.1811667155
C  C2  1  0.29170000  0.27840000  0.81450000  1.0 -0.1811667155
C  C3  1  0.27840000  0.81450000  0.29170000  1.0 -0.1811667155
C  C4  1  0.18550000  0.70830000  0.72160000  1.0 -0.1811667155
C  C5  1  0.70830000  0.72160000  0.18550000  1.0 -0.1811667155
C  C6  1  0.72160000  0.18550000  0.70830000  1.0 -0.1811667155
C  C7  1  0.28180000  0.88330000  0.71170000  1.0 0.5989749883
C  C8  1  0.88330000  0.71170000  0.28180000  1.0 0.5989749883
C  C9  1  0.71170000  0.28180000  0.88330000  1.0 0.5989749883
C  C10  1  0.71820000  0.11670000  0.28830000  1.0 0.5989749883
C  C11  1  0.11670000  0.28830000  0.71820000  1.0 0.5989749883
C  C12  1  0.28830000  0.71820000  0.11670000  1.0 0.5989749883
C  C13  1  0.93610000  0.46480000  0.36470000  1.0 0.2638468399
C  C14  1  0.46480000  0.36470000  0.93610000  1.0 0.2638468399
C  C15  1  0.36470000  0.93610000  0.46480000  1.0 0.2638468399
C  C16  1  0.06390000  0.53520000  0.63530000  1.0 0.2638468399
C  C17  1  0.53520000  0.63530000  0.06390000  1.0 0.2638468399
C  C18  1  0.63530000  0.06390000  0.53520000  1.0 0.2638468399
C  C19  1  0.12750000  0.67900000  0.59420000  1.0 -0.126507339
C  C20  1  0.67900000  0.59420000  0.12750000  1.0 -0.126507339
C  C21  1  0.59420000  0.12750000  0.67900000  1.0 -0.126507339
C  C22  1  0.87250000  0.32100000  0.40580000  1.0 -0.126507339
C  C23  1  0.32100000  0.40580000  0.87250000  1.0 -0.126507339
C  C24  1  0.40580000  0.87250000  0.32100000  1.0 -0.126507339
C  C25  1  0.33750000  0.66340000  0.40610000  1.0 -0.0603046095
C  C26  1  0.66340000  0.40610000  0.33750000  1.0 -0.0603046095
C  C27  1  0.40610000  0.33750000  0.66340000  1.0 -0.0603046095
C  C28  1  0.66250000  0.33660000  0.59390000  1.0 -0.0603046095
C  C29  1  0.33660000  0.59390000  0.66250000  1.0 -0.0603046095
C  C30  1  0.59390000  0.66250000  0.33660000  1.0 -0.0603046095
C  C31  1  0.48620000  0.85760000  0.66020000  1.0 0.3539190644
C  C32  1  0.85760000  0.66020000  0.48620000  1.0 0.3539190644
C  C33  1  0.66020000  0.48620000  0.85760000  1.0 0.3539190644
C  C34  1  0.51380000  0.14240000  0.33980000  1.0 0.3539190644
C  C35  1  0.14240000  0.33980000  0.51380000  1.0 0.3539190644
C  C36  1  0.33980000  0.51380000  0.14240000  1.0 0.3539190644
C  C37  1  0.82430000  0.12860000  0.99910000  1.0 0.0586833958
C  C38  1  0.12860000  0.99910000  0.82430000  1.0 0.0586833958
C  C39  1  0.99910000  0.82430000  0.12860000  1.0 0.0586833958
C  C40  1  0.17570000  0.87140000  0.00090000  1.0 0.0586833958
C  C41  1  0.87140000  0.00090000  0.17570000  1.0 0.0586833958
C  C42  1  0.00090000  0.17570000  0.87140000  1.0 0.0586833958
C  C43  1  0.61400000  0.84900000  0.63100000  1.0 -0.0603046095
C  C44  1  0.84900000  0.63100000  0.61400000  1.0 -0.0603046095
C  C45  1  0.63100000  0.61400000  0.84900000  1.0 -0.0603046095
C  C46  1  0.38600000  0.15100000  0.36900000  1.0 -0.0603046095
C  C47  1  0.15100000  0.36900000  0.38600000  1.0 -0.0603046095
C  C48  1  0.36900000  0.38600000  0.15100000  1.0 -0.0603046095
N  N1  1  0.66560000  0.96500000  0.77840000  1.0 -0.0037920995
N  N2  1  0.96500000  0.77840000  0.66560000  1.0 -0.0037920995
N  N3  1  0.77840000  0.66560000  0.96500000  1.0 -0.0037920995
N  N4  1  0.33440000  0.03500000  0.22160000  1.0 -0.0037920995
N  N5  1  0.03500000  0.22160000  0.33440000  1.0 -0.0037920995
N  N6  1  0.22160000  0.33440000  0.03500000  1.0 -0.0037920995
O  O1  1  0.86178000  0.41889000  0.22543000  1.0 -0.564287677
O  O2  1  0.41889000  0.22543000  0.86178000  1.0 -0.564287677
O  O3  1  0.22543000  0.86178000  0.41889000  1.0 -0.564287677
O  O4  1  0.13822000  0.58111000  0.77457000  1.0 -0.564287677
O  O5  1  0.58111000  0.77457000  0.13822000  1.0 -0.564287677
O  O6  1  0.77457000  0.13822000  0.58111000  1.0 -0.564287677
O  O7  1  0.28333000  0.88370000  0.62967000  1.0 -0.5930983371
O  O8  1  0.88370000  0.62967000  0.28333000  1.0 -0.5930983371
O  O9  1  0.62967000  0.28333000  0.88370000  1.0 -0.5930983371
O  O10  1  0.71667000  0.11630000  0.37033000  1.0 -0.5930983371
O  O11  1  0.11630000  0.37033000  0.71667000  1.0 -0.5930983371
O  O12  1  0.37033000  0.71667000  0.11630000  1.0 -0.5930983371
O  O13  1  0.41359000  0.05522000  0.89819000  1.0 -0.5051918969
O  O14  1  0.05522000  0.89819000  0.41359000  1.0 -0.5051918969
O  O15  1  0.89819000  0.41359000  0.05522000  1.0 -0.5046727405
O  O16  1  0.58641000  0.94478000  0.10181000  1.0 -0.5046727405
O  O17  1  0.94478000  0.10181000  0.58641000  1.0 -0.5051918969
O  O18  1  0.10181000  0.58641000  0.94478000  1.0 -0.5051918969
O  O19  1  0.29160000  0.69400000  0.46670000  1.0 -0.1725807037
O  O20  1  0.69400000  0.46670000  0.29160000  1.0 -0.1725807037
O  O21  1  0.46670000  0.29160000  0.69400000  1.0 -0.1725807037
O  O22  1  0.70840000  0.30600000  0.53330000  1.0 -0.1725807037
O  O23  1  0.30600000  0.53330000  0.70840000  1.0 -0.1725807037
O  O24  1  0.53330000  0.70840000  0.30600000  1.0 -0.1725807037
O  O25  1  0.68630000  0.07330000  0.91970000  1.0 -0.0603046095
O  O26  1  0.07330000  0.91970000  0.68630000  1.0 -0.0603046095
O  O27  1  0.91970000  0.68630000  0.07330000  1.0 -0.0603046095
O  O28  1  0.31370000  0.92670000  0.08030000  1.0 -0.0603046095
O  O29  1  0.92670000  0.08030000  0.31370000  1.0 -0.0603046095
O  O30  1  0.08030000  0.31370000  0.92670000  1.0 -0.0603046095
