# DDEC6 charges by PACMAN v1.1 (https://github.com/mtap-research/PACMAN-charge/)
data_LENTUX_FSR_pacman
_symmetry_space_group_name_H-M   'P 1'
_cell_length_a   14.24290000
_cell_length_b   14.24290000
_cell_length_c   19.28710000
_cell_angle_alpha   81.38660000
_cell_angle_beta   98.61340000
_cell_angle_gamma   146.50600000
_symmetry_Int_Tables_number   1
_chemical_formula_structural   MnCuH6C16N3O8
_chemical_formula_sum   'Mn4 Cu4 H24 C64 N12 O32'
_cell_volume   2132.58761431
_cell_formula_units_Z   4
loop_
 _symmetry_equiv_pos_site_id
 _symmetry_equiv_pos_as_xyz
  1  'x, y, z'
loop_
 _atom_site_type_symbol
 _atom_site_label
 _atom_site_symmetry_multiplicity
 _atom_site_fract_x
 _atom_site_fract_y
 _atom_site_fract_z
 _atom_site_occupancy
 _atom_site_charge
Mn  Mn1  1  0.15127000  0.26623000  0.28126000  1.0 1.0148297358
Mn  Mn2  1  0.26623000  0.15127000  0.21874000  1.0 1.0148297358
Mn  Mn3  1  0.84873000  0.73377000  0.71874000  1.0 1.0148297358
Mn  Mn4  1  0.73377000  0.84873000  0.78126000  1.0 1.0148297358
Cu  Cu1  1  0.51240000  0.34766000  0.49001000  1.0 0.7622354883
Cu  Cu2  1  0.34766000  0.51240000  0.00999000  1.0 0.7622354883
Cu  Cu3  1  0.48760000  0.65234000  0.50999000  1.0 0.7622354883
Cu  Cu4  1  0.65234000  0.48760000  0.99001000  1.0 0.7622354883
H  H1  1  0.75799000  0.47239000  0.31708000  1.0 0.1424086527
H  H2  1  0.97433000  0.54235000  0.31101000  1.0 0.1424086527
H  H3  1  0.59733000  0.18719000  0.49798000  1.0 0.1424086527
H  H4  1  0.10844000  0.25488000  0.58843000  1.0 0.1424086527
H  H5  1  0.87106000  0.10764000  0.64083000  1.0 0.1056667581
H  H6  1  0.71323000  0.10969000  0.58875000  1.0 0.1211405504
H  H7  1  0.47239000  0.75799000  0.18292000  1.0 0.1424086527
H  H8  1  0.54235000  0.97433000  0.18899000  1.0 0.1424086527
H  H9  1  0.18719000  0.59733000  0.00202000  1.0 0.1424086527
H  H10  1  0.25488000  0.10844000  0.91157000  1.0 0.1424086527
H  H11  1  0.10764000  0.87106000  0.85917000  1.0 0.1056667581
H  H12  1  0.10969000  0.71323000  0.91125000  1.0 0.1211405504
H  H13  1  0.24201000  0.52761000  0.68292000  1.0 0.1424086527
H  H14  1  0.02567000  0.45765000  0.68899000  1.0 0.1424086527
H  H15  1  0.40267000  0.81281000  0.50202000  1.0 0.1424086527
H  H16  1  0.89156000  0.74512000  0.41157000  1.0 0.1424086527
H  H17  1  0.12894000  0.89236000  0.35917000  1.0 0.1056667581
H  H18  1  0.28677000  0.89031000  0.41125000  1.0 0.1211405504
H  H19  1  0.52761000  0.24201000  0.81708000  1.0 0.1424086527
H  H20  1  0.45765000  0.02567000  0.81101000  1.0 0.1424086527
H  H21  1  0.81281000  0.40267000  0.99798000  1.0 0.1424086527
H  H22  1  0.74512000  0.89156000  0.08843000  1.0 0.1424086527
H  H23  1  0.89236000  0.12894000  0.14083000  1.0 0.1056667581
H  H24  1  0.89031000  0.28677000  0.08875000  1.0 0.1211405504
C  C1  1  0.31294000  0.21806000  0.36934000  1.0 0.4714621115
C  C2  1  0.43270000  0.23710000  0.35812000  1.0 0.362293433
C  C3  1  0.65941000  0.32459000  0.40808000  1.0 0.2366828393
C  C4  1  0.77097000  0.42943000  0.35257000  1.0 -0.1402745482
C  C5  1  0.89892000  0.47128000  0.34856000  1.0 -0.1402745482
C  C6  1  0.91381000  0.40579000  0.40143000  1.0 0.1647781688
C  C7  1  0.80267000  0.29913000  0.45744000  1.0 0.017864592
C  C8  1  0.67340000  0.25840000  0.46067000  1.0 -0.2263364237
C  C9  1  0.86071000  0.26189000  0.50272000  1.0 0.0124820225
C  C10  1  0.00468000  0.34972000  0.47139000  1.0 0.1004244234
C  C11  1  0.09983000  0.34937000  0.50259000  1.0 0.1683020699
C  C12  1  0.04669000  0.25771000  0.56595000  1.0 -0.1722394567
C  C13  1  0.90427000  0.16953000  0.59746000  1.0 -0.0772529472
C  C14  1  0.80978000  0.17002000  0.56682000  1.0 -0.1349352938
C  C15  1  0.24185000  0.41055000  0.41174000  1.0 0.3843254853
C  C16  1  0.41388000  0.52612000  0.38680000  1.0 0.4647066105
C  C17  1  0.21806000  0.31294000  0.13066000  1.0 0.4714621115
C  C18  1  0.23710000  0.43270000  0.14188000  1.0 0.362293433
C  C19  1  0.32459000  0.65941000  0.09192000  1.0 0.2366828393
C  C20  1  0.42943000  0.77097000  0.14743000  1.0 -0.1402745482
C  C21  1  0.47128000  0.89892000  0.15144000  1.0 -0.1402745482
C  C22  1  0.40579000  0.91381000  0.09857000  1.0 0.1647781688
C  C23  1  0.29913000  0.80267000  0.04256000  1.0 0.017864592
C  C24  1  0.25840000  0.67340000  0.03933000  1.0 -0.2263364237
C  C25  1  0.26189000  0.86071000  0.99728000  1.0 0.0124820225
C  C26  1  0.34972000  0.00468000  0.02861000  1.0 0.1004244234
C  C27  1  0.34937000  0.09983000  0.99741000  1.0 0.1683020699
C  C28  1  0.25771000  0.04669000  0.93405000  1.0 -0.1722394567
C  C29  1  0.16953000  0.90427000  0.90254000  1.0 -0.0772529472
C  C30  1  0.17002000  0.80978000  0.93318000  1.0 -0.1349352938
C  C31  1  0.41055000  0.24185000  0.08826000  1.0 0.3843254853
C  C32  1  0.52612000  0.41388000  0.11320000  1.0 0.4647066105
C  C33  1  0.68706000  0.78194000  0.63066000  1.0 0.4714621115
C  C34  1  0.56730000  0.76290000  0.64188000  1.0 0.362293433
C  C35  1  0.34059000  0.67541000  0.59192000  1.0 0.2366828393
C  C36  1  0.22903000  0.57057000  0.64743000  1.0 -0.1402745482
C  C37  1  0.10108000  0.52872000  0.65144000  1.0 -0.1402745482
C  C38  1  0.08619000  0.59421000  0.59857000  1.0 0.1647781688
C  C39  1  0.19733000  0.70087000  0.54256000  1.0 0.017864592
C  C40  1  0.32660000  0.74160000  0.53933000  1.0 -0.2263364237
C  C41  1  0.13929000  0.73811000  0.49728000  1.0 0.0124820225
C  C42  1  0.99532000  0.65028000  0.52861000  1.0 0.1004244234
C  C43  1  0.90017000  0.65063000  0.49741000  1.0 0.1683020699
C  C44  1  0.95331000  0.74229000  0.43405000  1.0 -0.1722394567
C  C45  1  0.09573000  0.83047000  0.40254000  1.0 -0.0772529472
C  C46  1  0.19022000  0.82998000  0.43318000  1.0 -0.1402745482
C  C47  1  0.75815000  0.58945000  0.58826000  1.0 0.3843254853
C  C48  1  0.58612000  0.47388000  0.61320000  1.0 0.4647066105
C  C49  1  0.78194000  0.68706000  0.86934000  1.0 0.4714621115
C  C50  1  0.76290000  0.56730000  0.85812000  1.0 0.362293433
C  C51  1  0.67541000  0.34059000  0.90808000  1.0 0.2366828393
C  C52  1  0.57057000  0.22903000  0.85257000  1.0 -0.1402745482
C  C53  1  0.52872000  0.10108000  0.84856000  1.0 -0.1402745482
C  C54  1  0.59421000  0.08619000  0.90143000  1.0 0.1647781688
C  C55  1  0.70087000  0.19733000  0.95744000  1.0 0.017864592
C  C56  1  0.74160000  0.32660000  0.96067000  1.0 -0.2263364237
C  C57  1  0.73811000  0.13929000  0.00272000  1.0 0.0124820225
C  C58  1  0.65028000  0.99532000  0.97139000  1.0 0.1004244234
C  C59  1  0.65063000  0.90017000  0.00259000  1.0 0.1683020699
C  C60  1  0.74229000  0.95331000  0.06595000  1.0 -0.1722394567
C  C61  1  0.83047000  0.09573000  0.09746000  1.0 -0.0772529472
C  C62  1  0.82998000  0.19022000  0.06682000  1.0 -0.1402745482
C  C63  1  0.58945000  0.75815000  0.91174000  1.0 0.3843254853
C  C64  1  0.47388000  0.58612000  0.88680000  1.0 0.4647066105
N  N1  1  0.53644000  0.29516000  0.41226000  1.0 -0.4360454049
N  N2  1  0.03456000  0.43424000  0.41022000  1.0 -0.3440293488
N  N3  1  0.25150000  0.44910000  0.47274000  1.0 -0.4236349952
N  N4  1  0.29516000  0.53644000  0.08774000  1.0 -0.4360454049
N  N5  1  0.43424000  0.03456000  0.08978000  1.0 -0.3440293488
N  N6  1  0.44910000  0.25150000  0.02726000  1.0 -0.4236349952
N  N7  1  0.46356000  0.70484000  0.58774000  1.0 -0.4360454049
N  N8  1  0.96544000  0.56576000  0.58978000  1.0 -0.3440293488
N  N9  1  0.74850000  0.55090000  0.52726000  1.0 -0.4236349952
N  N10  1  0.70484000  0.46356000  0.91226000  1.0 -0.4360454049
N  N11  1  0.56576000  0.96544000  0.91022000  1.0 -0.3440293488
N  N12  1  0.55090000  0.74850000  0.97274000  1.0 -0.4236349952
O  O1  1  0.31789000  0.25011000  0.42792000  1.0 -0.4315177802
O  O2  1  0.21786000  0.17214000  0.31646000  1.0 -0.4954053354
O  O3  1  0.41895000  0.19485000  0.29946000  1.0 -0.4612817582
O  O4  1  0.10975000  0.29045000  0.37377000  1.0 -0.4096731213
O  O5  1  0.41660000  0.50500000  0.32676000  1.0 -0.4612817582
O  O6  1  0.54144000  0.63356000  0.42939000  1.0 -0.4315177802
O  O7  1  0.31850000  0.07770000  0.54331000  1.0 0.0271723522
O  O8  1  0.88019000  0.01401000  0.27584000  1.0 -0.1924835857
O  O9  1  0.25011000  0.31789000  0.07208000  1.0 -0.4315177802
O  O10  1  0.17214000  0.21786000  0.18354000  1.0 -0.4954053354
O  O11  1  0.19485000  0.41895000  0.20054000  1.0 -0.4612817582
O  O12  1  0.29045000  0.10975000  0.12623000  1.0 -0.4096731213
O  O13  1  0.50500000  0.41660000  0.17324000  1.0 -0.4612817582
O  O14  1  0.63356000  0.54144000  0.07061000  1.0 -0.4315177802
O  O15  1  0.07770000  0.31850000  0.95669000  1.0 0.0271723522
O  O16  1  0.01401000  0.88019000  0.22416000  1.0 -0.1989955198
O  O17  1  0.68211000  0.74989000  0.57208000  1.0 -0.4315177802
O  O18  1  0.78214000  0.82786000  0.68354000  1.0 -0.4949716222
O  O19  1  0.58105000  0.80515000  0.70054000  1.0 -0.4612817582
O  O20  1  0.89025000  0.70955000  0.62623000  1.0 -0.4096731213
O  O21  1  0.58340000  0.49500000  0.67324000  1.0 -0.4612817582
O  O22  1  0.45856000  0.36644000  0.57061000  1.0 -0.4315177802
O  O23  1  0.68150000  0.92230000  0.45669000  1.0 0.0271723522
O  O24  1  0.11981000  0.98599000  0.72416000  1.0 -0.1989955198
O  O25  1  0.74989000  0.68211000  0.92792000  1.0 -0.4315177802
O  O26  1  0.82786000  0.78214000  0.81646000  1.0 -0.4954053354
O  O27  1  0.80515000  0.58105000  0.79946000  1.0 -0.4612817582
O  O28  1  0.70955000  0.89025000  0.87377000  1.0 -0.4096731213
O  O29  1  0.49500000  0.58340000  0.82676000  1.0 -0.4612817582
O  O30  1  0.36644000  0.45856000  0.92939000  1.0 -0.4315177802
O  O31  1  0.92230000  0.68150000  0.04331000  1.0 0.0271723522
O  O32  1  0.98599000  0.11981000  0.77584000  1.0 -0.1924835857
