# DDEC6 charges by PACMAN v1.1 (https://github.com/mtap-research/PACMAN-charge/)
data_LEPKOJ_ASR_pacman
_symmetry_space_group_name_H-M   'P 1'
_cell_length_a   21.48080000
_cell_length_b   21.48080000
_cell_length_c   22.72900000
_cell_angle_alpha   90.00000000
_cell_angle_beta   90.00000000
_cell_angle_gamma   91.12790000
_symmetry_Int_Tables_number   1
_chemical_formula_structural   Y2ZnH20C52(NO4)4
_chemical_formula_sum   'Y8 Zn4 H80 C208 N16 O64'
_cell_volume   10485.69152227
_cell_formula_units_Z   4
loop_
 _symmetry_equiv_pos_site_id
 _symmetry_equiv_pos_as_xyz
  1  'x, y, z'
loop_
 _atom_site_type_symbol
 _atom_site_label
 _atom_site_symmetry_multiplicity
 _atom_site_fract_x
 _atom_site_fract_y
 _atom_site_fract_z
 _atom_site_occupancy
 _atom_site_charge
Y  Y1  1  0.37315000  0.12759000  0.94150000  1.0 1.7670304527
Y  Y2  1  0.12685000  0.37241000  0.44150000  1.0 1.7670304527
Y  Y3  1  0.37241000  0.12685000  0.55850000  1.0 1.7670304527
Y  Y4  1  0.12759000  0.37315000  0.05850000  1.0 1.7670304527
Y  Y5  1  0.62685000  0.87241000  0.05850000  1.0 1.7670304527
Y  Y6  1  0.87315000  0.62759000  0.55850000  1.0 1.7670304527
Y  Y7  1  0.62759000  0.87315000  0.44150000  1.0 1.7670304527
Y  Y8  1  0.87241000  0.62685000  0.94150000  1.0 1.7670304527
Zn  Zn1  1  0.12896000  0.87104000  0.24703000  1.0 0.6274714371
Zn  Zn2  1  0.37104000  0.62896000  0.74703000  1.0 0.6274714371
Zn  Zn3  1  0.62896000  0.37104000  0.25297000  1.0 0.6274714371
Zn  Zn4  1  0.87104000  0.12896000  0.75297000  1.0 0.6274714371
H  H1  1  0.27750000  0.80610000  0.41510000  1.0 0.1423776791
H  H2  1  0.36680000  0.85000000  0.32710000  1.0 0.1278042399
H  H3  1  0.46150000  0.95510000  0.45250000  1.0 0.1479560782
H  H4  1  0.28250000  0.98530000  0.41020000  1.0 0.1278042399
H  H5  1  0.31970000  0.01170000  0.28910000  1.0 0.1423776791
H  H6  1  0.26000000  0.06780000  0.22300000  1.0 0.1423776791
H  H7  1  0.09850000  0.11690000  0.17530000  1.0 0.1278042399
H  H8  1  0.20700000  0.21300000  0.06350000  1.0 0.1278042399
H  H9  1  0.23430000  0.03210000  0.09100000  1.0 0.1278042399
H  H10  1  0.06200000  0.02500000  0.09300000  1.0 0.1278042399
H  H11  1  0.22250000  0.69390000  0.91510000  1.0 0.1423776791
H  H12  1  0.13320000  0.65000000  0.82710000  1.0 0.1278042399
H  H13  1  0.03850000  0.54490000  0.95250000  1.0 0.1479560782
H  H14  1  0.21750000  0.51470000  0.91020000  1.0 0.1278042399
H  H15  1  0.18030000  0.48830000  0.78910000  1.0 0.1423776791
H  H16  1  0.24000000  0.43220000  0.72300000  1.0 0.1423776791
H  H17  1  0.40150000  0.38310000  0.67530000  1.0 0.1278042399
H  H18  1  0.29300000  0.28700000  0.56350000  1.0 0.1278042399
H  H19  1  0.26570000  0.46790000  0.59100000  1.0 0.1278042399
H  H20  1  0.43800000  0.47500000  0.59300000  1.0 0.1278042399
H  H21  1  0.69390000  0.22250000  0.08490000  1.0 0.1423776791
H  H22  1  0.65000000  0.13320000  0.17290000  1.0 0.1278042399
H  H23  1  0.54490000  0.03850000  0.04750000  1.0 0.1479560782
H  H24  1  0.51470000  0.21750000  0.08980000  1.0 0.1278042399
H  H25  1  0.48830000  0.18030000  0.21090000  1.0 0.1423776791
H  H26  1  0.43220000  0.24000000  0.27700000  1.0 0.1423776791
H  H27  1  0.38310000  0.40150000  0.32470000  1.0 0.1278042399
H  H28  1  0.28700000  0.29300000  0.43650000  1.0 0.1278042399
H  H29  1  0.46790000  0.26570000  0.40900000  1.0 0.1278042399
H  H30  1  0.47500000  0.43800000  0.40700000  1.0 0.1278042399
H  H31  1  0.80610000  0.27750000  0.58490000  1.0 0.1423776791
H  H32  1  0.85000000  0.36680000  0.67290000  1.0 0.1278042399
H  H33  1  0.95510000  0.46150000  0.54750000  1.0 0.1479560782
H  H34  1  0.98530000  0.28250000  0.58980000  1.0 0.1278042399
H  H35  1  0.01170000  0.31970000  0.71090000  1.0 0.1423776791
H  H36  1  0.06780000  0.26000000  0.77700000  1.0 0.1423776791
H  H37  1  0.11690000  0.09850000  0.82470000  1.0 0.1278042399
H  H38  1  0.21300000  0.20700000  0.93650000  1.0 0.1278042399
H  H39  1  0.03210000  0.23430000  0.90900000  1.0 0.1278042399
H  H40  1  0.02500000  0.06200000  0.90700000  1.0 0.1278042399
H  H41  1  0.72250000  0.19390000  0.58490000  1.0 0.1423776791
H  H42  1  0.63320000  0.15000000  0.67290000  1.0 0.1278042399
H  H43  1  0.53850000  0.04490000  0.54750000  1.0 0.1479560782
H  H44  1  0.71750000  0.01470000  0.58980000  1.0 0.1278042399
H  H45  1  0.68030000  0.98830000  0.71090000  1.0 0.1423776791
H  H46  1  0.74000000  0.93220000  0.77700000  1.0 0.1423776791
H  H47  1  0.90150000  0.88310000  0.82470000  1.0 0.124164631
H  H48  1  0.79300000  0.78700000  0.93650000  1.0 0.1278042399
H  H49  1  0.76570000  0.96790000  0.90900000  1.0 0.1278042399
H  H50  1  0.93800000  0.97500000  0.90700000  1.0 0.1278042399
H  H51  1  0.77750000  0.30610000  0.08490000  1.0 0.1423776791
H  H52  1  0.86680000  0.35000000  0.17290000  1.0 0.1278042399
H  H53  1  0.96150000  0.45510000  0.04750000  1.0 0.1479560782
H  H54  1  0.78250000  0.48530000  0.08980000  1.0 0.1278042399
H  H55  1  0.81970000  0.51170000  0.21090000  1.0 0.1423776791
H  H56  1  0.76000000  0.56780000  0.27700000  1.0 0.1423776791
H  H57  1  0.59850000  0.61690000  0.32470000  1.0 0.1278042399
H  H58  1  0.70700000  0.71300000  0.43650000  1.0 0.1278042399
H  H59  1  0.73430000  0.53210000  0.40900000  1.0 0.1278042399
H  H60  1  0.56200000  0.52500000  0.40700000  1.0 0.1278042399
H  H61  1  0.30610000  0.77750000  0.91510000  1.0 0.1423776791
H  H62  1  0.35000000  0.86680000  0.82710000  1.0 0.1278042399
H  H63  1  0.45510000  0.96150000  0.95250000  1.0 0.1479560782
H  H64  1  0.48530000  0.78250000  0.91020000  1.0 0.1278042399
H  H65  1  0.51170000  0.81970000  0.78910000  1.0 0.1423776791
H  H66  1  0.56780000  0.76000000  0.72300000  1.0 0.1423776791
H  H67  1  0.61690000  0.59850000  0.67530000  1.0 0.124164631
H  H68  1  0.71300000  0.70700000  0.56350000  1.0 0.1278042399
H  H69  1  0.53210000  0.73430000  0.59100000  1.0 0.1278042399
H  H70  1  0.52500000  0.56200000  0.59300000  1.0 0.1278042399
H  H71  1  0.19390000  0.72250000  0.41510000  1.0 0.1423776791
H  H72  1  0.15000000  0.63320000  0.32710000  1.0 0.1278042399
H  H73  1  0.04490000  0.53850000  0.45250000  1.0 0.1479560782
H  H74  1  0.01470000  0.71750000  0.41020000  1.0 0.1278042399
H  H75  1  0.98830000  0.68030000  0.28910000  1.0 0.1423776791
H  H76  1  0.93220000  0.74000000  0.22300000  1.0 0.1423776791
H  H77  1  0.88310000  0.90150000  0.17530000  1.0 0.124164631
H  H78  1  0.78700000  0.79300000  0.06350000  1.0 0.1278042399
H  H79  1  0.96790000  0.76570000  0.09100000  1.0 0.1278042399
H  H80  1  0.97500000  0.93800000  0.09300000  1.0 0.1278042399
C  C1  1  0.24250000  0.80430000  0.39100000  1.0 -0.171149599
C  C2  1  0.22590000  0.84970000  0.34570000  1.0 0.1992426061
C  C3  1  0.26260000  0.90000000  0.32790000  1.0 -0.0515926352
C  C4  1  0.31810000  0.91670000  0.36300000  1.0 0.0282900441
C  C5  1  0.36830000  0.88270000  0.35400000  1.0 -0.1493824109
C  C6  1  0.42340000  0.89600000  0.38490000  1.0 0.0282900441
C  C7  1  0.48360000  0.86320000  0.37060000  1.0 0.5814962926
C  C8  1  0.42560000  0.94600000  0.43110000  1.0 -0.1167731124
C  C9  1  0.37250000  0.97710000  0.43960000  1.0 0.0090379162
C  C10  1  0.37070000  0.03110000  0.48330000  1.0 0.5574691718
C  C11  1  0.31840000  0.96260000  0.40440000  1.0 -0.1493824109
C  C12  1  0.24310000  0.94570000  0.28280000  1.0 0.2365586361
C  C13  1  0.28140000  0.00040000  0.27280000  1.0 -0.1493824109
C  C14  1  0.24900000  0.02820000  0.23670000  1.0 -0.1493824109
C  C15  1  0.19320000  0.99560000  0.21670000  1.0 0.1423776791
C  C16  1  0.15100000  0.01140000  0.17710000  1.0 -0.0515926352
C  C17  1  0.16510000  0.06810000  0.13910000  1.0 0.0602123829
C  C18  1  0.13270000  0.11990000  0.15030000  1.0 -0.1038916369
C  C19  1  0.14830000  0.17750000  0.12630000  1.0 -0.08876741
C  C20  1  0.11270000  0.23130000  0.13270000  1.0 0.5574691718
C  C21  1  0.19720000  0.17600000  0.08290000  1.0 -0.0740909694
C  C22  1  0.23080000  0.12360000  0.06780000  1.0 -0.03631499
C  C23  1  0.28310000  0.11910000  0.02660000  1.0 0.5444587072
C  C24  1  0.21320000  0.06860000  0.09840000  1.0 -0.1383169807
C  C25  1  0.09800000  0.97220000  0.16360000  1.0 0.1992426061
C  C26  1  0.05820000  0.99040000  0.11740000  1.0 -0.2009902901
C  C27  1  0.25750000  0.69570000  0.89100000  1.0 -0.171149599
C  C28  1  0.27410000  0.65030000  0.84570000  1.0 0.1992426061
C  C29  1  0.23740000  0.60000000  0.82790000  1.0 -0.0515926352
C  C30  1  0.18190000  0.58330000  0.86300000  1.0 0.0282900441
C  C31  1  0.13170000  0.61730000  0.85400000  1.0 -0.1493824109
C  C32  1  0.07660000  0.60400000  0.88490000  1.0 0.0230015771
C  C33  1  0.01640000  0.63680000  0.87060000  1.0 0.585377713
C  C34  1  0.07440000  0.55400000  0.93110000  1.0 -0.1167731124
C  C35  1  0.12750000  0.52290000  0.93960000  1.0 0.0090379162
C  C36  1  0.12930000  0.46890000  0.98330000  1.0 0.5574691718
C  C37  1  0.18160000  0.53740000  0.90440000  1.0 -0.1493824109
C  C38  1  0.25690000  0.55430000  0.78280000  1.0 0.2365586361
C  C39  1  0.21860000  0.49960000  0.77280000  1.0 -0.1493824109
C  C40  1  0.25100000  0.47180000  0.73670000  1.0 -0.1493824109
C  C41  1  0.30680000  0.50440000  0.71670000  1.0 0.1423776791
C  C42  1  0.34900000  0.48860000  0.67710000  1.0 -0.0515926352
C  C43  1  0.33490000  0.43190000  0.63910000  1.0 0.0602123829
C  C44  1  0.36730000  0.38010000  0.65030000  1.0 -0.1038916369
C  C45  1  0.35170000  0.32250000  0.62630000  1.0 -0.08876741
C  C46  1  0.38730000  0.26870000  0.63270000  1.0 0.5574691718
C  C47  1  0.30280000  0.32400000  0.58290000  1.0 -0.0740909694
C  C48  1  0.26920000  0.37640000  0.56780000  1.0 -0.03631499
C  C49  1  0.21690000  0.38090000  0.52660000  1.0 0.5444587072
C  C50  1  0.28680000  0.43140000  0.59840000  1.0 -0.1383169807
C  C51  1  0.40200000  0.52780000  0.66360000  1.0 0.1992426061
C  C52  1  0.44180000  0.50960000  0.61740000  1.0 -0.2009902901
C  C53  1  0.69570000  0.25750000  0.10900000  1.0 -0.171149599
C  C54  1  0.65030000  0.27410000  0.15430000  1.0 0.1992426061
C  C55  1  0.60000000  0.23740000  0.17210000  1.0 -0.0515926352
C  C56  1  0.58330000  0.18190000  0.13700000  1.0 0.0282900441
C  C57  1  0.61730000  0.13170000  0.14600000  1.0 -0.1493824109
C  C58  1  0.60400000  0.07660000  0.11510000  1.0 0.0282900441
C  C59  1  0.63680000  0.01640000  0.12940000  1.0 0.5814962926
C  C60  1  0.55400000  0.07440000  0.06890000  1.0 -0.1167731124
C  C61  1  0.52290000  0.12750000  0.06040000  1.0 0.0090379162
C  C62  1  0.46890000  0.12930000  0.01670000  1.0 0.5574691718
C  C63  1  0.53740000  0.18160000  0.09560000  1.0 -0.1493824109
C  C64  1  0.55430000  0.25690000  0.21720000  1.0 0.2365586361
C  C65  1  0.49960000  0.21860000  0.22720000  1.0 -0.1493824109
C  C66  1  0.47180000  0.25100000  0.26330000  1.0 -0.1493824109
C  C67  1  0.50440000  0.30680000  0.28330000  1.0 0.1423776791
C  C68  1  0.48860000  0.34900000  0.32290000  1.0 -0.0515926352
C  C69  1  0.43190000  0.33490000  0.36090000  1.0 0.0602123829
C  C70  1  0.38010000  0.36730000  0.34970000  1.0 -0.1038916369
C  C71  1  0.32250000  0.35170000  0.37370000  1.0 -0.08876741
C  C72  1  0.26870000  0.38730000  0.36730000  1.0 0.5574691718
C  C73  1  0.32400000  0.30280000  0.41710000  1.0 -0.0740909694
C  C74  1  0.37640000  0.26920000  0.43220000  1.0 -0.03631499
C  C75  1  0.38090000  0.21690000  0.47340000  1.0 0.5444587072
C  C76  1  0.43140000  0.28680000  0.40160000  1.0 -0.1383169807
C  C77  1  0.52780000  0.40200000  0.33640000  1.0 0.1992426061
C  C78  1  0.50960000  0.44180000  0.38260000  1.0 -0.2009902901
C  C79  1  0.80430000  0.24250000  0.60900000  1.0 -0.171149599
C  C80  1  0.84970000  0.22590000  0.65430000  1.0 0.1992426061
C  C81  1  0.90000000  0.26260000  0.67210000  1.0 -0.0515926352
C  C82  1  0.91670000  0.31810000  0.63700000  1.0 0.0282900441
C  C83  1  0.88270000  0.36830000  0.64600000  1.0 -0.1493824109
C  C84  1  0.89600000  0.42340000  0.61510000  1.0 0.0282900441
C  C85  1  0.86320000  0.48360000  0.62940000  1.0 0.5814962926
C  C86  1  0.94600000  0.42560000  0.56890000  1.0 -0.1167731124
C  C87  1  0.97710000  0.37250000  0.56040000  1.0 0.0090379162
C  C88  1  0.03110000  0.37070000  0.51670000  1.0 0.5574691718
C  C89  1  0.96260000  0.31840000  0.59560000  1.0 -0.1493824109
C  C90  1  0.94570000  0.24310000  0.71720000  1.0 0.2365586361
C  C91  1  0.00040000  0.28140000  0.72720000  1.0 -0.1493824109
C  C92  1  0.02820000  0.24900000  0.76330000  1.0 -0.1493824109
C  C93  1  0.99560000  0.19320000  0.78330000  1.0 0.1423776791
C  C94  1  0.01140000  0.15100000  0.82290000  1.0 -0.0515926352
C  C95  1  0.06810000  0.16510000  0.86090000  1.0 0.0602123829
C  C96  1  0.11990000  0.13270000  0.84970000  1.0 -0.1038916369
C  C97  1  0.17750000  0.14830000  0.87370000  1.0 -0.08876741
C  C98  1  0.23130000  0.11270000  0.86730000  1.0 0.5574691718
C  C99  1  0.17600000  0.19720000  0.91710000  1.0 -0.0740909694
C  C100  1  0.12360000  0.23080000  0.93220000  1.0 -0.03631499
C  C101  1  0.11910000  0.28310000  0.97340000  1.0 0.5444587072
C  C102  1  0.06860000  0.21320000  0.90160000  1.0 -0.1383169807
C  C103  1  0.97220000  0.09800000  0.83640000  1.0 0.1992426061
C  C104  1  0.99040000  0.05820000  0.88260000  1.0 -0.2009902901
C  C105  1  0.75750000  0.19570000  0.60900000  1.0 -0.171149599
C  C106  1  0.77410000  0.15030000  0.65430000  1.0 0.1992426061
C  C107  1  0.73740000  0.10000000  0.67210000  1.0 -0.0515926352
C  C108  1  0.68190000  0.08330000  0.63700000  1.0 0.0282900441
C  C109  1  0.63170000  0.11730000  0.64600000  1.0 -0.1493824109
C  C110  1  0.57660000  0.10400000  0.61510000  1.0 0.0282900441
C  C111  1  0.51640000  0.13680000  0.62940000  1.0 0.5814962926
C  C112  1  0.57440000  0.05400000  0.56890000  1.0 -0.1167731124
C  C113  1  0.62750000  0.02290000  0.56040000  1.0 0.0090379162
C  C114  1  0.62930000  0.96890000  0.51670000  1.0 0.5574691718
C  C115  1  0.68160000  0.03740000  0.59560000  1.0 -0.1383169807
C  C116  1  0.75690000  0.05430000  0.71720000  1.0 0.2365586361
C  C117  1  0.71860000  0.99960000  0.72720000  1.0 -0.1493824109
C  C118  1  0.75100000  0.97180000  0.76330000  1.0 -0.1493824109
C  C119  1  0.80680000  0.00440000  0.78330000  1.0 0.1423776791
C  C120  1  0.84900000  0.98860000  0.82290000  1.0 -0.0515926352
C  C121  1  0.83490000  0.93190000  0.86090000  1.0 0.0602123829
C  C122  1  0.86730000  0.88010000  0.84970000  1.0 -0.1038916369
C  C123  1  0.85170000  0.82250000  0.87370000  1.0 -0.08876741
C  C124  1  0.88730000  0.76870000  0.86730000  1.0 0.5574691718
C  C125  1  0.80280000  0.82400000  0.91710000  1.0 -0.0740909694
C  C126  1  0.76920000  0.87640000  0.93220000  1.0 -0.03631499
C  C127  1  0.71690000  0.88090000  0.97340000  1.0 0.5444587072
C  C128  1  0.78680000  0.93140000  0.90160000  1.0 -0.1383169807
C  C129  1  0.90200000  0.02780000  0.83640000  1.0 0.1992426061
C  C130  1  0.94180000  0.00960000  0.88260000  1.0 -0.2009902901
C  C131  1  0.74250000  0.30430000  0.10900000  1.0 -0.171149599
C  C132  1  0.72590000  0.34970000  0.15430000  1.0 0.1992426061
C  C133  1  0.76260000  0.40000000  0.17210000  1.0 -0.0515926352
C  C134  1  0.81810000  0.41670000  0.13700000  1.0 0.0282900441
C  C135  1  0.86830000  0.38270000  0.14600000  1.0 -0.1493824109
C  C136  1  0.92340000  0.39600000  0.11510000  1.0 0.0282900441
C  C137  1  0.98360000  0.36320000  0.12940000  1.0 0.5814962926
C  C138  1  0.92560000  0.44600000  0.06890000  1.0 -0.1167731124
C  C139  1  0.87250000  0.47710000  0.06040000  1.0 0.0090379162
C  C140  1  0.87070000  0.53110000  0.01670000  1.0 0.5574691718
C  C141  1  0.81840000  0.46260000  0.09560000  1.0 -0.1493824109
C  C142  1  0.74310000  0.44570000  0.21720000  1.0 0.2365586361
C  C143  1  0.78140000  0.50040000  0.22720000  1.0 -0.1493824109
C  C144  1  0.74900000  0.52820000  0.26330000  1.0 -0.1493824109
C  C145  1  0.69320000  0.49560000  0.28330000  1.0 0.1423776791
C  C146  1  0.65100000  0.51140000  0.32290000  1.0 -0.0515926352
C  C147  1  0.66510000  0.56810000  0.36090000  1.0 0.0602123829
C  C148  1  0.63270000  0.61990000  0.34970000  1.0 -0.1038916369
C  C149  1  0.64830000  0.67750000  0.37370000  1.0 -0.08876741
C  C150  1  0.61270000  0.73130000  0.36730000  1.0 0.5574691718
C  C151  1  0.69720000  0.67600000  0.41710000  1.0 -0.0740909694
C  C152  1  0.73080000  0.62360000  0.43220000  1.0 -0.03631499
C  C153  1  0.78310000  0.61910000  0.47340000  1.0 0.5444587072
C  C154  1  0.71320000  0.56860000  0.40160000  1.0 -0.1383169807
C  C155  1  0.59800000  0.47220000  0.33640000  1.0 0.1992426061
C  C156  1  0.55820000  0.49040000  0.38260000  1.0 -0.2009902901
C  C157  1  0.30430000  0.74250000  0.89100000  1.0 -0.171149599
C  C158  1  0.34970000  0.72590000  0.84570000  1.0 0.1992426061
C  C159  1  0.40000000  0.76260000  0.82790000  1.0 -0.0515926352
C  C160  1  0.41670000  0.81810000  0.86300000  1.0 0.0282900441
C  C161  1  0.38270000  0.86830000  0.85400000  1.0 -0.1493824109
C  C162  1  0.39600000  0.92340000  0.88490000  1.0 0.0230015771
C  C163  1  0.36320000  0.98360000  0.87060000  1.0 0.5814962926
C  C164  1  0.44600000  0.92560000  0.93110000  1.0 -0.1167731124
C  C165  1  0.47710000  0.87250000  0.93960000  1.0 0.0090379162
C  C166  1  0.53110000  0.87070000  0.98330000  1.0 0.5574691718
C  C167  1  0.46260000  0.81840000  0.90440000  1.0 -0.1493824109
C  C168  1  0.44570000  0.74310000  0.78280000  1.0 0.2365586361
C  C169  1  0.50040000  0.78140000  0.77280000  1.0 -0.1493824109
C  C170  1  0.52820000  0.74900000  0.73670000  1.0 -0.1493824109
C  C171  1  0.49560000  0.69320000  0.71670000  1.0 0.1423776791
C  C172  1  0.51140000  0.65100000  0.67710000  1.0 -0.0515926352
C  C173  1  0.56810000  0.66510000  0.63910000  1.0 0.0602123829
C  C174  1  0.61990000  0.63270000  0.65030000  1.0 -0.1038916369
C  C175  1  0.67750000  0.64830000  0.62630000  1.0 -0.08876741
C  C176  1  0.73130000  0.61270000  0.63270000  1.0 0.5574691718
C  C177  1  0.67600000  0.69720000  0.58290000  1.0 -0.0740909694
C  C178  1  0.62360000  0.73080000  0.56780000  1.0 -0.03631499
C  C179  1  0.61910000  0.78310000  0.52660000  1.0 0.5444587072
C  C180  1  0.56860000  0.71320000  0.59840000  1.0 -0.1383169807
C  C181  1  0.47220000  0.59800000  0.66360000  1.0 0.1992426061
C  C182  1  0.49040000  0.55820000  0.61740000  1.0 -0.2009902901
C  C183  1  0.19570000  0.75750000  0.39100000  1.0 -0.171149599
C  C184  1  0.15030000  0.77410000  0.34570000  1.0 0.1992426061
C  C185  1  0.10000000  0.73740000  0.32790000  1.0 -0.0515926352
C  C186  1  0.08330000  0.68190000  0.36300000  1.0 0.0282900441
C  C187  1  0.11730000  0.63170000  0.35400000  1.0 -0.1493824109
C  C188  1  0.10400000  0.57660000  0.38490000  1.0 0.0282900441
C  C189  1  0.13680000  0.51640000  0.37060000  1.0 0.5814962926
C  C190  1  0.05400000  0.57440000  0.43110000  1.0 -0.1167731124
C  C191  1  0.02290000  0.62750000  0.43960000  1.0 0.0090379162
C  C192  1  0.96890000  0.62930000  0.48330000  1.0 0.5574691718
C  C193  1  0.03740000  0.68160000  0.40440000  1.0 -0.1493824109
C  C194  1  0.05430000  0.75690000  0.28280000  1.0 0.2365586361
C  C195  1  0.99960000  0.71860000  0.27280000  1.0 -0.1493824109
C  C196  1  0.97180000  0.75100000  0.23670000  1.0 -0.1493824109
C  C197  1  0.00440000  0.80680000  0.21670000  1.0 0.1423776791
C  C198  1  0.98860000  0.84900000  0.17710000  1.0 -0.0515926352
C  C199  1  0.93190000  0.83490000  0.13910000  1.0 0.0602123829
C  C200  1  0.88010000  0.86730000  0.15030000  1.0 -0.1038916369
C  C201  1  0.82250000  0.85170000  0.12630000  1.0 -0.08876741
C  C202  1  0.76870000  0.88730000  0.13270000  1.0 0.5574691718
C  C203  1  0.82400000  0.80280000  0.08290000  1.0 -0.0740909694
C  C204  1  0.87640000  0.76920000  0.06780000  1.0 -0.03631499
C  C205  1  0.88090000  0.71690000  0.02660000  1.0 0.5444587072
C  C206  1  0.93140000  0.78680000  0.09840000  1.0 -0.1383169807
C  C207  1  0.02780000  0.90200000  0.16360000  1.0 0.1992426061
C  C208  1  0.00960000  0.94180000  0.11740000  1.0 -0.2009902901
N  N1  1  0.19210000  0.94310000  0.25360000  1.0 -0.3129197667
N  N2  1  0.30790000  0.55690000  0.75360000  1.0 -0.3129197667
N  N3  1  0.55690000  0.30790000  0.24640000  1.0 -0.3129197667
N  N4  1  0.94310000  0.19210000  0.74640000  1.0 -0.3129197667
N  N5  1  0.80790000  0.05690000  0.74640000  1.0 -0.3129197667
N  N6  1  0.69210000  0.44310000  0.24640000  1.0 -0.3129197667
N  N7  1  0.44310000  0.69210000  0.75360000  1.0 -0.3129197667
N  N8  1  0.05690000  0.80790000  0.25360000  1.0 -0.3150918285
N  N9  1  0.17440000  0.82560000  0.31570000  1.0 -0.3719307954
N  N10  1  0.07990000  0.92010000  0.19080000  1.0 -0.3150918285
N  N11  1  0.32560000  0.67440000  0.81570000  1.0 -0.3719307954
N  N12  1  0.42010000  0.57990000  0.69080000  1.0 -0.3129197667
N  N13  1  0.67440000  0.32560000  0.18430000  1.0 -0.3719307954
N  N14  1  0.57990000  0.42010000  0.30920000  1.0 -0.3129197667
N  N15  1  0.82560000  0.17440000  0.68430000  1.0 -0.3719307954
N  N16  1  0.92010000  0.07990000  0.80920000  1.0 -0.3129197667
O  O1  1  0.48250000  0.81630000  0.33110000  1.0 -0.4438824966
O  O2  1  0.52680000  0.87240000  0.40790000  1.0 -0.6008519257
O  O3  1  0.42390000  0.05030000  0.50270000  1.0 -0.56618915
O  O4  1  0.32150000  0.06010000  0.48970000  1.0 -0.5807177822
O  O5  1  0.05270000  0.23010000  0.15590000  1.0 -0.3910370084
O  O6  1  0.12900000  0.28400000  0.11570000  1.0 -0.5647886793
O  O7  1  0.30610000  0.17990000  0.00550000  1.0 -0.6811359848
O  O8  1  0.31180000  0.07520000  0.01060000  1.0 -0.4507040382
O  O9  1  0.01750000  0.68370000  0.83110000  1.0 -0.4507040382
O  O10  1  0.97320000  0.62760000  0.90790000  1.0 -0.6008519257
O  O11  1  0.07610000  0.44970000  0.00270000  1.0 -0.5647886793
O  O12  1  0.17850000  0.43990000  0.98970000  1.0 -0.5807177822
O  O13  1  0.44730000  0.26990000  0.65590000  1.0 -0.3910370084
O  O14  1  0.37100000  0.21600000  0.61570000  1.0 -0.5647886793
O  O15  1  0.19390000  0.32010000  0.50550000  1.0 -0.6811359848
O  O16  1  0.18820000  0.42480000  0.51060000  1.0 -0.4507040382
O  O17  1  0.68370000  0.01750000  0.16890000  1.0 -0.4438824966
O  O18  1  0.62760000  0.97320000  0.09210000  1.0 -0.6008519257
O  O19  1  0.44970000  0.07610000  0.99730000  1.0 -0.5647886793
O  O20  1  0.43990000  0.17850000  0.01030000  1.0 -0.5807177822
O  O21  1  0.26990000  0.44730000  0.34410000  1.0 -0.3910370084
O  O22  1  0.21600000  0.37100000  0.38430000  1.0 -0.5647886793
O  O23  1  0.32010000  0.19390000  0.49450000  1.0 -0.6811359848
O  O24  1  0.42480000  0.18820000  0.48940000  1.0 -0.4507040382
O  O25  1  0.81630000  0.48250000  0.66890000  1.0 -0.4438824966
O  O26  1  0.87240000  0.52680000  0.59210000  1.0 -0.6008519257
O  O27  1  0.05030000  0.42390000  0.49730000  1.0 -0.5647886793
O  O28  1  0.06010000  0.32150000  0.51030000  1.0 -0.5807177822
O  O29  1  0.23010000  0.05270000  0.84410000  1.0 -0.3910370084
O  O30  1  0.28400000  0.12900000  0.88430000  1.0 -0.5647886793
O  O31  1  0.17990000  0.30610000  0.99450000  1.0 -0.6811359848
O  O32  1  0.07520000  0.31180000  0.98940000  1.0 -0.4507040382
O  O33  1  0.51750000  0.18370000  0.66890000  1.0 -0.4438824966
O  O34  1  0.47320000  0.12760000  0.59210000  1.0 -0.6008519257
O  O35  1  0.57610000  0.94970000  0.49730000  1.0 -0.56618915
O  O36  1  0.67850000  0.93990000  0.51030000  1.0 -0.5807177822
O  O37  1  0.94730000  0.76990000  0.84410000  1.0 -0.3910370084
O  O38  1  0.87100000  0.71600000  0.88430000  1.0 -0.5647886793
O  O39  1  0.69390000  0.82010000  0.99450000  1.0 -0.6811359848
O  O40  1  0.68820000  0.92480000  0.98940000  1.0 -0.4507040382
O  O41  1  0.98250000  0.31630000  0.16890000  1.0 -0.4438824966
O  O42  1  0.02680000  0.37240000  0.09210000  1.0 -0.6008519257
O  O43  1  0.92390000  0.55030000  0.99730000  1.0 -0.5647886793
O  O44  1  0.82150000  0.56010000  0.01030000  1.0 -0.5807177822
O  O45  1  0.55270000  0.73010000  0.34410000  1.0 -0.3910370084
O  O46  1  0.62900000  0.78400000  0.38430000  1.0 -0.5647886793
O  O47  1  0.80610000  0.67990000  0.49450000  1.0 -0.6811359848
O  O48  1  0.81180000  0.57520000  0.48940000  1.0 -0.4507040382
O  O49  1  0.31630000  0.98250000  0.83110000  1.0 -0.4438824966
O  O50  1  0.37240000  0.02680000  0.90790000  1.0 -0.6008519257
O  O51  1  0.55030000  0.92390000  0.00270000  1.0 -0.5647886793
O  O52  1  0.56010000  0.82150000  0.98970000  1.0 -0.5807177822
O  O53  1  0.73010000  0.55270000  0.65590000  1.0 -0.3910370084
O  O54  1  0.78400000  0.62900000  0.61570000  1.0 -0.5647886793
O  O55  1  0.67990000  0.80610000  0.50550000  1.0 -0.6811359848
O  O56  1  0.57520000  0.81180000  0.51060000  1.0 -0.4507040382
O  O57  1  0.18370000  0.51750000  0.33110000  1.0 -0.4438824966
O  O58  1  0.12760000  0.47320000  0.40790000  1.0 -0.6008519257
O  O59  1  0.94970000  0.57610000  0.50270000  1.0 -0.5647886793
O  O60  1  0.93990000  0.67850000  0.48970000  1.0 -0.5807177822
O  O61  1  0.76990000  0.94730000  0.15590000  1.0 -0.3910370084
O  O62  1  0.71600000  0.87100000  0.11570000  1.0 -0.5647886793
O  O63  1  0.82010000  0.69390000  0.00550000  1.0 -0.6811359848
O  O64  1  0.92480000  0.68820000  0.01060000  1.0 -0.4507040382
