# DDEC6 charges by PACMAN v1.1 (https://github.com/mtap-research/PACMAN-charge/)
data_LEPSOR_ASR_pacman
_symmetry_space_group_name_H-M   'P 1'
_cell_length_a   19.41700000
_cell_length_b   19.41700000
_cell_length_c   23.19300000
_cell_angle_alpha   90.00000000
_cell_angle_beta   90.00000000
_cell_angle_gamma   134.85400000
_symmetry_Int_Tables_number   1
_chemical_formula_structural   InH24C42(SO2)4
_chemical_formula_sum   'In4 H96 C168 S16 O32'
_cell_volume   6198.83443643
_cell_formula_units_Z   4
loop_
 _symmetry_equiv_pos_site_id
 _symmetry_equiv_pos_as_xyz
  1  'x, y, z'
loop_
 _atom_site_type_symbol
 _atom_site_label
 _atom_site_symmetry_multiplicity
 _atom_site_fract_x
 _atom_site_fract_y
 _atom_site_fract_z
 _atom_site_occupancy
 _atom_site_charge
In  In1  1  0.78352000  0.21648000  0.75000000  1.0 1.3183887244
In  In2  1  0.78352000  0.21648000  0.25000000  1.0 1.3183887244
In  In3  1  0.21648000  0.78352000  0.75000000  1.0 1.3183887244
In  In4  1  0.21648000  0.78352000  0.25000000  1.0 1.3183887244
H  H1  1  0.69010000  0.31530000  0.61290000  1.0 0.1293680051
H  H2  1  0.58750000  0.30070000  0.54860000  1.0 0.1104648688
H  H3  1  0.36350000  0.02550000  0.60310000  1.0 0.1182087005
H  H4  1  0.46650000  0.03870000  0.66630000  1.0 0.1293680051
H  H5  1  0.11250000  0.31690000  0.45190000  1.0 0.0807111624
H  H6  1  0.02920000  0.33060000  0.38960000  1.0 0.0881929122
H  H7  1  0.84810000  0.05410000  0.34160000  1.0 0.1104648688
H  H8  1  0.93910000  0.03870000  0.39660000  1.0 0.0807111624
H  H9  1  0.15010000  0.30810000  0.40340000  1.0 0.0881929122
H  H10  1  0.07030000  0.33010000  0.34310000  1.0 0.1011440979
H  H11  1  0.81870000  0.08490000  0.40820000  1.0 0.1011440979
H  H12  1  0.90500000  0.07760000  0.47470000  1.0 0.0664610456
H  H13  1  0.68470000  0.30990000  0.88710000  1.0 0.1293680051
H  H14  1  0.69930000  0.41250000  0.95140000  1.0 0.1104648688
H  H15  1  0.97450000  0.63650000  0.89690000  1.0 0.1182087005
H  H16  1  0.96130000  0.53350000  0.83370000  1.0 0.1293680051
H  H17  1  0.68310000  0.88750000  0.04810000  1.0 0.0807111624
H  H18  1  0.66940000  0.97080000  0.11040000  1.0 0.0881929122
H  H19  1  0.94590000  0.15190000  0.15840000  1.0 0.1104648688
H  H20  1  0.96130000  0.06090000  0.10340000  1.0 0.0807111624
H  H21  1  0.69190000  0.84990000  0.09660000  1.0 0.0881929122
H  H22  1  0.66990000  0.92970000  0.15690000  1.0 0.1011440979
H  H23  1  0.91510000  0.18130000  0.09180000  1.0 0.1011440979
H  H24  1  0.92240000  0.09500000  0.02530000  1.0 0.063152451
H  H25  1  0.69010000  0.31530000  0.38710000  1.0 0.1293680051
H  H26  1  0.58750000  0.30070000  0.45140000  1.0 0.1104648688
H  H27  1  0.36350000  0.02550000  0.39690000  1.0 0.1182087005
H  H28  1  0.46650000  0.03870000  0.33370000  1.0 0.1293680051
H  H29  1  0.11250000  0.31690000  0.54810000  1.0 0.0807111624
H  H30  1  0.02920000  0.33060000  0.61040000  1.0 0.0881929122
H  H31  1  0.84810000  0.05410000  0.65840000  1.0 0.1104648688
H  H32  1  0.93910000  0.03870000  0.60340000  1.0 0.0807111624
H  H33  1  0.15010000  0.30810000  0.59660000  1.0 0.0881929122
H  H34  1  0.07030000  0.33010000  0.65690000  1.0 0.1011440979
H  H35  1  0.81870000  0.08490000  0.59180000  1.0 0.1011440979
H  H36  1  0.90500000  0.07760000  0.52530000  1.0 0.0664610456
H  H37  1  0.68470000  0.30990000  0.11290000  1.0 0.1293680051
H  H38  1  0.69930000  0.41250000  0.04860000  1.0 0.1104648688
H  H39  1  0.97450000  0.63650000  0.10310000  1.0 0.1182087005
H  H40  1  0.96130000  0.53350000  0.16630000  1.0 0.1293680051
H  H41  1  0.68310000  0.88750000  0.95190000  1.0 0.0807111624
H  H42  1  0.66940000  0.97080000  0.88960000  1.0 0.0881929122
H  H43  1  0.94590000  0.15190000  0.84160000  1.0 0.1104648688
H  H44  1  0.96130000  0.06090000  0.89660000  1.0 0.0807111624
H  H45  1  0.69190000  0.84990000  0.90340000  1.0 0.0881929122
H  H46  1  0.66990000  0.92970000  0.84310000  1.0 0.1011440979
H  H47  1  0.91510000  0.18130000  0.90820000  1.0 0.1011440979
H  H48  1  0.92240000  0.09500000  0.97470000  1.0 0.0664610456
H  H49  1  0.30990000  0.68470000  0.61290000  1.0 0.1293680051
H  H50  1  0.41250000  0.69930000  0.54860000  1.0 0.1104648688
H  H51  1  0.63650000  0.97450000  0.60310000  1.0 0.1182087005
H  H52  1  0.53350000  0.96130000  0.66630000  1.0 0.1293680051
H  H53  1  0.88750000  0.68310000  0.45190000  1.0 0.0807111624
H  H54  1  0.97080000  0.66940000  0.38960000  1.0 0.0881929122
H  H55  1  0.15190000  0.94590000  0.34160000  1.0 0.1104648688
H  H56  1  0.06090000  0.96130000  0.39660000  1.0 0.0807111624
H  H57  1  0.84990000  0.69190000  0.40340000  1.0 0.0881929122
H  H58  1  0.92970000  0.66990000  0.34310000  1.0 0.1011440979
H  H59  1  0.18130000  0.91510000  0.40820000  1.0 0.1011440979
H  H60  1  0.09500000  0.92240000  0.47470000  1.0 0.063152451
H  H61  1  0.31530000  0.69010000  0.88710000  1.0 0.1293680051
H  H62  1  0.30070000  0.58750000  0.95140000  1.0 0.1104648688
H  H63  1  0.02550000  0.36350000  0.89690000  1.0 0.1182087005
H  H64  1  0.03870000  0.46650000  0.83370000  1.0 0.1293680051
H  H65  1  0.31690000  0.11250000  0.04810000  1.0 0.0807111624
H  H66  1  0.33060000  0.02920000  0.11040000  1.0 0.0881929122
H  H67  1  0.05410000  0.84810000  0.15840000  1.0 0.1104648688
H  H68  1  0.03870000  0.93910000  0.10340000  1.0 0.0807111624
H  H69  1  0.30810000  0.15010000  0.09660000  1.0 0.0881929122
H  H70  1  0.33010000  0.07030000  0.15690000  1.0 0.1011440979
H  H71  1  0.08490000  0.81870000  0.09180000  1.0 0.1011440979
H  H72  1  0.07760000  0.90500000  0.02530000  1.0 0.063152451
H  H73  1  0.30990000  0.68470000  0.38710000  1.0 0.1293680051
H  H74  1  0.41250000  0.69930000  0.45140000  1.0 0.1104648688
H  H75  1  0.63650000  0.97450000  0.39690000  1.0 0.1182087005
H  H76  1  0.53350000  0.96130000  0.33370000  1.0 0.1293680051
H  H77  1  0.88750000  0.68310000  0.54810000  1.0 0.0807111624
H  H78  1  0.97080000  0.66940000  0.61040000  1.0 0.0881929122
H  H79  1  0.15190000  0.94590000  0.65840000  1.0 0.1104648688
H  H80  1  0.06090000  0.96130000  0.60340000  1.0 0.0807111624
H  H81  1  0.84990000  0.69190000  0.59660000  1.0 0.0881929122
H  H82  1  0.92970000  0.66990000  0.65690000  1.0 0.1011440979
H  H83  1  0.18130000  0.91510000  0.59180000  1.0 0.1011440979
H  H84  1  0.09500000  0.92240000  0.52530000  1.0 0.063152451
H  H85  1  0.31530000  0.69010000  0.11290000  1.0 0.1293680051
H  H86  1  0.30070000  0.58750000  0.04860000  1.0 0.1104648688
H  H87  1  0.02550000  0.36350000  0.10310000  1.0 0.1182087005
H  H88  1  0.03870000  0.46650000  0.16630000  1.0 0.1293680051
H  H89  1  0.31690000  0.11250000  0.95190000  1.0 0.0807111624
H  H90  1  0.33060000  0.02920000  0.88960000  1.0 0.0881929122
H  H91  1  0.05410000  0.84810000  0.84160000  1.0 0.1104648688
H  H92  1  0.03870000  0.93910000  0.89660000  1.0 0.0807111624
H  H93  1  0.30810000  0.15010000  0.90340000  1.0 0.0881929122
H  H94  1  0.33010000  0.07030000  0.84310000  1.0 0.1011440979
H  H95  1  0.08490000  0.81870000  0.90820000  1.0 0.1011440979
H  H96  1  0.07760000  0.90500000  0.97470000  1.0 0.063152451
C  C1  1  0.65628000  0.18812000  0.68326000  1.0 0.5381960214
C  C2  1  0.58790000  0.17730000  0.64414000  1.0 -0.0113773221
C  C3  1  0.62305000  0.25495000  0.60980000  1.0 -0.0895585029
C  C4  1  0.56227000  0.24653000  0.57240000  1.0 -0.1512483911
C  C5  1  0.46526000  0.16014000  0.56852000  1.0 0.0881929122
C  C6  1  0.42914000  0.08306000  0.60433000  1.0 -0.1512483911
C  C7  1  0.49121000  0.09219000  0.64201000  1.0 -0.078268342
C  C8  1  0.39858000  0.15022000  0.52902000  1.0 -0.0607891983
C  C9  1  0.08545000  0.16695000  0.47110000  1.0 -0.0895585029
C  C10  1  0.03360000  0.17900000  0.43390000  1.0 0.0373649985
C  C11  1  0.05840000  0.26180000  0.43000000  1.0 -0.0522319794
C  C12  1  0.00700000  0.27000000  0.39330000  1.0 -0.0385598901
C  C13  1  0.93202000  0.19958000  0.36500000  1.0 -0.0035327065
C  C14  1  0.90150000  0.10690000  0.36490000  1.0 -0.0607891983
C  C15  1  0.95380000  0.09740000  0.39790000  1.0 -0.078268342
C  C16  1  0.87722000  0.20878000  0.32660000  1.0 0.4848578216
C  C17  1  0.08270000  0.25990000  0.40190000  1.0 -0.0664249556
C  C18  1  0.03540000  0.27340000  0.36680000  1.0 -0.0385598901
C  C19  1  0.88790000  0.12950000  0.40460000  1.0 -0.0522319794
C  C20  1  0.93770000  0.12130000  0.44240000  1.0 -0.1093811004
C  C21  1  0.81188000  0.34372000  0.81674000  1.0 0.5381960214
C  C22  1  0.82270000  0.41210000  0.85586000  1.0 -0.0113773221
C  C23  1  0.74505000  0.37695000  0.89020000  1.0 -0.0895585029
C  C24  1  0.75347000  0.43773000  0.92760000  1.0 -0.1512483911
C  C25  1  0.83986000  0.53474000  0.93148000  1.0 0.0881929122
C  C26  1  0.91694000  0.57086000  0.89567000  1.0 -0.1512483911
C  C27  1  0.90781000  0.50879000  0.85799000  1.0 -0.078268342
C  C28  1  0.84978000  0.60142000  0.97098000  1.0 -0.0607891983
C  C29  1  0.83305000  0.91455000  0.02890000  1.0 -0.0895585029
C  C30  1  0.82100000  0.96640000  0.06610000  1.0 0.0373649985
C  C31  1  0.73820000  0.94160000  0.07000000  1.0 -0.0522319794
C  C32  1  0.73000000  0.99300000  0.10670000  1.0 -0.0330366923
C  C33  1  0.80042000  0.06798000  0.13500000  1.0 -0.0035327065
C  C34  1  0.89310000  0.09850000  0.13510000  1.0 -0.0607891983
C  C35  1  0.90260000  0.04620000  0.10210000  1.0 -0.078268342
C  C36  1  0.79122000  0.12278000  0.17340000  1.0 0.4848578216
C  C37  1  0.74010000  0.91730000  0.09810000  1.0 -0.0607891983
C  C38  1  0.72660000  0.96460000  0.13320000  1.0 -0.0385598901
C  C39  1  0.87050000  0.11210000  0.09540000  1.0 -0.0522319794
C  C40  1  0.87870000  0.06230000  0.05760000  1.0 -0.1093811004
C  C41  1  0.65628000  0.18812000  0.31674000  1.0 0.5381960214
C  C42  1  0.58790000  0.17730000  0.35586000  1.0 -0.0113773221
C  C43  1  0.62305000  0.25495000  0.39020000  1.0 -0.0895585029
C  C44  1  0.56227000  0.24653000  0.42760000  1.0 -0.1512483911
C  C45  1  0.46526000  0.16014000  0.43148000  1.0 0.0881929122
C  C46  1  0.42914000  0.08306000  0.39567000  1.0 -0.1512483911
C  C47  1  0.49121000  0.09219000  0.35799000  1.0 -0.078268342
C  C48  1  0.39858000  0.15022000  0.47098000  1.0 -0.0607891983
C  C49  1  0.08545000  0.16695000  0.52890000  1.0 -0.0895585029
C  C50  1  0.03360000  0.17900000  0.56610000  1.0 0.0373649985
C  C51  1  0.05840000  0.26180000  0.57000000  1.0 -0.0522319794
C  C52  1  0.00700000  0.27000000  0.60670000  1.0 -0.0385598901
C  C53  1  0.93202000  0.19958000  0.63500000  1.0 -0.0035327065
C  C54  1  0.90150000  0.10690000  0.63510000  1.0 -0.0607891983
C  C55  1  0.95380000  0.09740000  0.60210000  1.0 -0.078268342
C  C56  1  0.87722000  0.20878000  0.67340000  1.0 0.4854155273
C  C57  1  0.08270000  0.25990000  0.59810000  1.0 -0.0664249556
C  C58  1  0.03540000  0.27340000  0.63320000  1.0 -0.0385598901
C  C59  1  0.88790000  0.12950000  0.59540000  1.0 -0.0522319794
C  C60  1  0.93770000  0.12130000  0.55760000  1.0 -0.1093811004
C  C61  1  0.81188000  0.34372000  0.18326000  1.0 0.5381960214
C  C62  1  0.82270000  0.41210000  0.14414000  1.0 -0.0113773221
C  C63  1  0.74505000  0.37695000  0.10980000  1.0 -0.0895585029
C  C64  1  0.75347000  0.43773000  0.07240000  1.0 -0.1512483911
C  C65  1  0.83986000  0.53474000  0.06852000  1.0 0.0881929122
C  C66  1  0.91694000  0.57086000  0.10433000  1.0 -0.1512483911
C  C67  1  0.90781000  0.50879000  0.14201000  1.0 -0.078268342
C  C68  1  0.84978000  0.60142000  0.02902000  1.0 -0.0607891983
C  C69  1  0.83305000  0.91455000  0.97110000  1.0 -0.0895585029
C  C70  1  0.82100000  0.96640000  0.93390000  1.0 0.0373649985
C  C71  1  0.73820000  0.94160000  0.93000000  1.0 -0.0522319794
C  C72  1  0.73000000  0.99300000  0.89330000  1.0 -0.0330366923
C  C73  1  0.80042000  0.06798000  0.86500000  1.0 -0.0035327065
C  C74  1  0.89310000  0.09850000  0.86490000  1.0 -0.0607891983
C  C75  1  0.90260000  0.04620000  0.89790000  1.0 -0.078268342
C  C76  1  0.79122000  0.12278000  0.82660000  1.0 0.4854155273
C  C77  1  0.74010000  0.91730000  0.90190000  1.0 -0.0607891983
C  C78  1  0.72660000  0.96460000  0.86680000  1.0 -0.0385598901
C  C79  1  0.87050000  0.11210000  0.90460000  1.0 -0.0522319794
C  C80  1  0.87870000  0.06230000  0.94240000  1.0 -0.1093811004
C  C81  1  0.25749000  0.13271000  0.50000000  1.0 -0.1022918618
C  C82  1  0.19151000  0.13709000  0.50000000  1.0 -0.0522319794
C  C83  1  0.86729000  0.74251000  0.00000000  1.0 -0.1022918618
C  C84  1  0.86291000  0.80849000  0.00000000  1.0 -0.0607891983
C  C85  1  0.34372000  0.81188000  0.68326000  1.0 0.5381960214
C  C86  1  0.41210000  0.82270000  0.64414000  1.0 -0.0113773221
C  C87  1  0.37695000  0.74505000  0.60980000  1.0 -0.0895585029
C  C88  1  0.43773000  0.75347000  0.57240000  1.0 -0.1512483911
C  C89  1  0.53474000  0.83986000  0.56852000  1.0 0.0881929122
C  C90  1  0.57086000  0.91694000  0.60433000  1.0 -0.1512483911
C  C91  1  0.50879000  0.90781000  0.64201000  1.0 -0.078268342
C  C92  1  0.60142000  0.84978000  0.52902000  1.0 -0.0607891983
C  C93  1  0.91455000  0.83305000  0.47110000  1.0 -0.0895585029
C  C94  1  0.96640000  0.82100000  0.43390000  1.0 0.0373649985
C  C95  1  0.94160000  0.73820000  0.43000000  1.0 -0.0522319794
C  C96  1  0.99300000  0.73000000  0.39330000  1.0 -0.0330366923
C  C97  1  0.06798000  0.80042000  0.36500000  1.0 -0.0113773221
C  C98  1  0.09850000  0.89310000  0.36490000  1.0 -0.0607891983
C  C99  1  0.04620000  0.90260000  0.39790000  1.0 -0.078268342
C  C100  1  0.12278000  0.79122000  0.32660000  1.0 0.4854155273
C  C101  1  0.91730000  0.74010000  0.40190000  1.0 -0.0664249556
C  C102  1  0.96460000  0.72660000  0.36680000  1.0 -0.0385598901
C  C103  1  0.11210000  0.87050000  0.40460000  1.0 -0.0522319794
C  C104  1  0.06230000  0.87870000  0.44240000  1.0 -0.1093811004
C  C105  1  0.18812000  0.65628000  0.81674000  1.0 0.5381960214
C  C106  1  0.17730000  0.58790000  0.85586000  1.0 -0.0113773221
C  C107  1  0.25495000  0.62305000  0.89020000  1.0 -0.0895585029
C  C108  1  0.24653000  0.56227000  0.92760000  1.0 -0.1512483911
C  C109  1  0.16014000  0.46526000  0.93148000  1.0 0.0881929122
C  C110  1  0.08306000  0.42914000  0.89567000  1.0 -0.1512483911
C  C111  1  0.09219000  0.49121000  0.85799000  1.0 -0.078268342
C  C112  1  0.15022000  0.39858000  0.97098000  1.0 -0.0607891983
C  C113  1  0.16695000  0.08545000  0.02890000  1.0 -0.0895585029
C  C114  1  0.17900000  0.03360000  0.06610000  1.0 0.0373649985
C  C115  1  0.26180000  0.05840000  0.07000000  1.0 -0.0522319794
C  C116  1  0.27000000  0.00700000  0.10670000  1.0 -0.0330366923
C  C117  1  0.19958000  0.93202000  0.13500000  1.0 -0.0113773221
C  C118  1  0.10690000  0.90150000  0.13510000  1.0 -0.0607891983
C  C119  1  0.09740000  0.95380000  0.10210000  1.0 -0.078268342
C  C120  1  0.20878000  0.87722000  0.17340000  1.0 0.4854155273
C  C121  1  0.25990000  0.08270000  0.09810000  1.0 -0.0664249556
C  C122  1  0.27340000  0.03540000  0.13320000  1.0 -0.0385598901
C  C123  1  0.12950000  0.88790000  0.09540000  1.0 -0.0522319794
C  C124  1  0.12130000  0.93770000  0.05760000  1.0 -0.1093811004
C  C125  1  0.34372000  0.81188000  0.31674000  1.0 0.5381960214
C  C126  1  0.41210000  0.82270000  0.35586000  1.0 -0.0113773221
C  C127  1  0.37695000  0.74505000  0.39020000  1.0 -0.0895585029
C  C128  1  0.43773000  0.75347000  0.42760000  1.0 -0.1512483911
C  C129  1  0.53474000  0.83986000  0.43148000  1.0 0.0881929122
C  C130  1  0.57086000  0.91694000  0.39567000  1.0 -0.1512483911
C  C131  1  0.50879000  0.90781000  0.35799000  1.0 -0.078268342
C  C132  1  0.60142000  0.84978000  0.47098000  1.0 -0.0607891983
C  C133  1  0.91455000  0.83305000  0.52890000  1.0 -0.0895585029
C  C134  1  0.96640000  0.82100000  0.56610000  1.0 0.0373649985
C  C135  1  0.94160000  0.73820000  0.57000000  1.0 -0.0522319794
C  C136  1  0.99300000  0.73000000  0.60670000  1.0 -0.0330366923
C  C137  1  0.06798000  0.80042000  0.63500000  1.0 -0.0113773221
C  C138  1  0.09850000  0.89310000  0.63510000  1.0 -0.0607891983
C  C139  1  0.04620000  0.90260000  0.60210000  1.0 -0.078268342
C  C140  1  0.12278000  0.79122000  0.67340000  1.0 0.4854155273
C  C141  1  0.91730000  0.74010000  0.59810000  1.0 -0.0664249556
C  C142  1  0.96460000  0.72660000  0.63320000  1.0 -0.0385598901
C  C143  1  0.11210000  0.87050000  0.59540000  1.0 -0.0522319794
C  C144  1  0.06230000  0.87870000  0.55760000  1.0 -0.1093811004
C  C145  1  0.18812000  0.65628000  0.18326000  1.0 0.5381960214
C  C146  1  0.17730000  0.58790000  0.14414000  1.0 -0.0113773221
C  C147  1  0.25495000  0.62305000  0.10980000  1.0 -0.0895585029
C  C148  1  0.24653000  0.56227000  0.07240000  1.0 -0.1512483911
C  C149  1  0.16014000  0.46526000  0.06852000  1.0 0.0881929122
C  C150  1  0.08306000  0.42914000  0.10433000  1.0 -0.1512483911
C  C151  1  0.09219000  0.49121000  0.14201000  1.0 -0.078268342
C  C152  1  0.15022000  0.39858000  0.02902000  1.0 -0.0607891983
C  C153  1  0.16695000  0.08545000  0.97110000  1.0 -0.0895585029
C  C154  1  0.17900000  0.03360000  0.93390000  1.0 0.0373649985
C  C155  1  0.26180000  0.05840000  0.93000000  1.0 -0.0522319794
C  C156  1  0.27000000  0.00700000  0.89330000  1.0 -0.0330366923
C  C157  1  0.19958000  0.93202000  0.86500000  1.0 -0.0113773221
C  C158  1  0.10690000  0.90150000  0.86490000  1.0 -0.0607891983
C  C159  1  0.09740000  0.95380000  0.89790000  1.0 -0.078268342
C  C160  1  0.20878000  0.87722000  0.82660000  1.0 0.4854155273
C  C161  1  0.25990000  0.08270000  0.90190000  1.0 -0.0664249556
C  C162  1  0.27340000  0.03540000  0.86680000  1.0 -0.0385598901
C  C163  1  0.12950000  0.88790000  0.90460000  1.0 -0.0522319794
C  C164  1  0.12130000  0.93770000  0.94240000  1.0 -0.1093811004
C  C165  1  0.74251000  0.86729000  0.50000000  1.0 -0.1022918618
C  C166  1  0.80849000  0.86291000  0.50000000  1.0 -0.0522319794
C  C167  1  0.13271000  0.25749000  0.00000000  1.0 -0.1022918618
C  C168  1  0.13709000  0.19151000  0.00000000  1.0 -0.0522319794
S  S1  1  0.14648000  0.14200000  0.43656000  1.0 0.0664610456
S  S2  1  0.30653000  0.13269000  0.56339000  1.0 0.0807111624
S  S3  1  0.85800000  0.85352000  0.06344000  1.0 0.0664610456
S  S4  1  0.86731000  0.69347000  0.93661000  1.0 0.0807111624
S  S5  1  0.14648000  0.14200000  0.56344000  1.0 0.0664610456
S  S6  1  0.30653000  0.13269000  0.43661000  1.0 0.0807111624
S  S7  1  0.85800000  0.85352000  0.93656000  1.0 0.0664610456
S  S8  1  0.86731000  0.69347000  0.06339000  1.0 0.0807111624
S  S9  1  0.85352000  0.85800000  0.43656000  1.0 0.0664610456
S  S10  1  0.69347000  0.86731000  0.56339000  1.0 0.0807111624
S  S11  1  0.14200000  0.14648000  0.06344000  1.0 0.063152451
S  S12  1  0.13269000  0.30653000  0.93661000  1.0 0.0807111624
S  S13  1  0.85352000  0.85800000  0.56344000  1.0 0.0664610456
S  S14  1  0.69347000  0.86731000  0.43661000  1.0 0.0807111624
S  S15  1  0.14200000  0.14648000  0.93656000  1.0 0.063152451
S  S16  1  0.13269000  0.30653000  0.06339000  1.0 0.0807111624
O  O1  1  0.74542000  0.26624000  0.68227000  1.0 -0.5293384327
O  O2  1  0.62601000  0.12071000  0.71627000  1.0 -0.5042818061
O  O3  1  0.91826000  0.28834000  0.30402000  1.0 -0.441587048
O  O4  1  0.79051000  0.13589000  0.31517000  1.0 -0.4729948996
O  O5  1  0.73376000  0.25458000  0.81773000  1.0 -0.5293384327
O  O6  1  0.87929000  0.37399000  0.78373000  1.0 -0.5042818061
O  O7  1  0.71166000  0.08174000  0.19598000  1.0 -0.441587048
O  O8  1  0.86411000  0.20949000  0.18483000  1.0 -0.4729948996
O  O9  1  0.74542000  0.26624000  0.31773000  1.0 -0.5293384327
O  O10  1  0.62601000  0.12071000  0.28373000  1.0 -0.5042818061
O  O11  1  0.91826000  0.28834000  0.69598000  1.0 -0.441587048
O  O12  1  0.79051000  0.13589000  0.68483000  1.0 -0.4729948996
O  O13  1  0.73376000  0.25458000  0.18227000  1.0 -0.5293384327
O  O14  1  0.87929000  0.37399000  0.21627000  1.0 -0.5042818061
O  O15  1  0.71166000  0.08174000  0.80402000  1.0 -0.441587048
O  O16  1  0.86411000  0.20949000  0.81517000  1.0 -0.4729948996
O  O17  1  0.25458000  0.73376000  0.68227000  1.0 -0.5293384327
O  O18  1  0.37399000  0.87929000  0.71627000  1.0 -0.5042818061
O  O19  1  0.08174000  0.71166000  0.30402000  1.0 -0.441587048
O  O20  1  0.20949000  0.86411000  0.31517000  1.0 -0.4729948996
O  O21  1  0.26624000  0.74542000  0.81773000  1.0 -0.5293384327
O  O22  1  0.12071000  0.62601000  0.78373000  1.0 -0.5042818061
O  O23  1  0.28834000  0.91826000  0.19598000  1.0 -0.441587048
O  O24  1  0.13589000  0.79051000  0.18483000  1.0 -0.4729948996
O  O25  1  0.25458000  0.73376000  0.31773000  1.0 -0.5293384327
O  O26  1  0.37399000  0.87929000  0.28373000  1.0 -0.5042818061
O  O27  1  0.08174000  0.71166000  0.69598000  1.0 -0.441587048
O  O28  1  0.20949000  0.86411000  0.68483000  1.0 -0.4729948996
O  O29  1  0.26624000  0.74542000  0.18227000  1.0 -0.5293384327
O  O30  1  0.12071000  0.62601000  0.21627000  1.0 -0.5042818061
O  O31  1  0.28834000  0.91826000  0.80402000  1.0 -0.441587048
O  O32  1  0.13589000  0.79051000  0.81517000  1.0 -0.4729948996
